AV-unprocessed.smi:955|AV-procd|sdf|4259|dock1
  -GOLD-   22720 2163D 1   1.00000     0.00000
 Structure written by MMmdl.
 29 29  0  0  0  0  0  0  0  0  1 V2000
  149.1292  140.6405  157.2129 C   0  0  0  0  0  0  0  0  0  0  0  0
  150.4873  139.9891  157.5219 C   0  0  2  0  0  0  0  0  0  0  0  0
  151.3035  140.9713  158.2317 N   0  0  0  0  0  0  0  0  0  0  0  0
  152.5900  140.8096  158.5839 C   0  0  0  0  0  0  0  0  0  0  0  0
  153.2253  139.7828  158.3398 O   0  0  0  0  0  0  0  0  0  0  0  0
  153.2535  141.9969  159.3057 C   0  0  2  0  0  0  0  0  0  0  0  0
  153.6631  141.6722  160.7570 C   0  0  0  0  0  0  0  0  0  0  0  0
  152.4124  143.1878  159.2345 N   0  0  0  0  0  0  0  0  0  0  0  0
  152.1090  144.0742  160.2483 C   0  0  0  0  0  0  0  0  0  0  0  0
  151.3202  145.0532  159.7159 C   0  0  0  0  0  0  0  0  0  0  0  0
  151.1980  144.6817  158.3483 C   0  0  0  0  0  0  0  0  0  0  0  0
  151.8565  143.5708  158.0613 N   0  0  0  0  0  0  0  0  0  0  0  0
  151.1450  139.6083  156.1855 C   0  0  0  0  0  0  0  0  0  0  0  0
  151.4894  138.3282  156.0280 N   0  0  0  0  0  0  0  0  0  0  0  0
  151.3252  140.4467  155.3029 O   0  0  0  0  0  0  0  0  0  0  0  0
  148.4701  139.9522  156.6822 H   0  0  0  0  0  0  0  0  0  0  0  0
  149.2369  141.5377  156.6012 H   0  0  0  0  0  0  0  0  0  0  0  0
  148.6206  140.9297  158.1331 H   0  0  0  0  0  0  0  0  0  0  0  0
  150.3377  139.1014  158.1399 H   0  0  0  0  0  0  0  0  0  0  0  0
  150.8583  141.8477  158.4615 H   0  0  0  0  0  0  0  0  0  0  0  0
  154.1692  142.2191  158.7556 H   0  0  0  0  0  0  0  0  0  0  0  0
  154.3599  140.8343  160.7922 H   0  0  0  0  0  0  0  0  0  0  0  0
  152.8029  141.4135  161.3757 H   0  0  0  0  0  0  0  0  0  0  0  0
  154.1584  142.5257  161.2206 H   0  0  0  0  0  0  0  0  0  0  0  0
  152.4773  143.9369  161.2545 H   0  0  0  0  0  0  0  0  0  0  0  0
  150.8977  145.9065  160.2252 H   0  0  0  0  0  0  0  0  0  0  0  0
  150.6574  145.1848  157.5602 H   0  0  0  0  0  0  0  0  0  0  0  0
  151.9209  138.0248  155.1672 H   0  0  0  0  0  0  0  0  0  0  0  0
  151.3126  137.6671  156.7704 H   0  0  0  0  0  0  0  0  0  0  0  0
  1  2  1  0  0  0  0
  1 16  1  0  0  0  0
  1 17  1  0  0  0  0
  1 18  1  0  0  0  0
  2  3  1  0  0  0  0
  2 13  1  0  0  0  0
  2 19  1  0  0  0  0
  3  4  1  0  0  0  0
  3 20  1  0  0  0  0
  4  5  2  0  0  0  0
  4  6  1  0  0  0  0
  6  7  1  0  0  0  0
  6  8  1  0  0  0  0
  6 21  1  0  0  0  0
  7 22  1  0  0  0  0
  7 23  1  0  0  0  0
  7 24  1  0  0  0  0
  8 12  1  0  0  0  0
  8  9  1  0  0  0  0
  9 10  2  0  0  0  0
  9 25  1  0  0  0  0
 10 11  1  0  0  0  0
 10 26  1  0  0  0  0
 11 12  2  0  0  0  0
 11 27  1  0  0  0  0
 13 14  1  0  0  0  0
 13 15  2  0  0  0  0
 14 28  1  0  0  0  0
 14 29  1  0  0  0  0
M  END
> <s_m_source_file>
AV-unprocessed.smi

> <i_m_source_file_index>
955

> <i_lp_mmshare_version>
43012

> <i_f3d_flags>
0

> <s_epik_input>
W05IMl1DKD1PKVtDQEhdKFtDSDNdKVtOSF1DKD1PKVtDQEhdKFtDSDNdKW4xW2NIXVtjSF1bY0hdbjE=

> <s_epik_cmdline>
J2VwaWtfcHl0aG9uJywgJy1waCcsICc3LjAnLCAnLXRuJywgJzgnLCAnLW1hJywgJzIwMCcsICctbWV0YWxfYmluZGluZycsICctaW1hZScsICc8aW5maWxlLm1hZT4nLCAnLW9tYWUnLCAnPG91dGZpbGUubWFlPic=

> <r_lp_tautomer_probability>
1

> <r_epik_Ionization_Penalty>
2.8146e-05

> <r_epik_Ionization_Penalty_Charging>
0

> <r_epik_Ionization_Penalty_Neutral>
2.8146e-05

> <r_epik_State_Penalty>
-0

> <r_epik_Charging_Adjusted_Penalty>
0

> <i_epik_Tot_Q>
0

> <i_epik_Tot_abs_Q>
0

> <r_epik_Metal_State_Penalty>
-0

> <b_epik_Metal_Only>
0

> <s_lp_Force_Field>
OPLS_2005

> <r_lp_Energy>
4.37159

> <b_lp_Chiralities_Consistent>
1

> <s_lp_Variant>
AV-unprocessed.smi:955-1

> <Gold.Version>
5.8.1

> <Gold.Id.Protein>
6NUR|6NUR_protein|mol2

> <Gold.PLP.Fitness>
39.4431

> <Gold.PLP.PLP>
-31.3554

> <Gold.PLP.part.hbond>
-2.0000

> <Gold.PLP.part.metal>
0.0000

> <Gold.PLP.part.buried>
-5.1342

> <Gold.PLP.part.nonpolar>
-24.7051

> <Gold.PLP.part.repulsive>
0.2772

> <Gold.PLP.ligand.clash>
0.0000

> <Gold.PLP.ligand.torsion>
0.4111

> <Gold.PLP.Chemscore.Hbond>
1.9600

> <Gold.PLP.Chemscore.CHOScore>
0.9576

> <Gold.PLP.Chemscore.Metal>
0.0000

> <Gold.Chemscore.Hbonds>
donor molecule, donor type, donor heavy atom, donor atom, acceptor molecule, acceptor atom, score
      P1  H  7989  7998       L1    15  0.93
      P1  H  7997  8009       L1     5  1.00
      L1  C    11    27       P1  8028  0.69
      L1  C    11    27       P1  8029  0.04

> <Gold.PLP.Chemscore.Internal.Correction>
0.1571

> <Gold.Rescore>
     Score         DG    S(hbond)    S(metal)    S(lipo)     H(rot)  DE(clash)    DE(int)     intcor
     11.35     -12.99       1.84        0.00      61.94       2.30       0.03       1.61       ----

> <Gold.Chemscore.Fitness>
11.3507

> <Gold.Chemscore.DG>
-12.9918

> <Gold.Chemscore.ZeroCoef>
-5.4800

> <Gold.Chemscore.Hbond>
1.8401

> <Gold.Chemscore.Metal>
0.0000

> <Gold.Chemscore.Lipo>
61.9376

> <Gold.Chemscore.Internal_Hbond>
0.0000

> <Gold.Chemscore.DEClash>
0.0289

> <Gold.Chemscore.DEInternal>
1.6122

> <Gold.Chemscore.Rot>
2.2972

> <Gold.Chemscore.Internal.Correction>
   9.000000E+99

> <Gold.Chemscore.Hbonds>
donor molecule, donor type, donor heavy atom, donor atom, acceptor molecule, acceptor atom, score
      P1  H  7989  7998       L1    15  0.90
      P1  H  7997  8009       L1     5  0.81

> <Gold.Chemscore.Hbond.Weighted>
-6.1461

> <Gold.Chemscore.Metal.Weighted>
-0.0000

> <Gold.Chemscore.Lipo.Weighted>
-7.2467

> <Gold.Chemscore.Internal_Hbond.Weighted>
0.0000

> <Gold.Chemscore.DEClash.Weighted>
0.0289

> <Gold.Chemscore.DEInternal.Weighted>
1.6122

> <Gold.Chemscore.Rot.Weighted>
5.8809

> <Gold.Chemscore.Internal.Correction.Weighted>
   9.000000E+99

> <Gold.Protein.RotatedTorsions>
[ 6907 6896 6895 6894 ] final   70.93 input  -60.11 | X-H torsion
[ 7974 7965 7964 7962 ] final  -60.14 input  175.53 | X-H torsion
[ 8008 7997 7996 7995 ] final  159.81 input   59.86 | X-H torsion
[ 10167 10162 10161 10158 ] final -118.73 input  -65.29 | X-H torsion
[ 10718 10713 10712 10709 ] final  172.97 input   66.30 | X-H torsion
[ 10763 10752 10751 10750 ] final  -25.83 input  -60.55 | X-H torsion
[ 11005 11000 10999 10996 ] final   81.36 input  -57.11 | X-H torsion

> <Gold.Protein.ActiveResidues>
 VAL166  LYS551  ARG553  GLY616  TRP617  ASP618  TYR619  PRO620  LYS621  CYS622 
 ASP623  PHE694  ASN695  SER759  ASP760  ASP761  ALA762  ILE779  LEU786  VAL792 
 PHE793  MET794  SER795  GLU796  ALA797  LYS798  CYS799  TRP800  GLU811  SER814 

> <Gold.Protein.RotatedAtoms>
  152.4779  134.4796  159.9661 H   0  0  0  0  0  0  0  0  0  0  0  0  # atno 6907 bound_to 6896
  151.4808  133.3541  159.2846 H   0  0  0  0  0  0  0  0  0  0  0  0  # atno 6908 bound_to 6896
  150.8830  134.8251  159.7300 H   0  0  0  0  0  0  0  0  0  0  0  0  # atno 6909 bound_to 6896
  145.8190  140.8552  143.0142 H   0  0  0  0  0  0  0  0  0  0  0  0  # atno 7974 bound_to 7965
  156.2214  140.1821  156.7467 H   0  0  0  0  0  0  0  0  0  0  0  0  # atno 8008 bound_to 7997
  154.5871  140.0656  156.9216 H   0  0  0  0  0  0  0  0  0  0  0  0  # atno 8009 bound_to 7997
  155.2400  140.3321  155.4296 H   0  0  0  0  0  0  0  0  0  0  0  0  # atno 8010 bound_to 7997
  140.0543  143.5030  152.2065 H   0  0  0  0  0  0  0  0  0  0  0  0  # atno 10167 bound_to 10162
  156.9711  131.0090  151.2905 H   0  0  0  0  0  0  0  0  0  0  0  0  # atno 10718 bound_to 10713
  153.7061  135.6953  153.5050 H   0  0  0  0  0  0  0  0  0  0  0  0  # atno 10763 bound_to 10752
  153.2306  135.4339  155.0590 H   0  0  0  0  0  0  0  0  0  0  0  0  # atno 10764 bound_to 10752
  154.8329  135.3483  154.6599 H   0  0  0  0  0  0  0  0  0  0  0  0  # atno 10765 bound_to 10752
  139.9101  134.7991  156.2031 H   0  0  0  0  0  0  0  0  0  0  0  0  # atno 11005 bound_to 11000
  144.6749  140.0506  143.7479 LP  0  0  0  0  0  0  0  0  0  0  0  0  # atno 17320 bound_to 7965
  145.9695  139.2859  143.1107 LP  0  0  0  0  0  0  0  0  0  0  0  0  # atno 17321 bound_to 7965
  139.5933  144.7558  151.3346 LP  0  0  0  0  0  0  0  0  0  0  0  0  # atno 17342 bound_to 10162
  140.7202  143.7156  150.7735 LP  0  0  0  0  0  0  0  0  0  0  0  0  # atno 17343 bound_to 10162
  157.5592  130.8234  149.8243 LP  0  0  0  0  0  0  0  0  0  0  0  0  # atno 17370 bound_to 10713
  156.0282  130.3773  150.1762 LP  0  0  0  0  0  0  0  0  0  0  0  0  # atno 17371 bound_to 10713
  141.0512  133.6888  156.1776 LP  0  0  0  0  0  0  0  0  0  0  0  0  # atno 17394 bound_to 11000
  140.6807  134.4770  157.5589 LP  0  0  0  0  0  0  0  0  0  0  0  0  # atno 17395 bound_to 11000

$$$$
