AV-unprocessed.smi:1512|AV-procd|sdf|6100|dock10
  -GOLD-   22720 6233D 1   1.00000     0.00000
 Structure written by MMmdl.
 44 46  0  0  0  0  0  0  0  0  3 V2000
  144.6227  135.2744  153.4550 C   0  0  0  0  0  0  0  0  0  0  0  0
  145.8695  135.3074  152.5558 C   0  0  2  0  0  0  0  0  0  0  0  0
  146.1625  136.7033  152.2333 N   0  0  0  0  0  0  0  0  0  0  0  0
  146.3130  137.7030  153.1165 C   0  0  0  0  0  0  0  0  0  0  0  0
  146.2403  137.5480  154.3363 O   0  0  0  0  0  0  0  0  0  0  0  0
  146.6170  139.0836  152.5177 C   0  0  0  0  0  0  0  0  0  0  0  0
  147.1711  140.0335  153.4980 N   0  0  0  0  0  0  0  0  0  0  0  0
  146.4200  141.1961  153.7524 C   0  0  0  0  0  0  0  0  0  0  0  0
  146.8313  142.1293  154.6224 C   0  0  0  0  0  0  0  0  0  0  0  0
  148.0857  141.9218  155.3040 C   0  0  0  0  0  0  0  0  0  0  0  0
  148.8284  140.8150  155.0716 C   0  0  0  0  0  0  0  0  0  0  0  0
  150.0800  140.6747  155.7802 N   0  3  0  0  0  0  0  0  0  0  0  0
  150.9678  139.9869  155.2854 O   0  0  0  0  0  0  0  0  0  0  0  0
  150.2163  141.2612  156.8496 O   0  5  0  0  0  0  0  0  0  0  0  0
  148.3654  139.7833  154.1201 C   0  0  0  0  0  0  0  0  0  0  0  0
  148.9981  138.7499  153.8938 O   0  0  0  0  0  0  0  0  0  0  0  0
  145.6823  134.4806  151.2587 C   0  0  2  0  0  0  0  0  0  0  0  0
  144.3430  134.7651  150.5351 C   0  0  0  0  0  0  0  0  0  0  0  0
  143.7188  133.3676  150.3766 C   0  0  1  0  0  0  0  0  0  0  0  0
  144.5271  132.5553  149.3490 C   0  0  0  0  0  0  0  0  0  0  0  0
  145.8255  132.2415  150.1146 C   0  0  0  0  0  0  0  0  0  0  0  0
  145.6022  132.9453  151.4671 C   0  0  2  0  0  0  0  0  0  0  0  0
  144.1128  132.7060  151.6902 C   0  0  0  0  0  0  0  0  0  0  0  0
  144.3813  134.2603  153.7728 H   0  0  0  0  0  0  0  0  0  0  0  0
  143.7500  135.6762  152.9392 H   0  0  0  0  0  0  0  0  0  0  0  0
  144.7766  135.8670  154.3575 H   0  0  0  0  0  0  0  0  0  0  0  0
  146.6942  134.8768  153.1257 H   0  0  0  0  0  0  0  0  0  0  0  0
  146.2492  136.9288  151.2530 H   0  0  0  0  0  0  0  0  0  0  0  0
  147.3072  138.9456  151.6841 H   0  0  0  0  0  0  0  0  0  0  0  0
  145.7094  139.4929  152.0695 H   0  0  0  0  0  0  0  0  0  0  0  0
  145.4985  141.2816  153.1950 H   0  0  0  0  0  0  0  0  0  0  0  0
  146.2428  143.0172  154.8025 H   0  0  0  0  0  0  0  0  0  0  0  0
  148.4309  142.6750  155.9974 H   0  0  0  0  0  0  0  0  0  0  0  0
  146.5156  134.7089  150.5922 H   0  0  0  0  0  0  0  0  0  0  0  0
  143.6858  135.3914  151.1394 H   0  0  0  0  0  0  0  0  0  0  0  0
  144.4874  135.2674  149.5779 H   0  0  0  0  0  0  0  0  0  0  0  0
  142.6478  133.3881  150.1737 H   0  0  0  0  0  0  0  0  0  0  0  0
  144.0064  131.6343  149.0839 H   0  0  0  0  0  0  0  0  0  0  0  0
  144.7087  133.1149  148.4306 H   0  0  0  0  0  0  0  0  0  0  0  0
  145.9355  131.1653  150.2540 H   0  0  0  0  0  0  0  0  0  0  0  0
  146.7147  132.6020  149.5962 H   0  0  0  0  0  0  0  0  0  0  0  0
  146.2479  132.5546  152.2530 H   0  0  0  0  0  0  0  0  0  0  0  0
  143.7161  133.2147  152.5702 H   0  0  0  0  0  0  0  0  0  0  0  0
  143.8464  131.6487  151.7395 H   0  0  0  0  0  0  0  0  0  0  0  0
  1  2  1  0  0  0  0
  1 24  1  0  0  0  0
  1 25  1  0  0  0  0
  1 26  1  0  0  0  0
  2  3  1  0  0  0  0
  2 17  1  0  0  0  0
  2 27  1  0  0  0  0
  3  4  1  0  0  0  0
  3 28  1  0  0  0  0
  4  5  2  0  0  0  0
  4  6  1  0  0  0  0
  6  7  1  0  0  0  0
  6 29  1  0  0  0  0
  6 30  1  0  0  0  0
  7 15  1  0  0  0  0
  7  8  1  0  0  0  0
  8  9  2  0  0  0  0
  8 31  1  0  0  0  0
  9 10  1  0  0  0  0
  9 32  1  0  0  0  0
 10 11  2  0  0  0  0
 10 33  1  0  0  0  0
 11 12  1  0  0  0  0
 11 15  1  0  0  0  0
 12 13  2  0  0  0  0
 12 14  1  0  0  0  0
 15 16  2  0  0  0  0
 17 22  1  0  0  0  0
 17 18  1  0  0  0  0
 17 34  1  0  0  0  0
 18 19  1  0  0  0  0
 18 35  1  0  0  0  0
 18 36  1  0  0  0  0
 19 23  1  0  0  0  0
 19 20  1  0  0  0  0
 19 37  1  0  0  0  0
 20 21  1  0  0  0  0
 20 38  1  0  0  0  0
 20 39  1  0  0  0  0
 21 22  1  0  0  0  0
 21 40  1  0  0  0  0
 21 41  1  0  0  0  0
 22 23  1  0  0  0  0
 22 42  1  0  0  0  0
 23 43  1  0  0  0  0
 23 44  1  0  0  0  0
M  CHG  1  12   1
M  CHG  1  14  -1
M  END
> <s_m_source_file>
AV-unprocessed.smi

> <i_m_source_file_index>
1512

> <i_lp_mmshare_version>
43012

> <i_f3d_flags>
0

> <s_epik_input>
W0NIMl0xW0NIMl1bQ0BIXShbQ0gyXTIpW0NAQEhdKFtDSDJdW0NAQEhdMTIpW0NASF0oW0NIM10pW05IXUMoPU8pW0NIMl1uM1tjSF1bY0hdW2NIXWMoW04rXSg9TylbTy1dKWMzPU8=

> <s_epik_cmdline>
J2VwaWtfcHl0aG9uJywgJy1waCcsICc3LjAnLCAnLXRuJywgJzgnLCAnLW1hJywgJzIwMCcsICctbWV0YWxfYmluZGluZycsICctaW1hZScsICc8aW5maWxlLm1hZT4nLCAnLW9tYWUnLCAnPG91dGZpbGUubWFlPic=

> <r_lp_tautomer_probability>
1

> <r_epik_Ionization_Penalty>
2.17697e-08

> <r_epik_Ionization_Penalty_Charging>
1.42735e-10

> <r_epik_Ionization_Penalty_Neutral>
2.16269e-08

> <r_epik_State_Penalty>
-0

> <r_epik_Charging_Adjusted_Penalty>
1.42735e-10

> <i_epik_Tot_Q>
0

> <i_epik_Tot_abs_Q>
2

> <r_epik_Metal_State_Penalty>
-0

> <b_epik_Metal_Only>
0

> <s_lp_Force_Field>
OPLS_2005

> <r_lp_Energy>
64.3974

> <b_lp_Chiralities_Consistent>
1

> <s_lp_Variant>
AV-unprocessed.smi:1512-1

> <Gold.Version>
5.8.1

> <Gold.Id.Protein>
6NUR|6NUR_protein|mol2

> <Gold.PLP.Fitness>
43.2617

> <Gold.PLP.PLP>
-38.6332

> <Gold.PLP.part.hbond>
-2.0000

> <Gold.PLP.part.metal>
0.0000

> <Gold.PLP.part.buried>
-0.0667

> <Gold.PLP.part.nonpolar>
-37.9140

> <Gold.PLP.part.repulsive>
1.8350

> <Gold.PLP.ligand.clash>
0.0000

> <Gold.PLP.ligand.torsion>
0.6585

> <Gold.PLP.Chemscore.Hbond>
1.0000

> <Gold.PLP.Chemscore.CHOScore>
0.9695

> <Gold.PLP.Chemscore.Metal>
0.0000

> <Gold.Chemscore.Hbonds>
donor molecule, donor type, donor heavy atom, donor atom, acceptor molecule, acceptor atom, score
      P1  H  7989  7998       L1    13  0.83
      L1  C     8    31       P1 10175  0.87

> <Gold.PLP.Chemscore.Internal.Correction>
0.0370

> <Gold.Rescore>
     Score         DG    S(hbond)    S(metal)    S(lipo)     H(rot)  DE(clash)    DE(int)     intcor
      9.81     -14.64       0.95        0.00      89.54       1.75       1.50       3.34       ----

> <Gold.Chemscore.Fitness>
9.8063

> <Gold.Chemscore.DG>
-14.6409

> <Gold.Chemscore.ZeroCoef>
-5.4800

> <Gold.Chemscore.Hbond>
0.9457

> <Gold.Chemscore.Metal>
0.0000

> <Gold.Chemscore.Lipo>
89.5363

> <Gold.Chemscore.Internal_Hbond>
0.0000

> <Gold.Chemscore.DEClash>
1.4951

> <Gold.Chemscore.DEInternal>
3.3395

> <Gold.Chemscore.Rot>
1.7474

> <Gold.Chemscore.Internal.Correction>
   9.000000E+99

> <Gold.Chemscore.Hbonds>
donor molecule, donor type, donor heavy atom, donor atom, acceptor molecule, acceptor atom, score
      P1  H  7989  7998       L1    13  0.60

> <Gold.Chemscore.Hbond.Weighted>
-3.1585

> <Gold.Chemscore.Metal.Weighted>
-0.0000

> <Gold.Chemscore.Lipo.Weighted>
-10.4757

> <Gold.Chemscore.Internal_Hbond.Weighted>
0.0000

> <Gold.Chemscore.DEClash.Weighted>
1.4951

> <Gold.Chemscore.DEInternal.Weighted>
3.3395

> <Gold.Chemscore.Rot.Weighted>
4.4733

> <Gold.Chemscore.Internal.Correction.Weighted>
   9.000000E+99

> <Gold.Protein.RotatedTorsions>
[ 6907 6896 6895 6894 ] final  -78.05 input  -60.11 | X-H torsion
[ 7974 7965 7964 7962 ] final  -88.71 input  175.53 | X-H torsion
[ 8008 7997 7996 7995 ] final -132.74 input   59.86 | X-H torsion
[ 10167 10162 10161 10158 ] final  -15.97 input  -65.29 | X-H torsion
[ 10718 10713 10712 10709 ] final  -31.24 input   66.30 | X-H torsion
[ 10763 10752 10751 10750 ] final  165.42 input  -60.55 | X-H torsion
[ 11005 11000 10999 10996 ] final  -76.81 input  -57.11 | X-H torsion

> <Gold.Protein.ActiveResidues>
 VAL166  LYS551  ARG553  GLY616  TRP617  ASP618  TYR619  PRO620  LYS621  CYS622 
 ASP623  PHE694  ASN695  SER759  ASP760  ASP761  ALA762  ILE779  LEU786  VAL792 
 PHE793  MET794  SER795  GLU796  ALA797  LYS798  CYS799  TRP800  GLU811  SER814 

> <Gold.Protein.RotatedAtoms>
  150.6982  134.4330  159.5256 H   0  0  0  0  0  0  0  0  0  0  0  0  # atno 6907 bound_to 6896
  152.2053  134.8548  160.0512 H   0  0  0  0  0  0  0  0  0  0  0  0  # atno 6908 bound_to 6896
  151.9453  133.3615  159.4017 H   0  0  0  0  0  0  0  0  0  0  0  0  # atno 6909 bound_to 6896
  145.4496  140.9560  143.2030 H   0  0  0  0  0  0  0  0  0  0  0  0  # atno 7974 bound_to 7965
  155.3339  140.0468  157.3043 H   0  0  0  0  0  0  0  0  0  0  0  0  # atno 8008 bound_to 7997
  154.5313  140.2258  155.8765 H   0  0  0  0  0  0  0  0  0  0  0  0  # atno 8009 bound_to 7997
  156.1791  140.3078  155.9121 H   0  0  0  0  0  0  0  0  0  0  0  0  # atno 8010 bound_to 7997
  140.7227  143.5164  150.9687 H   0  0  0  0  0  0  0  0  0  0  0  0  # atno 10167 bound_to 10162
  156.3898  130.4371  149.7403 H   0  0  0  0  0  0  0  0  0  0  0  0  # atno 10718 bound_to 10713
  154.3237  135.2755  155.2507 H   0  0  0  0  0  0  0  0  0  0  0  0  # atno 10763 bound_to 10752
  154.4849  135.5849  153.6420 H   0  0  0  0  0  0  0  0  0  0  0  0  # atno 10764 bound_to 10752
  152.9874  135.6120  154.3424 H   0  0  0  0  0  0  0  0  0  0  0  0  # atno 10765 bound_to 10752
  141.1656  133.6998  156.7725 H   0  0  0  0  0  0  0  0  0  0  0  0  # atno 11005 bound_to 11000
  144.8070  139.6033  143.7046 LP  0  0  0  0  0  0  0  0  0  0  0  0  # atno 17320 bound_to 7965
  146.2512  139.6203  142.9426 LP  0  0  0  0  0  0  0  0  0  0  0  0  # atno 17321 bound_to 7965
  139.8879  143.6989  152.3149 LP  0  0  0  0  0  0  0  0  0  0  0  0  # atno 17342 bound_to 10162
  139.7295  144.7585  151.0825 LP  0  0  0  0  0  0  0  0  0  0  0  0  # atno 17343 bound_to 10162
  156.4461  130.7884  151.2906 LP  0  0  0  0  0  0  0  0  0  0  0  0  # atno 17370 bound_to 10713
  157.7498  131.0110  150.3327 LP  0  0  0  0  0  0  0  0  0  0  0  0  # atno 17371 bound_to 10713
  140.2454  134.8582  157.3614 LP  0  0  0  0  0  0  0  0  0  0  0  0  # atno 17394 bound_to 11000
  140.1755  134.4555  155.7804 LP  0  0  0  0  0  0  0  0  0  0  0  0  # atno 17395 bound_to 11000

$$$$
