AV-unprocessed.smi:1579|AV-procd|sdf|6357|dock6
  -GOLD-   22720 6583D 1   1.00000     0.00000
 Structure written by MMmdl.
 47 48  0  0  0  0  0  0  0  0  2 V2000
  148.0006  131.0962  159.6325 C   0  0  0  0  0  0  0  0  0  0  0  0
  148.2664  132.4999  159.1588 C   0  0  0  0  0  0  0  0  0  0  0  0
  148.8390  132.6255  158.0065 N   0  0  0  0  0  0  0  0  0  0  0  0
  149.1243  133.8681  157.4776 N   0  0  0  0  0  0  0  0  0  0  0  0
  149.7681  133.8214  156.1594 C   0  0  0  0  0  0  0  0  0  0  0  0
  148.8982  134.4762  155.0635 C   0  0  1  0  0  0  0  0  0  0  0  0
  149.6692  135.4749  154.4244 O   0  0  0  0  0  0  0  0  0  0  0  0
  148.4834  133.4528  153.9866 C   0  0  0  0  0  0  0  0  0  0  0  0
  147.5797  134.0341  152.9605 N   0  3  2  0  0  0  0  0  0  0  0  0
  146.3936  134.7193  153.5405 C   0  0  0  0  0  0  0  0  0  0  0  0
  145.5630  135.4143  152.4468 C   0  0  0  0  0  0  0  0  0  0  0  0
  145.1324  134.4409  151.3347 C   0  0  2  0  0  0  0  0  0  0  0  0
  144.0085  133.4882  151.7789 C   0  0  0  0  0  0  0  0  0  0  0  0
  146.3694  133.6957  150.8016 C   0  0  0  0  0  0  0  0  0  0  0  0
  147.1859  133.0394  151.9299 C   0  0  0  0  0  0  0  0  0  0  0  0
  148.8508  135.0554  158.0905 C   0  0  0  0  0  0  0  0  0  0  0  0
  149.1360  136.1419  157.5838 O   0  0  0  0  0  0  0  0  0  0  0  0
  148.2020  134.9066  159.3950 C   0  0  0  0  0  0  0  0  0  0  0  0
  147.8941  136.1259  160.0701 C   0  0  0  0  0  0  0  0  0  0  0  0
  147.6275  137.1064  160.6245 N   0  0  0  0  0  0  0  0  0  0  0  0
  147.9150  133.6913  159.9252 C   0  0  0  0  0  0  0  0  0  0  0  0
  147.2437  133.4821  161.2758 C   0  0  0  0  0  0  0  0  0  0  0  0
  146.9401  130.9504  159.8385 H   0  0  0  0  0  0  0  0  0  0  0  0
  148.5558  130.8852  160.5468 H   0  0  0  0  0  0  0  0  0  0  0  0
  148.2956  130.3531  158.8901 H   0  0  0  0  0  0  0  0  0  0  0  0
  150.7594  134.2790  156.1889 H   0  0  0  0  0  0  0  0  0  0  0  0
  149.9552  132.7757  155.9076 H   0  0  0  0  0  0  0  0  0  0  0  0
  148.0172  134.9363  155.5091 H   0  0  0  0  0  0  0  0  0  0  0  0
  149.2039  135.7672  153.6548 H   0  0  0  0  0  0  0  0  0  0  0  0
  149.3870  133.0669  153.5116 H   0  0  0  0  0  0  0  0  0  0  0  0
  147.9922  132.5921  154.4435 H   0  0  0  0  0  0  0  0  0  0  0  0
  145.7814  133.9975  154.0827 H   0  0  0  0  0  0  0  0  0  0  0  0
  146.7049  135.4673  154.2684 H   0  0  0  0  0  0  0  0  0  0  0  0
  144.6892  135.8951  152.8881 H   0  0  0  0  0  0  0  0  0  0  0  0
  146.1585  136.2164  152.0082 H   0  0  0  0  0  0  0  0  0  0  0  0
  144.7261  135.0351  150.5150 H   0  0  0  0  0  0  0  0  0  0  0  0
  144.3149  132.8429  152.6019 H   0  0  0  0  0  0  0  0  0  0  0  0
  143.6950  132.8449  150.9565 H   0  0  0  0  0  0  0  0  0  0  0  0
  143.1316  134.0464  152.1081 H   0  0  0  0  0  0  0  0  0  0  0  0
  146.0722  132.9452  150.0683 H   0  0  0  0  0  0  0  0  0  0  0  0
  147.0084  134.4012  150.2683 H   0  0  0  0  0  0  0  0  0  0  0  0
  148.0793  132.5853  151.4992 H   0  0  0  0  0  0  0  0  0  0  0  0
  146.6182  132.2329  152.3962 H   0  0  0  0  0  0  0  0  0  0  0  0
  147.0660  134.4214  161.7985 H   0  0  0  0  0  0  0  0  0  0  0  0
  147.8652  132.8623  161.9224 H   0  0  0  0  0  0  0  0  0  0  0  0
  146.2795  132.9889  161.1496 H   0  0  0  0  0  0  0  0  0  0  0  0
  148.1217  134.7369  152.4775 H   0  0  0  0  0  0  0  0  0  0  0  0
  1  2  1  0  0  0  0
  1 23  1  0  0  0  0
  1 24  1  0  0  0  0
  1 25  1  0  0  0  0
  2 21  1  0  0  0  0
  2  3  2  0  0  0  0
  3  4  1  0  0  0  0
  4  5  1  0  0  0  0
  4 16  1  0  0  0  0
  5  6  1  0  0  0  0
  5 26  1  0  0  0  0
  5 27  1  0  0  0  0
  6  7  1  0  0  0  0
  6  8  1  0  0  0  0
  6 28  1  0  0  0  0
  7 29  1  0  0  0  0
  8  9  1  0  0  0  0
  8 30  1  0  0  0  0
  8 31  1  0  0  0  0
  9 15  1  0  0  0  0
  9 10  1  0  0  0  0
  9 47  1  0  0  0  0
 10 11  1  0  0  0  0
 10 32  1  0  0  0  0
 10 33  1  0  0  0  0
 11 12  1  0  0  0  0
 11 34  1  0  0  0  0
 11 35  1  0  0  0  0
 12 13  1  0  0  0  0
 12 14  1  0  0  0  0
 12 36  1  0  0  0  0
 13 37  1  0  0  0  0
 13 38  1  0  0  0  0
 13 39  1  0  0  0  0
 14 15  1  0  0  0  0
 14 40  1  0  0  0  0
 14 41  1  0  0  0  0
 15 42  1  0  0  0  0
 15 43  1  0  0  0  0
 16 17  2  0  0  0  0
 16 18  1  0  0  0  0
 18 19  1  0  0  0  0
 18 21  2  0  0  0  0
 19 20  3  0  0  0  0
 21 22  1  0  0  0  0
 22 44  1  0  0  0  0
 22 45  1  0  0  0  0
 22 46  1  0  0  0  0
M  CHG  1   9   1
M  END
> <s_m_source_file>
AV-unprocessed.smi

> <i_m_source_file_index>
1579

> <i_lp_mmshare_version>
43012

> <i_f3d_flags>
0

> <s_epik_input>
TiNDYyhjMVtDSDNdKWMoPU8pbihuYzFbQ0gzXSlbQ0gyXVtDQEhdKFtPSF0pW0NIMl1OMltDSDJdW0NIMl1bQ0hdKFtDSDNdKVtDSDJdW0NIMl0y

> <s_epik_cmdline>
J2VwaWtfcHl0aG9uJywgJy1waCcsICc3LjAnLCAnLXRuJywgJzgnLCAnLW1hJywgJzIwMCcsICctbWV0YWxfYmluZGluZycsICctaW1hZScsICc8aW5maWxlLm1hZT4nLCAnLW9tYWUnLCAnPG91dGZpbGUubWFlPic=

> <r_epik_Ionization_Penalty>
0.00136816

> <r_epik_Ionization_Penalty_Charging>
0.00136813

> <r_epik_Ionization_Penalty_Neutral>
3.19884e-08

> <r_epik_State_Penalty>
0.000910892

> <r_epik_Charging_Adjusted_Penalty>
0.00227902

> <i_epik_Tot_Q>
1

> <i_epik_Tot_abs_Q>
1

> <r_epik_Metal_State_Penalty>
-0

> <b_epik_Metal_Only>
0

> <s_lp_Force_Field>
OPLS_2005

> <r_lp_Energy>
39.3397

> <b_lp_Chiralities_Consistent>
1

> <s_lp_Variant>
AV-unprocessed.smi:1579-4

> <Gold.Version>
5.8.1

> <Gold.Id.Protein>
6NUR|6NUR_protein|mol2

> <Gold.PLP.Fitness>
42.0856

> <Gold.PLP.PLP>
-29.8773

> <Gold.PLP.part.hbond>
-4.1879

> <Gold.PLP.part.metal>
0.0000

> <Gold.PLP.part.buried>
-3.1270

> <Gold.PLP.part.nonpolar>
-23.0055

> <Gold.PLP.part.repulsive>
0.0000

> <Gold.PLP.ligand.clash>
0.0000

> <Gold.PLP.ligand.torsion>
0.7745

> <Gold.PLP.Chemscore.Hbond>
4.5771

> <Gold.PLP.Chemscore.CHOScore>
0.0000

> <Gold.PLP.Chemscore.Metal>
0.0000

> <Gold.Chemscore.Hbonds>
donor molecule, donor type, donor heavy atom, donor atom, acceptor molecule, acceptor atom, score
      L1  H     7    29       P1  7948  1.00
      L1  H     9    47       P1  7948  2.00
      P1  H  6931  6943       L1    20  0.44
      P1  H  6934  6947       L1    20  0.98

> <Gold.PLP.Chemscore.Internal.Correction>
0.0258

> <Gold.Rescore>
     Score         DG    S(hbond)    S(metal)    S(lipo)     H(rot)  DE(clash)    DE(int)     intcor
     18.40     -19.25       3.58        0.00      63.15       2.17       0.00       0.85       ----

> <Gold.Chemscore.Fitness>
18.3992

> <Gold.Chemscore.DG>
-19.2538

> <Gold.Chemscore.ZeroCoef>
-5.4800

> <Gold.Chemscore.Hbond>
3.5761

> <Gold.Chemscore.Metal>
0.0000

> <Gold.Chemscore.Lipo>
63.1502

> <Gold.Chemscore.Internal_Hbond>
0.0000

> <Gold.Chemscore.DEClash>
0.0015

> <Gold.Chemscore.DEInternal>
0.8531

> <Gold.Chemscore.Rot>
2.1715

> <Gold.Chemscore.Internal.Correction>
   9.000000E+99

> <Gold.Chemscore.Hbonds>
donor molecule, donor type, donor heavy atom, donor atom, acceptor molecule, acceptor atom, score
      L1  H     7    29       P1  7948  0.69
      L1  H     9    47       P1  7948  0.50
      P1  H  6931  6943       L1    20  0.44
      P1  H  6934  6947       L1    20  0.91

> <Gold.Chemscore.Hbond.Weighted>
-11.9443

> <Gold.Chemscore.Metal.Weighted>
-0.0000

> <Gold.Chemscore.Lipo.Weighted>
-7.3886

> <Gold.Chemscore.Internal_Hbond.Weighted>
0.0000

> <Gold.Chemscore.DEClash.Weighted>
0.0015

> <Gold.Chemscore.DEInternal.Weighted>
0.8531

> <Gold.Chemscore.Rot.Weighted>
5.5591

> <Gold.Chemscore.Internal.Correction.Weighted>
   9.000000E+99

> <Gold.Protein.RotatedTorsions>
[ 6907 6896 6895 6894 ] final  -19.11 input  -60.11 | X-H torsion
[ 7974 7965 7964 7962 ] final  -26.31 input  175.53 | X-H torsion
[ 8008 7997 7996 7995 ] final   24.65 input   59.86 | X-H torsion
[ 10167 10162 10161 10158 ] final  -22.90 input  -65.29 | X-H torsion
[ 10718 10713 10712 10709 ] final  173.15 input   66.30 | X-H torsion
[ 10763 10752 10751 10750 ] final -146.52 input  -60.55 | X-H torsion
[ 11005 11000 10999 10996 ] final -121.49 input  -57.11 | X-H torsion

> <Gold.Protein.ActiveResidues>
 VAL166  LYS551  ARG553  GLY616  TRP617  ASP618  TYR619  PRO620  LYS621  CYS622 
 ASP623  PHE694  ASN695  SER759  ASP760  ASP761  ALA762  ILE779  LEU786  VAL792 
 PHE793  MET794  SER795  GLU796  ALA797  LYS798  CYS799  TRP800  GLU811  SER814 

> <Gold.Protein.RotatedAtoms>
  151.2681  135.0676  159.9123 H   0  0  0  0  0  0  0  0  0  0  0  0  # atno 6907 bound_to 6896
  152.5355  134.0159  159.7970 H   0  0  0  0  0  0  0  0  0  0  0  0  # atno 6908 bound_to 6896
  151.0393  133.5670  159.2683 H   0  0  0  0  0  0  0  0  0  0  0  0  # atno 6909 bound_to 6896
  146.1433  140.5003  142.8642 H   0  0  0  0  0  0  0  0  0  0  0  0  # atno 7974 bound_to 7965
  154.9995  140.3123  155.4873 H   0  0  0  0  0  0  0  0  0  0  0  0  # atno 8008 bound_to 7997
  156.2927  140.2234  156.5045 H   0  0  0  0  0  0  0  0  0  0  0  0  # atno 8009 bound_to 7997
  154.7631  140.0457  157.0978 H   0  0  0  0  0  0  0  0  0  0  0  0  # atno 8010 bound_to 7997
  140.7287  143.4493  151.0541 H   0  0  0  0  0  0  0  0  0  0  0  0  # atno 10167 bound_to 10162
  156.9685  131.0083  151.2911 H   0  0  0  0  0  0  0  0  0  0  0  0  # atno 10718 bound_to 10713
  154.8332  135.3384  154.6674 H   0  0  0  0  0  0  0  0  0  0  0  0  # atno 10763 bound_to 10752
  153.7292  135.6953  153.4998 H   0  0  0  0  0  0  0  0  0  0  0  0  # atno 10764 bound_to 10752
  153.2325  135.4412  155.0562 H   0  0  0  0  0  0  0  0  0  0  0  0  # atno 10765 bound_to 10752
  141.0066  134.0325  157.3468 H   0  0  0  0  0  0  0  0  0  0  0  0  # atno 11005 bound_to 11000
  144.7818  140.5855  143.6600 LP  0  0  0  0  0  0  0  0  0  0  0  0  # atno 17320 bound_to 7965
  145.4995  139.1484  143.3665 LP  0  0  0  0  0  0  0  0  0  0  0  0  # atno 17321 bound_to 7965
  139.8167  143.7876  152.3174 LP  0  0  0  0  0  0  0  0  0  0  0  0  # atno 17342 bound_to 10162
  139.7944  144.7398  150.9910 LP  0  0  0  0  0  0  0  0  0  0  0  0  # atno 17343 bound_to 10162
  157.5609  130.8245  149.8264 LP  0  0  0  0  0  0  0  0  0  0  0  0  # atno 17370 bound_to 10713
  156.0292  130.3770  150.1735 LP  0  0  0  0  0  0  0  0  0  0  0  0  # atno 17371 bound_to 10713
  139.9067  135.0181  156.7516 LP  0  0  0  0  0  0  0  0  0  0  0  0  # atno 17394 bound_to 11000
  140.6802  133.9481  155.7906 LP  0  0  0  0  0  0  0  0  0  0  0  0  # atno 17395 bound_to 11000

$$$$
