AV-unprocessed.smi:1050|AV-procd|sdf|4613|dock4
  -GOLD-   22720 3113D 1   1.00000     0.00000
 Structure written by MMmdl.
 48 49  0  0  0  0  0  0  0  0  1 V2000
  151.2191  144.7882  160.0873 C   0  0  0  0  0  0  0  0  0  0  0  0
  152.1585  143.9919  160.8013 O   0  0  0  0  0  0  0  0  0  0  0  0
  152.4343  142.7256  160.3283 C   0  0  0  0  0  0  0  0  0  0  0  0
  153.5090  142.0128  160.8898 C   0  0  0  0  0  0  0  0  0  0  0  0
  153.7900  140.7216  160.4085 C   0  0  0  0  0  0  0  0  0  0  0  0
  152.9948  140.1814  159.3690 C   0  0  0  0  0  0  0  0  0  0  0  0
  153.1834  138.8671  158.8524 N   0  0  0  0  0  0  0  0  0  0  0  0
  154.3305  138.2085  158.6070 C   0  0  0  0  0  0  0  0  0  0  0  0
  155.4560  138.6612  158.8152 O   0  0  0  0  0  0  0  0  0  0  0  0
  154.1701  136.7979  158.0146 C   0  0  1  0  0  0  0  0  0  0  0  0
  152.8368  136.6475  157.2666 C   0  0  0  0  0  0  0  0  0  0  0  0
  155.2188  136.5233  157.0892 O   0  0  0  0  0  0  0  0  0  0  0  0
  156.5075  136.3526  157.6654 C   0  0  0  0  0  0  0  0  0  0  0  0
  151.9229  140.9698  158.8730 C   0  0  0  0  0  0  0  0  0  0  0  0
  151.0955  140.4843  157.8416 N   0  0  0  0  0  0  0  0  0  0  0  0
  151.7294  140.5031  156.5231 C   0  0  0  0  0  0  0  0  0  0  0  0
  150.8703  139.7427  155.4941 C   0  0  0  0  0  0  0  0  0  0  0  0
  149.5088  140.2941  155.5061 N   0  0  0  0  0  0  0  0  0  0  0  0
  148.9820  140.9771  154.4622 C   0  0  0  0  0  0  0  0  0  0  0  0
  147.5857  141.5883  154.5969 C   0  0  0  0  0  0  0  0  0  0  0  0
  149.5819  141.1329  153.3986 O   0  0  0  0  0  0  0  0  0  0  0  0
  148.8771  140.1239  156.8218 C   0  0  0  0  0  0  0  0  0  0  0  0
  149.6936  140.9059  157.8670 C   0  0  0  0  0  0  0  0  0  0  0  0
  151.6585  142.2113  159.3446 N   0  0  0  0  0  0  0  0  0  0  0  0
  151.1123  145.7523  160.5841 H   0  0  0  0  0  0  0  0  0  0  0  0
  150.2347  144.3184  160.0617 H   0  0  0  0  0  0  0  0  0  0  0  0
  151.5517  144.9779  159.0657 H   0  0  0  0  0  0  0  0  0  0  0  0
  154.1032  142.4454  161.6812 H   0  0  0  0  0  0  0  0  0  0  0  0
  154.5971  140.1666  160.8602 H   0  0  0  0  0  0  0  0  0  0  0  0
  152.3385  138.3989  158.5577 H   0  0  0  0  0  0  0  0  0  0  0  0
  154.1918  136.0574  158.8167 H   0  0  0  0  0  0  0  0  0  0  0  0
  151.9903  136.8647  157.9190 H   0  0  0  0  0  0  0  0  0  0  0  0
  152.7146  135.6291  156.8977 H   0  0  0  0  0  0  0  0  0  0  0  0
  152.7792  137.3163  156.4070 H   0  0  0  0  0  0  0  0  0  0  0  0
  157.2171  136.0740  156.8866 H   0  0  0  0  0  0  0  0  0  0  0  0
  156.5026  135.5575  158.4120 H   0  0  0  0  0  0  0  0  0  0  0  0
  156.8745  137.2675  158.1311 H   0  0  0  0  0  0  0  0  0  0  0  0
  151.8580  141.5396  156.2078 H   0  0  0  0  0  0  0  0  0  0  0  0
  152.7253  140.0617  156.5679 H   0  0  0  0  0  0  0  0  0  0  0  0
  151.3412  139.7935  154.5118 H   0  0  0  0  0  0  0  0  0  0  0  0
  150.8297  138.6832  155.7506 H   0  0  0  0  0  0  0  0  0  0  0  0
  147.5468  142.2874  155.4330 H   0  0  0  0  0  0  0  0  0  0  0  0
  146.8375  140.8099  154.7488 H   0  0  0  0  0  0  0  0  0  0  0  0
  147.3171  142.1368  153.6932 H   0  0  0  0  0  0  0  0  0  0  0  0
  147.8363  140.4414  156.8551 H   0  0  0  0  0  0  0  0  0  0  0  0
  148.8668  139.0629  157.0756 H   0  0  0  0  0  0  0  0  0  0  0  0
  149.2793  140.7409  158.8624 H   0  0  0  0  0  0  0  0  0  0  0  0
  149.6261  141.9751  157.6606 H   0  0  0  0  0  0  0  0  0  0  0  0
  1  2  1  0  0  0  0
  1 25  1  0  0  0  0
  1 26  1  0  0  0  0
  1 27  1  0  0  0  0
  2  3  1  0  0  0  0
  3 24  1  0  0  0  0
  3  4  2  0  0  0  0
  4  5  1  0  0  0  0
  4 28  1  0  0  0  0
  5  6  2  0  0  0  0
  5 29  1  0  0  0  0
  6  7  1  0  0  0  0
  6 14  1  0  0  0  0
  7  8  1  0  0  0  0
  7 30  1  0  0  0  0
  8  9  2  0  0  0  0
  8 10  1  0  0  0  0
 10 11  1  0  0  0  0
 10 12  1  0  0  0  0
 10 31  1  0  0  0  0
 11 32  1  0  0  0  0
 11 33  1  0  0  0  0
 11 34  1  0  0  0  0
 12 13  1  0  0  0  0
 13 35  1  0  0  0  0
 13 36  1  0  0  0  0
 13 37  1  0  0  0  0
 14 15  1  0  0  0  0
 14 24  2  0  0  0  0
 15 23  1  0  0  0  0
 15 16  1  0  0  0  0
 16 17  1  0  0  0  0
 16 38  1  0  0  0  0
 16 39  1  0  0  0  0
 17 18  1  0  0  0  0
 17 40  1  0  0  0  0
 17 41  1  0  0  0  0
 18 19  1  0  0  0  0
 18 22  1  0  0  0  0
 19 20  1  0  0  0  0
 19 21  2  0  0  0  0
 20 42  1  0  0  0  0
 20 43  1  0  0  0  0
 20 44  1  0  0  0  0
 22 23  1  0  0  0  0
 22 45  1  0  0  0  0
 22 46  1  0  0  0  0
 23 47  1  0  0  0  0
 23 48  1  0  0  0  0
M  END
> <s_m_source_file>
AV-unprocessed.smi

> <i_m_source_file_index>
1050

> <i_lp_mmshare_version>
43012

> <i_f3d_flags>
0

> <s_epik_input>
W0NIM11PYzFbY0hdW2NIXWMoW05IXUMoPU8pW0NASF0oW0NIM10pT1tDSDNdKWMobjEpTjJbQ0gyXVtDSDJdTihDKD1PKVtDSDNdKVtDSDJdW0NIMl0y

> <s_epik_cmdline>
J2VwaWtfcHl0aG9uJywgJy1waCcsICc3LjAnLCAnLXRuJywgJzgnLCAnLW1hJywgJzIwMCcsICctbWV0YWxfYmluZGluZycsICctaW1hZScsICc8aW5maWxlLm1hZT4nLCAnLW9tYWUnLCAnPG91dGZpbGUubWFlPic=

> <r_lp_tautomer_probability>
1

> <r_epik_Ionization_Penalty>
0.000150604

> <r_epik_Ionization_Penalty_Charging>
0

> <r_epik_Ionization_Penalty_Neutral>
0.000150604

> <r_epik_State_Penalty>
-0

> <r_epik_Charging_Adjusted_Penalty>
0

> <i_epik_Tot_Q>
0

> <i_epik_Tot_abs_Q>
0

> <r_epik_Metal_State_Penalty>
-0

> <b_epik_Metal_Only>
0

> <s_lp_Force_Field>
OPLS_2005

> <r_lp_Energy>
41.0836

> <b_lp_Chiralities_Consistent>
1

> <s_lp_Variant>
AV-unprocessed.smi:1050-2

> <Gold.Version>
5.8.1

> <Gold.Id.Protein>
6NUR|6NUR_protein|mol2

> <Gold.PLP.Fitness>
43.9042

> <Gold.PLP.PLP>
-38.2307

> <Gold.PLP.part.hbond>
-3.9600

> <Gold.PLP.part.metal>
0.0000

> <Gold.PLP.part.buried>
-7.3799

> <Gold.PLP.part.nonpolar>
-30.3450

> <Gold.PLP.part.repulsive>
2.9514

> <Gold.PLP.ligand.clash>
0.0049

> <Gold.PLP.ligand.torsion>
1.7019

> <Gold.PLP.Chemscore.Hbond>
2.9120

> <Gold.PLP.Chemscore.CHOScore>
0.0000

> <Gold.PLP.Chemscore.Metal>
0.0000

> <Gold.Chemscore.Hbonds>
donor molecule, donor type, donor heavy atom, donor atom, acceptor molecule, acceptor atom, score
      P1  H  7989  7998       L1    21  0.18
      P1  H  7997  8009       L1     9  0.70
      P1  H  8011  8017       L1    21  1.00
      P1  H 10752 10764       L1    12  0.23

> <Gold.PLP.Chemscore.Internal.Correction>
0.3462

> <Gold.Rescore>
     Score         DG    S(hbond)    S(metal)    S(lipo)     H(rot)  DE(clash)    DE(int)     intcor
     11.71     -16.98       2.31        0.00      69.65       1.71       1.62       3.65       ----

> <Gold.Chemscore.Fitness>
11.7068

> <Gold.Chemscore.DG>
-16.9786

> <Gold.Chemscore.ZeroCoef>
-5.4800

> <Gold.Chemscore.Hbond>
2.3141

> <Gold.Chemscore.Metal>
0.0000

> <Gold.Chemscore.Lipo>
69.6462

> <Gold.Chemscore.Internal_Hbond>
0.0000

> <Gold.Chemscore.DEClash>
1.6188

> <Gold.Chemscore.DEInternal>
3.6530

> <Gold.Chemscore.Rot>
1.7106

> <Gold.Chemscore.Internal.Correction>
   9.000000E+99

> <Gold.Chemscore.Hbonds>
donor molecule, donor type, donor heavy atom, donor atom, acceptor molecule, acceptor atom, score
      P1  H  7989  7998       L1    21  0.16
      P1  H  7997  8009       L1     9  0.07
      P1  H  8011  8017       L1    21  0.97
      P1  H 10752 10764       L1    12  0.11

> <Gold.Chemscore.Hbond.Weighted>
-7.7291

> <Gold.Chemscore.Metal.Weighted>
-0.0000

> <Gold.Chemscore.Lipo.Weighted>
-8.1486

> <Gold.Chemscore.Internal_Hbond.Weighted>
0.0000

> <Gold.Chemscore.DEClash.Weighted>
1.6188

> <Gold.Chemscore.DEInternal.Weighted>
3.6530

> <Gold.Chemscore.Rot.Weighted>
4.3790

> <Gold.Chemscore.Internal.Correction.Weighted>
   9.000000E+99

> <Gold.Protein.RotatedTorsions>
[ 6907 6896 6895 6894 ] final -178.78 input  -60.11 | X-H torsion
[ 7974 7965 7964 7962 ] final -140.20 input  175.53 | X-H torsion
[ 8008 7997 7996 7995 ] final  107.19 input   59.86 | X-H torsion
[ 10167 10162 10161 10158 ] final  157.10 input  -65.29 | X-H torsion
[ 10718 10713 10712 10709 ] final  -39.78 input   66.30 | X-H torsion
[ 10763 10752 10751 10750 ] final   36.80 input  -60.55 | X-H torsion
[ 11005 11000 10999 10996 ] final   34.97 input  -57.11 | X-H torsion

> <Gold.Protein.ActiveResidues>
 VAL166  LYS551  ARG553  GLY616  TRP617  ASP618  TYR619  PRO620  LYS621  CYS622 
 ASP623  PHE694  ASN695  SER759  ASP760  ASP761  ALA762  ILE779  LEU786  VAL792 
 PHE793  MET794  SER795  GLU796  ALA797  LYS798  CYS799  TRP800  GLU811  SER814 

> <Gold.Protein.RotatedAtoms>
  151.6428  133.3325  159.3133 H   0  0  0  0  0  0  0  0  0  0  0  0  # atno 6907 bound_to 6896
  150.7999  134.7090  159.6602 H   0  0  0  0  0  0  0  0  0  0  0  0  # atno 6908 bound_to 6896
  152.4091  134.6161  160.0090 H   0  0  0  0  0  0  0  0  0  0  0  0  # atno 6909 bound_to 6896
  144.8616  140.6228  143.5324 H   0  0  0  0  0  0  0  0  0  0  0  0  # atno 7974 bound_to 7965
  156.1804  140.3099  155.9138 H   0  0  0  0  0  0  0  0  0  0  0  0  # atno 8008 bound_to 7997
  155.3396  140.0465  157.3061 H   0  0  0  0  0  0  0  0  0  0  0  0  # atno 8009 bound_to 7997
  154.5336  140.2238  155.8771 H   0  0  0  0  0  0  0  0  0  0  0  0  # atno 8010 bound_to 7997
  139.4822  144.4949  151.8255 H   0  0  0  0  0  0  0  0  0  0  0  0  # atno 10167 bound_to 10162
  156.2886  130.4225  149.8262 H   0  0  0  0  0  0  0  0  0  0  0  0  # atno 10718 bound_to 10713
  153.0062  135.6296  154.2043 H   0  0  0  0  0  0  0  0  0  0  0  0  # atno 10763 bound_to 10752
  154.1786  135.2814  155.3061 H   0  0  0  0  0  0  0  0  0  0  0  0  # atno 10764 bound_to 10752
  154.5852  135.5635  153.7284 H   0  0  0  0  0  0  0  0  0  0  0  0  # atno 10765 bound_to 10752
  140.2474  134.3343  155.7903 H   0  0  0  0  0  0  0  0  0  0  0  0  # atno 11005 bound_to 11000
  145.4301  139.1550  143.4027 LP  0  0  0  0  0  0  0  0  0  0  0  0  # atno 17320 bound_to 7965
  146.2865  140.4417  142.8756 LP  0  0  0  0  0  0  0  0  0  0  0  0  # atno 17321 bound_to 7965
  140.4436  144.1952  150.5893 LP  0  0  0  0  0  0  0  0  0  0  0  0  # atno 17342 bound_to 10162
  140.4658  143.2431  151.9158 LP  0  0  0  0  0  0  0  0  0  0  0  0  # atno 17343 bound_to 10162
  156.5683  130.8414  151.3349 LP  0  0  0  0  0  0  0  0  0  0  0  0  # atno 17370 bound_to 10713
  157.7336  130.9732  150.1985 LP  0  0  0  0  0  0  0  0  0  0  0  0  # atno 17371 bound_to 10713
  141.2205  133.7334  156.8982 LP  0  0  0  0  0  0  0  0  0  0  0  0  # atno 17394 bound_to 11000
  140.1592  134.9177  157.2693 LP  0  0  0  0  0  0  0  0  0  0  0  0  # atno 17395 bound_to 11000

$$$$
