#       Name:                AV-unprocessed.smi:2244
#       Creating user name   scv26
#       Creation time:       Fri Mar 27 12:28:09 2020


#       File generated by GOLD software.
#

@<TRIPOS>MOLECULE
AV-unprocessed.smi:2244
    55    57     1
SMALL
NO_CHARGES


@<TRIPOS>ATOM
      1 ****         1.6655  -8.2456   2.2591 C.3            1 S1                 0.0000
      2 ****         1.2850  -7.9589   0.7914 C.3            1 S1                 0.0000
      3 ****         2.3787  -8.5033  -0.1508 C.3            1 S1                 0.0000
      4 ****        -0.0166  -8.7356   0.4900 C.3            1 S1                 0.0000
      5 ****         1.1269  -6.4423   0.5817 C.ar           1 S1                 0.0000
      6 ****        -0.0758  -5.8417   0.1466 C.ar           1 S1                 0.0000
      7 ****        -0.0913  -4.4451  -0.0077 C.ar           1 S1                 0.0000
      8 ****         1.0836  -3.7205   0.2776 C.ar           1 S1                 0.0000
      9 ****         0.9810  -2.3118   0.0840 N.am           1 S1                 0.0000
     10 ****         1.8631  -1.3137   0.3051 C.2            1 S1                 0.0000
     11 ****         2.9868  -1.5482   0.7467 O.2            1 S1                 0.0000
     12 ****         1.4428  -0.0723   0.0107 N.am           1 S1                 0.0000
     13 ****         2.2201   1.1513   0.1763 C.3            1 S1                 0.0000
     14 ****         1.7335   2.2121  -0.8197 C.3            1 S1                 0.0000
     15 ****         2.4468   3.5509  -0.5783 C.3            1 S1                 0.0000
     16 ****         2.2518   3.9818   0.7669 O.3            1 S1                 0.0000
     17 ****         2.7264   3.0818   1.7697 C.3            1 S1                 0.0000
     18 ****         4.2476   3.0321   1.8129 C.3            1 S1                 0.0000
     19 ****         4.9763   2.8196   3.1192 C.3            1 S1                 0.0000
     20 ****         5.0360   4.1625   2.4306 C.3            1 S1                 0.0000
     21 ****         2.0738   1.6946   1.6082 C.3            1 S1                 0.0000
     22 ****         2.2044  -4.3672   0.6883 N.ar           1 S1                 0.0000
     23 ****         2.2273  -5.6942   0.8383 N.ar           1 S1                 0.0000
     24 ****         1.7615  -9.3162   2.4432 H              1 S1                 0.0000
     25 ****         0.9102  -7.8606   2.9452 H              1 S1                 0.0000
     26 ****         2.6177  -7.7879   2.5288 H              1 S1                 0.0000
     27 ****         3.3490  -8.0462   0.0460 H              1 S1                 0.0000
     28 ****         2.1312  -8.3110  -1.1954 H              1 S1                 0.0000
     29 ****         2.5026  -9.5807  -0.0357 H              1 S1                 0.0000
     30 ****         0.1173  -9.8066   0.6467 H              1 S1                 0.0000
     31 ****        -0.3349  -8.6030  -0.5450 H              1 S1                 0.0000
     32 ****        -0.8347  -8.4193   1.1386 H              1 S1                 0.0000
     33 ****        -0.9684  -6.4084  -0.0688 H              1 S1                 0.0000
     34 ****        -0.9896  -3.9444  -0.3390 H              1 S1                 0.0000
     35 ****         0.1072  -2.0113  -0.3223 H              1 S1                 0.0000
     36 ****         0.5035   0.0319  -0.3468 H              1 S1                 0.0000
     37 ****         3.2710   0.9418  -0.0295 H              1 S1                 0.0000
     38 ****         1.9052   1.8778  -1.8434 H              1 S1                 0.0000
     39 ****         0.6570   2.3558  -0.7139 H              1 S1                 0.0000
     40 ****         3.5095   3.4724  -0.8082 H              1 S1                 0.0000
     41 ****         2.0424   4.3113  -1.2464 H              1 S1                 0.0000
     42 ****         2.3930   3.4937   2.7231 H              1 S1                 0.0000
     43 ****         4.7067   2.5657   0.9441 H              1 S1                 0.0000
     44 ****         4.3809   2.7471   4.0274 H              1 S1                 0.0000
     45 ****         5.8715   2.2015   3.0981 H              1 S1                 0.0000
     46 ****         5.9716   4.4418   1.9508 H              1 S1                 0.0000
     47 ****         4.4788   4.9825   2.8793 H              1 S1                 0.0000
     48 ****         1.0135   1.7799   1.8508 H              1 S1                 0.0000
     49 ****         2.4964   0.9944   2.3300 H              1 S1                 0.0000
     50 ****         3.2587  -2.4893   0.9475 LP             1 S1                 0.0000
     51 ****         3.6285  -0.7977   0.9050 LP             1 S1                 0.0000
     52 ****         1.2710   4.1148   0.9099 LP             1 S1                 0.0000
     53 ****         2.7270   4.8539   0.8842 LP             1 S1                 0.0000
     54 ****         3.0307  -3.8386   0.8826 LP             1 S1                 0.0000
     55 ****         3.0677  -6.1417   1.1440 LP             1 S1                 0.0000
@<TRIPOS>BOND
    1    1    2 1     
    2    1   24 1     
    3    1   25 1     
    4    1   26 1     
    5    2    3 1     
    6    2    4 1     
    7    2    5 1     
    8    3   27 1     
    9    3   28 1     
   10    3   29 1     
   11    4   30 1     
   12    4   31 1     
   13    4   32 1     
   14    5   23 ar    
   15    5    6 ar    
   16    6    7 ar    
   17    6   33 1     
   18    7    8 ar    
   19    7   34 1     
   20    8    9 1     
   21    8   22 ar    
   22    9   10 am    
   23    9   35 1     
   24   10   11 2     
   25   10   12 am    
   26   12   13 1     
   27   12   36 1     
   28   13   21 1     
   29   13   14 1     
   30   13   37 1     
   31   14   15 1     
   32   14   38 1     
   33   14   39 1     
   34   15   16 1     
   35   15   40 1     
   36   15   41 1     
   37   16   17 1     
   38   17   18 1     
   39   17   21 1     
   40   17   42 1     
   41   18   20 1     
   42   18   19 1     
   43   18   43 1     
   44   19   20 1     
   45   19   44 1     
   46   19   45 1     
   47   20   46 1     
   48   20   47 1     
   49   21   48 1     
   50   21   49 1     
   51   22   23 ar    
   52   11   50 1     
   53   11   51 1     
   54   16   52 1     
   55   16   53 1     
   56   22   54 1     
   57   23   55 1     
@<TRIPOS>SUBSTRUCTURE
      1 S1             1
@<TRIPOS>SET
LONE_PAIRS      STATIC     ATOMS    <user>   **** ""
6 50 51 52 53 54 55
DONOR_HYDROGENS      STATIC     ATOMS    <user>   **** ""
2 35 36
ATOM$BLUE        STATIC     ATOMS    COLORGROUP SYSTEM
6 50 51 52 53 54 55
ATOM$RED        STATIC     ATOMS    COLORGROUP SYSTEM
2 35 36
