AV-unprocessed.smi:2369|AV-procd|sdf|9433|dock2
  -GOLD-   2272013 63D 1   1.00000     0.00000
 Structure written by MMmdl.
 40 41  0  0  0  0  0  0  0  0  1 V2000
  153.9880  141.3088  159.6031 C   0  0  0  0  0  0  0  0  0  0  0  0
  152.9464  142.3686  159.3119 C   0  0  0  0  0  0  0  0  0  0  0  0
  152.8698  143.5387  160.0912 C   0  0  0  0  0  0  0  0  0  0  0  0
  151.8779  144.4864  159.7715 C   0  0  0  0  0  0  0  0  0  0  0  0
  151.7375  145.7663  160.5684 C   0  0  0  0  0  0  0  0  0  0  0  0
  151.0010  144.3218  158.7582 N   0  0  0  0  0  0  0  0  0  0  0  0
  151.0647  143.1983  158.0015 C   0  0  0  0  0  0  0  0  0  0  0  0
  150.1903  142.9298  156.9149 N   0  0  0  0  0  0  0  0  0  0  0  0
  150.0860  141.8013  156.1908 C   0  0  0  0  0  0  0  0  0  0  0  0
  150.7545  140.7809  156.3604 O   0  0  0  0  0  0  0  0  0  0  0  0
  149.1482  141.9206  155.2394 N   0  0  0  0  0  0  0  0  0  0  0  0
  148.7816  140.8811  154.2821 C   0  0  2  0  0  0  0  0  0  0  0  0
  147.4271  141.2056  153.6173 C   0  0  0  0  0  0  0  0  0  0  0  0
  146.9852  140.0840  152.6635 C   0  0  0  0  0  0  0  0  0  0  0  0
  146.9328  138.7284  153.3885 C   0  0  1  0  0  0  0  0  0  0  0  0
  146.5910  137.7138  152.4679 O   0  0  0  0  0  0  0  0  0  0  0  0
  148.2863  138.3977  154.0405 C   0  0  0  0  0  0  0  0  0  0  0  0
  148.7275  139.5173  154.9969 C   0  0  0  0  0  0  0  0  0  0  0  0
  152.0305  142.1982  158.2542 C   0  0  0  0  0  0  0  0  0  0  0  0
  154.7622  141.6893  160.2701 H   0  0  0  0  0  0  0  0  0  0  0  0
  154.4670  140.9811  158.6800 H   0  0  0  0  0  0  0  0  0  0  0  0
  153.5229  140.4434  160.0757 H   0  0  0  0  0  0  0  0  0  0  0  0
  153.5524  143.7053  160.9120 H   0  0  0  0  0  0  0  0  0  0  0  0
  152.5673  145.8914  161.2646 H   0  0  0  0  0  0  0  0  0  0  0  0
  150.8096  145.7539  161.1406 H   0  0  0  0  0  0  0  0  0  0  0  0
  151.7203  146.6301  159.9031 H   0  0  0  0  0  0  0  0  0  0  0  0
  149.5734  143.6859  156.6581 H   0  0  0  0  0  0  0  0  0  0  0  0
  148.6479  142.7949  155.1726 H   0  0  0  0  0  0  0  0  0  0  0  0
  149.5499  140.8262  153.5081 H   0  0  0  0  0  0  0  0  0  0  0  0
  146.6639  141.3492  154.3836 H   0  0  0  0  0  0  0  0  0  0  0  0
  147.4919  142.1449  153.0668 H   0  0  0  0  0  0  0  0  0  0  0  0
  146.0083  140.3228  152.2416 H   0  0  0  0  0  0  0  0  0  0  0  0
  147.6805  140.0306  151.8245 H   0  0  0  0  0  0  0  0  0  0  0  0
  146.1587  138.7585  154.1562 H   0  0  0  0  0  0  0  0  0  0  0  0
  147.3745  137.2357  152.2428 H   0  0  0  0  0  0  0  0  0  0  0  0
  148.2213  137.4539  154.5832 H   0  0  0  0  0  0  0  0  0  0  0  0
  149.0465  138.2610  153.2699 H   0  0  0  0  0  0  0  0  0  0  0  0
  149.7048  139.2760  155.4172 H   0  0  0  0  0  0  0  0  0  0  0  0
  148.0333  139.5667  155.8372 H   0  0  0  0  0  0  0  0  0  0  0  0
  152.0708  141.3069  157.6445 H   0  0  0  0  0  0  0  0  0  0  0  0
  1  2  1  0  0  0  0
  1 20  1  0  0  0  0
  1 21  1  0  0  0  0
  1 22  1  0  0  0  0
  2 19  1  0  0  0  0
  2  3  2  0  0  0  0
  3  4  1  0  0  0  0
  3 23  1  0  0  0  0
  4  5  1  0  0  0  0
  4  6  2  0  0  0  0
  5 24  1  0  0  0  0
  5 25  1  0  0  0  0
  5 26  1  0  0  0  0
  6  7  1  0  0  0  0
  7  8  1  0  0  0  0
  7 19  2  0  0  0  0
  8  9  1  0  0  0  0
  8 27  1  0  0  0  0
  9 10  2  0  0  0  0
  9 11  1  0  0  0  0
 11 12  1  0  0  0  0
 11 28  1  0  0  0  0
 12 18  1  0  0  0  0
 12 13  1  0  0  0  0
 12 29  1  0  0  0  0
 13 14  1  0  0  0  0
 13 30  1  0  0  0  0
 13 31  1  0  0  0  0
 14 15  1  0  0  0  0
 14 32  1  0  0  0  0
 14 33  1  0  0  0  0
 15 16  1  0  0  0  0
 15 17  1  0  0  0  0
 15 34  1  0  0  0  0
 16 35  1  0  0  0  0
 17 18  1  0  0  0  0
 17 36  1  0  0  0  0
 17 37  1  0  0  0  0
 18 38  1  0  0  0  0
 18 39  1  0  0  0  0
 19 40  1  0  0  0  0
M  END
> <s_m_source_file>
AV-unprocessed.smi

> <i_m_source_file_index>
2369

> <i_lp_mmshare_version>
43012

> <i_f3d_flags>
0

> <s_epik_input>
W0NIM11jMVtjSF1jKFtDSDNdKW5jKFtjSF0xKVtOSF1DKD1PKVtOSF1bQ0BASF0yW0NIMl1bQ0gyXVtDQEBIXShbT0hdKVtDSDJdW0NIMl0y

> <s_epik_cmdline>
J2VwaWtfcHl0aG9uJywgJy1waCcsICc3LjAnLCAnLXRuJywgJzgnLCAnLW1hJywgJzIwMCcsICctbWV0YWxfYmluZGluZycsICctaW1hZScsICc8aW5maWxlLm1hZT4nLCAnLW9tYWUnLCAnPG91dGZpbGUubWFlPic=

> <r_lp_tautomer_probability>
1

> <r_epik_Ionization_Penalty>
0.000274852

> <r_epik_Ionization_Penalty_Charging>
0

> <r_epik_Ionization_Penalty_Neutral>
0.000274852

> <r_epik_State_Penalty>
-0

> <r_epik_Charging_Adjusted_Penalty>
0

> <i_epik_Tot_Q>
0

> <i_epik_Tot_abs_Q>
0

> <r_epik_Metal_State_Penalty>
-0

> <b_epik_Metal_Only>
0

> <s_lp_Force_Field>
OPLS_2005

> <r_lp_Energy>
9.3444

> <b_lp_Chiralities_Consistent>
1

> <s_lp_Variant>
AV-unprocessed.smi:2369-1

> <Gold.Version>
5.8.1

> <Gold.Id.Protein>
6NUR|6NUR_protein|mol2

> <Gold.PLP.Fitness>
45.5482

> <Gold.PLP.PLP>
-39.6357

> <Gold.PLP.part.hbond>
-3.0000

> <Gold.PLP.part.metal>
0.0000

> <Gold.PLP.part.buried>
-3.6037

> <Gold.PLP.part.nonpolar>
-34.5587

> <Gold.PLP.part.repulsive>
0.3750

> <Gold.PLP.ligand.clash>
2.2421

> <Gold.PLP.ligand.torsion>
0.2443

> <Gold.PLP.Chemscore.Hbond>
2.8800

> <Gold.PLP.Chemscore.CHOScore>
0.0000

> <Gold.PLP.Chemscore.Metal>
0.0000

> <Gold.Chemscore.Hbonds>
donor molecule, donor type, donor heavy atom, donor atom, acceptor molecule, acceptor atom, score
      L1  H     8    27       P1  8028  1.00
      L1  H    11    28       P1  8028  0.82
      L1  H    16    35       P1  7948  1.00

> <Gold.PLP.Chemscore.Internal.Correction>
0.0032

> <Gold.Rescore>
     Score         DG    S(hbond)    S(metal)    S(lipo)     H(rot)  DE(clash)    DE(int)     intcor
     18.79     -23.55       2.86        0.00     103.84       1.42       1.54       3.22       ----

> <Gold.Chemscore.Fitness>
18.7907

> <Gold.Chemscore.DG>
-23.5527

> <Gold.Chemscore.ZeroCoef>
-5.4800

> <Gold.Chemscore.Hbond>
2.8630

> <Gold.Chemscore.Metal>
0.0000

> <Gold.Chemscore.Lipo>
103.8352

> <Gold.Chemscore.Internal_Hbond>
0.0000

> <Gold.Chemscore.DEClash>
1.5414

> <Gold.Chemscore.DEInternal>
3.2206

> <Gold.Chemscore.Rot>
1.4213

> <Gold.Chemscore.Internal.Correction>
   9.000000E+99

> <Gold.Chemscore.Hbonds>
donor molecule, donor type, donor heavy atom, donor atom, acceptor molecule, acceptor atom, score
      L1  H     8    27       P1  8028  0.96
      L1  H    11    28       P1  8028  0.77
      L1  H    16    35       P1  7948  1.00

> <Gold.Chemscore.Hbond.Weighted>
-9.5626

> <Gold.Chemscore.Metal.Weighted>
-0.0000

> <Gold.Chemscore.Lipo.Weighted>
-12.1487

> <Gold.Chemscore.Internal_Hbond.Weighted>
0.0000

> <Gold.Chemscore.DEClash.Weighted>
1.5414

> <Gold.Chemscore.DEInternal.Weighted>
3.2206

> <Gold.Chemscore.Rot.Weighted>
3.6386

> <Gold.Chemscore.Internal.Correction.Weighted>
   9.000000E+99

> <Gold.Protein.RotatedTorsions>
[ 6907 6896 6895 6894 ] final   22.09 input  -60.11 | X-H torsion
[ 7974 7965 7964 7962 ] final   -7.93 input  175.53 | X-H torsion
[ 8008 7997 7996 7995 ] final  -85.26 input   59.86 | X-H torsion
[ 10167 10162 10161 10158 ] final  128.47 input  -65.29 | X-H torsion
[ 10718 10713 10712 10709 ] final  -25.83 input   66.30 | X-H torsion
[ 10763 10752 10751 10750 ] final  -72.40 input  -60.55 | X-H torsion
[ 11005 11000 10999 10996 ] final  -99.75 input  -57.11 | X-H torsion

> <Gold.Protein.ActiveResidues>
 VAL166  LYS551  ARG553  GLY616  TRP617  ASP618  TYR619  PRO620  LYS621  CYS622 
 ASP623  PHE694  ASN695  SER759  ASP760  ASP761  ALA762  ILE779  LEU786  VAL792 
 PHE793  MET794  SER795  GLU796  ALA797  LYS798  CYS799  TRP800  GLU811  SER814 

> <Gold.Protein.RotatedAtoms>
  151.9218  135.0295  160.0522 H   0  0  0  0  0  0  0  0  0  0  0  0  # atno 6907 bound_to 6896
  152.2193  133.4967  159.5162 H   0  0  0  0  0  0  0  0  0  0  0  0  # atno 6908 bound_to 6896
  150.6996  134.1280  159.4102 H   0  0  0  0  0  0  0  0  0  0  0  0  # atno 6909 bound_to 6896
  146.2294  140.2393  142.8343 H   0  0  0  0  0  0  0  0  0  0  0  0  # atno 7974 bound_to 7965
  154.6388  140.0594  156.9821 H   0  0  0  0  0  0  0  0  0  0  0  0  # atno 8008 bound_to 7997
  155.1549  140.3277  155.4405 H   0  0  0  0  0  0  0  0  0  0  0  0  # atno 8009 bound_to 7997
  156.2520  140.1941  156.6659 H   0  0  0  0  0  0  0  0  0  0  0  0  # atno 8010 bound_to 7997
  139.5526  144.6824  151.4279 H   0  0  0  0  0  0  0  0  0  0  0  0  # atno 10167 bound_to 10162
  156.4592  130.4500  149.6939 H   0  0  0  0  0  0  0  0  0  0  0  0  # atno 10718 bound_to 10713
  154.4452  135.5931  153.6155 H   0  0  0  0  0  0  0  0  0  0  0  0  # atno 10763 bound_to 10752
  152.9808  135.6007  154.3673 H   0  0  0  0  0  0  0  0  0  0  0  0  # atno 10764 bound_to 10752
  154.3528  135.2841  155.2341 H   0  0  0  0  0  0  0  0  0  0  0  0  # atno 10765 bound_to 10752
  141.1297  133.8346  157.1013 H   0  0  0  0  0  0  0  0  0  0  0  0  # atno 11005 bound_to 11000
  144.9497  140.8165  143.5579 LP  0  0  0  0  0  0  0  0  0  0  0  0  # atno 17320 bound_to 7965
  145.2352  139.2097  143.5022 LP  0  0  0  0  0  0  0  0  0  0  0  0  # atno 17321 bound_to 7965
  140.6792  143.8121  150.7098 LP  0  0  0  0  0  0  0  0  0  0  0  0  # atno 17342 bound_to 10162
  140.1569  143.4309  152.2093 LP  0  0  0  0  0  0  0  0  0  0  0  0  # atno 17343 bound_to 10162
  156.3734  130.7542  151.2528 LP  0  0  0  0  0  0  0  0  0  0  0  0  # atno 17370 bound_to 10713
  157.7499  131.0316  150.4191 LP  0  0  0  0  0  0  0  0  0  0  0  0  # atno 17371 bound_to 10713
  140.0331  134.9891  157.0820 LP  0  0  0  0  0  0  0  0  0  0  0  0  # atno 17394 bound_to 11000
  140.4253  134.1838  155.7166 LP  0  0  0  0  0  0  0  0  0  0  0  0  # atno 17395 bound_to 11000

$$$$
