AV-unprocessed.smi:2765|AV-procd|sdf|10644|dock7
  -GOLD-   2272015 93D 1   1.00000     0.00000
 Structure written by MMmdl.
 45 46  0  0  0  0  0  0  0  0  2 V2000
  148.2920  139.2922  155.7968 C   0  0  0  0  0  0  0  0  0  0  0  0
  148.6663  138.5198  154.5127 C   0  0  0  0  0  0  0  0  0  0  0  0
  147.5293  138.7694  153.5027 C   0  0  0  0  0  0  0  0  0  0  0  0
  149.9867  139.0305  153.8832 C   0  0  0  0  0  0  0  0  0  0  0  0
  151.2751  138.5153  154.5535 C   0  0  0  0  0  0  0  0  0  0  0  0
  151.5866  139.1789  155.8180 N   0  0  0  0  0  0  0  0  0  0  0  0
  151.3364  140.4654  156.1040 C   0  0  0  0  0  0  0  0  0  0  0  0
  150.7966  141.2415  155.3154 O   0  0  0  0  0  0  0  0  0  0  0  0
  151.7446  140.7765  157.3471 N   0  0  0  0  0  0  0  0  0  0  0  0
  151.6603  142.0304  158.0094 C   0  0  0  0  0  0  0  0  0  0  0  0
  152.5278  142.1829  159.1151 C   0  0  0  0  0  0  0  0  0  0  0  0
  152.5226  143.3916  159.8385 C   0  0  0  0  0  0  0  0  0  0  0  0
  151.6483  144.4166  159.4354 C   0  0  0  0  0  0  0  0  0  0  0  0
  151.6082  145.5961  160.0992 F   0  0  0  0  0  0  0  0  0  0  0  0
  150.8165  144.1846  158.3245 C   0  0  0  0  0  0  0  0  0  0  0  0
  150.8203  143.0264  157.6308 N   0  0  0  0  0  0  0  0  0  0  0  0
  151.2244  136.9861  154.7000 C   0  0  0  0  0  0  0  0  0  0  0  0
  149.9296  136.4267  155.3444 C   0  0  0  0  0  0  0  0  0  0  0  0
  149.8557  134.9198  155.0288 C   0  0  0  0  0  0  0  0  0  0  0  0
  149.9362  136.5547  156.8838 C   0  0  0  0  0  0  0  0  0  0  0  0
  148.7135  137.0491  154.7485 N   0  3  0  0  0  0  0  0  0  0  0  0
  148.0948  140.3411  155.5727 H   0  0  0  0  0  0  0  0  0  0  0  0
  149.0700  139.2903  156.5529 H   0  0  0  0  0  0  0  0  0  0  0  0
  147.3898  138.8851  156.2546 H   0  0  0  0  0  0  0  0  0  0  0  0
  147.4380  139.8287  153.2581 H   0  0  0  0  0  0  0  0  0  0  0  0
  146.5661  138.4409  153.8959 H   0  0  0  0  0  0  0  0  0  0  0  0
  147.6970  138.2333  152.5675 H   0  0  0  0  0  0  0  0  0  0  0  0
  150.0223  138.7013  152.8435 H   0  0  0  0  0  0  0  0  0  0  0  0
  149.9857  140.1202  153.8338 H   0  0  0  0  0  0  0  0  0  0  0  0
  152.1070  138.7392  153.8827 H   0  0  0  0  0  0  0  0  0  0  0  0
  152.0394  138.6186  156.5253 H   0  0  0  0  0  0  0  0  0  0  0  0
  152.1696  140.0330  157.8808 H   0  0  0  0  0  0  0  0  0  0  0  0
  153.1937  141.3847  159.4099 H   0  0  0  0  0  0  0  0  0  0  0  0
  153.1779  143.5281  160.6860 H   0  0  0  0  0  0  0  0  0  0  0  0
  150.1313  144.9466  157.9831 H   0  0  0  0  0  0  0  0  0  0  0  0
  151.3168  136.5704  153.6952 H   0  0  0  0  0  0  0  0  0  0  0  0
  152.1035  136.6289  155.2389 H   0  0  0  0  0  0  0  0  0  0  0  0
  150.7300  134.3892  155.4083 H   0  0  0  0  0  0  0  0  0  0  0  0
  149.8056  134.7367  153.9545 H   0  0  0  0  0  0  0  0  0  0  0  0
  148.9741  134.4593  155.4767 H   0  0  0  0  0  0  0  0  0  0  0  0
  150.7411  135.9610  157.3186 H   0  0  0  0  0  0  0  0  0  0  0  0
  149.0013  136.1939  157.3141 H   0  0  0  0  0  0  0  0  0  0  0  0
  150.0854  137.5687  157.2394 H   0  0  0  0  0  0  0  0  0  0  0  0
  147.9056  136.7773  155.2903 H   0  0  0  0  0  0  0  0  0  0  0  0
  148.6221  136.6309  153.8337 H   0  0  0  0  0  0  0  0  0  0  0  0
  1  2  1  0  0  0  0
  1 22  1  0  0  0  0
  1 23  1  0  0  0  0
  1 24  1  0  0  0  0
  2 21  1  0  0  0  0
  2  3  1  0  0  0  0
  2  4  1  0  0  0  0
  3 25  1  0  0  0  0
  3 26  1  0  0  0  0
  3 27  1  0  0  0  0
  4  5  1  0  0  0  0
  4 28  1  0  0  0  0
  4 29  1  0  0  0  0
  5  6  1  0  0  0  0
  5 17  1  0  0  0  0
  5 30  1  0  0  0  0
  6  7  1  0  0  0  0
  6 31  1  0  0  0  0
  7  8  2  0  0  0  0
  7  9  1  0  0  0  0
  9 10  1  0  0  0  0
  9 32  1  0  0  0  0
 10 16  1  0  0  0  0
 10 11  2  0  0  0  0
 11 12  1  0  0  0  0
 11 33  1  0  0  0  0
 12 13  2  0  0  0  0
 12 34  1  0  0  0  0
 13 14  1  0  0  0  0
 13 15  1  0  0  0  0
 15 16  2  0  0  0  0
 15 35  1  0  0  0  0
 17 18  1  0  0  0  0
 17 36  1  0  0  0  0
 17 37  1  0  0  0  0
 18 19  1  0  0  0  0
 18 20  1  0  0  0  0
 18 21  1  0  0  0  0
 19 38  1  0  0  0  0
 19 39  1  0  0  0  0
 19 40  1  0  0  0  0
 20 41  1  0  0  0  0
 20 42  1  0  0  0  0
 20 43  1  0  0  0  0
 21 44  1  0  0  0  0
 21 45  1  0  0  0  0
M  CHG  1  21   1
M  END
> <s_m_source_file>
AV-unprocessed.smi

> <i_m_source_file_index>
2765

> <i_lp_mmshare_version>
43012

> <i_f3d_flags>
0

> <s_epik_input>
W0NIM11DMShbQ0gzXSlbQ0gyXVtDSF0oW0NIMl1DKFtDSDNdKShbQ0gzXSlbTkhdMSlbTkhdQyg9TylbTkhdYzJbY0hdW2NIXWMoRilbY0hdbjI=

> <s_epik_cmdline>
J2VwaWtfcHl0aG9uJywgJy1waCcsICc3LjAnLCAnLXRuJywgJzgnLCAnLW1hJywgJzIwMCcsICctbWV0YWxfYmluZGluZycsICctaW1hZScsICc8aW5maWxlLm1hZT4nLCAnLW9tYWUnLCAnPG91dGZpbGUubWFlPic=

> <r_lp_tautomer_probability>
1

> <r_epik_Ionization_Penalty>
0.000124854

> <r_epik_Ionization_Penalty_Charging>
9.44458e-05

> <r_epik_Ionization_Penalty_Neutral>
3.0408e-05

> <r_epik_State_Penalty>
-0

> <r_epik_Charging_Adjusted_Penalty>
9.44458e-05

> <i_epik_Tot_Q>
1

> <i_epik_Tot_abs_Q>
1

> <r_epik_Metal_State_Penalty>
-0

> <b_epik_Metal_Only>
0

> <s_lp_Force_Field>
OPLS_2005

> <r_lp_Energy>
29.8768

> <b_lp_Chiralities_Consistent>
1

> <s_lp_Variant>
AV-unprocessed.smi:2765-1

> <Gold.Version>
5.8.1

> <Gold.Id.Protein>
6NUR|6NUR_protein|mol2

> <Gold.PLP.Fitness>
46.7926

> <Gold.PLP.PLP>
-36.9483

> <Gold.PLP.part.hbond>
-2.0000

> <Gold.PLP.part.metal>
0.0000

> <Gold.PLP.part.buried>
-1.8760

> <Gold.PLP.part.nonpolar>
-34.4846

> <Gold.PLP.part.repulsive>
0.4374

> <Gold.PLP.ligand.clash>
0.0000

> <Gold.PLP.ligand.torsion>
0.3993

> <Gold.PLP.Chemscore.Hbond>
2.5760

> <Gold.PLP.Chemscore.CHOScore>
0.9655

> <Gold.PLP.Chemscore.Metal>
0.0000

> <Gold.Chemscore.Hbonds>
donor molecule, donor type, donor heavy atom, donor atom, acceptor molecule, acceptor atom, score
      L1  H    21    45       P1  7948  1.98
      P1  H  7989  7998       L1     8  0.58
      L1  C    15    35       P1  8028  0.33
      L1  C    15    35       P1  8029  0.63

> <Gold.PLP.Chemscore.Internal.Correction>
0.0183

> <Gold.Rescore>
     Score         DG    S(hbond)    S(metal)    S(lipo)     H(rot)  DE(clash)    DE(int)     intcor
     15.82     -18.94       1.73        0.00      87.61       1.00       0.04       3.08       ----

> <Gold.Chemscore.Fitness>
15.8192

> <Gold.Chemscore.DG>
-18.9371

> <Gold.Chemscore.ZeroCoef>
-5.4800

> <Gold.Chemscore.Hbond>
1.7266

> <Gold.Chemscore.Metal>
0.0000

> <Gold.Chemscore.Lipo>
87.6084

> <Gold.Chemscore.Internal_Hbond>
0.0000

> <Gold.Chemscore.DEClash>
0.0413

> <Gold.Chemscore.DEInternal>
3.0766

> <Gold.Chemscore.Rot>
1.0000

> <Gold.Chemscore.Internal.Correction>
   9.000000E+99

> <Gold.Chemscore.Hbonds>
donor molecule, donor type, donor heavy atom, donor atom, acceptor molecule, acceptor atom, score
      L1  H    21    45       P1  7948  0.93
      P1  H  7989  7998       L1     8  0.33

> <Gold.Chemscore.Hbond.Weighted>
-5.7669

> <Gold.Chemscore.Metal.Weighted>
-0.0000

> <Gold.Chemscore.Lipo.Weighted>
-10.2502

> <Gold.Chemscore.Internal_Hbond.Weighted>
0.0000

> <Gold.Chemscore.DEClash.Weighted>
0.0413

> <Gold.Chemscore.DEInternal.Weighted>
3.0766

> <Gold.Chemscore.Rot.Weighted>
2.5600

> <Gold.Chemscore.Internal.Correction.Weighted>
   9.000000E+99

> <Gold.Protein.RotatedTorsions>
[ 6907 6896 6895 6894 ] final  118.10 input  -60.11 | X-H torsion
[ 7974 7965 7964 7962 ] final -140.58 input  175.53 | X-H torsion
[ 8008 7997 7996 7995 ] final  136.81 input   59.86 | X-H torsion
[ 10167 10162 10161 10158 ] final  -35.94 input  -65.29 | X-H torsion
[ 10718 10713 10712 10709 ] final  -83.26 input   66.30 | X-H torsion
[ 10763 10752 10751 10750 ] final -150.00 input  -60.55 | X-H torsion
[ 11005 11000 10999 10996 ] final   80.88 input  -57.11 | X-H torsion

> <Gold.Protein.ActiveResidues>
 VAL166  LYS551  ARG553  GLY616  TRP617  ASP618  TYR619  PRO620  LYS621  CYS622 
 ASP623  PHE694  ASN695  SER759  ASP760  ASP761  ALA762  ILE779  LEU786  VAL792 
 PHE793  MET794  SER795  GLU796  ALA797  LYS798  CYS799  TRP800  GLU811  SER814 

> <Gold.Protein.RotatedAtoms>
  152.4566  133.7736  159.6812 H   0  0  0  0  0  0  0  0  0  0  0  0  # atno 6907 bound_to 6896
  150.8495  133.7799  159.3037 H   0  0  0  0  0  0  0  0  0  0  0  0  # atno 6908 bound_to 6896
  151.5399  135.1071  159.9975 H   0  0  0  0  0  0  0  0  0  0  0  0  # atno 6909 bound_to 6896
  144.8586  140.6182  143.5343 H   0  0  0  0  0  0  0  0  0  0  0  0  # atno 7974 bound_to 7965
  156.3003  140.2435  156.3807 H   0  0  0  0  0  0  0  0  0  0  0  0  # atno 8008 bound_to 7997
  154.8704  140.0416  157.1740 H   0  0  0  0  0  0  0  0  0  0  0  0  # atno 8009 bound_to 7997
  154.8801  140.2948  155.5434 H   0  0  0  0  0  0  0  0  0  0  0  0  # atno 8010 bound_to 7997
  140.7154  143.3443  151.2291 H   0  0  0  0  0  0  0  0  0  0  0  0  # atno 10167 bound_to 10162
  156.0021  130.4660  150.4230 H   0  0  0  0  0  0  0  0  0  0  0  0  # atno 10718 bound_to 10713
  154.8145  135.3295  154.7215 H   0  0  0  0  0  0  0  0  0  0  0  0  # atno 10763 bound_to 10752
  153.7858  135.6915  153.4884 H   0  0  0  0  0  0  0  0  0  0  0  0  # atno 10764 bound_to 10752
  153.1949  135.4537  155.0143 H   0  0  0  0  0  0  0  0  0  0  0  0  # atno 10765 bound_to 10752
  139.9118  134.7954  156.1968 H   0  0  0  0  0  0  0  0  0  0  0  0  # atno 11005 bound_to 11000
  145.4357  139.1542  143.3998 LP  0  0  0  0  0  0  0  0  0  0  0  0  # atno 17320 bound_to 7965
  146.2842  140.4476  142.8764 LP  0  0  0  0  0  0  0  0  0  0  0  0  # atno 17321 bound_to 7965
  139.6958  143.9615  152.2882 LP  0  0  0  0  0  0  0  0  0  0  0  0  # atno 17342 bound_to 10162
  139.9292  144.6752  150.8380 LP  0  0  0  0  0  0  0  0  0  0  0  0  # atno 17343 bound_to 10162
  157.2285  131.0498  151.2506 LP  0  0  0  0  0  0  0  0  0  0  0  0  # atno 17370 bound_to 10713
  157.3734  130.7193  149.6580 LP  0  0  0  0  0  0  0  0  0  0  0  0  # atno 17371 bound_to 10713
  141.0550  133.6870  156.1843 LP  0  0  0  0  0  0  0  0  0  0  0  0  # atno 17394 bound_to 11000
  140.6751  134.4826  157.5588 LP  0  0  0  0  0  0  0  0  0  0  0  0  # atno 17395 bound_to 11000

$$$$
