AV-unprocessed.smi:340|AV-procd|sdf|2381|dock4
  -GOLD-   2262022303D 1   1.00000     0.00000
 Structure written by MMmdl.
 34 35  0  0  0  0  0  0  0  0  2 V2000
  151.9504  137.2458  156.4633 C   0  0  0  0  0  0  0  0  0  0  0  0
  153.0291  136.1552  157.4743 S   0  0  0  0  0  0  0  0  0  0  0  0
  152.5249  134.7882  157.2660 O   0  0  0  0  0  0  0  0  0  0  0  0
  154.4063  136.4377  157.0385 O   0  0  0  0  0  0  0  0  0  0  0  0
  152.7139  136.7196  158.9602 N   0  5  0  0  0  0  0  0  0  0  0  0
  153.7296  137.4901  159.6546 C   0  0  0  0  0  0  0  0  0  0  0  0
  153.4435  138.9831  159.5844 C   0  0  0  0  0  0  0  0  0  0  0  0
  154.2518  139.9140  160.2746 C   0  0  0  0  0  0  0  0  0  0  0  0
  153.9465  141.2860  160.1779 C   0  0  0  0  0  0  0  0  0  0  0  0
  152.8450  141.6832  159.3924 C   0  0  0  0  0  0  0  0  0  0  0  0
  152.5409  143.0478  159.2889 N   0  0  0  0  0  0  0  0  0  0  0  0
  152.2398  143.6726  160.5710 C   0  0  0  0  0  0  0  0  0  0  0  0
  152.0383  145.1863  160.3838 C   0  0  0  0  0  0  0  0  0  0  0  0
  151.0215  145.4178  159.4124 O   0  0  0  0  0  0  0  0  0  0  0  0
  151.3590  144.8667  158.1424 C   0  0  0  0  0  0  0  0  0  0  0  0
  151.5374  143.3448  158.2743 C   0  0  0  0  0  0  0  0  0  0  0  0
  152.0645  140.7975  158.7288 N   0  0  0  0  0  0  0  0  0  0  0  0
  152.3610  139.4830  158.8246 C   0  0  0  0  0  0  0  0  0  0  0  0
  152.0527  136.9792  155.4120 H   0  0  0  0  0  0  0  0  0  0  0  0
  152.2479  138.2843  156.6056 H   0  0  0  0  0  0  0  0  0  0  0  0
  150.9131  137.1177  156.7716 H   0  0  0  0  0  0  0  0  0  0  0  0
  153.8013  137.2108  160.7062 H   0  0  0  0  0  0  0  0  0  0  0  0
  154.7224  137.3164  159.2383 H   0  0  0  0  0  0  0  0  0  0  0  0
  155.0972  139.5998  160.8717 H   0  0  0  0  0  0  0  0  0  0  0  0
  154.5506  142.0172  160.6948 H   0  0  0  0  0  0  0  0  0  0  0  0
  151.3377  143.2294  160.9956 H   0  0  0  0  0  0  0  0  0  0  0  0
  153.0531  143.4866  161.2735 H   0  0  0  0  0  0  0  0  0  0  0  0
  151.7408  145.6456  161.3264 H   0  0  0  0  0  0  0  0  0  0  0  0
  152.9676  145.6670  160.0740 H   0  0  0  0  0  0  0  0  0  0  0  0
  150.5629  145.0923  157.4330 H   0  0  0  0  0  0  0  0  0  0  0  0
  152.2688  145.3332  157.7611 H   0  0  0  0  0  0  0  0  0  0  0  0
  151.8413  142.9175  157.3178 H   0  0  0  0  0  0  0  0  0  0  0  0
  150.5865  142.8845  158.5465 H   0  0  0  0  0  0  0  0  0  0  0  0
  151.7058  138.8247  158.2707 H   0  0  0  0  0  0  0  0  0  0  0  0
  1  2  1  0  0  0  0
  1 19  1  0  0  0  0
  1 20  1  0  0  0  0
  1 21  1  0  0  0  0
  2  3  2  0  0  0  0
  2  4  2  0  0  0  0
  2  5  1  0  0  0  0
  5  6  1  0  0  0  0
  6  7  1  0  0  0  0
  6 22  1  0  0  0  0
  6 23  1  0  0  0  0
  7 18  1  0  0  0  0
  7  8  2  0  0  0  0
  8  9  1  0  0  0  0
  8 24  1  0  0  0  0
  9 10  2  0  0  0  0
  9 25  1  0  0  0  0
 10 11  1  0  0  0  0
 10 17  1  0  0  0  0
 11 16  1  0  0  0  0
 11 12  1  0  0  0  0
 12 13  1  0  0  0  0
 12 26  1  0  0  0  0
 12 27  1  0  0  0  0
 13 14  1  0  0  0  0
 13 28  1  0  0  0  0
 13 29  1  0  0  0  0
 14 15  1  0  0  0  0
 15 16  1  0  0  0  0
 15 30  1  0  0  0  0
 15 31  1  0  0  0  0
 16 32  1  0  0  0  0
 16 33  1  0  0  0  0
 17 18  2  0  0  0  0
 18 34  1  0  0  0  0
M  CHG  1   5  -1
M  END
> <s_m_source_file>
AV-unprocessed.smi

> <i_m_source_file_index>
340

> <i_lp_mmshare_version>
43012

> <i_f3d_flags>
0

> <s_epik_input>
W0NIM11TKD1PKSg9TylbTkhdW0NIMl1jMVtjSF1bY0hdYyhuW2NIXTEpTjJbQ0gyXVtDSDJdT1tDSDJdW0NIMl0y

> <s_epik_cmdline>
J2VwaWtfcHl0aG9uJywgJy1waCcsICc3LjAnLCAnLXRuJywgJzgnLCAnLW1hJywgJzIwMCcsICctbWV0YWxfYmluZGluZycsICctaW1hZScsICc8aW5maWxlLm1hZT4nLCAnLW9tYWUnLCAnPG91dGZpbGUubWFlPic=

> <r_lp_tautomer_probability>
1

> <r_epik_Ionization_Penalty>
5.97683

> <r_epik_Ionization_Penalty_Charging>
5.90424

> <r_epik_Ionization_Penalty_Neutral>
0.0725937

> <r_epik_State_Penalty>
5.9092

> <r_epik_Charging_Adjusted_Penalty>
11.8134

> <i_epik_Tot_Q>
-1

> <i_epik_Tot_abs_Q>
1

> <r_epik_Metal_State_Penalty>
1.87112

> <b_epik_Metal_Only>
1

> <s_lp_Force_Field>
OPLS_2005

> <r_lp_Energy>
14.5027

> <b_lp_Chiralities_Consistent>
1

> <s_lp_Variant>
AV-unprocessed.smi:340-2

> <Gold.Version>
5.8.1

> <Gold.Id.Protein>
6NUR|6NUR_protein|mol2

> <Gold.PLP.Fitness>
40.4827

> <Gold.PLP.PLP>
-32.8391

> <Gold.PLP.part.hbond>
-3.6493

> <Gold.PLP.part.metal>
0.0000

> <Gold.PLP.part.buried>
-6.5672

> <Gold.PLP.part.nonpolar>
-23.4321

> <Gold.PLP.part.repulsive>
0.1723

> <Gold.PLP.ligand.clash>
0.0000

> <Gold.PLP.ligand.torsion>
0.7451

> <Gold.PLP.Chemscore.Hbond>
2.6880

> <Gold.PLP.Chemscore.CHOScore>
0.0000

> <Gold.PLP.Chemscore.Metal>
0.0000

> <Gold.Chemscore.Hbonds>
donor molecule, donor type, donor heavy atom, donor atom, acceptor molecule, acceptor atom, score
      P1  H  6896  6907       L1     5  1.51
      P1  H 10752 10765       L1     4  0.68

> <Gold.PLP.Chemscore.Internal.Correction>
1.0699

> <Gold.Rescore>
     Score         DG    S(hbond)    S(metal)    S(lipo)     H(rot)  DE(clash)    DE(int)     intcor
     14.59     -15.37       1.31        0.00      80.90       1.54       0.07       0.72       ----

> <Gold.Chemscore.Fitness>
14.5895

> <Gold.Chemscore.DG>
-15.3735

> <Gold.Chemscore.ZeroCoef>
-5.4800

> <Gold.Chemscore.Hbond>
1.3122

> <Gold.Chemscore.Metal>
0.0000

> <Gold.Chemscore.Lipo>
80.8984

> <Gold.Chemscore.Internal_Hbond>
0.0000

> <Gold.Chemscore.DEClash>
0.0650

> <Gold.Chemscore.DEInternal>
0.7189

> <Gold.Chemscore.Rot>
1.5448

> <Gold.Chemscore.Internal.Correction>
   9.000000E+99

> <Gold.Chemscore.Hbonds>
donor molecule, donor type, donor heavy atom, donor atom, acceptor molecule, acceptor atom, score
      P1  H  6896  6907       L1     5  0.34
      P1  H 10752 10765       L1     4  0.08

> <Gold.Chemscore.Hbond.Weighted>
-4.3829

> <Gold.Chemscore.Metal.Weighted>
-0.0000

> <Gold.Chemscore.Lipo.Weighted>
-9.4651

> <Gold.Chemscore.Internal_Hbond.Weighted>
0.0000

> <Gold.Chemscore.DEClash.Weighted>
0.0650

> <Gold.Chemscore.DEInternal.Weighted>
0.7189

> <Gold.Chemscore.Rot.Weighted>
3.9546

> <Gold.Chemscore.Internal.Correction.Weighted>
   9.000000E+99

> <Gold.Protein.RotatedTorsions>
[ 6907 6896 6895 6894 ] final   20.28 input  -60.11 | X-H torsion
[ 7974 7965 7964 7962 ] final  119.30 input  175.53 | X-H torsion
[ 8008 7997 7996 7995 ] final   95.22 input   59.86 | X-H torsion
[ 10167 10162 10161 10158 ] final -157.05 input  -65.29 | X-H torsion
[ 10718 10713 10712 10709 ] final  -83.39 input   66.30 | X-H torsion
[ 10763 10752 10751 10750 ] final  -76.39 input  -60.55 | X-H torsion
[ 11005 11000 10999 10996 ] final  -73.68 input  -57.11 | X-H torsion

> <Gold.Protein.ActiveResidues>
 VAL166  LYS551  ARG553  GLY616  TRP617  ASP618  TYR619  PRO620  LYS621  CYS622 
 ASP623  PHE694  ASN695  SER759  ASP760  ASP761  ALA762  ILE779  LEU786  VAL792 
 PHE793  MET794  SER795  GLU796  ALA797  LYS798  CYS799  TRP800  GLU811  SER814 

> <Gold.Protein.RotatedAtoms>
  151.8939  135.0405  160.0500 H   0  0  0  0  0  0  0  0  0  0  0  0  # atno 6907 bound_to 6896
  152.2413  133.5133  159.5280 H   0  0  0  0  0  0  0  0  0  0  0  0  # atno 6908 bound_to 6896
  150.7054  134.1001  159.4005 H   0  0  0  0  0  0  0  0  0  0  0  0  # atno 6909 bound_to 6896
  145.1447  139.3246  143.4597 H   0  0  0  0  0  0  0  0  0  0  0  0  # atno 7974 bound_to 7965
  156.0665  140.3289  155.7524 H   0  0  0  0  0  0  0  0  0  0  0  0  # atno 8008 bound_to 7997
  155.5373  140.0598  157.2894 H   0  0  0  0  0  0  0  0  0  0  0  0  # atno 8009 bound_to 7997
  154.4508  140.1917  156.0544 H   0  0  0  0  0  0  0  0  0  0  0  0  # atno 8010 bound_to 7997
  139.6801  143.9595  152.2332 H   0  0  0  0  0  0  0  0  0  0  0  0  # atno 10167 bound_to 10162
  156.0019  130.4664  150.4249 H   0  0  0  0  0  0  0  0  0  0  0  0  # atno 10718 bound_to 10713
  154.4992  135.5799  153.6518 H   0  0  0  0  0  0  0  0  0  0  0  0  # atno 10763 bound_to 10752
  152.9875  135.6131  154.3025 H   0  0  0  0  0  0  0  0  0  0  0  0  # atno 10764 bound_to 10752
  154.2931  135.2848  155.2625 H   0  0  0  0  0  0  0  0  0  0  0  0  # atno 10765 bound_to 10752
  141.1626  133.6886  156.7248 H   0  0  0  0  0  0  0  0  0  0  0  0  # atno 11005 bound_to 11000
  146.3501  140.1498  142.8592 LP  0  0  0  0  0  0  0  0  0  0  0  0  # atno 17320 bound_to 7965
  145.0494  140.9006  143.5004 LP  0  0  0  0  0  0  0  0  0  0  0  0  # atno 17321 bound_to 7965
  139.9383  144.6698  150.8292 LP  0  0  0  0  0  0  0  0  0  0  0  0  # atno 17342 bound_to 10162
  140.7649  143.3261  151.2512 LP  0  0  0  0  0  0  0  0  0  0  0  0  # atno 17343 bound_to 10162
  157.2303  131.0502  151.2496 LP  0  0  0  0  0  0  0  0  0  0  0  0  # atno 17370 bound_to 10713
  157.3717  130.7185  149.6570 LP  0  0  0  0  0  0  0  0  0  0  0  0  # atno 17371 bound_to 10713
  140.2789  134.8333  157.3915 LP  0  0  0  0  0  0  0  0  0  0  0  0  # atno 17394 bound_to 11000
  140.1452  134.4920  155.8002 LP  0  0  0  0  0  0  0  0  0  0  0  0  # atno 17395 bound_to 11000

$$$$
