AV-unprocessed.smi:28|AV-procd|sdf|189|dock7
  -GOLD-   2262015453D 1   1.00000     0.00000
 Structure written by MMmdl.
 41 44  0  0  0  0  0  0  0  0  1 V2000
  151.1837  139.8028  154.9933 O   0  0  0  0  0  0  0  0  0  0  0  0
  150.7535  138.6521  155.0874 C   0  0  0  0  0  0  0  0  0  0  0  0
  149.4382  138.2469  154.6031 C   0  0  0  0  0  0  0  0  0  0  0  0
  148.6425  139.1513  154.0077 F   0  0  0  0  0  0  0  0  0  0  0  0
  149.0016  136.9767  154.7460 C   0  0  0  0  0  0  0  0  0  0  0  0
  149.7546  135.9817  155.3488 N   0  0  0  0  0  0  0  0  0  0  0  0
  149.2338  134.5696  155.5202 C   0  0  2  0  0  0  0  0  0  0  0  0
  150.2071  133.5512  154.8955 C   0  0  0  0  0  0  0  0  0  0  0  0
  149.3050  132.7345  153.9913 C   0  0  0  0  0  0  0  0  0  0  0  0
  148.2276  133.7437  153.6250 C   0  0  0  0  0  0  0  0  0  0  0  0
  148.0121  134.4278  154.8521 O   0  0  0  0  0  0  0  0  0  0  0  0
  151.0375  136.2865  155.8541 C   0  0  0  0  0  0  0  0  0  0  0  0
  151.7132  135.4226  156.4181 O   0  0  0  0  0  0  0  0  0  0  0  0
  151.5027  137.6130  155.6926 N   0  0  0  0  0  0  0  0  0  0  0  0
  152.8088  137.9446  156.2375 C   0  0  0  0  0  0  0  0  0  0  0  0
  152.6587  138.7723  157.4748 C   0  0  0  0  0  0  0  0  0  0  0  0
  152.6929  138.3540  158.7413 N   0  0  0  0  0  0  0  0  0  0  0  0
  152.5301  139.4829  159.5114 N   0  0  0  0  0  0  0  0  0  0  0  0
  152.4163  140.5030  158.6544 C   0  0  0  0  0  0  0  0  0  0  0  0
  152.2148  141.9202  158.9335 C   0  0  0  0  0  0  0  0  0  0  0  0
  152.6141  142.4256  160.1902 C   0  0  0  0  0  0  0  0  0  0  0  0
  152.4371  143.7866  160.5031 C   0  0  0  0  0  0  0  0  0  0  0  0
  151.8527  144.6533  159.5617 C   0  0  0  0  0  0  0  0  0  0  0  0
  151.4402  144.1552  158.3118 C   0  0  0  0  0  0  0  0  0  0  0  0
  151.6135  142.7932  157.9925 C   0  0  0  0  0  0  0  0  0  0  0  0
  150.9917  142.1764  156.2980 Br  0  0  0  0  0  0  0  0  0  0  0  0
  152.4740  140.1120  157.3539 O   0  0  0  0  0  0  0  0  0  0  0  0
  148.0159  136.7501  154.3696 H   0  0  0  0  0  0  0  0  0  0  0  0
  149.0791  134.4415  156.5930 H   0  0  0  0  0  0  0  0  0  0  0  0
  150.9693  134.0659  154.3078 H   0  0  0  0  0  0  0  0  0  0  0  0
  150.6962  132.9543  155.6660 H   0  0  0  0  0  0  0  0  0  0  0  0
  149.8238  132.3281  153.1228 H   0  0  0  0  0  0  0  0  0  0  0  0
  148.8659  131.9058  154.5484 H   0  0  0  0  0  0  0  0  0  0  0  0
  148.5876  134.4377  152.8638 H   0  0  0  0  0  0  0  0  0  0  0  0
  147.3138  133.2741  153.2607 H   0  0  0  0  0  0  0  0  0  0  0  0
  153.3465  137.0178  156.4439 H   0  0  0  0  0  0  0  0  0  0  0  0
  153.3883  138.4719  155.4783 H   0  0  0  0  0  0  0  0  0  0  0  0
  153.0664  141.7695  160.9200 H   0  0  0  0  0  0  0  0  0  0  0  0
  152.7506  144.1652  161.4649 H   0  0  0  0  0  0  0  0  0  0  0  0
  151.7157  145.6978  159.7996 H   0  0  0  0  0  0  0  0  0  0  0  0
  150.9821  144.8210  157.5953 H   0  0  0  0  0  0  0  0  0  0  0  0
  1  2  2  0  0  0  0
  2 14  1  0  0  0  0
  2  3  1  0  0  0  0
  3  4  1  0  0  0  0
  3  5  2  0  0  0  0
  5  6  1  0  0  0  0
  5 28  1  0  0  0  0
  6  7  1  0  0  0  0
  6 12  1  0  0  0  0
  7 11  1  0  0  0  0
  7  8  1  0  0  0  0
  7 29  1  0  0  0  0
  8  9  1  0  0  0  0
  8 30  1  0  0  0  0
  8 31  1  0  0  0  0
  9 10  1  0  0  0  0
  9 32  1  0  0  0  0
  9 33  1  0  0  0  0
 10 11  1  0  0  0  0
 10 34  1  0  0  0  0
 10 35  1  0  0  0  0
 12 13  2  0  0  0  0
 12 14  1  0  0  0  0
 14 15  1  0  0  0  0
 15 16  1  0  0  0  0
 15 36  1  0  0  0  0
 15 37  1  0  0  0  0
 16 27  1  0  0  0  0
 16 17  2  0  0  0  0
 17 18  1  0  0  0  0
 18 19  2  0  0  0  0
 19 20  1  0  0  0  0
 19 27  1  0  0  0  0
 20 25  1  0  0  0  0
 20 21  2  0  0  0  0
 21 22  1  0  0  0  0
 21 38  1  0  0  0  0
 22 23  2  0  0  0  0
 22 39  1  0  0  0  0
 23 24  1  0  0  0  0
 23 40  1  0  0  0  0
 24 25  2  0  0  0  0
 24 41  1  0  0  0  0
 25 26  1  0  0  0  0
M  END
> <s_m_source_file>
AV-unprocessed.smi

> <i_m_source_file_index>
28

> <i_lp_mmshare_version>
43012

> <i_f3d_flags>
0

> <s_epik_input>
TzFbQ0gyXVtDSDJdW0NIMl1bQ0BIXTFuKFtjSF1jKEYpYzI9TyljKD1PKW4yW0NIMl1jM25uYyhvMyktYzRbY0hdW2NIXVtjSF1bY0hdYzRCcg==

> <s_epik_cmdline>
J2VwaWtfcHl0aG9uJywgJy1waCcsICc3LjAnLCAnLXRuJywgJzgnLCAnLW1hJywgJzIwMCcsICctbWV0YWxfYmluZGluZycsICctaW1hZScsICc8aW5maWxlLm1hZT4nLCAnLW9tYWUnLCAnPG91dGZpbGUubWFlPic=

> <r_lp_tautomer_probability>
1

> <r_epik_Ionization_Penalty>
2.5628e-09

> <r_epik_Ionization_Penalty_Charging>
2.54231e-09

> <r_epik_Ionization_Penalty_Neutral>
2.0492e-11

> <r_epik_State_Penalty>
-0

> <r_epik_Charging_Adjusted_Penalty>
2.54231e-09

> <i_epik_Tot_Q>
0

> <i_epik_Tot_abs_Q>
0

> <r_epik_Metal_State_Penalty>
-0

> <b_epik_Metal_Only>
0

> <s_epik_Chemistry_Notes>
This compound contains an acetal/aminal-like group ( X-CH(R)-Y where X, Y are N, S, or O) that may be acid/base labile, releasing an aldehyde.

> <s_lp_Force_Field>
OPLS_2005

> <r_lp_Energy>
34.3922

> <b_lp_Chiralities_Consistent>
1

> <s_lp_Variant>
AV-unprocessed.smi:28-1

> <Gold.Version>
5.8.1

> <Gold.Id.Protein>
6NUR|6NUR_protein|mol2

> <Gold.PLP.Fitness>
52.5155

> <Gold.PLP.PLP>
-47.1377

> <Gold.PLP.part.hbond>
-3.0000

> <Gold.PLP.part.metal>
0.0000

> <Gold.PLP.part.buried>
-4.8763

> <Gold.PLP.part.nonpolar>
-39.0601

> <Gold.PLP.part.repulsive>
0.1122

> <Gold.PLP.ligand.clash>
0.0000

> <Gold.PLP.ligand.torsion>
0.7586

> <Gold.PLP.Chemscore.Hbond>
2.2220

> <Gold.PLP.Chemscore.CHOScore>
0.0680

> <Gold.PLP.Chemscore.Metal>
0.0000

> <Gold.Chemscore.Hbonds>
donor molecule, donor type, donor heavy atom, donor atom, acceptor molecule, acceptor atom, score
      P1  H  7989  7998       L1     1  1.00
      P1  H  7997  8009       L1    27  0.23
      P1  H 10752 10765       L1    13  1.00
      L1  C     5    28       P1  7948  0.13

> <Gold.PLP.Chemscore.Internal.Correction>
0.0251

> <Gold.Rescore>
     Score         DG    S(hbond)    S(metal)    S(lipo)     H(rot)  DE(clash)    DE(int)     intcor
     13.37     -19.83       1.95        0.00     104.04       1.70       0.21       6.25       ----

> <Gold.Chemscore.Fitness>
13.3708

> <Gold.Chemscore.DG>
-19.8278

> <Gold.Chemscore.ZeroCoef>
-5.4800

> <Gold.Chemscore.Hbond>
1.9527

> <Gold.Chemscore.Metal>
0.0000

> <Gold.Chemscore.Lipo>
104.0392

> <Gold.Chemscore.Internal_Hbond>
0.0000

> <Gold.Chemscore.DEClash>
0.2099

> <Gold.Chemscore.DEInternal>
6.2471

> <Gold.Chemscore.Rot>
1.6980

> <Gold.Chemscore.Internal.Correction>
   9.000000E+99

> <Gold.Chemscore.Hbonds>
donor molecule, donor type, donor heavy atom, donor atom, acceptor molecule, acceptor atom, score
      P1  H  7989  7998       L1     1  1.00
      P1  H 10752 10765       L1    13  0.24

> <Gold.Chemscore.Hbond.Weighted>
-6.5221

> <Gold.Chemscore.Metal.Weighted>
-0.0000

> <Gold.Chemscore.Lipo.Weighted>
-12.1726

> <Gold.Chemscore.Internal_Hbond.Weighted>
0.0000

> <Gold.Chemscore.DEClash.Weighted>
0.2099

> <Gold.Chemscore.DEInternal.Weighted>
6.2471

> <Gold.Chemscore.Rot.Weighted>
4.3469

> <Gold.Chemscore.Internal.Correction.Weighted>
   9.000000E+99

> <Gold.Protein.RotatedTorsions>
[ 6907 6896 6895 6894 ] final -153.33 input  -60.11 | X-H torsion
[ 7974 7965 7964 7962 ] final  -34.44 input  175.53 | X-H torsion
[ 8008 7997 7996 7995 ] final -165.05 input   59.86 | X-H torsion
[ 10167 10162 10161 10158 ] final -178.43 input  -65.29 | X-H torsion
[ 10718 10713 10712 10709 ] final  -51.93 input   66.30 | X-H torsion
[ 10763 10752 10751 10750 ] final -134.24 input  -60.55 | X-H torsion
[ 11005 11000 10999 10996 ] final -141.18 input  -57.11 | X-H torsion

> <Gold.Protein.ActiveResidues>
 VAL166  LYS551  ARG553  GLY616  TRP617  ASP618  TYR619  PRO620  LYS621  CYS622 
 ASP623  PHE694  ASN695  SER759  ASP760  ASP761  ALA762  ILE779  LEU786  VAL792 
 PHE793  MET794  SER795  GLU796  ALA797  LYS798  CYS799  TRP800  GLU811  SER814 

> <Gold.Protein.RotatedAtoms>
  151.2409  133.4400  159.2607 H   0  0  0  0  0  0  0  0  0  0  0  0  # atno 6907 bound_to 6896
  151.0706  134.9796  159.8317 H   0  0  0  0  0  0  0  0  0  0  0  0  # atno 6908 bound_to 6896
  152.5411  134.2354  159.8894 H   0  0  0  0  0  0  0  0  0  0  0  0  # atno 6909 bound_to 6896
  146.0829  140.6039  142.8900 H   0  0  0  0  0  0  0  0  0  0  0  0  # atno 7974 bound_to 7965
  155.8443  140.0953  157.1715 H   0  0  0  0  0  0  0  0  0  0  0  0  # atno 8008 bound_to 7997
  154.3983  140.1395  156.3828 H   0  0  0  0  0  0  0  0  0  0  0  0  # atno 8009 bound_to 7997
  155.8031  140.3452  155.5416 H   0  0  0  0  0  0  0  0  0  0  0  0  # atno 8010 bound_to 7997
  139.5433  144.2304  152.0938 H   0  0  0  0  0  0  0  0  0  0  0  0  # atno 10167 bound_to 10162
  156.1666  130.4149  149.9710 H   0  0  0  0  0  0  0  0  0  0  0  0  # atno 10718 bound_to 10713
  154.8722  135.3741  154.4703 H   0  0  0  0  0  0  0  0  0  0  0  0  # atno 10763 bound_to 10752
  153.5364  135.7027  153.5663 H   0  0  0  0  0  0  0  0  0  0  0  0  # atno 10764 bound_to 10752
  153.3844  135.3988  155.1844 H   0  0  0  0  0  0  0  0  0  0  0  0  # atno 10765 bound_to 10752
  140.8350  134.2471  157.4838 H   0  0  0  0  0  0  0  0  0  0  0  0  # atno 11005 bound_to 11000
  144.7305  140.4658  143.6941 LP  0  0  0  0  0  0  0  0  0  0  0  0  # atno 17320 bound_to 7965
  145.6185  139.1521  143.3036 LP  0  0  0  0  0  0  0  0  0  0  0  0  # atno 17321 bound_to 7965
  140.1786  144.4866  150.6540 LP  0  0  0  0  0  0  0  0  0  0  0  0  # atno 17342 bound_to 10162
  140.6671  143.2272  151.5715 LP  0  0  0  0  0  0  0  0  0  0  0  0  # atno 17343 bound_to 10162
  156.7523  130.9120  151.3638 LP  0  0  0  0  0  0  0  0  0  0  0  0  # atno 17370 bound_to 10713
  157.6772  130.9106  150.0180 LP  0  0  0  0  0  0  0  0  0  0  0  0  # atno 17371 bound_to 10713
  139.8704  134.9606  156.4369 LP  0  0  0  0  0  0  0  0  0  0  0  0  # atno 17394 bound_to 11000
  140.8957  133.7816  155.9622 LP  0  0  0  0  0  0  0  0  0  0  0  0  # atno 17395 bound_to 11000

$$$$
