#       Name:                AV-unprocessed.smi:703
#       Creating user name   scv26
#       Creation time:       Fri Mar 27 00:41:31 2020


#       File generated by GOLD software.
#

@<TRIPOS>MOLECULE
AV-unprocessed.smi:703
    42    43     1
SMALL
NO_CHARGES


@<TRIPOS>ATOM
      1 ****        -2.8285  -4.3163  -0.9128 C.3            1 S1                 0.0000
      2 ****        -2.6529  -2.8760  -1.4122 C.3            1 S1                 0.0000
      3 ****        -1.6999  -2.1064  -0.5788 N.4            1 S1                 1.0000
      4 ****        -2.1638  -1.7990   0.7873 C.3            1 S1                 0.0000
      5 ****        -1.2171  -0.7037   1.2844 C.3            1 S1                 0.0000
      6 ****        -1.8263   0.1922   2.3711 C.3            1 S1                 0.0000
      7 ****        -0.8052   0.0534   0.0079 C.3            1 S1                 0.0000
      8 ****         0.6502   0.2222  -0.0405 N.3            1 S1                 0.0000
      9 ****         1.2857   1.8217  -0.1369 S.o2           1 S1                 0.0000
     10 ****         1.1360   2.2683  -1.5303 O.2            1 S1                 0.0000
     11 ****         0.6835   2.6037   0.9538 O.2            1 S1                 0.0000
     12 ****         3.0728   1.5700   0.2334 C.3            1 S1                 0.0000
     13 ****         3.7800   2.8952   0.2233 C.2            1 S1                 0.0000
     14 ****         4.1968   3.6666  -0.8965 C.2            1 S1                 0.0000
     15 ****         4.7815   4.7620  -0.3289 C.2            1 S1                 0.0000
     16 ****         4.7353   4.6772   1.0245 O.3            1 S1                 0.0000
     17 ****         4.0954   3.4809   1.3677 N.2            1 S1                 0.0000
     18 ****        -1.2934  -0.8135  -1.1643 C.3            1 S1                 0.0000
     19 ****        -3.4831  -4.8773  -1.5799 H              1 S1                 0.0000
     20 ****        -3.2742  -4.3468   0.0817 H              1 S1                 0.0000
     21 ****        -1.8728  -4.8396  -0.8706 H              1 S1                 0.0000
     22 ****        -2.2742  -2.9052  -2.4348 H              1 S1                 0.0000
     23 ****        -3.6165  -2.3659  -1.4490 H              1 S1                 0.0000
     24 ****        -3.1892  -1.4266   0.7481 H              1 S1                 0.0000
     25 ****        -2.1473  -2.6787   1.4315 H              1 S1                 0.0000
     26 ****        -0.3409  -1.2018   1.7044 H              1 S1                 0.0000
     27 ****        -2.7127   0.7132   2.0080 H              1 S1                 0.0000
     28 ****        -1.1094   0.9452   2.7002 H              1 S1                 0.0000
     29 ****        -2.1168  -0.3932   3.2436 H              1 S1                 0.0000
     30 ****        -1.2903   1.0297  -0.0437 H              1 S1                 0.0000
     31 ****         1.0739  -0.3847  -0.7420 H              1 S1                 0.0000
     32 ****         3.1570   1.0800   1.2040 H              1 S1                 0.0000
     33 ****         3.4915   0.8990  -0.5163 H              1 S1                 0.0000
     34 ****         4.0820   3.4523  -1.9485 H              1 S1                 0.0000
     35 ****         5.2542   5.6448  -0.7334 H              1 S1                 0.0000
     36 ****        -0.5432  -0.9526  -1.9442 H              1 S1                 0.0000
     37 ****        -2.1597  -0.3362  -1.6261 H              1 S1                 0.0000
     38 ****        -0.8571  -2.6552  -0.4847 H              1 S1                 0.0000
     39 ****         0.9204  -0.0596   0.8801 LP             1 S1                 0.0000
     40 ****         4.2238   5.4527   1.3947 LP             1 S1                 0.0000
     41 ****         5.6638   4.6827   1.3956 LP             1 S1                 0.0000
     42 ****         3.9135   3.1383   2.2894 LP             1 S1                 0.0000
@<TRIPOS>BOND
    1    1    2 1     
    2    1   19 1     
    3    1   20 1     
    4    1   21 1     
    5    2    3 1     
    6    2   22 1     
    7    2   23 1     
    8    3   18 1     
    9    3    4 1     
   10    3   38 1     
   11    4    5 1     
   12    4   24 1     
   13    4   25 1     
   14    5    6 1     
   15    5    7 1     
   16    5   26 1     
   17    6   27 1     
   18    6   28 1     
   19    6   29 1     
   20    7    8 1     
   21    7   18 1     
   22    7   30 1     
   23    8    9 1     
   24    8   31 1     
   25    9   10 2     
   26    9   11 2     
   27    9   12 1     
   28   12   13 1     
   29   12   32 1     
   30   12   33 1     
   31   13   17 2     
   32   13   14 1     
   33   14   15 2     
   34   14   34 1     
   35   15   16 1     
   36   15   35 1     
   37   16   17 1     
   38   18   36 1     
   39   18   37 1     
   40    8   39 1     
   41   16   40 1     
   42   16   41 1     
   43   17   42 1     
@<TRIPOS>SUBSTRUCTURE
      1 S1             1
@<TRIPOS>SET
LONE_PAIRS      STATIC     ATOMS    <user>   **** ""
6 39 10 11 40 41 42
DONOR_HYDROGENS      STATIC     ATOMS    <user>   **** ""
2 38 31
ATOM$BLUE        STATIC     ATOMS    COLORGROUP SYSTEM
6 39 10 11 40 41 42
ATOM$RED        STATIC     ATOMS    COLORGROUP SYSTEM
2 38 31
