AV-unprocessed.smi:2684|AV-procd|sdf|10380|dock3
  -GOLD-   2272014413D 1   1.00000     0.00000
 Structure written by MMmdl.
 44 45  0  0  0  0  0  0  0  0  1 V2000
  150.7958  141.9327  158.1882 C   0  0  0  0  0  0  0  0  0  0  0  0
  150.5365  141.2723  156.8659 C   0  0  0  0  0  0  0  0  0  0  0  0
  151.3880  140.3851  156.1484 C   0  0  0  0  0  0  0  0  0  0  0  0
  150.8654  139.9862  155.0004 N   0  0  0  0  0  0  0  0  0  0  0  0
  149.6601  140.5931  154.9499 N   0  0  0  0  0  0  0  0  0  0  0  0
  148.7925  140.3898  153.8032 C   0  0  0  0  0  0  0  0  0  0  0  0
  147.8388  139.1819  153.9479 C   0  0  2  0  0  0  0  0  0  0  0  0
  148.5295  138.0292  154.6900 C   0  0  0  0  0  0  0  0  0  0  0  0
  147.4403  138.6726  152.6380 N   0  0  0  0  0  0  0  0  0  0  0  0
  146.0097  138.3468  152.5794 C   0  0  0  0  0  0  0  0  0  0  0  0
  145.7789  136.8481  152.3407 C   0  0  0  0  0  0  0  0  0  0  0  0
  146.0865  136.0502  153.2244 O   0  0  0  0  0  0  0  0  0  0  0  0
  145.2390  136.4122  151.1882 N   0  0  0  0  0  0  0  0  0  0  0  0
  144.9426  135.0422  150.7743 C   0  0  0  0  0  0  0  0  0  0  0  0
  143.8036  134.4311  151.6120 C   0  0  0  0  0  0  0  0  0  0  0  0
  143.6223  132.9428  151.2749 C   0  0  0  0  0  0  0  0  0  0  0  0
  144.8425  132.2434  151.4929 O   0  0  0  0  0  0  0  0  0  0  0  0
  145.8998  132.6986  150.6563 C   0  0  0  0  0  0  0  0  0  0  0  0
  146.2026  134.1787  150.9416 C   0  0  0  0  0  0  0  0  0  0  0  0
  149.4380  141.3783  156.0608 C   0  0  0  0  0  0  0  0  0  0  0  0
  151.5103  141.3697  158.7891 H   0  0  0  0  0  0  0  0  0  0  0  0
  149.8831  142.0268  158.7772 H   0  0  0  0  0  0  0  0  0  0  0  0
  151.2024  142.9365  158.0618 H   0  0  0  0  0  0  0  0  0  0  0  0
  152.3680  140.0249  156.4247 H   0  0  0  0  0  0  0  0  0  0  0  0
  148.2244  141.3051  153.6285 H   0  0  0  0  0  0  0  0  0  0  0  0
  149.4308  140.2546  152.9288 H   0  0  0  0  0  0  0  0  0  0  0  0
  146.9637  139.4653  154.5360 H   0  0  0  0  0  0  0  0  0  0  0  0
  148.8368  138.3373  155.6896 H   0  0  0  0  0  0  0  0  0  0  0  0
  149.4203  137.6886  154.1606 H   0  0  0  0  0  0  0  0  0  0  0  0
  147.8606  137.1751  154.8035 H   0  0  0  0  0  0  0  0  0  0  0  0
  147.9958  137.8563  152.4242 H   0  0  0  0  0  0  0  0  0  0  0  0
  145.5400  138.6084  153.5284 H   0  0  0  0  0  0  0  0  0  0  0  0
  145.5308  138.9557  151.8187 H   0  0  0  0  0  0  0  0  0  0  0  0
  144.9929  137.1266  150.5184 H   0  0  0  0  0  0  0  0  0  0  0  0
  144.6725  135.0307  149.7180 H   0  0  0  0  0  0  0  0  0  0  0  0
  144.0303  134.5325  152.6742 H   0  0  0  0  0  0  0  0  0  0  0  0
  142.8654  134.9594  151.4450 H   0  0  0  0  0  0  0  0  0  0  0  0
  142.8495  132.5072  151.9082 H   0  0  0  0  0  0  0  0  0  0  0  0
  143.2958  132.8156  150.2417 H   0  0  0  0  0  0  0  0  0  0  0  0
  146.7855  132.0930  150.8483 H   0  0  0  0  0  0  0  0  0  0  0  0
  145.6373  132.5498  149.6090 H   0  0  0  0  0  0  0  0  0  0  0  0
  146.9937  134.5310  150.2789 H   0  0  0  0  0  0  0  0  0  0  0  0
  146.5842  134.2722  151.9595 H   0  0  0  0  0  0  0  0  0  0  0  0
  148.5252  141.9422  156.1852 H   0  0  0  0  0  0  0  0  0  0  0  0
  1  2  1  0  0  0  0
  1 21  1  0  0  0  0
  1 22  1  0  0  0  0
  1 23  1  0  0  0  0
  2 20  2  0  0  0  0
  2  3  1  0  0  0  0
  3  4  2  0  0  0  0
  3 24  1  0  0  0  0
  4  5  1  0  0  0  0
  5  6  1  0  0  0  0
  5 20  1  0  0  0  0
  6  7  1  0  0  0  0
  6 25  1  0  0  0  0
  6 26  1  0  0  0  0
  7  8  1  0  0  0  0
  7  9  1  0  0  0  0
  7 27  1  0  0  0  0
  8 28  1  0  0  0  0
  8 29  1  0  0  0  0
  8 30  1  0  0  0  0
  9 10  1  0  0  0  0
  9 31  1  0  0  0  0
 10 11  1  0  0  0  0
 10 32  1  0  0  0  0
 10 33  1  0  0  0  0
 11 12  2  0  0  0  0
 11 13  1  0  0  0  0
 13 14  1  0  0  0  0
 13 34  1  0  0  0  0
 14 19  1  0  0  0  0
 14 15  1  0  0  0  0
 14 35  1  0  0  0  0
 15 16  1  0  0  0  0
 15 36  1  0  0  0  0
 15 37  1  0  0  0  0
 16 17  1  0  0  0  0
 16 38  1  0  0  0  0
 16 39  1  0  0  0  0
 17 18  1  0  0  0  0
 18 19  1  0  0  0  0
 18 40  1  0  0  0  0
 18 41  1  0  0  0  0
 19 42  1  0  0  0  0
 19 43  1  0  0  0  0
 20 44  1  0  0  0  0
M  END
> <s_m_source_file>
AV-unprocessed.smi

> <i_m_source_file_index>
2684

> <i_lp_mmshare_version>
43012

> <i_f3d_flags>
0

> <s_epik_input>
W0NIM11jMVtjSF1ubihbY0hdMSlbQ0gyXVtDQEhdKFtDSDNdKVtOSF1bQ0gyXUMoPU8pW05IXVtDSF0yW0NIMl1bQ0gyXU9bQ0gyXVtDSDJdMg==

> <s_epik_cmdline>
J2VwaWtfcHl0aG9uJywgJy1waCcsICc3LjAnLCAnLXRuJywgJzgnLCAnLW1hJywgJzIwMCcsICctbWV0YWxfYmluZGluZycsICctaW1hZScsICc8aW5maWxlLm1hZT4nLCAnLW9tYWUnLCAnPG91dGZpbGUubWFlPic=

> <r_lp_tautomer_probability>
1

> <r_epik_Ionization_Penalty>
0.968507

> <r_epik_Ionization_Penalty_Charging>
0

> <r_epik_Ionization_Penalty_Neutral>
0.968507

> <r_epik_State_Penalty>
1.01412

> <r_epik_Charging_Adjusted_Penalty>
1.01412

> <i_epik_Tot_Q>
0

> <i_epik_Tot_abs_Q>
0

> <r_epik_Metal_State_Penalty>
1.01401

> <b_epik_Metal_Only>
0

> <s_lp_Force_Field>
OPLS_2005

> <r_lp_Energy>
12.1402

> <b_lp_Chiralities_Consistent>
1

> <s_lp_Variant>
AV-unprocessed.smi:2684-3

> <Gold.Version>
5.8.1

> <Gold.Id.Protein>
6NUR|6NUR_protein|mol2

> <Gold.PLP.Fitness>
42.9327

> <Gold.PLP.PLP>
-35.2484

> <Gold.PLP.part.hbond>
-4.0000

> <Gold.PLP.part.metal>
0.0000

> <Gold.PLP.part.buried>
1.3200

> <Gold.PLP.part.nonpolar>
-32.7252

> <Gold.PLP.part.repulsive>
0.3502

> <Gold.PLP.ligand.clash>
0.0000

> <Gold.PLP.ligand.torsion>
1.7201

> <Gold.PLP.Chemscore.Hbond>
3.0000

> <Gold.PLP.Chemscore.CHOScore>
0.6926

> <Gold.PLP.Chemscore.Metal>
0.0000

> <Gold.Chemscore.Hbonds>
donor molecule, donor type, donor heavy atom, donor atom, acceptor molecule, acceptor atom, score
      L1  H     9    31       P1  7948  1.00
      L1  H    13    34       P1 10171  1.00
      P1  H  7989  7998       L1     4  0.85
      L1  C    20    44       P1  8028  0.14

> <Gold.PLP.Chemscore.Internal.Correction>
0.0468

> <Gold.Rescore>
     Score         DG    S(hbond)    S(metal)    S(lipo)     H(rot)  DE(clash)    DE(int)     intcor
     12.80     -16.80       1.95        0.00      84.31       1.97       1.88       2.12       ----

> <Gold.Chemscore.Fitness>
12.8014

> <Gold.Chemscore.DG>
-16.8029

> <Gold.Chemscore.ZeroCoef>
-5.4800

> <Gold.Chemscore.Hbond>
1.9493

> <Gold.Chemscore.Metal>
0.0000

> <Gold.Chemscore.Lipo>
84.3118

> <Gold.Chemscore.Internal_Hbond>
0.0000

> <Gold.Chemscore.DEClash>
1.8768

> <Gold.Chemscore.DEInternal>
2.1248

> <Gold.Chemscore.Rot>
1.9736

> <Gold.Chemscore.Internal.Correction>
   9.000000E+99

> <Gold.Chemscore.Hbonds>
donor molecule, donor type, donor heavy atom, donor atom, acceptor molecule, acceptor atom, score
      L1  H     9    31       P1  7948  0.99
      L1  H    13    34       P1 10171  0.96
      P1  H  7989  7998       L1     4  0.12

> <Gold.Chemscore.Hbond.Weighted>
-6.5108

> <Gold.Chemscore.Metal.Weighted>
-0.0000

> <Gold.Chemscore.Lipo.Weighted>
-9.8645

> <Gold.Chemscore.Internal_Hbond.Weighted>
0.0000

> <Gold.Chemscore.DEClash.Weighted>
1.8768

> <Gold.Chemscore.DEInternal.Weighted>
2.1248

> <Gold.Chemscore.Rot.Weighted>
5.0523

> <Gold.Chemscore.Internal.Correction.Weighted>
   9.000000E+99

> <Gold.Protein.RotatedTorsions>
[ 6907 6896 6895 6894 ] final -134.27 input  -60.11 | X-H torsion
[ 7974 7965 7964 7962 ] final  -74.49 input  175.53 | X-H torsion
[ 8008 7997 7996 7995 ] final  -96.57 input   59.86 | X-H torsion
[ 10167 10162 10161 10158 ] final  -50.11 input  -65.29 | X-H torsion
[ 10718 10713 10712 10709 ] final  -22.34 input   66.30 | X-H torsion
[ 10763 10752 10751 10750 ] final   36.22 input  -60.55 | X-H torsion
[ 11005 11000 10999 10996 ] final  146.06 input  -57.11 | X-H torsion

> <Gold.Protein.ActiveResidues>
 VAL166  LYS551  ARG553  GLY616  TRP617  ASP618  TYR619  PRO620  LYS621  CYS622 
 ASP623  PHE694  ASN695  SER759  ASP760  ASP761  ALA762  ILE779  LEU786  VAL792 
 PHE793  MET794  SER795  GLU796  ALA797  LYS798  CYS799  TRP800  GLU811  SER814 

> <Gold.Protein.RotatedAtoms>
  150.9839  133.6217  159.2718 H   0  0  0  0  0  0  0  0  0  0  0  0  # atno 6907 bound_to 6896
  151.3462  135.0873  159.9397 H   0  0  0  0  0  0  0  0  0  0  0  0  # atno 6908 bound_to 6896
  152.5224  133.9441  159.7695 H   0  0  0  0  0  0  0  0  0  0  0  0  # atno 6909 bound_to 6896
  145.6385  140.9318  143.1049 H   0  0  0  0  0  0  0  0  0  0  0  0  # atno 7974 bound_to 7965
  154.7761  140.0470  157.1090 H   0  0  0  0  0  0  0  0  0  0  0  0  # atno 8008 bound_to 7997
  154.9761  140.3095  155.4947 H   0  0  0  0  0  0  0  0  0  0  0  0  # atno 8009 bound_to 7997
  156.2929  140.2244  156.4856 H   0  0  0  0  0  0  0  0  0  0  0  0  # atno 8010 bound_to 7997
  140.6653  143.2670  151.4313 H   0  0  0  0  0  0  0  0  0  0  0  0  # atno 10167 bound_to 10162
  156.5059  130.4599  149.6675 H   0  0  0  0  0  0  0  0  0  0  0  0  # atno 10718 bound_to 10713
  153.0086  135.6312  154.1951 H   0  0  0  0  0  0  0  0  0  0  0  0  # atno 10763 bound_to 10752
  154.1694  135.2819  155.3087 H   0  0  0  0  0  0  0  0  0  0  0  0  # atno 10764 bound_to 10752
  154.5920  135.5614  153.7348 H   0  0  0  0  0  0  0  0  0  0  0  0  # atno 10765 bound_to 10752
  140.0762  134.9123  157.1427 H   0  0  0  0  0  0  0  0  0  0  0  0  # atno 11005 bound_to 11000
  144.7166  139.8174  143.7396 LP  0  0  0  0  0  0  0  0  0  0  0  0  # atno 17320 bound_to 7965
  146.1300  139.4333  143.0175 LP  0  0  0  0  0  0  0  0  0  0  0  0  # atno 17321 bound_to 7965
  139.5900  144.1521  152.2076 LP  0  0  0  0  0  0  0  0  0  0  0  0  # atno 17342 bound_to 10162
  140.0872  144.5651  150.7080 LP  0  0  0  0  0  0  0  0  0  0  0  0  # atno 17343 bound_to 10162
  156.3287  130.7320  151.2245 LP  0  0  0  0  0  0  0  0  0  0  0  0  # atno 17370 bound_to 10713
  157.7457  131.0436  150.4750 LP  0  0  0  0  0  0  0  0  0  0  0  0  # atno 17371 bound_to 10713
  140.3554  134.2552  155.7193 LP  0  0  0  0  0  0  0  0  0  0  0  0  # atno 17394 bound_to 11000
  141.2030  133.7923  157.0360 LP  0  0  0  0  0  0  0  0  0  0  0  0  # atno 17395 bound_to 11000

$$$$
