AV-unprocessed.smi:1610|AV-procd|sdf|6473|dock7
  -GOLD-   22720 7133D 1   1.00000     0.00000
 Structure written by MMmdl.
 44 45  0  0  0  0  0  0  0  0  3 V2000
  151.3156  140.9342  157.2394 C   0  0  0  0  0  0  0  0  0  0  0  0
  151.4789  139.4730  156.1395 S   0  0  0  0  0  0  0  0  0  0  0  0
  152.9108  139.3779  155.8126 O   0  0  0  0  0  0  0  0  0  0  0  0
  150.8762  138.3492  156.8736 O   0  0  0  0  0  0  0  0  0  0  0  0
  150.5909  139.9572  154.8706 N   0  5  0  0  0  0  0  0  0  0  0  0
  149.1369  140.0655  154.9569 C   0  0  0  0  0  0  0  0  0  0  0  0
  148.4622  138.6803  155.2003 C   0  0  0  0  0  0  0  0  0  0  0  0
  146.9330  138.6609  154.9295 C   0  0  0  0  0  0  0  0  0  0  0  0
  146.6627  139.1253  153.5551 N   0  0  0  0  0  0  0  0  0  0  0  0
  146.5022  138.3439  152.4583 C   0  0  0  0  0  0  0  0  0  0  0  0
  146.6671  138.7571  151.3096 O   0  0  0  0  0  0  0  0  0  0  0  0
  146.2104  137.0583  152.7256 N   0  0  0  0  0  0  0  0  0  0  0  0
  146.2310  135.9632  151.7573 C   0  0  0  0  0  0  0  0  0  0  0  0
  146.1572  134.5837  152.4461 C   0  0  0  0  0  0  0  0  0  0  0  0
  145.3246  133.5546  151.6952 C   0  0  0  0  0  0  0  0  0  0  0  0
  145.8212  132.2524  151.4634 C   0  0  0  0  0  0  0  0  0  0  0  0
  145.0036  131.3046  150.8129 C   0  0  0  0  0  0  0  0  0  0  0  0
  143.7084  131.6810  150.4028 C   0  0  0  0  0  0  0  0  0  0  0  0
  143.2741  132.9399  150.6254 N   0  3  0  0  0  0  0  0  0  0  0  0
  144.0268  133.8767  151.2416 C   0  0  0  0  0  0  0  0  0  0  0  0
  147.0559  140.5397  153.4495 C   0  0  0  0  0  0  0  0  0  0  0  0
  148.5960  140.6660  153.6259 C   0  0  0  0  0  0  0  0  0  0  0  0
  151.8862  140.7639  158.1518 H   0  0  0  0  0  0  0  0  0  0  0  0
  150.2660  141.0829  157.4918 H   0  0  0  0  0  0  0  0  0  0  0  0
  151.6979  141.8189  156.7316 H   0  0  0  0  0  0  0  0  0  0  0  0
  148.8350  140.7284  155.7682 H   0  0  0  0  0  0  0  0  0  0  0  0
  148.9230  137.9316  154.5603 H   0  0  0  0  0  0  0  0  0  0  0  0
  148.6456  138.3547  156.2248 H   0  0  0  0  0  0  0  0  0  0  0  0
  146.5331  137.6656  155.1239 H   0  0  0  0  0  0  0  0  0  0  0  0
  146.4109  139.3074  155.6383 H   0  0  0  0  0  0  0  0  0  0  0  0
  146.0763  136.8035  153.6934 H   0  0  0  0  0  0  0  0  0  0  0  0
  145.3870  136.0818  151.0775 H   0  0  0  0  0  0  0  0  0  0  0  0
  147.1255  136.0141  151.1348 H   0  0  0  0  0  0  0  0  0  0  0  0
  147.1682  134.1933  152.5690 H   0  0  0  0  0  0  0  0  0  0  0  0
  145.7527  134.6955  153.4526 H   0  0  0  0  0  0  0  0  0  0  0  0
  146.8093  131.9749  151.8002 H   0  0  0  0  0  0  0  0  0  0  0  0
  145.3611  130.2999  150.6416 H   0  0  0  0  0  0  0  0  0  0  0  0
  143.0094  131.0189  149.9132 H   0  0  0  0  0  0  0  0  0  0  0  0
  143.5544  134.8386  151.3787 H   0  0  0  0  0  0  0  0  0  0  0  0
  146.7586  140.9736  152.4937 H   0  0  0  0  0  0  0  0  0  0  0  0
  146.5276  141.1276  154.2032 H   0  0  0  0  0  0  0  0  0  0  0  0
  148.8862  141.7146  153.5532 H   0  0  0  0  0  0  0  0  0  0  0  0
  149.0722  140.1645  152.7813 H   0  0  0  0  0  0  0  0  0  0  0  0
  142.3282  133.1905  150.3337 H   0  0  0  0  0  0  0  0  0  0  0  0
  1  2  1  0  0  0  0
  1 23  1  0  0  0  0
  1 24  1  0  0  0  0
  1 25  1  0  0  0  0
  2  3  2  0  0  0  0
  2  4  2  0  0  0  0
  2  5  1  0  0  0  0
  5  6  1  0  0  0  0
  6 22  1  0  0  0  0
  6  7  1  0  0  0  0
  6 26  1  0  0  0  0
  7  8  1  0  0  0  0
  7 27  1  0  0  0  0
  7 28  1  0  0  0  0
  8  9  1  0  0  0  0
  8 29  1  0  0  0  0
  8 30  1  0  0  0  0
  9 10  1  0  0  0  0
  9 21  1  0  0  0  0
 10 11  2  0  0  0  0
 10 12  1  0  0  0  0
 12 13  1  0  0  0  0
 12 31  1  0  0  0  0
 13 14  1  0  0  0  0
 13 32  1  0  0  0  0
 13 33  1  0  0  0  0
 14 15  1  0  0  0  0
 14 34  1  0  0  0  0
 14 35  1  0  0  0  0
 15 20  1  0  0  0  0
 15 16  2  0  0  0  0
 16 17  1  0  0  0  0
 16 36  1  0  0  0  0
 17 18  2  0  0  0  0
 17 37  1  0  0  0  0
 18 19  1  0  0  0  0
 18 38  1  0  0  0  0
 19 20  2  0  0  0  0
 19 44  1  0  0  0  0
 20 39  1  0  0  0  0
 21 22  1  0  0  0  0
 21 40  1  0  0  0  0
 21 41  1  0  0  0  0
 22 42  1  0  0  0  0
 22 43  1  0  0  0  0
M  CHG  1   5  -1
M  CHG  1  19   1
M  END
> <s_m_source_file>
AV-unprocessed.smi

> <i_m_source_file_index>
1610

> <i_lp_mmshare_version>
43012

> <i_f3d_flags>
0

> <s_epik_input>
W0NIM11TKD1PKSg9TylbTkhdW0NIXTFbQ0gyXVtDSDJdTihbQ0gyXVtDSDJdMSlDKD1PKVtOSF1bQ0gyXVtDSDJdYzJbY0hdW2NIXVtjSF1uW2NIXTI=

> <s_epik_cmdline>
J2VwaWtfcHl0aG9uJywgJy1waCcsICc3LjAnLCAnLXRuJywgJzgnLCAnLW1hJywgJzIwMCcsICctbWV0YWxfYmluZGluZycsICctaW1hZScsICc8aW5maWxlLm1hZT4nLCAnLW9tYWUnLCAnPG91dGZpbGUubWFlPic=

> <r_epik_Ionization_Penalty>
8.91489

> <r_epik_Ionization_Penalty_Charging>
8.91482

> <r_epik_Ionization_Penalty_Neutral>
6.17235e-05

> <r_epik_State_Penalty>
9.05939

> <r_epik_Charging_Adjusted_Penalty>
17.9742

> <i_epik_Tot_Q>
0

> <i_epik_Tot_abs_Q>
2

> <r_epik_Metal_State_Penalty>
4.99481

> <b_epik_Metal_Only>
1

> <s_lp_Force_Field>
OPLS_2005

> <r_lp_Energy>
23.4301

> <b_lp_Chiralities_Consistent>
1

> <s_lp_Variant>
AV-unprocessed.smi:1610-4

> <Gold.Version>
5.8.1

> <Gold.Id.Protein>
6NUR|6NUR_protein|mol2

> <Gold.PLP.Fitness>
47.8907

> <Gold.PLP.PLP>
-34.2933

> <Gold.PLP.part.hbond>
-5.0000

> <Gold.PLP.part.metal>
0.0000

> <Gold.PLP.part.buried>
3.1050

> <Gold.PLP.part.nonpolar>
-32.6996

> <Gold.PLP.part.repulsive>
1.3298

> <Gold.PLP.ligand.clash>
0.0000

> <Gold.PLP.ligand.torsion>
1.0587

> <Gold.PLP.Chemscore.Hbond>
4.8596

> <Gold.PLP.Chemscore.CHOScore>
0.0000

> <Gold.PLP.Chemscore.Metal>
0.0000

> <Gold.Chemscore.Hbonds>
donor molecule, donor type, donor heavy atom, donor atom, acceptor molecule, acceptor atom, score
      L1  H    19    44       P1 10186  2.00
      P1  H  7954  7966       L1    11  0.47
      P1  H  7989  7998       L1     5  1.00
      P1  H  7997  8008       L1     3  1.00

> <Gold.PLP.Chemscore.Internal.Correction>
1.1362

> <Gold.Rescore>
     Score         DG    S(hbond)    S(metal)    S(lipo)     H(rot)  DE(clash)    DE(int)     intcor
     17.20     -23.18       3.80        0.00      81.52       1.77       3.65       2.33       ----

> <Gold.Chemscore.Fitness>
17.1983

> <Gold.Chemscore.DG>
-23.1794

> <Gold.Chemscore.ZeroCoef>
-5.4800

> <Gold.Chemscore.Hbond>
3.7973

> <Gold.Chemscore.Metal>
0.0000

> <Gold.Chemscore.Lipo>
81.5191

> <Gold.Chemscore.Internal_Hbond>
0.0000

> <Gold.Chemscore.DEClash>
3.6484

> <Gold.Chemscore.DEInternal>
2.3326

> <Gold.Chemscore.Rot>
1.7661

> <Gold.Chemscore.Internal.Correction>
   9.000000E+99

> <Gold.Chemscore.Hbonds>
donor molecule, donor type, donor heavy atom, donor atom, acceptor molecule, acceptor atom, score
      L1  H    19    44       P1 10186  0.95
      P1  H  7954  7966       L1    11  0.45
      P1  H  7989  7998       L1     5  0.86
      P1  H  7997  8008       L1     3  1.00

> <Gold.Chemscore.Hbond.Weighted>
-12.6828

> <Gold.Chemscore.Metal.Weighted>
-0.0000

> <Gold.Chemscore.Lipo.Weighted>
-9.5377

> <Gold.Chemscore.Internal_Hbond.Weighted>
0.0000

> <Gold.Chemscore.DEClash.Weighted>
3.6484

> <Gold.Chemscore.DEInternal.Weighted>
2.3326

> <Gold.Chemscore.Rot.Weighted>
4.5211

> <Gold.Chemscore.Internal.Correction.Weighted>
   9.000000E+99

> <Gold.Protein.RotatedTorsions>
[ 6907 6896 6895 6894 ] final  -82.46 input  -60.11 | X-H torsion
[ 7974 7965 7964 7962 ] final   79.47 input  175.53 | X-H torsion
[ 8008 7997 7996 7995 ] final  -38.01 input   59.86 | X-H torsion
[ 10167 10162 10161 10158 ] final  -90.49 input  -65.29 | X-H torsion
[ 10718 10713 10712 10709 ] final -101.54 input   66.30 | X-H torsion
[ 10763 10752 10751 10750 ] final -162.31 input  -60.55 | X-H torsion
[ 11005 11000 10999 10996 ] final -167.89 input  -57.11 | X-H torsion

> <Gold.Protein.ActiveResidues>
 VAL166  LYS551  ARG553  GLY616  TRP617  ASP618  TYR619  PRO620  LYS621  CYS622 
 ASP623  PHE694  ASN695  SER759  ASP760  ASP761  ALA762  ILE779  LEU786  VAL792 
 PHE793  MET794  SER795  GLU796  ALA797  LYS798  CYS799  TRP800  GLU811  SER814 

> <Gold.Protein.RotatedAtoms>
  150.6897  134.3662  159.4971 H   0  0  0  0  0  0  0  0  0  0  0  0  # atno 6907 bound_to 6896
  152.1484  134.9005  160.0559 H   0  0  0  0  0  0  0  0  0  0  0  0  # atno 6908 bound_to 6896
  152.0112  133.3827  159.4257 H   0  0  0  0  0  0  0  0  0  0  0  0  # atno 6909 bound_to 6896
  145.6637  139.2478  143.1908 H   0  0  0  0  0  0  0  0  0  0  0  0  # atno 7974 bound_to 7965
  154.4043  140.1589  156.2631 H   0  0  0  0  0  0  0  0  0  0  0  0  # atno 8008 bound_to 7997
  155.9019  140.3432  155.6011 H   0  0  0  0  0  0  0  0  0  0  0  0  # atno 8009 bound_to 7997
  155.7438  140.0796  157.2224 H   0  0  0  0  0  0  0  0  0  0  0  0  # atno 8010 bound_to 7997
  140.3544  143.2874  151.9688 H   0  0  0  0  0  0  0  0  0  0  0  0  # atno 10167 bound_to 10162
  156.0198  130.5378  150.6978 H   0  0  0  0  0  0  0  0  0  0  0  0  # atno 10718 bound_to 10713
  154.7226  135.3029  154.9023 H   0  0  0  0  0  0  0  0  0  0  0  0  # atno 10763 bound_to 10752
  153.9891  135.6721  153.4757 H   0  0  0  0  0  0  0  0  0  0  0  0  # atno 10764 bound_to 10752
  153.0847  135.4990  154.8490 H   0  0  0  0  0  0  0  0  0  0  0  0  # atno 10765 bound_to 10752
  140.5482  134.5455  157.5116 H   0  0  0  0  0  0  0  0  0  0  0  0  # atno 11005 bound_to 11000
  146.1103  140.7436  142.9506 LP  0  0  0  0  0  0  0  0  0  0  0  0  # atno 17320 bound_to 7965
  144.7080  140.3929  143.7103 LP  0  0  0  0  0  0  0  0  0  0  0  0  # atno 17321 bound_to 7965
  139.4822  144.6048  151.7541 LP  0  0  0  0  0  0  0  0  0  0  0  0  # atno 17342 bound_to 10162
  140.5188  144.0912  150.6016 LP  0  0  0  0  0  0  0  0  0  0  0  0  # atno 17343 bound_to 10162
  157.4645  131.0886  151.0710 LP  0  0  0  0  0  0  0  0  0  0  0  0  # atno 17370 bound_to 10713
  157.1188  130.6053  149.5500 LP  0  0  0  0  0  0  0  0  0  0  0  0  # atno 17371 bound_to 10713
  139.9469  134.7686  156.0541 LP  0  0  0  0  0  0  0  0  0  0  0  0  # atno 17394 bound_to 11000
  141.1187  133.6619  156.3160 LP  0  0  0  0  0  0  0  0  0  0  0  0  # atno 17395 bound_to 11000

$$$$
