AV-unprocessed.smi:1867|AV-procd|sdf|7579|dock2
  -GOLD-   22720 9293D 1   1.00000     0.00000
 Structure written by MMmdl.
 52 55  0  0  0  0  0  0  0  0  4 V2000
  148.1705  137.4452  155.3601 O   0  0  0  0  0  0  0  0  0  0  0  0
  147.4582  138.2257  154.7315 C   0  0  0  0  0  0  0  0  0  0  0  0
  147.6578  139.5595  154.8724 N   0  0  0  0  0  0  0  0  0  0  0  0
  148.6624  140.2441  155.6078 C   0  0  0  0  0  0  0  0  0  0  0  0
  149.2203  139.5910  156.7262 C   0  0  0  0  0  0  0  0  0  0  0  0
  150.2047  140.2417  157.4980 C   0  0  0  0  0  0  0  0  0  0  0  0
  150.6184  141.5488  157.1486 C   0  0  0  0  0  0  0  0  0  0  0  0
  151.5939  142.2599  157.8730 N   0  0  0  0  0  0  0  0  0  0  0  0
  151.8771  141.9484  159.2655 C   0  0  0  0  0  0  0  0  0  0  0  0
  152.8183  143.0599  159.7266 C   0  0  0  0  0  0  0  0  0  0  0  0
  152.3550  144.2660  158.9102 C   0  0  0  0  0  0  0  0  0  0  0  0
  151.8761  143.6595  157.5859 C   0  0  0  0  0  0  0  0  0  0  0  0
  150.0376  142.1465  156.0810 N   0  3  0  0  0  0  0  0  0  0  0  0
  149.0933  141.5595  155.3145 C   0  0  0  0  0  0  0  0  0  0  0  0
  146.4608  137.7704  153.9149 N   0  5  0  0  0  0  0  0  0  0  0  0
  145.7714  138.4601  152.8105 C   0  0  1  0  0  0  0  0  0  0  0  0
  146.7041  138.5742  151.5978 C   0  0  0  0  0  0  0  0  0  0  0  0
  146.5473  137.2501  150.8257 C   0  0  0  0  0  0  0  0  0  0  0  0
  145.2924  136.6098  151.2969 N   0  3  1  0  0  0  0  0  0  0  0  0
  145.5174  135.2393  151.8414 C   0  0  0  0  0  0  0  0  0  0  0  0
  144.2734  134.6767  152.5389 C   0  0  0  0  0  0  0  0  0  0  0  0
  143.8663  135.5925  153.6950 C   0  0  0  0  0  0  0  0  0  0  0  0
  143.5490  136.9930  153.1539 C   0  0  0  0  0  0  0  0  0  0  0  0
  144.6461  137.5822  152.2229 C   0  0  1  0  0  0  0  0  0  0  0  0
  146.9709  140.1483  154.4248 H   0  0  0  0  0  0  0  0  0  0  0  0
  148.9005  138.5940  156.9919 H   0  0  0  0  0  0  0  0  0  0  0  0
  150.6241  139.7321  158.3527 H   0  0  0  0  0  0  0  0  0  0  0  0
  150.9500  141.9671  159.8404 H   0  0  0  0  0  0  0  0  0  0  0  0
  152.3329  140.9636  159.3738 H   0  0  0  0  0  0  0  0  0  0  0  0
  152.7789  143.2304  160.8028 H   0  0  0  0  0  0  0  0  0  0  0  0
  153.8463  142.8087  159.4613 H   0  0  0  0  0  0  0  0  0  0  0  0
  151.5163  144.7461  159.4165 H   0  0  0  0  0  0  0  0  0  0  0  0
  153.1361  145.0145  158.7748 H   0  0  0  0  0  0  0  0  0  0  0  0
  152.6615  143.7123  156.8313 H   0  0  0  0  0  0  0  0  0  0  0  0
  151.0025  144.1916  157.2088 H   0  0  0  0  0  0  0  0  0  0  0  0
  148.7143  142.1711  154.5095 H   0  0  0  0  0  0  0  0  0  0  0  0
  145.3870  139.4376  153.1053 H   0  0  0  0  0  0  0  0  0  0  0  0
  146.3663  139.3973  150.9664 H   0  0  0  0  0  0  0  0  0  0  0  0
  147.7410  138.7844  151.8646 H   0  0  0  0  0  0  0  0  0  0  0  0
  146.4947  137.4288  149.7515 H   0  0  0  0  0  0  0  0  0  0  0  0
  147.4120  136.6058  150.9975 H   0  0  0  0  0  0  0  0  0  0  0  0
  145.8170  134.5814  151.0253 H   0  0  0  0  0  0  0  0  0  0  0  0
  146.3455  135.2498  152.5520 H   0  0  0  0  0  0  0  0  0  0  0  0
  143.4529  134.5778  151.8267 H   0  0  0  0  0  0  0  0  0  0  0  0
  144.4826  133.6755  152.9164 H   0  0  0  0  0  0  0  0  0  0  0  0
  142.9956  135.1854  154.2096 H   0  0  0  0  0  0  0  0  0  0  0  0
  144.6670  135.6417  154.4337 H   0  0  0  0  0  0  0  0  0  0  0  0
  142.6283  136.9134  152.5743 H   0  0  0  0  0  0  0  0  0  0  0  0
  143.3097  137.6714  153.9751 H   0  0  0  0  0  0  0  0  0  0  0  0
  144.1046  138.2573  151.5572 H   0  0  0  0  0  0  0  0  0  0  0  0
  144.6724  136.5051  150.5073 H   0  0  0  0  0  0  0  0  0  0  0  0
  150.3272  143.0945  155.8409 H   0  0  0  0  0  0  0  0  0  0  0  0
  1  2  2  0  0  0  0
  2  3  1  0  0  0  0
  2 15  1  0  0  0  0
  3  4  1  0  0  0  0
  3 25  1  0  0  0  0
  4 14  1  0  0  0  0
  4  5  2  0  0  0  0
  5  6  1  0  0  0  0
  5 26  1  0  0  0  0
  6  7  2  0  0  0  0
  6 27  1  0  0  0  0
  7  8  1  0  0  0  0
  7 13  1  0  0  0  0
  8 12  1  0  0  0  0
  8  9  1  0  0  0  0
  9 10  1  0  0  0  0
  9 28  1  0  0  0  0
  9 29  1  0  0  0  0
 10 11  1  0  0  0  0
 10 30  1  0  0  0  0
 10 31  1  0  0  0  0
 11 12  1  0  0  0  0
 11 32  1  0  0  0  0
 11 33  1  0  0  0  0
 12 34  1  0  0  0  0
 12 35  1  0  0  0  0
 13 14  2  0  0  0  0
 13 52  1  0  0  0  0
 14 36  1  0  0  0  0
 15 16  1  0  0  0  0
 16 24  1  0  0  0  0
 16 17  1  0  0  0  0
 16 37  1  0  0  0  0
 17 18  1  0  0  0  0
 17 38  1  0  0  0  0
 17 39  1  0  0  0  0
 18 19  1  0  0  0  0
 18 40  1  0  0  0  0
 18 41  1  0  0  0  0
 19 24  1  0  0  0  0
 19 20  1  0  0  0  0
 19 51  1  0  0  0  0
 20 21  1  0  0  0  0
 20 42  1  0  0  0  0
 20 43  1  0  0  0  0
 21 22  1  0  0  0  0
 21 44  1  0  0  0  0
 21 45  1  0  0  0  0
 22 23  1  0  0  0  0
 22 46  1  0  0  0  0
 22 47  1  0  0  0  0
 23 24  1  0  0  0  0
 23 48  1  0  0  0  0
 23 49  1  0  0  0  0
 24 50  1  0  0  0  0
M  CHG  1  13   1
M  CHG  1  15  -1
M  CHG  1  19   1
M  END
> <s_m_source_file>
AV-unprocessed.smi

> <i_m_source_file_index>
1867

> <i_lp_mmshare_version>
43012

> <i_f3d_flags>
0

> <s_epik_input>
W0NIMl0xW0NIMl1bQ0gyXVtDSDJdW0NASF0oTjEyKVtDQEBIXShbQ0gyXVtDSDJdMilbTkhdQyg9TylbTkhdYzNbY0hdW2NIXWMobltjSF0zKU40W0NIMl1bQ0gyXVtDSDJdW0NIMl00

> <s_epik_cmdline>
J2VwaWtfcHl0aG9uJywgJy1waCcsICc3LjAnLCAnLXRuJywgJzgnLCAnLW1hJywgJzIwMCcsICctbWV0YWxfYmluZGluZycsICctaW1hZScsICc8aW5maWxlLm1hZT4nLCAnLW9tYWUnLCAnPG91dGZpbGUubWFlPic=

> <r_lp_tautomer_probability>
0.999994

> <r_epik_Ionization_Penalty>
8.56137

> <r_epik_Ionization_Penalty_Charging>
8.56136

> <r_epik_Ionization_Penalty_Neutral>
3.91889e-06

> <r_epik_State_Penalty>
8.16255

> <r_epik_Charging_Adjusted_Penalty>
16.7239

> <i_epik_Tot_Q>
1

> <i_epik_Tot_abs_Q>
3

> <r_epik_Metal_State_Penalty>
4.14279

> <b_epik_Metal_Only>
1

> <s_lp_Force_Field>
OPLS_2005

> <r_lp_Energy>
73.5992

> <b_lp_Chiralities_Consistent>
1

> <s_lp_Variant>
AV-unprocessed.smi:1867-20

> <Gold.Version>
5.8.1

> <Gold.Id.Protein>
6NUR|6NUR_protein|mol2

> <Gold.PLP.Fitness>
39.2375

> <Gold.PLP.PLP>
-34.4770

> <Gold.PLP.part.hbond>
-1.6651

> <Gold.PLP.part.metal>
0.0000

> <Gold.PLP.part.buried>
1.6246

> <Gold.PLP.part.nonpolar>
-34.9352

> <Gold.PLP.part.repulsive>
0.3469

> <Gold.PLP.ligand.clash>
0.0000

> <Gold.PLP.ligand.torsion>
0.4451

> <Gold.PLP.Chemscore.Hbond>
1.7920

> <Gold.PLP.Chemscore.CHOScore>
0.0000

> <Gold.PLP.Chemscore.Metal>
0.0000

> <Gold.Chemscore.Hbonds>
donor molecule, donor type, donor heavy atom, donor atom, acceptor molecule, acceptor atom, score
      L1  H    13    52       P1  8028  0.57
      L1  H    19    51       P1 10171  0.06

> <Gold.PLP.Chemscore.Internal.Correction>
0.2747

> <Gold.Rescore>
     Score         DG    S(hbond)    S(metal)    S(lipo)     H(rot)  DE(clash)    DE(int)     intcor
     14.80     -18.03       0.92        0.00     102.85       1.00       1.26       1.97       ----

> <Gold.Chemscore.Fitness>
14.7995

> <Gold.Chemscore.DG>
-18.0293

> <Gold.Chemscore.ZeroCoef>
-5.4800

> <Gold.Chemscore.Hbond>
0.9210

> <Gold.Chemscore.Metal>
0.0000

> <Gold.Chemscore.Lipo>
102.8486

> <Gold.Chemscore.Internal_Hbond>
0.0000

> <Gold.Chemscore.DEClash>
1.2637

> <Gold.Chemscore.DEInternal>
1.9661

> <Gold.Chemscore.Rot>
1.0000

> <Gold.Chemscore.Internal.Correction>
   9.000000E+99

> <Gold.Chemscore.Hbonds>
donor molecule, donor type, donor heavy atom, donor atom, acceptor molecule, acceptor atom, score
      L1  H    13    52       P1  8028  0.28
      L1  H    19    51       P1 10171  0.06

> <Gold.Chemscore.Hbond.Weighted>
-3.0760

> <Gold.Chemscore.Metal.Weighted>
-0.0000

> <Gold.Chemscore.Lipo.Weighted>
-12.0333

> <Gold.Chemscore.Internal_Hbond.Weighted>
0.0000

> <Gold.Chemscore.DEClash.Weighted>
1.2637

> <Gold.Chemscore.DEInternal.Weighted>
1.9661

> <Gold.Chemscore.Rot.Weighted>
2.5600

> <Gold.Chemscore.Internal.Correction.Weighted>
   9.000000E+99

> <Gold.Protein.RotatedTorsions>
[ 6907 6896 6895 6894 ] final  101.84 input  -60.11 | X-H torsion
[ 7974 7965 7964 7962 ] final   69.21 input  175.53 | X-H torsion
[ 8008 7997 7996 7995 ] final  146.56 input   59.86 | X-H torsion
[ 10167 10162 10161 10158 ] final   23.54 input  -65.29 | X-H torsion
[ 10718 10713 10712 10709 ] final  -86.90 input   66.30 | X-H torsion
[ 10763 10752 10751 10750 ] final   50.39 input  -60.55 | X-H torsion
[ 11005 11000 10999 10996 ] final   -6.30 input  -57.11 | X-H torsion

> <Gold.Protein.ActiveResidues>
 VAL166  LYS551  ARG553  GLY616  TRP617  ASP618  TYR619  PRO620  LYS621  CYS622 
 ASP623  PHE694  ASN695  SER759  ASP760  ASP761  ALA762  ILE779  LEU786  VAL792 
 PHE793  MET794  SER795  GLU796  ALA797  LYS798  CYS799  TRP800  GLU811  SER814 

> <Gold.Protein.RotatedAtoms>
  152.5339  134.0066  159.7918 H   0  0  0  0  0  0  0  0  0  0  0  0  # atno 6907 bound_to 6896
  151.0275  133.5812  159.2671 H   0  0  0  0  0  0  0  0  0  0  0  0  # atno 6908 bound_to 6896
  151.2829  135.0726  159.9229 H   0  0  0  0  0  0  0  0  0  0  0  0  # atno 6909 bound_to 6896
  145.7932  139.2944  143.1198 H   0  0  0  0  0  0  0  0  0  0  0  0  # atno 7974 bound_to 7965
  156.2851  140.2179  156.5396 H   0  0  0  0  0  0  0  0  0  0  0  0  # atno 8008 bound_to 7997
  154.7381  140.0490  157.0808 H   0  0  0  0  0  0  0  0  0  0  0  0  # atno 8009 bound_to 7997
  155.0267  140.3130  155.4776 H   0  0  0  0  0  0  0  0  0  0  0  0  # atno 8010 bound_to 7997
  140.5261  143.9921  150.6441 H   0  0  0  0  0  0  0  0  0  0  0  0  # atno 10167 bound_to 10162
  155.9987  130.4781  150.4785 H   0  0  0  0  0  0  0  0  0  0  0  0  # atno 10718 bound_to 10713
  152.9785  135.5880  154.4244 H   0  0  0  0  0  0  0  0  0  0  0  0  # atno 10763 bound_to 10752
  154.3865  135.2767  155.2182 H   0  0  0  0  0  0  0  0  0  0  0  0  # atno 10764 bound_to 10752
  154.4073  135.6089  153.5986 H   0  0  0  0  0  0  0  0  0  0  0  0  # atno 10765 bound_to 10752
  140.7005  133.8994  155.8680 H   0  0  0  0  0  0  0  0  0  0  0  0  # atno 11005 bound_to 11000
  145.9955  140.8565  143.0045 LP  0  0  0  0  0  0  0  0  0  0  0  0  # atno 17320 bound_to 7965
  144.6779  140.2277  143.7359 LP  0  0  0  0  0  0  0  0  0  0  0  0  # atno 17321 bound_to 7965
  140.3283  143.3093  152.0713 LP  0  0  0  0  0  0  0  0  0  0  0  0  # atno 17342 bound_to 10162
  139.4939  144.6527  151.6641 LP  0  0  0  0  0  0  0  0  0  0  0  0  # atno 17343 bound_to 10162
  157.2793  131.0603  151.2208 LP  0  0  0  0  0  0  0  0  0  0  0  0  # atno 17370 bound_to 10713
  157.3261  130.6961  149.6297 LP  0  0  0  0  0  0  0  0  0  0  0  0  # atno 17371 bound_to 10713
  141.0168  134.0945  157.4164 LP  0  0  0  0  0  0  0  0  0  0  0  0  # atno 17394 bound_to 11000
  139.8898  135.0108  156.6700 LP  0  0  0  0  0  0  0  0  0  0  0  0  # atno 17395 bound_to 11000

$$$$
