#       Name:                AV-unprocessed.smi:1512
#       Creating user name   scv26
#       Creation time:       Fri Mar 27 06:23:24 2020


#       File generated by GOLD software.
#

@<TRIPOS>MOLECULE
AV-unprocessed.smi:1512
    50    52     1
SMALL
NO_CHARGES


@<TRIPOS>ATOM
      1 ****        -1.8948  -1.7251  -1.5095 C.3            1 S1                 0.0000
      2 ****        -1.3598  -0.9608  -0.2859 C.3            1 S1                 0.0000
      3 ****         0.1011  -1.0019  -0.2779 N.am           1 S1                 0.0000
      4 ****         0.9104  -0.1884  -0.9733 C.2            1 S1                 0.0000
      5 ****         0.4955   0.6930  -1.7274 O.2            1 S1                 0.0000
      6 ****         2.4159  -0.4285  -0.7866 C.3            1 S1                 0.0000
      7 ****         3.2609   0.5991  -1.4196 N.am           1 S1                 0.0000
      8 ****         3.7676   0.3036  -2.6989 C.2            1 S1                 0.0000
      9 ****         4.5401   1.1677  -3.3721 C.2            1 S1                 0.0000
     10 ****         4.8534   2.4308  -2.7502 C.2            1 S1                 0.0000
     11 ****         4.3761   2.7387  -1.5221 C.2            1 S1                 0.0000
     12 ****         4.7317   4.0202  -0.9567 N.pl3          1 S1                 1.0000
     13 ****         5.0206   4.0834   0.2344 O.2            1 S1                 0.0000
     14 ****         4.7455   5.0022  -1.6933 O.2            1 S1                -1.0000
     15 ****         3.5161   1.7871  -0.7877 C.2            1 S1                 0.0000
     16 ****         3.0404   2.0339   0.3222 O.2            1 S1                 0.0000
     17 ****        -1.8916  -1.5373   1.0476 C.3            1 S1                 0.0000
     18 ****        -1.4394  -0.7697   2.3115 C.3            1 S1                 0.0000
     19 ****        -2.7570  -0.5608   3.0811 C.3            1 S1                 0.0000
     20 ****        -3.5851   0.5279   2.3747 C.3            1 S1                 0.0000
     21 ****        -4.0723  -0.1907   1.1035 C.3            1 S1                 0.0000
     22 ****        -3.4292  -1.5873   1.2309 C.3            1 S1                 0.0000
     23 ****        -3.5372  -1.8236   2.7344 C.3            1 S1                 0.0000
     24 ****        -2.9817  -1.6689  -1.5679 H              1 S1                 0.0000
     25 ****        -1.6166  -2.7787  -1.4720 H              1 S1                 0.0000
     26 ****        -1.5021  -1.3103  -2.4385 H              1 S1                 0.0000
     27 ****        -1.6658   0.0828  -0.3662 H              1 S1                 0.0000
     28 ****         0.5296  -1.6990   0.3139 H              1 S1                 0.0000
     29 ****         2.6362  -0.4935   0.2807 H              1 S1                 0.0000
     30 ****         2.6548  -1.4155  -1.1853 H              1 S1                 0.0000
     31 ****         3.4817  -0.6593  -3.0972 H              1 S1                 0.0000
     32 ****         4.9159   0.9260  -4.3555 H              1 S1                 0.0000
     33 ****         5.4857   3.1282  -3.2806 H              1 S1                 0.0000
     34 ****        -1.5245  -2.5623   1.1308 H              1 S1                 0.0000
     35 ****        -0.7374  -1.3699   2.8915 H              1 S1                 0.0000
     36 ****        -0.9518   0.1794   2.0844 H              1 S1                 0.0000
     37 ****        -2.6173  -0.3806   4.1474 H              1 S1                 0.0000
     38 ****        -4.4321   0.8341   2.9898 H              1 S1                 0.0000
     39 ****        -2.9954   1.4175   2.1504 H              1 S1                 0.0000
     40 ****        -5.1600  -0.2733   1.1127 H              1 S1                 0.0000
     41 ****        -3.7991   0.3332   0.1886 H              1 S1                 0.0000
     42 ****        -3.9173  -2.3488   0.6222 H              1 S1                 0.0000
     43 ****        -3.0482  -2.7405   3.0682 H              1 S1                 0.0000
     44 ****        -4.5645  -1.8123   3.1036 H              1 S1                 0.0000
     45 ****        -0.4883   0.8288  -1.8441 LP             1 S1                 0.0000
     46 ****         1.1426   1.2725  -2.2228 LP             1 S1                 0.0000
     47 ****         5.0075   3.2565   0.7966 LP             1 S1                 0.0000
     48 ****         5.2692   4.9617   0.6427 LP             1 S1                 0.0000
     49 ****         2.4569   1.3610   0.7769 LP             1 S1                 0.0000
     50 ****         3.2380   2.9069   0.7680 LP             1 S1                 0.0000
@<TRIPOS>BOND
    1    1    2 1     
    2    1   24 1     
    3    1   25 1     
    4    1   26 1     
    5    2    3 1     
    6    2   17 1     
    7    2   27 1     
    8    3    4 am    
    9    3   28 1     
   10    4    5 2     
   11    4    6 1     
   12    6    7 1     
   13    6   29 1     
   14    6   30 1     
   15    7   15 am    
   16    7    8 1     
   17    8    9 2     
   18    8   31 1     
   19    9   10 1     
   20    9   32 1     
   21   10   11 2     
   22   10   33 1     
   23   11   12 1     
   24   11   15 1     
   25   12   13 2     
   26   12   14 1     
   27   15   16 2     
   28   17   22 1     
   29   17   18 1     
   30   17   34 1     
   31   18   19 1     
   32   18   35 1     
   33   18   36 1     
   34   19   23 1     
   35   19   20 1     
   36   19   37 1     
   37   20   21 1     
   38   20   38 1     
   39   20   39 1     
   40   21   22 1     
   41   21   40 1     
   42   21   41 1     
   43   22   23 1     
   44   22   42 1     
   45   23   43 1     
   46   23   44 1     
   47    5   45 1     
   48    5   46 1     
   49   13   47 1     
   50   13   48 1     
   51   16   49 1     
   52   16   50 1     
@<TRIPOS>SUBSTRUCTURE
      1 S1             1
@<TRIPOS>SET
LONE_PAIRS      STATIC     ATOMS    <user>   **** ""
7 45 46 47 48 14 49 50
DONOR_HYDROGENS      STATIC     ATOMS    <user>   **** ""
1 28
ATOM$BLUE        STATIC     ATOMS    COLORGROUP SYSTEM
7 45 46 47 48 14 49 50
ATOM$RED        STATIC     ATOMS    COLORGROUP SYSTEM
1 28
