AV-unprocessed.smi:528|AV-procd|sdf|2834|dock4
  -GOLD-   2262023323D 1   1.00000     0.00000
 Structure written by MMmdl.
 45 47  0  0  0  0  0  0  0  0  1 V2000
  147.1306  138.3855  153.8434 C   0  0  0  0  0  0  0  0  0  0  0  0
  148.0162  137.9190  155.0105 C   0  0  1  0  0  0  0  0  0  0  0  0
  148.8171  136.7853  154.5517 N   0  0  0  0  0  0  0  0  0  0  0  0
  149.4340  135.8864  155.3350 C   0  0  0  0  0  0  0  0  0  0  0  0
  149.3625  135.8920  156.5646 O   0  0  0  0  0  0  0  0  0  0  0  0
  150.2548  134.8122  154.6093 C   0  0  0  0  0  0  0  0  0  0  0  0
  149.4876  133.5789  154.3682 N   0  0  0  0  0  0  0  0  0  0  0  0
  148.3740  133.6692  153.5100 C   0  0  0  0  0  0  0  0  0  0  0  0
  147.5820  132.6180  153.2242 C   0  0  0  0  0  0  0  0  0  0  0  0
  146.4180  132.7335  152.2521 C   0  0  0  0  0  0  0  0  0  0  0  0
  145.8492  131.5461  152.0421 F   0  0  0  0  0  0  0  0  0  0  0  0
  145.4936  133.5543  152.7482 F   0  0  0  0  0  0  0  0  0  0  0  0
  146.8176  133.2203  151.0767 F   0  0  0  0  0  0  0  0  0  0  0  0
  147.9502  131.3506  153.8239 C   0  0  0  0  0  0  0  0  0  0  0  0
  149.0162  131.2452  154.6413 C   0  0  0  0  0  0  0  0  0  0  0  0
  149.8547  132.4027  154.9609 C   0  0  0  0  0  0  0  0  0  0  0  0
  150.8266  132.3204  155.7129 O   0  0  0  0  0  0  0  0  0  0  0  0
  148.9362  139.0491  155.5388 C   0  0  1  0  0  0  0  0  0  0  0  0
  149.8046  139.7017  154.4349 C   0  0  0  0  0  0  0  0  0  0  0  0
  149.4935  141.2021  154.5764 C   0  0  2  0  0  0  0  0  0  0  0  0
  150.1031  141.7333  155.8860 C   0  0  0  0  0  0  0  0  0  0  0  0
  149.1875  141.1148  156.9582 C   0  0  0  0  0  0  0  0  0  0  0  0
  148.1967  140.2829  156.1215 C   0  0  1  0  0  0  0  0  0  0  0  0
  148.0060  141.1771  154.9014 C   0  0  0  0  0  0  0  0  0  0  0  0
  146.4686  139.1987  154.1403 H   0  0  0  0  0  0  0  0  0  0  0  0
  146.5003  137.5723  153.4823 H   0  0  0  0  0  0  0  0  0  0  0  0
  147.7316  138.7368  153.0040 H   0  0  0  0  0  0  0  0  0  0  0  0
  147.3534  137.6024  155.8172 H   0  0  0  0  0  0  0  0  0  0  0  0
  148.9343  136.6936  153.5528 H   0  0  0  0  0  0  0  0  0  0  0  0
  150.6146  135.2371  153.6714 H   0  0  0  0  0  0  0  0  0  0  0  0
  151.1550  134.5819  155.1830 H   0  0  0  0  0  0  0  0  0  0  0  0
  148.2010  134.6534  153.0994 H   0  0  0  0  0  0  0  0  0  0  0  0
  147.3580  130.4708  153.6194 H   0  0  0  0  0  0  0  0  0  0  0  0
  149.2586  130.2855  155.0735 H   0  0  0  0  0  0  0  0  0  0  0  0
  149.5808  138.6229  156.3095 H   0  0  0  0  0  0  0  0  0  0  0  0
  150.8659  139.4836  154.5590 H   0  0  0  0  0  0  0  0  0  0  0  0
  149.5130  139.3604  153.4409 H   0  0  0  0  0  0  0  0  0  0  0  0
  149.7639  141.7888  153.6980 H   0  0  0  0  0  0  0  0  0  0  0  0
  151.1453  141.4358  156.0060 H   0  0  0  0  0  0  0  0  0  0  0  0
  150.0575  142.8223  155.9247 H   0  0  0  0  0  0  0  0  0  0  0  0
  149.7373  140.5101  157.6802 H   0  0  0  0  0  0  0  0  0  0  0  0
  148.6640  141.8964  157.5103 H   0  0  0  0  0  0  0  0  0  0  0  0
  147.2812  140.0570  156.6672 H   0  0  0  0  0  0  0  0  0  0  0  0
  147.5992  142.1602  155.1446 H   0  0  0  0  0  0  0  0  0  0  0  0
  147.3964  140.7230  154.1188 H   0  0  0  0  0  0  0  0  0  0  0  0
  1  2  1  0  0  0  0
  1 25  1  0  0  0  0
  1 26  1  0  0  0  0
  1 27  1  0  0  0  0
  2  3  1  0  0  0  0
  2 18  1  0  0  0  0
  2 28  1  0  0  0  0
  3  4  1  0  0  0  0
  3 29  1  0  0  0  0
  4  5  2  0  0  0  0
  4  6  1  0  0  0  0
  6  7  1  0  0  0  0
  6 30  1  0  0  0  0
  6 31  1  0  0  0  0
  7 16  1  0  0  0  0
  7  8  1  0  0  0  0
  8  9  2  0  0  0  0
  8 32  1  0  0  0  0
  9 10  1  0  0  0  0
  9 14  1  0  0  0  0
 10 11  1  0  0  0  0
 10 12  1  0  0  0  0
 10 13  1  0  0  0  0
 14 15  2  0  0  0  0
 14 33  1  0  0  0  0
 15 16  1  0  0  0  0
 15 34  1  0  0  0  0
 16 17  2  0  0  0  0
 18 23  1  0  0  0  0
 18 19  1  0  0  0  0
 18 35  1  0  0  0  0
 19 20  1  0  0  0  0
 19 36  1  0  0  0  0
 19 37  1  0  0  0  0
 20 24  1  0  0  0  0
 20 21  1  0  0  0  0
 20 38  1  0  0  0  0
 21 22  1  0  0  0  0
 21 39  1  0  0  0  0
 21 40  1  0  0  0  0
 22 23  1  0  0  0  0
 22 41  1  0  0  0  0
 22 42  1  0  0  0  0
 23 24  1  0  0  0  0
 23 43  1  0  0  0  0
 24 44  1  0  0  0  0
 24 45  1  0  0  0  0
M  END
> <s_m_source_file>
AV-unprocessed.smi

> <i_m_source_file_index>
528

> <i_lp_mmshare_version>
43012

> <i_f3d_flags>
0

> <s_epik_input>
W0NIMl0xW0NIMl1bQ0BASF0oW0NIMl0yKVtDQEBIXShbQ0gyXVtDQEhdMTIpW0NASF0oW0NIM10pW05IXUMoPU8pW0NIMl1uM1tjSF1jKEMoRikoRilGKVtjSF1bY0hdYzM9Tw==

> <s_epik_cmdline>
J2VwaWtfcHl0aG9uJywgJy1waCcsICc3LjAnLCAnLXRuJywgJzgnLCAnLW1hJywgJzIwMCcsICctbWV0YWxfYmluZGluZycsICctaW1hZScsICc8aW5maWxlLm1hZT4nLCAnLW9tYWUnLCAnPG91dGZpbGUubWFlPic=

> <r_lp_tautomer_probability>
1

> <r_epik_Ionization_Penalty>
4.09479e-08

> <r_epik_Ionization_Penalty_Charging>
1.9321e-08

> <r_epik_Ionization_Penalty_Neutral>
2.16269e-08

> <r_epik_State_Penalty>
-0

> <r_epik_Charging_Adjusted_Penalty>
1.9321e-08

> <i_epik_Tot_Q>
0

> <i_epik_Tot_abs_Q>
0

> <r_epik_Metal_State_Penalty>
-0

> <b_epik_Metal_Only>
0

> <s_lp_Force_Field>
OPLS_2005

> <r_lp_Energy>
62.5946

> <b_lp_Chiralities_Consistent>
1

> <s_lp_Variant>
AV-unprocessed.smi:528-4

> <Gold.Version>
5.8.1

> <Gold.Id.Protein>
6NUR|6NUR_protein|mol2

> <Gold.PLP.Fitness>
41.6592

> <Gold.PLP.PLP>
-36.9575

> <Gold.PLP.part.hbond>
-1.0000

> <Gold.PLP.part.metal>
0.0000

> <Gold.PLP.part.buried>
-2.9820

> <Gold.PLP.part.nonpolar>
-33.0053

> <Gold.PLP.part.repulsive>
0.0122

> <Gold.PLP.ligand.clash>
0.0000

> <Gold.PLP.ligand.torsion>
0.6799

> <Gold.PLP.Chemscore.Hbond>
1.0000

> <Gold.PLP.Chemscore.CHOScore>
1.0000

> <Gold.PLP.Chemscore.Metal>
0.0000

> <Gold.Chemscore.Hbonds>
donor molecule, donor type, donor heavy atom, donor atom, acceptor molecule, acceptor atom, score
      L1  H     3    29       P1  7948  1.00
      L1  C     8    32       P1  7948  1.00

> <Gold.PLP.Chemscore.Internal.Correction>
0.0615

> <Gold.Rescore>
     Score         DG    S(hbond)    S(metal)    S(lipo)     H(rot)  DE(clash)    DE(int)     intcor
     12.63     -13.33       1.00        0.00      76.01       1.71       0.06       0.64       ----

> <Gold.Chemscore.Fitness>
12.6316

> <Gold.Chemscore.DG>
-13.3288

> <Gold.Chemscore.ZeroCoef>
-5.4800

> <Gold.Chemscore.Hbond>
0.9997

> <Gold.Chemscore.Metal>
0.0000

> <Gold.Chemscore.Lipo>
76.0150

> <Gold.Chemscore.Internal_Hbond>
0.0000

> <Gold.Chemscore.DEClash>
0.0613

> <Gold.Chemscore.DEInternal>
0.6358

> <Gold.Chemscore.Rot>
1.7125

> <Gold.Chemscore.Internal.Correction>
   9.000000E+99

> <Gold.Chemscore.Hbonds>
donor molecule, donor type, donor heavy atom, donor atom, acceptor molecule, acceptor atom, score
      L1  H     3    29       P1  7948  1.00

> <Gold.Chemscore.Hbond.Weighted>
-3.3390

> <Gold.Chemscore.Metal.Weighted>
-0.0000

> <Gold.Chemscore.Lipo.Weighted>
-8.8938

> <Gold.Chemscore.Internal_Hbond.Weighted>
0.0000

> <Gold.Chemscore.DEClash.Weighted>
0.0613

> <Gold.Chemscore.DEInternal.Weighted>
0.6358

> <Gold.Chemscore.Rot.Weighted>
4.3840

> <Gold.Chemscore.Internal.Correction.Weighted>
   9.000000E+99

> <Gold.Protein.RotatedTorsions>
[ 6907 6896 6895 6894 ] final  136.51 input  -60.11 | X-H torsion
[ 7974 7965 7964 7962 ] final -106.87 input  175.53 | X-H torsion
[ 8008 7997 7996 7995 ] final  -97.81 input   59.86 | X-H torsion
[ 10167 10162 10161 10158 ] final  -18.25 input  -65.29 | X-H torsion
[ 10718 10713 10712 10709 ] final   65.06 input   66.30 | X-H torsion
[ 10763 10752 10751 10750 ] final    9.05 input  -60.55 | X-H torsion
[ 11005 11000 10999 10996 ] final  118.32 input  -57.11 | X-H torsion

> <Gold.Protein.ActiveResidues>
 VAL166  LYS551  ARG553  GLY616  TRP617  ASP618  TYR619  PRO620  LYS621  CYS622 
 ASP623  PHE694  ASN695  SER759  ASP760  ASP761  ALA762  ILE779  LEU786  VAL792 
 PHE793  MET794  SER795  GLU796  ALA797  LYS798  CYS799  TRP800  GLU811  SER814 

> <Gold.Protein.RotatedAtoms>
  152.2885  133.5539  159.5542 H   0  0  0  0  0  0  0  0  0  0  0  0  # atno 6907 bound_to 6896
  150.7225  134.0462  159.3791 H   0  0  0  0  0  0  0  0  0  0  0  0  # atno 6908 bound_to 6896
  151.8369  135.0603  160.0494 H   0  0  0  0  0  0  0  0  0  0  0  0  # atno 6909 bound_to 6896
  145.2124  140.9101  143.3306 H   0  0  0  0  0  0  0  0  0  0  0  0  # atno 7974 bound_to 7965
  154.7928  140.0460  157.1213 H   0  0  0  0  0  0  0  0  0  0  0  0  # atno 8008 bound_to 7997
  154.9571  140.3072  155.5028 H   0  0  0  0  0  0  0  0  0  0  0  0  # atno 8009 bound_to 7997
  156.2952  140.2277  156.4653 H   0  0  0  0  0  0  0  0  0  0  0  0  # atno 8010 bound_to 7997
  140.7256  143.4935  150.9961 H   0  0  0  0  0  0  0  0  0  0  0  0  # atno 10167 bound_to 10162
  157.6081  130.9194  149.9927 H   0  0  0  0  0  0  0  0  0  0  0  0  # atno 10718 bound_to 10713
  153.2182  135.6878  153.8031 H   0  0  0  0  0  0  0  0  0  0  0  0  # atno 10763 bound_to 10752
  153.7239  135.3263  155.3273 H   0  0  0  0  0  0  0  0  0  0  0  0  # atno 10764 bound_to 10752
  154.8256  135.4620  154.1019 H   0  0  0  0  0  0  0  0  0  0  0  0  # atno 10765 bound_to 10752
  139.9105  134.9619  156.7485 H   0  0  0  0  0  0  0  0  0  0  0  0  # atno 11005 bound_to 11000
  144.9843  139.3752  143.6246 LP  0  0  0  0  0  0  0  0  0  0  0  0  # atno 17320 bound_to 7965
  146.3394  139.8997  142.8796 LP  0  0  0  0  0  0  0  0  0  0  0  0  # atno 17321 bound_to 7965
  139.8640  143.7277  152.3171 LP  0  0  0  0  0  0  0  0  0  0  0  0  # atno 17342 bound_to 10162
  139.7503  144.7536  151.0517 LP  0  0  0  0  0  0  0  0  0  0  0  0  # atno 17343 bound_to 10162
  156.1174  130.3647  149.9945 LP  0  0  0  0  0  0  0  0  0  0  0  0  # atno 17370 bound_to 10713
  156.8032  130.9298  151.3645 LP  0  0  0  0  0  0  0  0  0  0  0  0  # atno 17371 bound_to 10713
  140.6793  133.9489  155.7901 LP  0  0  0  0  0  0  0  0  0  0  0  0  # atno 17394 bound_to 11000
  141.0522  134.0468  157.3769 LP  0  0  0  0  0  0  0  0  0  0  0  0  # atno 17395 bound_to 11000

$$$$
