AV-unprocessed.smi:2854|AV-procd|sdf|10975|dock1
  -GOLD-   2272015433D 1   1.00000     0.00000
 Structure written by MMmdl.
 27 28  0  0  0  0  0  0  0  0  2 V2000
  149.3145  142.4247  154.8623 N   0  0  0  0  0  0  0  0  0  0  0  0
  148.5666  141.3474  154.3826 C   0  0  0  0  0  0  0  0  0  0  0  0
  147.2330  141.5586  153.9734 C   0  0  0  0  0  0  0  0  0  0  0  0
  146.4964  140.5273  153.5076 N   0  3  0  0  0  0  0  0  0  0  0  0
  146.9789  139.2705  153.4090 C   0  0  0  0  0  0  0  0  0  0  0  0
  148.3037  138.9950  153.8017 C   0  0  0  0  0  0  0  0  0  0  0  0
  149.1176  140.0428  154.2969 C   0  0  0  0  0  0  0  0  0  0  0  0
  150.4419  139.8024  154.6984 N   0  0  0  0  0  0  0  0  0  0  0  0
  150.6803  140.0614  156.1127 C   0  0  0  0  0  0  0  0  0  0  0  0
  152.1778  139.9067  156.4299 C   0  0  0  0  0  0  0  0  0  0  0  0
  152.6178  138.6119  156.0299 O   0  0  0  0  0  0  0  0  0  0  0  0
  152.4538  138.3993  154.6306 C   0  0  0  0  0  0  0  0  0  0  0  0
  150.9636  138.5123  154.2649 C   0  0  0  0  0  0  0  0  0  0  0  0
  150.2720  142.3177  155.1655 H   0  0  0  0  0  0  0  0  0  0  0  0
  148.9187  143.3530  154.9164 H   0  0  0  0  0  0  0  0  0  0  0  0
  146.7337  142.5162  154.0040 H   0  0  0  0  0  0  0  0  0  0  0  0
  146.2960  138.5281  153.0224 H   0  0  0  0  0  0  0  0  0  0  0  0
  148.6873  137.9882  153.7226 H   0  0  0  0  0  0  0  0  0  0  0  0
  150.3462  141.0682  156.3663 H   0  0  0  0  0  0  0  0  0  0  0  0
  150.1014  139.3650  156.7208 H   0  0  0  0  0  0  0  0  0  0  0  0
  152.7648  140.6745  155.9231 H   0  0  0  0  0  0  0  0  0  0  0  0
  152.3505  140.0272  157.4993 H   0  0  0  0  0  0  0  0  0  0  0  0
  153.0487  139.1222  154.0700 H   0  0  0  0  0  0  0  0  0  0  0  0
  152.8304  137.4091  154.3739 H   0  0  0  0  0  0  0  0  0  0  0  0
  150.4059  137.7055  154.7421 H   0  0  0  0  0  0  0  0  0  0  0  0
  150.8334  138.4035  153.1875 H   0  0  0  0  0  0  0  0  0  0  0  0
  145.5343  140.7060  153.2182 H   0  0  0  0  0  0  0  0  0  0  0  0
  1  2  1  0  0  0  0
  1 14  1  0  0  0  0
  1 15  1  0  0  0  0
  2  7  1  0  0  0  0
  2  3  2  0  0  0  0
  3  4  1  0  0  0  0
  3 16  1  0  0  0  0
  4  5  2  0  0  0  0
  4 27  1  0  0  0  0
  5  6  1  0  0  0  0
  5 17  1  0  0  0  0
  6  7  2  0  0  0  0
  6 18  1  0  0  0  0
  7  8  1  0  0  0  0
  8 13  1  0  0  0  0
  8  9  1  0  0  0  0
  9 10  1  0  0  0  0
  9 19  1  0  0  0  0
  9 20  1  0  0  0  0
 10 11  1  0  0  0  0
 10 21  1  0  0  0  0
 10 22  1  0  0  0  0
 11 12  1  0  0  0  0
 12 13  1  0  0  0  0
 12 23  1  0  0  0  0
 12 24  1  0  0  0  0
 13 25  1  0  0  0  0
 13 26  1  0  0  0  0
M  CHG  1   4   1
M  END
> <s_m_source_file>
AV-unprocessed.smi

> <i_m_source_file_index>
2854

> <i_lp_mmshare_version>
43012

> <i_f3d_flags>
0

> <s_epik_input>
W05IMl1jMVtjSF1uW2NIXVtjSF1jMU4yW0NIMl1bQ0gyXU9bQ0gyXVtDSDJdMg==

> <s_epik_cmdline>
J2VwaWtfcHl0aG9uJywgJy1waCcsICc3LjAnLCAnLXRuJywgJzgnLCAnLW1hJywgJzIwMCcsICctbWV0YWxfYmluZGluZycsICctaW1hZScsICc8aW5maWxlLm1hZT4nLCAnLW9tYWUnLCAnPG91dGZpbGUubWFlPic=

> <r_lp_tautomer_probability>
0.999846

> <r_epik_Ionization_Penalty>
0.0229726

> <r_epik_Ionization_Penalty_Charging>
0.0229724

> <r_epik_Ionization_Penalty_Neutral>
1.97994e-07

> <r_epik_State_Penalty>
0.0185659

> <r_epik_Charging_Adjusted_Penalty>
0.0415384

> <i_epik_Tot_Q>
1

> <i_epik_Tot_abs_Q>
1

> <r_epik_Metal_State_Penalty>
2.0686

> <b_epik_Metal_Only>
0

> <s_lp_Force_Field>
OPLS_2005

> <r_lp_Energy>
29.6275

> <b_lp_Chiralities_Consistent>
1

> <s_lp_Variant>
AV-unprocessed.smi:2854-1

> <Gold.Version>
5.8.1

> <Gold.Id.Protein>
6NUR|6NUR_protein|mol2

> <Gold.PLP.Fitness>
36.2075

> <Gold.PLP.PLP>
-25.6205

> <Gold.PLP.part.hbond>
-2.9123

> <Gold.PLP.part.metal>
0.0000

> <Gold.PLP.part.buried>
-2.4310

> <Gold.PLP.part.nonpolar>
-21.1759

> <Gold.PLP.part.repulsive>
1.0586

> <Gold.PLP.ligand.clash>
0.2660

> <Gold.PLP.ligand.torsion>
0.1726

> <Gold.PLP.Chemscore.Hbond>
3.6920

> <Gold.PLP.Chemscore.CHOScore>
0.0000

> <Gold.PLP.Chemscore.Metal>
0.0000

> <Gold.Chemscore.Hbonds>
donor molecule, donor type, donor heavy atom, donor atom, acceptor molecule, acceptor atom, score
      L1  H     1    15       P1  8028  0.98
      L1  H     4    27       P1 10175  2.00
      P1  H  7989  7998       L1     8  0.75

> <Gold.PLP.Chemscore.Internal.Correction>
0.1224

> <Gold.Rescore>
     Score         DG    S(hbond)    S(metal)    S(lipo)     H(rot)  DE(clash)    DE(int)     intcor
     15.39     -16.72       1.94        0.00      62.63       1.00       0.09       1.24       ----

> <Gold.Chemscore.Fitness>
15.3938

> <Gold.Chemscore.DG>
-16.7176

> <Gold.Chemscore.ZeroCoef>
-5.4800

> <Gold.Chemscore.Hbond>
1.9370

> <Gold.Chemscore.Metal>
0.0000

> <Gold.Chemscore.Lipo>
62.6336

> <Gold.Chemscore.Internal_Hbond>
0.0000

> <Gold.Chemscore.DEClash>
0.0859

> <Gold.Chemscore.DEInternal>
1.2379

> <Gold.Chemscore.Rot>
1.0000

> <Gold.Chemscore.Internal.Correction>
   9.000000E+99

> <Gold.Chemscore.Hbonds>
donor molecule, donor type, donor heavy atom, donor atom, acceptor molecule, acceptor atom, score
      L1  H     1    15       P1  8028  0.87
      L1  H     4    27       P1 10175  0.75
      P1  H  7989  7998       L1     8  0.05

> <Gold.Chemscore.Hbond.Weighted>
-6.4694

> <Gold.Chemscore.Metal.Weighted>
-0.0000

> <Gold.Chemscore.Lipo.Weighted>
-7.3281

> <Gold.Chemscore.Internal_Hbond.Weighted>
0.0000

> <Gold.Chemscore.DEClash.Weighted>
0.0859

> <Gold.Chemscore.DEInternal.Weighted>
1.2379

> <Gold.Chemscore.Rot.Weighted>
2.5600

> <Gold.Chemscore.Internal.Correction.Weighted>
   9.000000E+99

> <Gold.Protein.RotatedTorsions>
[ 6907 6896 6895 6894 ] final  -13.12 input  -60.11 | X-H torsion
[ 7974 7965 7964 7962 ] final  -82.27 input  175.53 | X-H torsion
[ 8008 7997 7996 7995 ] final  -25.40 input   59.86 | X-H torsion
[ 10167 10162 10161 10158 ] final -128.97 input  -65.29 | X-H torsion
[ 10718 10713 10712 10709 ] final -138.76 input   66.30 | X-H torsion
[ 10763 10752 10751 10750 ] final -164.88 input  -60.55 | X-H torsion
[ 11005 11000 10999 10996 ] final  174.95 input  -57.11 | X-H torsion

> <Gold.Protein.ActiveResidues>
 VAL166  LYS551  ARG553  GLY616  TRP617  ASP618  TYR619  PRO620  LYS621  CYS622 
 ASP623  PHE694  ASN695  SER759  ASP760  ASP761  ALA762  ILE779  LEU786  VAL792 
 PHE793  MET794  SER795  GLU796  ALA797  LYS798  CYS799  TRP800  GLU811  SER814 

> <Gold.Protein.RotatedAtoms>
  151.3598  135.0902  159.9430 H   0  0  0  0  0  0  0  0  0  0  0  0  # atno 6907 bound_to 6896
  152.5165  133.9269  159.7572 H   0  0  0  0  0  0  0  0  0  0  0  0  # atno 6908 bound_to 6896
  150.9661  133.6339  159.2775 H   0  0  0  0  0  0  0  0  0  0  0  0  # atno 6909 bound_to 6896
  145.5356  140.9516  143.1579 H   0  0  0  0  0  0  0  0  0  0  0  0  # atno 7974 bound_to 7965
  154.4478  140.1927  156.0614 H   0  0  0  0  0  0  0  0  0  0  0  0  # atno 8008 bound_to 7997
  156.0580  140.3300  155.7401 H   0  0  0  0  0  0  0  0  0  0  0  0  # atno 8009 bound_to 7997
  155.5456  140.0590  157.2852 H   0  0  0  0  0  0  0  0  0  0  0  0  # atno 8010 bound_to 7997
  139.9447  143.6123  152.2493 H   0  0  0  0  0  0  0  0  0  0  0  0  # atno 10167 bound_to 10162
  156.3030  130.7439  151.1496 H   0  0  0  0  0  0  0  0  0  0  0  0  # atno 10718 bound_to 10713
  154.6986  135.2984  154.9375 H   0  0  0  0  0  0  0  0  0  0  0  0  # atno 10763 bound_to 10752
  154.0314  135.6669  153.4785 H   0  0  0  0  0  0  0  0  0  0  0  0  # atno 10764 bound_to 10752
  153.0664  135.5085  154.8117 H   0  0  0  0  0  0  0  0  0  0  0  0  # atno 10765 bound_to 10752
  140.3569  134.7146  157.4305 H   0  0  0  0  0  0  0  0  0  0  0  0  # atno 11005 bound_to 11000
  144.7603  139.6972  143.7237 LP  0  0  0  0  0  0  0  0  0  0  0  0  # atno 17320 bound_to 7965
  146.2015  139.5313  142.9740 LP  0  0  0  0  0  0  0  0  0  0  0  0  # atno 17321 bound_to 7965
  139.6676  144.7662  151.1843 LP  0  0  0  0  0  0  0  0  0  0  0  0  # atno 17342 bound_to 10162
  140.7601  143.5914  150.8793 LP  0  0  0  0  0  0  0  0  0  0  0  0  # atno 17343 bound_to 10162
  157.7373  131.0553  150.5365 LP  0  0  0  0  0  0  0  0  0  0  0  0  # atno 17370 bound_to 10713
  156.5495  130.4228  149.6114 LP  0  0  0  0  0  0  0  0  0  0  0  0  # atno 17371 bound_to 10713
  140.0658  134.5932  155.8697 LP  0  0  0  0  0  0  0  0  0  0  0  0  # atno 17394 bound_to 11000
  141.1996  133.6607  156.5850 LP  0  0  0  0  0  0  0  0  0  0  0  0  # atno 17395 bound_to 11000

$$$$
