#       Name:                AV-unprocessed.smi:1084
#       Creating user name   scv26
#       Creation time:       Fri Mar 27 03:24:20 2020


#       File generated by GOLD software.
#

@<TRIPOS>MOLECULE
AV-unprocessed.smi:1084
    61    63     1
SMALL
NO_CHARGES


@<TRIPOS>ATOM
      1 ****        -3.8901  -0.3721  -1.6559 C.3            1 S1                 0.0000
      2 ****        -3.3494  -1.8242  -1.7082 C.3            1 S1                 0.0000
      3 ****        -1.7968  -1.7800  -1.6850 C.3            1 S1                 0.0000
      4 ****        -1.2781  -1.0765  -0.5166 N.am           1 S1                 0.0000
      5 ****        -0.0525  -0.5442  -0.4273 C.2            1 S1                 0.0000
      6 ****         0.7876  -0.6172  -1.3240 O.2            1 S1                 0.0000
      7 ****         0.1339   0.0483   0.7643 N.am           1 S1                 0.0000
      8 ****         1.2550   0.8006   1.2051 C.ar           1 S1                 0.0000
      9 ****         1.4527   0.9501   2.5923 C.ar           1 S1                 0.0000
     10 ****         2.5408   1.7157   3.0519 C.ar           1 S1                 0.0000
     11 ****         3.3945   2.3201   2.1006 C.ar           1 S1                 0.0000
     12 ****         4.4915   3.1006   2.4881 N.3            1 S1                 0.0000
     13 ****         5.5610   2.3276   3.1051 C.3            1 S1                 0.0000
     14 ****         6.7745   3.2338   3.3763 C.3            1 S1                 0.0000
     15 ****         6.3735   4.3462   4.1719 O.3            1 S1                 0.0000
     16 ****         5.3814   5.1382   3.5241 C.3            1 S1                 0.0000
     17 ****         4.1309   4.2820   3.2612 C.3            1 S1                 0.0000
     18 ****         3.2063   2.1902   0.7700 N.ar           1 S1                 0.0000
     19 ****         2.1621   1.4531   0.3354 C.ar           1 S1                 0.0000
     20 ****        -3.8951  -2.5954  -2.8492 N.3            1 S1                 0.0000
     21 ****        -5.3623  -2.6279  -2.8570 C.3            1 S1                 0.0000
     22 ****        -5.9360  -3.4453  -4.0270 C.3            1 S1                 0.0000
     23 ****        -5.4213  -4.7688  -3.9826 O.3            1 S1                 0.0000
     24 ****        -4.0023  -4.7910  -4.0503 C.3            1 S1                 0.0000
     25 ****        -3.4127  -3.9810  -2.8827 C.3            1 S1                 0.0000
     26 ****        -3.4441   0.2129  -0.8525 H              1 S1                 0.0000
     27 ****        -4.9624  -0.3366  -1.4687 H              1 S1                 0.0000
     28 ****        -3.6930   0.1543  -2.5905 H              1 S1                 0.0000
     29 ****        -3.6676  -2.3165  -0.7878 H              1 S1                 0.0000
     30 ****        -1.3640  -2.7779  -1.6382 H              1 S1                 0.0000
     31 ****        -1.4305  -1.3140  -2.6018 H              1 S1                 0.0000
     32 ****        -1.9025  -0.9761   0.2700 H              1 S1                 0.0000
     33 ****        -0.6034  -0.0710   1.4434 H              1 S1                 0.0000
     34 ****         0.7822   0.4829   3.2989 H              1 S1                 0.0000
     35 ****         2.7111   1.8342   4.1120 H              1 S1                 0.0000
     36 ****         5.2080   1.8907   4.0401 H              1 S1                 0.0000
     37 ****         5.8470   1.5036   2.4502 H              1 S1                 0.0000
     38 ****         7.5483   2.6780   3.9059 H              1 S1                 0.0000
     39 ****         7.2155   3.5826   2.4410 H              1 S1                 0.0000
     40 ****         5.1300   5.9858   4.1618 H              1 S1                 0.0000
     41 ****         5.7767   5.5457   2.5921 H              1 S1                 0.0000
     42 ****         3.3841   4.8640   2.7197 H              1 S1                 0.0000
     43 ****         3.6840   3.9841   4.2103 H              1 S1                 0.0000
     44 ****         2.0511   1.4162  -0.7371 H              1 S1                 0.0000
     45 ****        -5.7280  -3.0395  -1.9151 H              1 S1                 0.0000
     46 ****        -5.7690  -1.6220  -2.9431 H              1 S1                 0.0000
     47 ****        -7.0235  -3.4844  -3.9641 H              1 S1                 0.0000
     48 ****        -5.6878  -2.9797  -4.9821 H              1 S1                 0.0000
     49 ****        -3.6604  -5.8250  -4.0034 H              1 S1                 0.0000
     50 ****        -3.6685  -4.3865  -5.0072 H              1 S1                 0.0000
     51 ****        -2.3311  -4.0111  -2.9949 H              1 S1                 0.0000
     52 ****        -3.6496  -4.4784  -1.9409 H              1 S1                 0.0000
     53 ****         0.5697  -1.0939  -2.1756 LP             1 S1                 0.0000
     54 ****         1.6879  -0.1998  -1.2008 LP             1 S1                 0.0000
     55 ****         4.8667   3.4514   1.6301 LP             1 S1                 0.0000
     56 ****         7.1737   4.9175   4.3543 LP             1 S1                 0.0000
     57 ****         6.0019   4.0073   5.0363 LP             1 S1                 0.0000
     58 ****         3.8266   2.6303   0.1208 LP             1 S1                 0.0000
     59 ****        -3.5651  -2.1094  -3.6584 LP             1 S1                 0.0000
     60 ****        -5.7895  -5.2844  -4.7562 LP             1 S1                 0.0000
     61 ****        -5.7105  -5.1990  -3.1274 LP             1 S1                 0.0000
@<TRIPOS>BOND
    1    1    2 1     
    2    1   26 1     
    3    1   27 1     
    4    1   28 1     
    5    2    3 1     
    6    2   20 1     
    7    2   29 1     
    8    3    4 1     
    9    3   30 1     
   10    3   31 1     
   11    4    5 am    
   12    4   32 1     
   13    5    6 2     
   14    5    7 am    
   15    7    8 1     
   16    7   33 1     
   17    8   19 ar    
   18    8    9 ar    
   19    9   10 ar    
   20    9   34 1     
   21   10   11 ar    
   22   10   35 1     
   23   11   12 1     
   24   11   18 ar    
   25   12   17 1     
   26   12   13 1     
   27   13   14 1     
   28   13   36 1     
   29   13   37 1     
   30   14   15 1     
   31   14   38 1     
   32   14   39 1     
   33   15   16 1     
   34   16   17 1     
   35   16   40 1     
   36   16   41 1     
   37   17   42 1     
   38   17   43 1     
   39   18   19 ar    
   40   19   44 1     
   41   20   25 1     
   42   20   21 1     
   43   21   22 1     
   44   21   45 1     
   45   21   46 1     
   46   22   23 1     
   47   22   47 1     
   48   22   48 1     
   49   23   24 1     
   50   24   25 1     
   51   24   49 1     
   52   24   50 1     
   53   25   51 1     
   54   25   52 1     
   55    6   53 1     
   56    6   54 1     
   57   12   55 1     
   58   15   56 1     
   59   15   57 1     
   60   18   58 1     
   61   20   59 1     
   62   23   60 1     
   63   23   61 1     
@<TRIPOS>SUBSTRUCTURE
      1 S1             1
@<TRIPOS>SET
LONE_PAIRS      STATIC     ATOMS    <user>   **** ""
9 53 54 55 56 57 58 59 60 61
DONOR_HYDROGENS      STATIC     ATOMS    <user>   **** ""
2 32 33
ATOM$BLUE        STATIC     ATOMS    COLORGROUP SYSTEM
9 53 54 55 56 57 58 59 60 61
ATOM$RED        STATIC     ATOMS    COLORGROUP SYSTEM
2 32 33
