#       Name:                AV-unprocessed.smi:4
#       Creating user name   scv26
#       Creation time:       Thu Mar 26 15:14:37 2020


#       File generated by GOLD software.
#

@<TRIPOS>MOLECULE
AV-unprocessed.smi:4
    50    51     1
SMALL
NO_CHARGES


@<TRIPOS>ATOM
      1 ****        -0.8090   2.6247  -3.0121 C.3            1 S1                 0.0000
      2 ****        -1.4905   3.0709  -1.6921 C.3            1 S1                 0.0000
      3 ****        -0.5784   4.1843  -1.1148 C.3            1 S1                 0.0000
      4 ****        -2.8668   3.6485  -2.1128 C.3            1 S1                 0.0000
      5 ****        -1.6488   1.9592  -0.7303 N.am           1 S1                 0.0000
      6 ****        -1.2330   0.6484  -0.9769 C.2            1 S1                 0.0000
      7 ****        -1.3577  -0.3811  -0.1007 C.2            1 S1                 0.0000
      8 ****        -0.9024  -1.7929  -0.4535 C.3            1 S1                 0.0000
      9 ****         0.5458  -1.9836  -0.2188 N.4            1 S1                 1.0000
     10 ****         0.9651  -1.9983   1.1997 C.3            1 S1                 0.0000
     11 ****         2.4598  -2.3056   1.3407 C.3            1 S1                 0.0000
     12 ****         3.1480  -1.2338   0.7286 O.3            1 S1                 0.0000
     13 ****         2.9625  -2.6383   2.7576 C.3            1 S1                 0.0000
     14 ****         2.8852  -4.1242   2.4061 C.3            1 S1                 0.0000
     15 ****         2.9477  -3.7100   0.9357 C.3            1 S1                 0.0000
     16 ****        -1.9919  -0.1464   1.1967 C.2            1 S1                 0.0000
     17 ****        -2.1699  -0.9944   2.0693 O.2            1 S1                 0.0000
     18 ****        -2.4015   1.1661   1.4176 N.am           1 S1                 0.0000
     19 ****        -2.2610   2.2283   0.5275 C.2            1 S1                 0.0000
     20 ****        -2.6729   3.3328   0.8772 O.2            1 S1                 0.0000
     21 ****        -2.8402   1.3683   2.3047 H              1 S1                 0.0000
     22 ****        -0.7010   3.4608  -3.7045 H              1 S1                 0.0000
     23 ****        -1.3905   1.8654  -3.5369 H              1 S1                 0.0000
     24 ****         0.1960   2.2359  -2.8424 H              1 S1                 0.0000
     25 ****         0.3706   3.7744  -0.7673 H              1 S1                 0.0000
     26 ****        -1.0258   4.7275  -0.2845 H              1 S1                 0.0000
     27 ****        -0.3481   4.9353  -1.8712 H              1 S1                 0.0000
     28 ****        -2.7591   4.3697  -2.9236 H              1 S1                 0.0000
     29 ****        -3.3806   4.1771  -1.3121 H              1 S1                 0.0000
     30 ****        -3.5327   2.8612  -2.4678 H              1 S1                 0.0000
     31 ****        -0.7701   0.3859  -1.9139 H              1 S1                 0.0000
     32 ****        -1.4764  -2.5479   0.0856 H              1 S1                 0.0000
     33 ****        -1.0948  -1.9676  -1.5125 H              1 S1                 0.0000
     34 ****         0.8115  -2.8702  -0.6231 H              1 S1                 0.0000
     35 ****         0.7362  -1.0373   1.6612 H              1 S1                 0.0000
     36 ****         0.3715  -2.7449   1.7289 H              1 S1                 0.0000
     37 ****         4.0718  -1.3847   0.8622 H              1 S1                 0.0000
     38 ****         3.9848  -2.3025   2.9420 H              1 S1                 0.0000
     39 ****         2.2942  -2.3345   3.5641 H              1 S1                 0.0000
     40 ****         3.7316  -4.7195   2.7496 H              1 S1                 0.0000
     41 ****         1.9309  -4.5762   2.6806 H              1 S1                 0.0000
     42 ****         2.2700  -4.2664   0.2876 H              1 S1                 0.0000
     43 ****         3.9654  -3.7133   0.5410 H              1 S1                 0.0000
     44 ****         1.0550  -1.2523  -0.6945 H              1 S1                 0.0000
     45 ****         2.8775  -0.3676   1.1489 LP             1 S1                 0.0000
     46 ****         2.9425  -1.2081  -0.2497 LP             1 S1                 0.0000
     47 ****        -1.8705  -1.9366   1.9194 LP             1 S1                 0.0000
     48 ****        -2.6141  -0.7417   2.9289 LP             1 S1                 0.0000
     49 ****        -2.5880   4.1161   0.2614 LP             1 S1                 0.0000
     50 ****        -3.0929   3.4478   1.7775 LP             1 S1                 0.0000
@<TRIPOS>BOND
    1    1    2 1     
    2    1   22 1     
    3    1   23 1     
    4    1   24 1     
    5    2    3 1     
    6    2    4 1     
    7    2    5 1     
    8    3   25 1     
    9    3   26 1     
   10    3   27 1     
   11    4   28 1     
   12    4   29 1     
   13    4   30 1     
   14    5   19 1     
   15    5    6 1     
   16    6    7 2     
   17    6   31 1     
   18    7    8 1     
   19    7   16 1     
   20    8    9 1     
   21    8   32 1     
   22    8   33 1     
   23    9   10 1     
   24    9   34 1     
   25    9   44 1     
   26   10   11 1     
   27   10   35 1     
   28   10   36 1     
   29   11   15 1     
   30   11   12 1     
   31   11   13 1     
   32   12   37 1     
   33   13   14 1     
   34   13   38 1     
   35   13   39 1     
   36   14   15 1     
   37   14   40 1     
   38   14   41 1     
   39   15   42 1     
   40   15   43 1     
   41   16   17 2     
   42   16   18 1     
   43   18   21 1     
   44   18   19 1     
   45   19   20 2     
   46   12   45 1     
   47   12   46 1     
   48   17   47 1     
   49   17   48 1     
   50   20   49 1     
   51   20   50 1     
@<TRIPOS>SUBSTRUCTURE
      1 S1             1
@<TRIPOS>SET
LONE_PAIRS      STATIC     ATOMS    <user>   **** ""
6 45 46 47 48 49 50
DONOR_HYDROGENS      STATIC     ATOMS    <user>   **** ""
4 34 44 37 21
ATOM$BLUE        STATIC     ATOMS    COLORGROUP SYSTEM
6 45 46 47 48 49 50
ATOM$RED        STATIC     ATOMS    COLORGROUP SYSTEM
4 34 44 37 21
