AV-unprocessed.smi:1840|AV-procd|sdf|7488|dock10
  -GOLD-   22720 9183D 1   1.00000     0.00000
 Structure written by MMmdl.
 43 44  0  0  0  0  0  0  0  0  1 V2000
  144.5257  134.8029  153.1466 C   0  0  0  0  0  0  0  0  0  0  0  0
  144.8600  135.9020  152.1202 C   0  0  2  0  0  0  0  0  0  0  0  0
  144.9390  135.3746  150.6727 C   0  0  0  0  0  0  0  0  0  0  0  0
  145.0541  133.9290  150.5985 N   0  0  0  0  0  0  0  0  0  0  0  0
  144.1686  133.0252  150.0494 C   0  0  0  0  0  0  0  0  0  0  0  0
  144.7030  131.7799  150.2175 C   0  0  0  0  0  0  0  0  0  0  0  0
  145.9310  132.0274  150.8920 C   0  0  0  0  0  0  0  0  0  0  0  0
  146.1362  133.3141  151.1230 N   0  0  0  0  0  0  0  0  0  0  0  0
  146.1270  136.5421  152.4638 N   0  0  0  0  0  0  0  0  0  0  0  0
  146.2752  137.5604  153.3229 C   0  0  0  0  0  0  0  0  0  0  0  0
  145.3445  138.0955  153.9254 O   0  0  0  0  0  0  0  0  0  0  0  0
  147.5623  137.9129  153.4521 N   0  0  0  0  0  0  0  0  0  0  0  0
  148.0791  138.9613  154.3307 C   0  0  2  0  0  0  0  0  0  0  0  0
  147.4281  140.3046  153.9462 C   0  0  0  0  0  0  0  0  0  0  0  0
  147.9806  141.4638  154.7881 C   0  0  0  0  0  0  0  0  0  0  0  0
  149.5087  141.5464  154.6734 C   0  0  0  0  0  0  0  0  0  0  0  0
  150.1639  140.2148  155.0708 C   0  0  0  0  0  0  0  0  0  0  0  0
  149.6241  139.0344  154.2377 C   0  0  1  0  0  0  0  0  0  0  0  0
  150.3022  137.7186  154.6606 C   0  0  0  0  0  0  0  0  0  0  0  0
  143.5492  134.3587  152.9530 H   0  0  0  0  0  0  0  0  0  0  0  0
  144.4989  135.2035  154.1605 H   0  0  0  0  0  0  0  0  0  0  0  0
  145.2666  134.0033  153.1246 H   0  0  0  0  0  0  0  0  0  0  0  0
  144.0692  136.6539  152.1581 H   0  0  0  0  0  0  0  0  0  0  0  0
  144.0539  135.6764  150.1104 H   0  0  0  0  0  0  0  0  0  0  0  0
  145.7972  135.8116  150.1595 H   0  0  0  0  0  0  0  0  0  0  0  0
  143.2445  133.3397  149.5873 H   0  0  0  0  0  0  0  0  0  0  0  0
  144.2809  130.8359  149.9064 H   0  0  0  0  0  0  0  0  0  0  0  0
  146.6735  131.3150  151.2203 H   0  0  0  0  0  0  0  0  0  0  0  0
  146.9551  136.1730  152.0200 H   0  0  0  0  0  0  0  0  0  0  0  0
  148.2454  137.4057  152.9092 H   0  0  0  0  0  0  0  0  0  0  0  0
  147.8151  138.7461  155.3680 H   0  0  0  0  0  0  0  0  0  0  0  0
  147.6037  140.5120  152.8896 H   0  0  0  0  0  0  0  0  0  0  0  0
  146.3463  140.2446  154.0729 H   0  0  0  0  0  0  0  0  0  0  0  0
  147.5312  142.4042  154.4678 H   0  0  0  0  0  0  0  0  0  0  0  0
  147.6979  141.3251  155.8322 H   0  0  0  0  0  0  0  0  0  0  0  0
  149.7876  141.8024  153.6503 H   0  0  0  0  0  0  0  0  0  0  0  0
  149.8856  142.3495  155.3076 H   0  0  0  0  0  0  0  0  0  0  0  0
  151.2449  140.2933  154.9490 H   0  0  0  0  0  0  0  0  0  0  0  0
  149.9871  140.0275  156.1309 H   0  0  0  0  0  0  0  0  0  0  0  0
  149.8923  139.2195  153.1962 H   0  0  0  0  0  0  0  0  0  0  0  0
  150.0396  137.4500  155.6842 H   0  0  0  0  0  0  0  0  0  0  0  0
  151.3880  137.8021  154.6069 H   0  0  0  0  0  0  0  0  0  0  0  0
  150.0111  136.8896  154.0153 H   0  0  0  0  0  0  0  0  0  0  0  0
  1  2  1  0  0  0  0
  1 20  1  0  0  0  0
  1 21  1  0  0  0  0
  1 22  1  0  0  0  0
  2  3  1  0  0  0  0
  2  9  1  0  0  0  0
  2 23  1  0  0  0  0
  3  4  1  0  0  0  0
  3 24  1  0  0  0  0
  3 25  1  0  0  0  0
  4  8  1  0  0  0  0
  4  5  1  0  0  0  0
  5  6  2  0  0  0  0
  5 26  1  0  0  0  0
  6  7  1  0  0  0  0
  6 27  1  0  0  0  0
  7  8  2  0  0  0  0
  7 28  1  0  0  0  0
  9 10  1  0  0  0  0
  9 29  1  0  0  0  0
 10 11  2  0  0  0  0
 10 12  1  0  0  0  0
 12 13  1  0  0  0  0
 12 30  1  0  0  0  0
 13 18  1  0  0  0  0
 13 14  1  0  0  0  0
 13 31  1  0  0  0  0
 14 15  1  0  0  0  0
 14 32  1  0  0  0  0
 14 33  1  0  0  0  0
 15 16  1  0  0  0  0
 15 34  1  0  0  0  0
 15 35  1  0  0  0  0
 16 17  1  0  0  0  0
 16 36  1  0  0  0  0
 16 37  1  0  0  0  0
 17 18  1  0  0  0  0
 17 38  1  0  0  0  0
 17 39  1  0  0  0  0
 18 19  1  0  0  0  0
 18 40  1  0  0  0  0
 19 41  1  0  0  0  0
 19 42  1  0  0  0  0
 19 43  1  0  0  0  0
M  END
> <s_m_source_file>
AV-unprocessed.smi

> <i_m_source_file_index>
1840

> <i_lp_mmshare_version>
43012

> <i_f3d_flags>
0

> <s_epik_input>
bjFbY0hdW2NIXVtjSF1uMVtDSDJdW0NAQEhdKFtDSDNdKVtOSF1DKD1PKVtOSF1bQ0BASF0yW0NIMl1bQ0gyXVtDSDJdW0NIMl1bQ0BIXTJbQ0gzXQ==

> <s_epik_cmdline>
J2VwaWtfcHl0aG9uJywgJy1waCcsICc3LjAnLCAnLXRuJywgJzgnLCAnLW1hJywgJzIwMCcsICctbWV0YWxfYmluZGluZycsICctaW1hZScsICc8aW5maWxlLm1hZT4nLCAnLW9tYWUnLCAnPG91dGZpbGUubWFlPic=

> <r_lp_tautomer_probability>
1

> <r_epik_Ionization_Penalty>
7.38659e-05

> <r_epik_Ionization_Penalty_Charging>
0

> <r_epik_Ionization_Penalty_Neutral>
7.38659e-05

> <r_epik_State_Penalty>
-0

> <r_epik_Charging_Adjusted_Penalty>
0

> <i_epik_Tot_Q>
0

> <i_epik_Tot_abs_Q>
0

> <r_epik_Metal_State_Penalty>
-0

> <b_epik_Metal_Only>
0

> <s_lp_Force_Field>
OPLS_2005

> <r_lp_Energy>
8.70276

> <b_lp_Chiralities_Consistent>
1

> <s_lp_Variant>
AV-unprocessed.smi:1840-1

> <Gold.Version>
5.8.1

> <Gold.Id.Protein>
6NUR|6NUR_protein|mol2

> <Gold.PLP.Fitness>
44.2661

> <Gold.PLP.PLP>
-34.3612

> <Gold.PLP.part.hbond>
-2.0000

> <Gold.PLP.part.metal>
0.0000

> <Gold.PLP.part.buried>
-3.5368

> <Gold.PLP.part.nonpolar>
-29.3433

> <Gold.PLP.part.repulsive>
0.3699

> <Gold.PLP.ligand.clash>
0.0000

> <Gold.PLP.ligand.torsion>
1.0227

> <Gold.PLP.Chemscore.Hbond>
1.9760

> <Gold.PLP.Chemscore.CHOScore>
1.9988

> <Gold.PLP.Chemscore.Metal>
0.0000

> <Gold.Chemscore.Hbonds>
donor molecule, donor type, donor heavy atom, donor atom, acceptor molecule, acceptor atom, score
      L1  H     9    29       P1  7948  0.98
      L1  H    12    30       P1  7948  1.00
      L1  C     5    26       P1 10186  1.00
      L1  C     7    28       P1 10747  0.98

> <Gold.PLP.Chemscore.Internal.Correction>
0.0260

> <Gold.Rescore>
     Score         DG    S(hbond)    S(metal)    S(lipo)     H(rot)  DE(clash)    DE(int)     intcor
     15.87     -18.06       1.93        0.00      86.53       1.56       0.00       2.19       ----

> <Gold.Chemscore.Fitness>
15.8690

> <Gold.Chemscore.DG>
-18.0633

> <Gold.Chemscore.ZeroCoef>
-5.4800

> <Gold.Chemscore.Hbond>
1.9303

> <Gold.Chemscore.Metal>
0.0000

> <Gold.Chemscore.Lipo>
86.5277

> <Gold.Chemscore.Internal_Hbond>
0.0000

> <Gold.Chemscore.DEClash>
0.0042

> <Gold.Chemscore.DEInternal>
2.1901

> <Gold.Chemscore.Rot>
1.5576

> <Gold.Chemscore.Internal.Correction>
   9.000000E+99

> <Gold.Chemscore.Hbonds>
donor molecule, donor type, donor heavy atom, donor atom, acceptor molecule, acceptor atom, score
      L1  H     9    29       P1  7948  0.91
      L1  H    12    30       P1  7948  1.00

> <Gold.Chemscore.Hbond.Weighted>
-6.4471

> <Gold.Chemscore.Metal.Weighted>
-0.0000

> <Gold.Chemscore.Lipo.Weighted>
-10.1237

> <Gold.Chemscore.Internal_Hbond.Weighted>
0.0000

> <Gold.Chemscore.DEClash.Weighted>
0.0042

> <Gold.Chemscore.DEInternal.Weighted>
2.1901

> <Gold.Chemscore.Rot.Weighted>
3.9875

> <Gold.Chemscore.Internal.Correction.Weighted>
   9.000000E+99

> <Gold.Protein.RotatedTorsions>
[ 6907 6896 6895 6894 ] final  -24.66 input  -60.11 | X-H torsion
[ 7974 7965 7964 7962 ] final  107.35 input  175.53 | X-H torsion
[ 8008 7997 7996 7995 ] final   20.07 input   59.86 | X-H torsion
[ 10167 10162 10161 10158 ] final  -60.85 input  -65.29 | X-H torsion
[ 10718 10713 10712 10709 ] final   89.76 input   66.30 | X-H torsion
[ 10763 10752 10751 10750 ] final -110.48 input  -60.55 | X-H torsion
[ 11005 11000 10999 10996 ] final  -28.33 input  -57.11 | X-H torsion

> <Gold.Protein.ActiveResidues>
 VAL166  LYS551  ARG553  GLY616  TRP617  ASP618  TYR619  PRO620  LYS621  CYS622 
 ASP623  PHE694  ASN695  SER759  ASP760  ASP761  ALA762  ILE779  LEU786  VAL792 
 PHE793  MET794  SER795  GLU796  ALA797  LYS798  CYS799  TRP800  GLU811  SER814 

> <Gold.Protein.RotatedAtoms>
  151.1863  135.0383  159.8813 H   0  0  0  0  0  0  0  0  0  0  0  0  # atno 6907 bound_to 6896
  152.5442  134.1006  159.8326 H   0  0  0  0  0  0  0  0  0  0  0  0  # atno 6908 bound_to 6896
  151.1129  133.5112  159.2637 H   0  0  0  0  0  0  0  0  0  0  0  0  # atno 6909 bound_to 6896
  145.2947  139.2588  143.3846 H   0  0  0  0  0  0  0  0  0  0  0  0  # atno 7974 bound_to 7965
  154.9301  140.3039  155.5172 H   0  0  0  0  0  0  0  0  0  0  0  0  # atno 8008 bound_to 7997
  156.3004  140.2355  156.4297 H   0  0  0  0  0  0  0  0  0  0  0  0  # atno 8009 bound_to 7997
  154.8246  140.0421  157.1423 H   0  0  0  0  0  0  0  0  0  0  0  0  # atno 8010 bound_to 7997
  140.6045  143.2370  151.5853 H   0  0  0  0  0  0  0  0  0  0  0  0  # atno 10167 bound_to 10162
  157.6956  131.0345  150.3474 H   0  0  0  0  0  0  0  0  0  0  0  0  # atno 10718 bound_to 10713
  154.8250  135.4562  154.0892 H   0  0  0  0  0  0  0  0  0  0  0  0  # atno 10763 bound_to 10752
  153.2213  135.6894  153.8003 H   0  0  0  0  0  0  0  0  0  0  0  0  # atno 10764 bound_to 10752
  153.7419  135.3311  155.3282 H   0  0  0  0  0  0  0  0  0  0  0  0  # atno 10765 bound_to 10752
  140.9199  133.7406  156.0786 H   0  0  0  0  0  0  0  0  0  0  0  0  # atno 11005 bound_to 11000
  146.3173  140.3447  142.8651 LP  0  0  0  0  0  0  0  0  0  0  0  0  # atno 17320 bound_to 7965
  144.9143  140.7794  143.5788 LP  0  0  0  0  0  0  0  0  0  0  0  0  # atno 17321 bound_to 7965
  139.5315  144.2904  152.1157 LP  0  0  0  0  0  0  0  0  0  0  0  0  # atno 17342 bound_to 10162
  140.2091  144.4581  150.6394 LP  0  0  0  0  0  0  0  0  0  0  0  0  # atno 17343 bound_to 10162
  156.3927  130.3901  149.7018 LP  0  0  0  0  0  0  0  0  0  0  0  0  # atno 17370 bound_to 10713
  156.4362  130.7839  151.2860 LP  0  0  0  0  0  0  0  0  0  0  0  0  # atno 17371 bound_to 10713
  140.8002  134.3518  157.5441 LP  0  0  0  0  0  0  0  0  0  0  0  0  # atno 17394 bound_to 11000
  139.8773  134.9193  156.3223 LP  0  0  0  0  0  0  0  0  0  0  0  0  # atno 17395 bound_to 11000

$$$$
