AV-unprocessed.smi:72|AV-procd|sdf|671|dock1
  -GOLD-   2262016573D 1   1.00000     0.00000
 Structure written by MMmdl.
 29 30  0  0  0  0  0  0  0  0  1 V2000
  152.0760  137.1278  159.8244 N   0  0  0  0  0  0  0  0  0  0  0  0
  151.6382  137.6539  158.7366 C   0  0  0  0  0  0  0  0  0  0  0  0
  150.2852  137.8309  158.4095 N   0  0  0  0  0  0  0  0  0  0  0  0
  149.9876  138.3839  157.2743 C   0  0  0  0  0  0  0  0  0  0  0  0
  151.0079  138.8293  156.3377 N   0  0  0  0  0  0  0  0  0  0  0  0
  150.6221  139.4788  155.0249 C   0  0  2  0  0  0  0  0  0  0  0  0
  149.8007  140.5707  155.3029 O   0  0  0  0  0  0  0  0  0  0  0  0
  148.7644  140.6419  154.3358 C   0  0  2  0  0  0  0  0  0  0  0  0
  147.5750  141.4136  154.9289 C   0  0  0  0  0  0  0  0  0  0  0  0
  147.4731  142.6956  154.3473 O   0  0  0  0  0  0  0  0  0  0  0  0
  148.4798  139.1738  153.9966 C   0  0  1  0  0  0  0  0  0  0  0  0
  147.9471  139.0567  152.6923 O   0  0  0  0  0  0  0  0  0  0  0  0
  149.8601  138.5312  154.0692 C   0  0  2  0  0  0  0  0  0  0  0  0
  149.7697  137.1895  154.5139 O   0  0  0  0  0  0  0  0  0  0  0  0
  152.3777  138.6426  156.6441 C   0  0  0  0  0  0  0  0  0  0  0  0
  153.2807  138.9712  155.8755 O   0  0  0  0  0  0  0  0  0  0  0  0
  152.6328  138.0652  157.8384 N   0  0  0  0  0  0  0  0  0  0  0  0
  151.5407  139.8632  154.5798 H   0  0  0  0  0  0  0  0  0  0  0  0
  149.1699  141.1655  153.4675 H   0  0  0  0  0  0  0  0  0  0  0  0
  147.8048  138.7350  154.7333 H   0  0  0  0  0  0  0  0  0  0  0  0
  150.3629  138.5648  153.1014 H   0  0  0  0  0  0  0  0  0  0  0  0
  153.0854  137.1088  159.8282 H   0  0  0  0  0  0  0  0  0  0  0  0
  148.9599  138.5467  156.9462 H   0  0  0  0  0  0  0  0  0  0  0  0
  146.6421  140.8675  154.7871 H   0  0  0  0  0  0  0  0  0  0  0  0
  147.7123  141.5415  156.0028 H   0  0  0  0  0  0  0  0  0  0  0  0
  147.9940  143.2986  154.8551 H   0  0  0  0  0  0  0  0  0  0  0  0
  148.6137  139.3068  152.0714 H   0  0  0  0  0  0  0  0  0  0  0  0
  149.5784  136.6395  153.7699 H   0  0  0  0  0  0  0  0  0  0  0  0
  153.6003  137.9198  158.0870 H   0  0  0  0  0  0  0  0  0  0  0  0
  1  2  2  0  0  0  0
  1 22  1  0  0  0  0
  2 17  1  0  0  0  0
  2  3  1  0  0  0  0
  3  4  2  0  0  0  0
  4  5  1  0  0  0  0
  4 23  1  0  0  0  0
  5  6  1  0  0  0  0
  5 15  1  0  0  0  0
  6 18  1  0  0  0  0
  6 13  1  0  0  0  0
  6  7  1  0  0  0  0
  7  8  1  0  0  0  0
  8 19  1  0  0  0  0
  8  9  1  0  0  0  0
  8 11  1  0  0  0  0
  9 10  1  0  0  0  0
  9 24  1  0  0  0  0
  9 25  1  0  0  0  0
 10 26  1  0  0  0  0
 11 20  1  0  0  0  0
 11 12  1  0  0  0  0
 11 13  1  0  0  0  0
 12 27  1  0  0  0  0
 13 21  1  0  0  0  0
 13 14  1  0  0  0  0
 14 28  1  0  0  0  0
 15 16  2  0  0  0  0
 15 17  1  0  0  0  0
 17 29  1  0  0  0  0
M  END
> <s_m_source_file>
AV-unprocessed.smi

> <i_m_source_file_index>
72

> <i_lp_mmshare_version>
43012

> <i_f3d_flags>
0

> <s_epik_input>
W05IMl1jMW5bY0hdbihjKD1PKW4xKVtDQEBIXTJPW0NASF0oW0NIMl1bT0hdKVtDQEBIXShbT0hdKVtDQEhdMltPSF0=

> <s_epik_cmdline>
J2VwaWtfcHl0aG9uJywgJy1waCcsICc3LjAnLCAnLXRuJywgJzgnLCAnLW1hJywgJzIwMCcsICctbWV0YWxfYmluZGluZycsICctaW1hZScsICc8aW5maWxlLm1hZT4nLCAnLW9tYWUnLCAnPG91dGZpbGUubWFlPic=

> <r_lp_tautomer_probability>
7.17554e-07

> <r_epik_Ionization_Penalty>
0.0066451

> <r_epik_Ionization_Penalty_Charging>
0.00663793

> <r_epik_Ionization_Penalty_Neutral>
7.17052e-06

> <r_epik_State_Penalty>
0.419231

> <r_epik_Charging_Adjusted_Penalty>
0.425868

> <i_epik_Tot_Q>
0

> <i_epik_Tot_abs_Q>
0

> <r_epik_Metal_State_Penalty>
1.44144

> <b_epik_Metal_Only>
0

> <s_epik_Chemistry_Notes>
This compound contains an acetal/aminal-like group ( X-CH(R)-Y where X, Y are N, S, or O) that may be acid/base labile, releasing an aldehyde.

> <s_lp_Force_Field>
OPLS_2005

> <r_lp_Energy>
42.2993

> <b_lp_Chiralities_Consistent>
1

> <s_lp_Variant>
AV-unprocessed.smi:72-9

> <Gold.Version>
5.8.1

> <Gold.Id.Protein>
6NUR|6NUR_protein|mol2

> <Gold.PLP.Fitness>
37.3491

> <Gold.PLP.PLP>
-23.6251

> <Gold.PLP.part.hbond>
-5.6694

> <Gold.PLP.part.metal>
0.0000

> <Gold.PLP.part.buried>
-4.9127

> <Gold.PLP.part.nonpolar>
-14.6021

> <Gold.PLP.part.repulsive>
0.1822

> <Gold.PLP.ligand.clash>
0.0000

> <Gold.PLP.ligand.torsion>
0.6913

> <Gold.PLP.Chemscore.Hbond>
5.0000

> <Gold.PLP.Chemscore.CHOScore>
0.0000

> <Gold.PLP.Chemscore.Metal>
0.0000

> <Gold.Chemscore.Hbonds>
donor molecule, donor type, donor heavy atom, donor atom, acceptor molecule, acceptor atom, score
      L1  H    10    26       P1  8028  1.00
      L1  H    12    27       P1  7957  0.96
      L1  H    14    28       P1  7948  1.00
      P1  H  6896  6907       L1     1  0.75
      P1  H  7997  8010       L1    16  1.00

> <Gold.PLP.Chemscore.Internal.Correction>
0.1066

> <Gold.Rescore>
     Score         DG    S(hbond)    S(metal)    S(lipo)     H(rot)  DE(clash)    DE(int)     intcor
     11.73     -13.72       4.70        0.00      25.01       4.06       0.05       1.94       ----

> <Gold.Chemscore.Fitness>
11.7343

> <Gold.Chemscore.DG>
-13.7183

> <Gold.Chemscore.ZeroCoef>
-5.4800

> <Gold.Chemscore.Hbond>
4.7025

> <Gold.Chemscore.Metal>
0.0000

> <Gold.Chemscore.Lipo>
25.0054

> <Gold.Chemscore.Internal_Hbond>
0.0000

> <Gold.Chemscore.DEClash>
0.0469

> <Gold.Chemscore.DEInternal>
1.9371

> <Gold.Chemscore.Rot>
4.0600

> <Gold.Chemscore.Internal.Correction>
   9.000000E+99

> <Gold.Chemscore.Hbonds>
donor molecule, donor type, donor heavy atom, donor atom, acceptor molecule, acceptor atom, score
      L1  H    10    26       P1  8028  0.85
      L1  H    12    27       P1  7957  0.91
      L1  H    14    28       P1  7948  0.69
      P1  H  6896  6907       L1     1  0.08
      P1  H  7997  8010       L1    16  0.97

> <Gold.Chemscore.Hbond.Weighted>
-15.7063

> <Gold.Chemscore.Metal.Weighted>
-0.0000

> <Gold.Chemscore.Lipo.Weighted>
-2.9256

> <Gold.Chemscore.Internal_Hbond.Weighted>
0.0000

> <Gold.Chemscore.DEClash.Weighted>
0.0469

> <Gold.Chemscore.DEInternal.Weighted>
1.9371

> <Gold.Chemscore.Rot.Weighted>
10.3936

> <Gold.Chemscore.Internal.Correction.Weighted>
   9.000000E+99

> <Gold.Protein.RotatedTorsions>
[ 6907 6896 6895 6894 ] final   17.18 input  -60.11 | X-H torsion
[ 7974 7965 7964 7962 ] final   39.67 input  175.53 | X-H torsion
[ 8008 7997 7996 7995 ] final   88.45 input   59.86 | X-H torsion
[ 10167 10162 10161 10158 ] final   17.87 input  -65.29 | X-H torsion
[ 10718 10713 10712 10709 ] final  158.87 input   66.30 | X-H torsion
[ 10763 10752 10751 10750 ] final -170.41 input  -60.55 | X-H torsion
[ 11005 11000 10999 10996 ] final   30.87 input  -57.11 | X-H torsion

> <Gold.Protein.ActiveResidues>
 VAL166  LYS551  ARG553  GLY616  TRP617  ASP618  TYR619  PRO620  LYS621  CYS622 
 ASP623  PHE694  ASN695  SER759  ASP760  ASP761  ALA762  ILE779  LEU786  VAL792 
 PHE793  MET794  SER795  GLU796  ALA797  LYS798  CYS799  TRP800  GLU811  SER814 

> <Gold.Protein.RotatedAtoms>
  151.8456  135.0575  160.0452 H   0  0  0  0  0  0  0  0  0  0  0  0  # atno 6907 bound_to 6896
  152.2776  133.5435  159.5486 H   0  0  0  0  0  0  0  0  0  0  0  0  # atno 6908 bound_to 6896
  150.7176  134.0526  159.3846 H   0  0  0  0  0  0  0  0  0  0  0  0  # atno 6909 bound_to 6896
  146.0966  139.5624  142.9441 H   0  0  0  0  0  0  0  0  0  0  0  0  # atno 7974 bound_to 7965
  155.9880  140.3371  155.6725 H   0  0  0  0  0  0  0  0  0  0  0  0  # atno 8008 bound_to 7997
  155.6460  140.0700  157.2621 H   0  0  0  0  0  0  0  0  0  0  0  0  # atno 8009 bound_to 7997
  154.4211  140.1734  156.1611 H   0  0  0  0  0  0  0  0  0  0  0  0  # atno 8010 bound_to 7997
  140.5694  143.9189  150.6701 H   0  0  0  0  0  0  0  0  0  0  0  0  # atno 10167 bound_to 10162
  157.1719  131.0612  151.2178 H   0  0  0  0  0  0  0  0  0  0  0  0  # atno 10718 bound_to 10713
  154.6418  135.2899  155.0094 H   0  0  0  0  0  0  0  0  0  0  0  0  # atno 10763 bound_to 10752
  154.1218  135.6547  153.4908 H   0  0  0  0  0  0  0  0  0  0  0  0  # atno 10764 bound_to 10752
  153.0330  135.5289  154.7288 H   0  0  0  0  0  0  0  0  0  0  0  0  # atno 10765 bound_to 10752
  140.2898  134.2877  155.7779 H   0  0  0  0  0  0  0  0  0  0  0  0  # atno 11005 bound_to 11000
  145.5936  141.0366  143.2057 LP  0  0  0  0  0  0  0  0  0  0  0  0  # atno 17320 bound_to 7965
  144.7400  139.7476  143.7314 LP  0  0  0  0  0  0  0  0  0  0  0  0  # atno 17321 bound_to 7965
  140.2660  143.3489  152.1280 LP  0  0  0  0  0  0  0  0  0  0  0  0  # atno 17342 bound_to 10162
  139.5110  144.6893  151.5803 LP  0  0  0  0  0  0  0  0  0  0  0  0  # atno 17343 bound_to 10162
  157.4035  130.7346  149.6785 LP  0  0  0  0  0  0  0  0  0  0  0  0  # atno 17370 bound_to 10713
  155.9737  130.4114  150.3981 LP  0  0  0  0  0  0  0  0  0  0  0  0  # atno 17371 bound_to 10713
  141.2148  133.7578  156.9607 LP  0  0  0  0  0  0  0  0  0  0  0  0  # atno 17394 bound_to 11000
  140.1206  134.9419  157.2197 LP  0  0  0  0  0  0  0  0  0  0  0  0  # atno 17395 bound_to 11000

$$$$
