AV-unprocessed.smi:1479|AV-procd|sdf|5984|dock3
  -GOLD-   22720 6 73D 1   1.00000     0.00000
 Structure written by MMmdl.
 41 42  0  0  0  0  0  0  0  0  2 V2000
  151.0916  132.1100  155.8798 C   0  0  0  0  0  0  0  0  0  0  0  0
  149.7436  133.3403  156.1217 S   0  0  0  0  0  0  0  0  0  0  0  0
  148.4632  132.6829  155.8222 O   0  0  0  0  0  0  0  0  0  0  0  0
  149.9491  133.9883  157.4259 O   0  0  0  0  0  0  0  0  0  0  0  0
  150.0813  134.5718  154.7889 C   0  0  0  0  0  0  0  0  0  0  0  0
  150.3821  135.9655  155.3575 C   0  0  0  0  0  0  0  0  0  0  0  0
  149.9618  137.0227  154.4179 N   0  3  0  0  0  0  0  0  0  0  0  0
  151.0469  137.9430  154.0266 C   0  0  0  0  0  0  0  0  0  0  0  0
  151.2760  138.9860  155.1002 C   0  0  0  0  0  0  0  0  0  0  0  0
  150.3856  140.0604  155.2960 C   0  0  0  0  0  0  0  0  0  0  0  0
  150.6003  140.9921  156.2481 N   0  0  0  0  0  0  0  0  0  0  0  0
  151.6912  140.8662  157.0172 C   0  0  0  0  0  0  0  0  0  0  0  0
  151.9061  141.8377  158.0035 N   0  0  0  0  0  0  0  0  0  0  0  0
  151.1536  143.0944  158.0338 C   0  0  0  0  0  0  0  0  0  0  0  0
  152.0077  144.2304  158.6218 C   0  0  0  0  0  0  0  0  0  0  0  0
  152.4902  143.8553  159.9057 O   0  0  0  0  0  0  0  0  0  0  0  0
  153.3247  142.7062  159.8343 C   0  0  0  0  0  0  0  0  0  0  0  0
  152.5213  141.5119  159.2930 C   0  0  0  0  0  0  0  0  0  0  0  0
  152.5914  139.8785  156.9094 N   0  0  0  0  0  0  0  0  0  0  0  0
  152.3905  138.9395  155.9614 C   0  0  0  0  0  0  0  0  0  0  0  0
  150.9563  131.2878  156.5827 H   0  0  0  0  0  0  0  0  0  0  0  0
  152.0599  132.5746  156.0612 H   0  0  0  0  0  0  0  0  0  0  0  0
  151.0555  131.7199  154.8629 H   0  0  0  0  0  0  0  0  0  0  0  0
  150.9096  134.2010  154.1845 H   0  0  0  0  0  0  0  0  0  0  0  0
  149.1990  134.6056  154.1487 H   0  0  0  0  0  0  0  0  0  0  0  0
  149.8582  136.1049  156.3038 H   0  0  0  0  0  0  0  0  0  0  0  0
  151.4480  136.0718  155.5583 H   0  0  0  0  0  0  0  0  0  0  0  0
  149.5937  136.5869  153.5843 H   0  0  0  0  0  0  0  0  0  0  0  0
  151.9678  137.3818  153.8627 H   0  0  0  0  0  0  0  0  0  0  0  0
  150.7944  138.4346  153.0859 H   0  0  0  0  0  0  0  0  0  0  0  0
  149.5034  140.1787  154.6843 H   0  0  0  0  0  0  0  0  0  0  0  0
  150.8214  143.3985  157.0418 H   0  0  0  0  0  0  0  0  0  0  0  0
  150.2571  142.9495  158.6374 H   0  0  0  0  0  0  0  0  0  0  0  0
  152.8428  144.4707  157.9618 H   0  0  0  0  0  0  0  0  0  0  0  0
  151.4093  145.1362  158.7195 H   0  0  0  0  0  0  0  0  0  0  0  0
  154.1920  142.9092  159.2041 H   0  0  0  0  0  0  0  0  0  0  0  0
  153.7026  142.4811  160.8314 H   0  0  0  0  0  0  0  0  0  0  0  0
  151.7327  141.2431  159.9966 H   0  0  0  0  0  0  0  0  0  0  0  0
  153.1900  140.6545  159.2263 H   0  0  0  0  0  0  0  0  0  0  0  0
  153.1268  138.1528  155.8869 H   0  0  0  0  0  0  0  0  0  0  0  0
  149.2263  137.5622  154.8522 H   0  0  0  0  0  0  0  0  0  0  0  0
  1  2  1  0  0  0  0
  1 21  1  0  0  0  0
  1 22  1  0  0  0  0
  1 23  1  0  0  0  0
  2  3  2  0  0  0  0
  2  4  2  0  0  0  0
  2  5  1  0  0  0  0
  5  6  1  0  0  0  0
  5 24  1  0  0  0  0
  5 25  1  0  0  0  0
  6  7  1  0  0  0  0
  6 26  1  0  0  0  0
  6 27  1  0  0  0  0
  7  8  1  0  0  0  0
  7 28  1  0  0  0  0
  7 41  1  0  0  0  0
  8  9  1  0  0  0  0
  8 29  1  0  0  0  0
  8 30  1  0  0  0  0
  9 20  1  0  0  0  0
  9 10  2  0  0  0  0
 10 11  1  0  0  0  0
 10 31  1  0  0  0  0
 11 12  2  0  0  0  0
 12 13  1  0  0  0  0
 12 19  1  0  0  0  0
 13 18  1  0  0  0  0
 13 14  1  0  0  0  0
 14 15  1  0  0  0  0
 14 32  1  0  0  0  0
 14 33  1  0  0  0  0
 15 16  1  0  0  0  0
 15 34  1  0  0  0  0
 15 35  1  0  0  0  0
 16 17  1  0  0  0  0
 17 18  1  0  0  0  0
 17 36  1  0  0  0  0
 17 37  1  0  0  0  0
 18 38  1  0  0  0  0
 18 39  1  0  0  0  0
 19 20  2  0  0  0  0
 20 40  1  0  0  0  0
M  CHG  1   7   1
M  END
> <s_m_source_file>
AV-unprocessed.smi

> <i_m_source_file_index>
1479

> <i_lp_mmshare_version>
43012

> <i_f3d_flags>
0

> <s_epik_input>
W0NIM11TKD1PKSg9TylbQ0gyXVtDSDJdW05IXVtDSDJdYzFbY0hdbmMobltjSF0xKU4yW0NIMl1bQ0gyXU9bQ0gyXVtDSDJdMg==

> <s_epik_cmdline>
J2VwaWtfcHl0aG9uJywgJy1waCcsICc3LjAnLCAnLXRuJywgJzgnLCAnLW1hJywgJzIwMCcsICctbWV0YWxfYmluZGluZycsICctaW1hZScsICc8aW5maWxlLm1hZT4nLCAnLW9tYWUnLCAnPG91dGZpbGUubWFlPic=

> <r_lp_tautomer_probability>
1

> <r_epik_Ionization_Penalty>
0.420052

> <r_epik_Ionization_Penalty_Charging>
0.42005

> <r_epik_Ionization_Penalty_Neutral>
1.46734e-06

> <r_epik_State_Penalty>
0.420684

> <r_epik_Charging_Adjusted_Penalty>
0.840734

> <i_epik_Tot_Q>
1

> <i_epik_Tot_abs_Q>
1

> <r_epik_Metal_State_Penalty>
0.420686

> <b_epik_Metal_Only>
0

> <s_lp_Force_Field>
OPLS_2005

> <r_lp_Energy>
3.00328

> <b_lp_Chiralities_Consistent>
1

> <s_lp_Variant>
AV-unprocessed.smi:1479-2

> <Gold.Version>
5.8.1

> <Gold.Id.Protein>
6NUR|6NUR_protein|mol2

> <Gold.PLP.Fitness>
48.3268

> <Gold.PLP.PLP>
-38.3537

> <Gold.PLP.part.hbond>
-3.0061

> <Gold.PLP.part.metal>
0.0000

> <Gold.PLP.part.buried>
-5.3706

> <Gold.PLP.part.nonpolar>
-30.3259

> <Gold.PLP.part.repulsive>
0.0926

> <Gold.PLP.ligand.clash>
0.0000

> <Gold.PLP.ligand.torsion>
1.1428

> <Gold.PLP.Chemscore.Hbond>
3.9920

> <Gold.PLP.Chemscore.CHOScore>
0.0000

> <Gold.PLP.Chemscore.Metal>
0.0000

> <Gold.Chemscore.Hbonds>
donor molecule, donor type, donor heavy atom, donor atom, acceptor molecule, acceptor atom, score
      L1  H     7    28       P1  7948  2.00
      P1  H  6896  6908       L1     4  0.99
      P1  H  7997  8009       L1    19  1.00

> <Gold.PLP.Chemscore.Internal.Correction>
0.2827

> <Gold.Rescore>
     Score         DG    S(hbond)    S(metal)    S(lipo)     H(rot)  DE(clash)    DE(int)     intcor
     18.16     -19.24       2.66        0.00      88.40       2.14       0.02       1.05       ----

> <Gold.Chemscore.Fitness>
18.1645

> <Gold.Chemscore.DG>
-19.2362

> <Gold.Chemscore.ZeroCoef>
-5.4800

> <Gold.Chemscore.Hbond>
2.6641

> <Gold.Chemscore.Metal>
0.0000

> <Gold.Chemscore.Lipo>
88.4035

> <Gold.Chemscore.Internal_Hbond>
0.0000

> <Gold.Chemscore.DEClash>
0.0186

> <Gold.Chemscore.DEInternal>
1.0531

> <Gold.Chemscore.Rot>
2.1426

> <Gold.Chemscore.Internal.Correction>
   9.000000E+99

> <Gold.Chemscore.Hbonds>
donor molecule, donor type, donor heavy atom, donor atom, acceptor molecule, acceptor atom, score
      L1  H     7    28       P1  7948  0.65
      P1  H  6896  6908       L1     4  0.89
      P1  H  7997  8009       L1    19  0.25

> <Gold.Chemscore.Hbond.Weighted>
-8.8980

> <Gold.Chemscore.Metal.Weighted>
-0.0000

> <Gold.Chemscore.Lipo.Weighted>
-10.3432

> <Gold.Chemscore.Internal_Hbond.Weighted>
0.0000

> <Gold.Chemscore.DEClash.Weighted>
0.0186

> <Gold.Chemscore.DEInternal.Weighted>
1.0531

> <Gold.Chemscore.Rot.Weighted>
5.4850

> <Gold.Chemscore.Internal.Correction.Weighted>
   9.000000E+99

> <Gold.Protein.RotatedTorsions>
[ 6907 6896 6895 6894 ] final  124.14 input  -60.11 | X-H torsion
[ 7974 7965 7964 7962 ] final  -50.99 input  175.53 | X-H torsion
[ 8008 7997 7996 7995 ] final  170.60 input   59.86 | X-H torsion
[ 10167 10162 10161 10158 ] final  165.97 input  -65.29 | X-H torsion
[ 10718 10713 10712 10709 ] final -126.27 input   66.30 | X-H torsion
[ 10763 10752 10751 10750 ] final -171.11 input  -60.55 | X-H torsion
[ 11005 11000 10999 10996 ] final   55.09 input  -57.11 | X-H torsion

> <Gold.Protein.ActiveResidues>
 VAL166  LYS551  ARG553  GLY616  TRP617  ASP618  TYR619  PRO620  LYS621  CYS622 
 ASP623  PHE694  ASN695  SER759  ASP760  ASP761  ALA762  ILE779  LEU786  VAL792 
 PHE793  MET794  SER795  GLU796  ALA797  LYS798  CYS799  TRP800  GLU811  SER814 

> <Gold.Protein.RotatedAtoms>
  152.4103  133.6953  159.6391 H   0  0  0  0  0  0  0  0  0  0  0  0  # atno 6907 bound_to 6896
  150.7984  133.8635  159.3247 H   0  0  0  0  0  0  0  0  0  0  0  0  # atno 6908 bound_to 6896
  151.6379  135.1018  160.0187 H   0  0  0  0  0  0  0  0  0  0  0  0  # atno 6909 bound_to 6896
  145.9239  140.7810  142.9634 H   0  0  0  0  0  0  0  0  0  0  0  0  # atno 7974 bound_to 7965
  156.1350  140.1534  156.9007 H   0  0  0  0  0  0  0  0  0  0  0  0  # atno 8008 bound_to 7997
  154.4940  140.0843  156.7696 H   0  0  0  0  0  0  0  0  0  0  0  0  # atno 8009 bound_to 7997
  155.4185  140.3422  155.4271 H   0  0  0  0  0  0  0  0  0  0  0  0  # atno 8010 bound_to 7997
  139.4915  144.4077  151.9336 H   0  0  0  0  0  0  0  0  0  0  0  0  # atno 10167 bound_to 10162
  156.1750  130.6693  151.0230 H   0  0  0  0  0  0  0  0  0  0  0  0  # atno 10718 bound_to 10713
  154.6341  135.2890  155.0181 H   0  0  0  0  0  0  0  0  0  0  0  0  # atno 10763 bound_to 10752
  154.1331  135.6530  153.4930 H   0  0  0  0  0  0  0  0  0  0  0  0  # atno 10764 bound_to 10752
  153.0294  135.5315  154.7181 H   0  0  0  0  0  0  0  0  0  0  0  0  # atno 10765 bound_to 10752
  140.0634  134.5570  155.9126 H   0  0  0  0  0  0  0  0  0  0  0  0  # atno 11005 bound_to 11000
  144.6756  140.2019  143.7386 LP  0  0  0  0  0  0  0  0  0  0  0  0  # atno 17320 bound_to 7965
  145.8515  139.2177  143.1769 LP  0  0  0  0  0  0  0  0  0  0  0  0  # atno 17321 bound_to 7965
  140.3517  144.3080  150.5948 LP  0  0  0  0  0  0  0  0  0  0  0  0  # atno 17342 bound_to 10162
  140.5479  143.2211  151.7976 LP  0  0  0  0  0  0  0  0  0  0  0  0  # atno 17343 bound_to 10162
  157.6829  131.0833  150.7321 LP  0  0  0  0  0  0  0  0  0  0  0  0  # atno 17370 bound_to 10713
  156.7379  130.4730  149.5484 LP  0  0  0  0  0  0  0  0  0  0  0  0  # atno 17371 bound_to 10713
  141.1983  133.6600  156.5783 LP  0  0  0  0  0  0  0  0  0  0  0  0  # atno 17394 bound_to 11000
  140.3735  134.7585  157.4614 LP  0  0  0  0  0  0  0  0  0  0  0  0  # atno 17395 bound_to 11000

$$$$
