AV-unprocessed.smi:1167|AV-procd|sdf|4938|dock9
  -GOLD-   22720 3523D 1   1.00000     0.00000
 Structure written by MMmdl.
 41 42  0  0  0  0  0  0  0  0  1 V2000
  151.5982  141.9215  157.0222 C   0  0  0  0  0  0  0  0  0  0  0  0
  150.5322  142.3072  156.1615 O   0  0  0  0  0  0  0  0  0  0  0  0
  149.8782  141.3244  155.4472 C   0  0  0  0  0  0  0  0  0  0  0  0
  148.5216  141.5177  155.1212 C   0  0  0  0  0  0  0  0  0  0  0  0
  147.8448  140.5191  154.3944 C   0  0  0  0  0  0  0  0  0  0  0  0
  148.5503  139.3513  154.0141 C   0  0  0  0  0  0  0  0  0  0  0  0
  147.9989  138.2637  153.2806 N   0  0  0  0  0  0  0  0  0  0  0  0
  146.7165  137.8841  153.1417 C   0  0  0  0  0  0  0  0  0  0  0  0
  145.7431  138.4402  153.6485 O   0  0  0  0  0  0  0  0  0  0  0  0
  146.6197  136.7969  152.3632 N   0  0  0  0  0  0  0  0  0  0  0  0
  145.3746  136.1225  152.0079 C   0  0  0  0  0  0  0  0  0  0  0  0
  145.2731  134.7858  152.7737 C   0  0  0  0  0  0  0  0  0  0  0  0
  144.0735  133.9521  152.2891 C   0  0  0  0  0  0  0  0  0  0  0  0
  144.1920  133.7488  150.8406 N   0  0  0  0  0  0  0  0  0  0  0  0
  144.4914  132.5471  150.2914 C   0  0  0  0  0  0  0  0  0  0  0  0
  144.6501  131.3267  151.2011 C   0  0  0  0  0  0  0  0  0  0  0  0
  144.6425  132.3884  149.0799 O   0  0  0  0  0  0  0  0  0  0  0  0
  144.0880  135.0165  150.1073 C   0  0  0  0  0  0  0  0  0  0  0  0
  145.2883  135.9051  150.4791 C   0  0  0  0  0  0  0  0  0  0  0  0
  149.9070  139.2582  154.3886 C   0  0  0  0  0  0  0  0  0  0  0  0
  150.5615  140.2107  155.0856 N   0  0  0  0  0  0  0  0  0  0  0  0
  152.0052  142.8068  157.5106 H   0  0  0  0  0  0  0  0  0  0  0  0
  152.4090  141.4483  156.4665 H   0  0  0  0  0  0  0  0  0  0  0  0
  151.2543  141.2415  157.8032 H   0  0  0  0  0  0  0  0  0  0  0  0
  148.0067  142.4175  155.4240 H   0  0  0  0  0  0  0  0  0  0  0  0
  146.8076  140.6803  154.1507 H   0  0  0  0  0  0  0  0  0  0  0  0
  148.6766  137.6902  152.8001 H   0  0  0  0  0  0  0  0  0  0  0  0
  147.4707  136.4045  151.9874 H   0  0  0  0  0  0  0  0  0  0  0  0
  144.5311  136.7433  152.3161 H   0  0  0  0  0  0  0  0  0  0  0  0
  146.1876  134.2073  152.6328 H   0  0  0  0  0  0  0  0  0  0  0  0
  145.1873  134.9727  153.8446 H   0  0  0  0  0  0  0  0  0  0  0  0
  144.0242  133.0149  152.8450 H   0  0  0  0  0  0  0  0  0  0  0  0
  143.1408  134.4746  152.5064 H   0  0  0  0  0  0  0  0  0  0  0  0
  143.7347  131.1409  151.7636 H   0  0  0  0  0  0  0  0  0  0  0  0
  145.4744  131.4708  151.9004 H   0  0  0  0  0  0  0  0  0  0  0  0
  144.8659  130.4343  150.6125 H   0  0  0  0  0  0  0  0  0  0  0  0
  144.0389  134.8941  149.0263 H   0  0  0  0  0  0  0  0  0  0  0  0
  143.1579  135.5148  150.3844 H   0  0  0  0  0  0  0  0  0  0  0  0
  145.2103  136.8641  149.9656 H   0  0  0  0  0  0  0  0  0  0  0  0
  146.2053  135.4359  150.1192 H   0  0  0  0  0  0  0  0  0  0  0  0
  150.4902  138.3888  154.1212 H   0  0  0  0  0  0  0  0  0  0  0  0
  1  2  1  0  0  0  0
  1 22  1  0  0  0  0
  1 23  1  0  0  0  0
  1 24  1  0  0  0  0
  2  3  1  0  0  0  0
  3 21  1  0  0  0  0
  3  4  2  0  0  0  0
  4  5  1  0  0  0  0
  4 25  1  0  0  0  0
  5  6  2  0  0  0  0
  5 26  1  0  0  0  0
  6  7  1  0  0  0  0
  6 20  1  0  0  0  0
  7  8  1  0  0  0  0
  7 27  1  0  0  0  0
  8  9  2  0  0  0  0
  8 10  1  0  0  0  0
 10 11  1  0  0  0  0
 10 28  1  0  0  0  0
 11 19  1  0  0  0  0
 11 12  1  0  0  0  0
 11 29  1  0  0  0  0
 12 13  1  0  0  0  0
 12 30  1  0  0  0  0
 12 31  1  0  0  0  0
 13 14  1  0  0  0  0
 13 32  1  0  0  0  0
 13 33  1  0  0  0  0
 14 15  1  0  0  0  0
 14 18  1  0  0  0  0
 15 16  1  0  0  0  0
 15 17  2  0  0  0  0
 16 34  1  0  0  0  0
 16 35  1  0  0  0  0
 16 36  1  0  0  0  0
 18 19  1  0  0  0  0
 18 37  1  0  0  0  0
 18 38  1  0  0  0  0
 19 39  1  0  0  0  0
 19 40  1  0  0  0  0
 20 21  2  0  0  0  0
 20 41  1  0  0  0  0
M  END
> <s_m_source_file>
AV-unprocessed.smi

> <i_m_source_file_index>
1167

> <i_lp_mmshare_version>
43012

> <i_f3d_flags>
0

> <s_epik_input>
W0NIM11PYzFbY0hdW2NIXWMoW2NIXW4xKVtOSF1DKD1PKVtOSF1bQ0hdMltDSDJdW0NIMl1OKEMoPU8pW0NIM10pW0NIMl1bQ0gyXTI=

> <s_epik_cmdline>
J2VwaWtfcHl0aG9uJywgJy1waCcsICc3LjAnLCAnLXRuJywgJzgnLCAnLW1hJywgJzIwMCcsICctbWV0YWxfYmluZGluZycsICctaW1hZScsICc8aW5maWxlLm1hZT4nLCAnLW9tYWUnLCAnPG91dGZpbGUubWFlPic=

> <r_lp_tautomer_probability>
1

> <r_epik_Ionization_Penalty>
9.6092e-05

> <r_epik_Ionization_Penalty_Charging>
0

> <r_epik_Ionization_Penalty_Neutral>
9.6092e-05

> <r_epik_State_Penalty>
-0

> <r_epik_Charging_Adjusted_Penalty>
0

> <i_epik_Tot_Q>
0

> <i_epik_Tot_abs_Q>
0

> <r_epik_Metal_State_Penalty>
-0

> <b_epik_Metal_Only>
0

> <s_lp_Force_Field>
OPLS_2005

> <r_lp_Energy>
24.5609

> <b_lp_Chiralities_Consistent>
1

> <s_lp_Variant>
AV-unprocessed.smi:1167-1

> <Gold.Version>
5.8.1

> <Gold.Id.Protein>
6NUR|6NUR_protein|mol2

> <Gold.PLP.Fitness>
38.2137

> <Gold.PLP.PLP>
-31.6642

> <Gold.PLP.part.hbond>
-3.1663

> <Gold.PLP.part.metal>
0.0000

> <Gold.PLP.part.buried>
-2.4209

> <Gold.PLP.part.nonpolar>
-27.8236

> <Gold.PLP.part.repulsive>
1.7742

> <Gold.PLP.ligand.clash>
0.0000

> <Gold.PLP.ligand.torsion>
0.6051

> <Gold.PLP.Chemscore.Hbond>
2.5809

> <Gold.PLP.Chemscore.CHOScore>
0.0000

> <Gold.PLP.Chemscore.Metal>
0.0000

> <Gold.Chemscore.Hbonds>
donor molecule, donor type, donor heavy atom, donor atom, acceptor molecule, acceptor atom, score
      L1  H     7    27       P1  7948  0.94
      L1  H    10    28       P1  7948  0.86
      P1  H  7989  7998       L1    21  0.75

> <Gold.PLP.Chemscore.Internal.Correction>
0.0168

> <Gold.Rescore>
     Score         DG    S(hbond)    S(metal)    S(lipo)     H(rot)  DE(clash)    DE(int)     intcor
     14.32     -16.11       1.83        0.00      66.32       1.27       0.34       1.44       ----

> <Gold.Chemscore.Fitness>
14.3226

> <Gold.Chemscore.DG>
-16.1052

> <Gold.Chemscore.ZeroCoef>
-5.4800

> <Gold.Chemscore.Hbond>
1.8348

> <Gold.Chemscore.Metal>
0.0000

> <Gold.Chemscore.Lipo>
66.3238

> <Gold.Chemscore.Internal_Hbond>
0.0000

> <Gold.Chemscore.DEClash>
0.3419

> <Gold.Chemscore.DEInternal>
1.4407

> <Gold.Chemscore.Rot>
1.2746

> <Gold.Chemscore.Internal.Correction>
   9.000000E+99

> <Gold.Chemscore.Hbonds>
donor molecule, donor type, donor heavy atom, donor atom, acceptor molecule, acceptor atom, score
      L1  H     7    27       P1  7948  0.92
      L1  H    10    28       P1  7948  0.83
      P1  H  7989  7998       L1    21  0.03

> <Gold.Chemscore.Hbond.Weighted>
-6.1283

> <Gold.Chemscore.Metal.Weighted>
-0.0000

> <Gold.Chemscore.Lipo.Weighted>
-7.7599

> <Gold.Chemscore.Internal_Hbond.Weighted>
0.0000

> <Gold.Chemscore.DEClash.Weighted>
0.3419

> <Gold.Chemscore.DEInternal.Weighted>
1.4407

> <Gold.Chemscore.Rot.Weighted>
3.2630

> <Gold.Chemscore.Internal.Correction.Weighted>
   9.000000E+99

> <Gold.Protein.RotatedTorsions>
[ 6907 6896 6895 6894 ] final  -57.33 input  -60.11 | X-H torsion
[ 7974 7965 7964 7962 ] final -102.46 input  175.53 | X-H torsion
[ 8008 7997 7996 7995 ] final   72.48 input   59.86 | X-H torsion
[ 10167 10162 10161 10158 ] final  -49.22 input  -65.29 | X-H torsion
[ 10718 10713 10712 10709 ] final -127.98 input   66.30 | X-H torsion
[ 10763 10752 10751 10750 ] final  161.64 input  -60.55 | X-H torsion
[ 11005 11000 10999 10996 ] final   99.54 input  -57.11 | X-H torsion

> <Gold.Protein.ActiveResidues>
 VAL166  LYS551  ARG553  GLY616  TRP617  ASP618  TYR619  PRO620  LYS621  CYS622 
 ASP623  PHE694  ASN695  SER759  ASP760  ASP761  ALA762  ILE779  LEU786  VAL792 
 PHE793  MET794  SER795  GLU796  ALA797  LYS798  CYS799  TRP800  GLU811  SER814 

> <Gold.Protein.RotatedAtoms>
  150.8095  134.7240  159.6674 H   0  0  0  0  0  0  0  0  0  0  0  0  # atno 6907 bound_to 6896
  152.4215  134.5944  159.9993 H   0  0  0  0  0  0  0  0  0  0  0  0  # atno 6908 bound_to 6896
  151.6158  133.3306  159.3113 H   0  0  0  0  0  0  0  0  0  0  0  0  # atno 6909 bound_to 6896
  145.2684  140.9291  143.3000 H   0  0  0  0  0  0  0  0  0  0  0  0  # atno 7974 bound_to 7965
  155.7695  140.3484  155.5239 H   0  0  0  0  0  0  0  0  0  0  0  0  # atno 8008 bound_to 7997
  155.8835  140.1006  157.1489 H   0  0  0  0  0  0  0  0  0  0  0  0  # atno 8009 bound_to 7997
  154.4027  140.1318  156.4214 H   0  0  0  0  0  0  0  0  0  0  0  0  # atno 8010 bound_to 7997
  140.6695  143.2707  151.4184 H   0  0  0  0  0  0  0  0  0  0  0  0  # atno 10167 bound_to 10162
  156.1907  130.6793  151.0421 H   0  0  0  0  0  0  0  0  0  0  0  0  # atno 10718 bound_to 10713
  154.2661  135.2767  155.2758 H   0  0  0  0  0  0  0  0  0  0  0  0  # atno 10763 bound_to 10752
  154.5342  135.5721  153.6788 H   0  0  0  0  0  0  0  0  0  0  0  0  # atno 10764 bound_to 10752
  152.9953  135.6235  154.2813 H   0  0  0  0  0  0  0  0  0  0  0  0  # atno 10765 bound_to 10752
  139.8771  134.9100  156.4621 H   0  0  0  0  0  0  0  0  0  0  0  0  # atno 11005 bound_to 11000
  144.9357  139.4247  143.6473 LP  0  0  0  0  0  0  0  0  0  0  0  0  # atno 17320 bound_to 7965
  146.3254  139.8291  142.8912 LP  0  0  0  0  0  0  0  0  0  0  0  0  # atno 17321 bound_to 7965
  139.5957  144.1402  152.2141 LP  0  0  0  0  0  0  0  0  0  0  0  0  # atno 17342 bound_to 10162
  140.0771  144.5732  150.7149 LP  0  0  0  0  0  0  0  0  0  0  0  0  # atno 17343 bound_to 10162
  157.6927  131.0804  150.7059 LP  0  0  0  0  0  0  0  0  0  0  0  0  # atno 17370 bound_to 10713
  156.7116  130.4653  149.5546 LP  0  0  0  0  0  0  0  0  0  0  0  0  # atno 17371 bound_to 10713
  140.8856  133.7885  155.9515 LP  0  0  0  0  0  0  0  0  0  0  0  0  # atno 17394 bound_to 11000
  140.8808  134.2614  157.5145 LP  0  0  0  0  0  0  0  0  0  0  0  0  # atno 17395 bound_to 11000

$$$$
