AV-unprocessed.smi:232|AV-procd|sdf|1773|dock1
  -GOLD-   2262020313D 1   1.00000     0.00000
 Structure written by MMmdl.
 52 55  0  0  0  0  0  0  0  0  1 V2000
  153.1047  144.6207  157.6711 C   0  0  0  0  0  0  0  0  0  0  0  0
  151.8096  144.5427  158.4887 C   0  0  0  0  0  0  0  0  0  0  0  0
  151.8031  143.3826  159.5054 C   0  0  2  0  0  0  0  0  0  0  0  0
  152.8143  143.5477  160.6486 C   0  0  0  0  0  0  0  0  0  0  0  0
  153.2352  142.1176  161.0086 C   0  0  0  0  0  0  0  0  0  0  0  0
  152.4689  141.2250  160.0240 C   0  0  2  0  0  0  0  0  0  0  0  0
  153.2464  139.9646  159.6081 C   0  0  0  0  0  0  0  0  0  0  0  0
  152.1475  142.0993  158.9031 N   0  0  0  0  0  0  0  0  0  0  0  0
  151.2534  141.5909  158.0229 C   0  0  0  0  0  0  0  0  0  0  0  0
  149.9814  142.0693  157.9731 N   0  0  0  0  0  0  0  0  0  0  0  0
  149.1104  141.5576  157.0974 C   0  0  0  0  0  0  0  0  0  0  0  0
  149.2995  140.5859  156.2013 N   0  0  0  0  0  0  0  0  0  0  0  0
  150.5748  140.1044  156.2550 C   0  0  0  0  0  0  0  0  0  0  0  0
  151.6051  140.5454  157.1307 C   0  0  0  0  0  0  0  0  0  0  0  0
  152.7699  139.8239  156.9029 N   0  0  0  0  0  0  0  0  0  0  0  0
  152.4464  139.0000  155.9433 C   0  0  0  0  0  0  0  0  0  0  0  0
  151.1495  139.1028  155.4931 N   0  0  0  0  0  0  0  0  0  0  0  0
  150.5337  138.3153  154.4400 C   0  0  0  0  0  0  0  0  0  0  0  0
  149.4617  137.3471  154.9776 C   0  0  1  0  0  0  0  0  0  0  0  0
  148.3581  137.3348  154.0920 O   0  0  0  0  0  0  0  0  0  0  0  0
  149.9964  135.9107  155.1287 C   0  0  2  0  0  0  0  0  0  0  0  0
  149.0914  134.9818  155.9406 C   0  0  0  0  0  0  0  0  0  0  0  0
  150.0750  133.9408  156.4224 C   0  0  0  0  0  0  0  0  0  0  0  0
  151.3037  134.7927  156.7228 C   0  0  0  0  0  0  0  0  0  0  0  0
  151.2329  135.9102  155.8404 O   0  0  0  0  0  0  0  0  0  0  0  0
  153.0794  145.4707  156.9889 H   0  0  0  0  0  0  0  0  0  0  0  0
  153.2543  143.7221  157.0724 H   0  0  0  0  0  0  0  0  0  0  0  0
  153.9723  144.7406  158.3206 H   0  0  0  0  0  0  0  0  0  0  0  0
  151.6804  145.4908  159.0118 H   0  0  0  0  0  0  0  0  0  0  0  0
  150.9566  144.4496  157.8151 H   0  0  0  0  0  0  0  0  0  0  0  0
  150.8073  143.3039  159.9454 H   0  0  0  0  0  0  0  0  0  0  0  0
  153.6881  144.1103  160.3169 H   0  0  0  0  0  0  0  0  0  0  0  0
  152.3811  144.0790  161.4965 H   0  0  0  0  0  0  0  0  0  0  0  0
  154.3132  142.0111  160.8797 H   0  0  0  0  0  0  0  0  0  0  0  0
  152.9989  141.8645  162.0427 H   0  0  0  0  0  0  0  0  0  0  0  0
  151.5350  140.9185  160.4989 H   0  0  0  0  0  0  0  0  0  0  0  0
  153.5056  139.3632  160.4794 H   0  0  0  0  0  0  0  0  0  0  0  0
  154.1724  140.2222  159.0928 H   0  0  0  0  0  0  0  0  0  0  0  0
  152.6579  139.3350  158.9402 H   0  0  0  0  0  0  0  0  0  0  0  0
  148.1203  141.9884  157.1173 H   0  0  0  0  0  0  0  0  0  0  0  0
  153.1492  138.2891  155.5338 H   0  0  0  0  0  0  0  0  0  0  0  0
  150.1035  138.9919  153.7004 H   0  0  0  0  0  0  0  0  0  0  0  0
  151.3225  137.7610  153.9302 H   0  0  0  0  0  0  0  0  0  0  0  0
  149.1096  137.7028  155.9468 H   0  0  0  0  0  0  0  0  0  0  0  0
  148.6422  136.9791  153.2637 H   0  0  0  0  0  0  0  0  0  0  0  0
  150.1781  135.4674  154.1478 H   0  0  0  0  0  0  0  0  0  0  0  0
  148.6607  135.5097  156.7928 H   0  0  0  0  0  0  0  0  0  0  0  0
  148.2766  134.5592  155.3521 H   0  0  0  0  0  0  0  0  0  0  0  0
  149.7209  133.3809  157.2881 H   0  0  0  0  0  0  0  0  0  0  0  0
  150.2933  133.2334  155.6211 H   0  0  0  0  0  0  0  0  0  0  0  0
  151.2706  135.1615  157.7484 H   0  0  0  0  0  0  0  0  0  0  0  0
  152.2338  134.2395  156.5913 H   0  0  0  0  0  0  0  0  0  0  0  0
  1  2  1  0  0  0  0
  1 26  1  0  0  0  0
  1 27  1  0  0  0  0
  1 28  1  0  0  0  0
  2  3  1  0  0  0  0
  2 29  1  0  0  0  0
  2 30  1  0  0  0  0
  3  8  1  0  0  0  0
  3  4  1  0  0  0  0
  3 31  1  0  0  0  0
  4  5  1  0  0  0  0
  4 32  1  0  0  0  0
  4 33  1  0  0  0  0
  5  6  1  0  0  0  0
  5 34  1  0  0  0  0
  5 35  1  0  0  0  0
  6  7  1  0  0  0  0
  6  8  1  0  0  0  0
  6 36  1  0  0  0  0
  7 37  1  0  0  0  0
  7 38  1  0  0  0  0
  7 39  1  0  0  0  0
  8  9  1  0  0  0  0
  9 14  1  0  0  0  0
  9 10  2  0  0  0  0
 10 11  1  0  0  0  0
 11 12  2  0  0  0  0
 11 40  1  0  0  0  0
 12 13  1  0  0  0  0
 13 17  1  0  0  0  0
 13 14  2  0  0  0  0
 14 15  1  0  0  0  0
 15 16  2  0  0  0  0
 16 17  1  0  0  0  0
 16 41  1  0  0  0  0
 17 18  1  0  0  0  0
 18 19  1  0  0  0  0
 18 42  1  0  0  0  0
 18 43  1  0  0  0  0
 19 20  1  0  0  0  0
 19 21  1  0  0  0  0
 19 44  1  0  0  0  0
 20 45  1  0  0  0  0
 21 25  1  0  0  0  0
 21 22  1  0  0  0  0
 21 46  1  0  0  0  0
 22 23  1  0  0  0  0
 22 47  1  0  0  0  0
 22 48  1  0  0  0  0
 23 24  1  0  0  0  0
 23 49  1  0  0  0  0
 23 50  1  0  0  0  0
 24 25  1  0  0  0  0
 24 51  1  0  0  0  0
 24 52  1  0  0  0  0
M  END
> <s_m_source_file>
AV-unprocessed.smi

> <i_m_source_file_index>
232

> <i_lp_mmshare_version>
43012

> <i_f3d_flags>
0

> <s_epik_input>
W0NIM11bQ0gyXVtDQEBIXTFbQ0gyXVtDSDJdW0NAQEhdKFtDSDNdKU4xYyhuW2NIXW4yKWMoYzIzKW5bY0hdbjNbQ0gyXVtDQEhdKFtPSF0pW0NAQEhdNFtDSDJdW0NIMl1bQ0gyXU80

> <s_epik_cmdline>
J2VwaWtfcHl0aG9uJywgJy1waCcsICc3LjAnLCAnLXRuJywgJzgnLCAnLW1hJywgJzIwMCcsICctbWV0YWxfYmluZGluZycsICctaW1hZScsICc8aW5maWxlLm1hZT4nLCAnLW9tYWUnLCAnPG91dGZpbGUubWFlPic=

> <r_lp_tautomer_probability>
1

> <r_epik_Ionization_Penalty>
0.00258048

> <r_epik_Ionization_Penalty_Charging>
0

> <r_epik_Ionization_Penalty_Neutral>
0.00258048

> <r_epik_State_Penalty>
0.00168551

> <r_epik_Charging_Adjusted_Penalty>
0.00168551

> <i_epik_Tot_Q>
0

> <i_epik_Tot_abs_Q>
0

> <r_epik_Metal_State_Penalty>
-0

> <b_epik_Metal_Only>
0

> <s_lp_Force_Field>
OPLS_2005

> <r_lp_Energy>
51.2688

> <b_lp_Chiralities_Consistent>
1

> <s_lp_Variant>
AV-unprocessed.smi:232-7

> <Gold.Version>
5.8.1

> <Gold.Id.Protein>
6NUR|6NUR_protein|mol2

> <Gold.PLP.Fitness>
51.8866

> <Gold.PLP.PLP>
-45.5318

> <Gold.PLP.part.hbond>
-2.7806

> <Gold.PLP.part.metal>
0.0000

> <Gold.PLP.part.buried>
-3.1951

> <Gold.PLP.part.nonpolar>
-38.6963

> <Gold.PLP.part.repulsive>
0.2081

> <Gold.PLP.ligand.clash>
0.0000

> <Gold.PLP.ligand.torsion>
1.1502

> <Gold.PLP.Chemscore.Hbond>
2.8500

> <Gold.PLP.Chemscore.CHOScore>
0.0000

> <Gold.PLP.Chemscore.Metal>
0.0000

> <Gold.Chemscore.Hbonds>
donor molecule, donor type, donor heavy atom, donor atom, acceptor molecule, acceptor atom, score
      L1  H    20    45       P1  7948  1.00
      P1  H  7997  8008       L1    15  1.00
      P1  H 10752 10765       L1    25  0.68

> <Gold.PLP.Chemscore.Internal.Correction>
0.1052

> <Gold.Rescore>
     Score         DG    S(hbond)    S(metal)    S(lipo)     H(rot)  DE(clash)    DE(int)     intcor
     13.88     -18.51       1.80        0.00     113.15       2.43       1.39       3.24       ----

> <Gold.Chemscore.Fitness>
13.8779

> <Gold.Chemscore.DG>
-18.5130

> <Gold.Chemscore.ZeroCoef>
-5.4800

> <Gold.Chemscore.Hbond>
1.7979

> <Gold.Chemscore.Metal>
0.0000

> <Gold.Chemscore.Lipo>
113.1517

> <Gold.Chemscore.Internal_Hbond>
0.0000

> <Gold.Chemscore.DEClash>
1.3949

> <Gold.Chemscore.DEInternal>
3.2402

> <Gold.Chemscore.Rot>
2.4260

> <Gold.Chemscore.Internal.Correction>
   9.000000E+99

> <Gold.Chemscore.Hbonds>
donor molecule, donor type, donor heavy atom, donor atom, acceptor molecule, acceptor atom, score
      L1  H    20    45       P1  7948  0.99
      P1  H  7997  8008       L1    15  0.35
      P1  H 10752 10765       L1    25  0.19

> <Gold.Chemscore.Hbond.Weighted>
-6.0049

> <Gold.Chemscore.Metal.Weighted>
-0.0000

> <Gold.Chemscore.Lipo.Weighted>
-13.2388

> <Gold.Chemscore.Internal_Hbond.Weighted>
0.0000

> <Gold.Chemscore.DEClash.Weighted>
1.3949

> <Gold.Chemscore.DEInternal.Weighted>
3.2402

> <Gold.Chemscore.Rot.Weighted>
6.2107

> <Gold.Chemscore.Internal.Correction.Weighted>
   9.000000E+99

> <Gold.Protein.RotatedTorsions>
[ 6907 6896 6895 6894 ] final -174.94 input  -60.11 | X-H torsion
[ 7974 7965 7964 7962 ] final  145.49 input  175.53 | X-H torsion
[ 8008 7997 7996 7995 ] final  -58.50 input   59.86 | X-H torsion
[ 10167 10162 10161 10158 ] final   45.59 input  -65.29 | X-H torsion
[ 10718 10713 10712 10709 ] final  -94.23 input   66.30 | X-H torsion
[ 10763 10752 10751 10750 ] final  175.77 input  -60.55 | X-H torsion
[ 11005 11000 10999 10996 ] final  117.14 input  -57.11 | X-H torsion

> <Gold.Protein.ActiveResidues>
 VAL166  LYS551  ARG553  GLY616  TRP617  ASP618  TYR619  PRO620  LYS621  CYS622 
 ASP623  PHE694  ASN695  SER759  ASP760  ASP761  ALA762  ILE779  LEU786  VAL792 
 PHE793  MET794  SER795  GLU796  ALA797  LYS798  CYS799  TRP800  GLU811  SER814 

> <Gold.Protein.RotatedAtoms>
  151.5804  133.3378  159.3007 H   0  0  0  0  0  0  0  0  0  0  0  0  # atno 6907 bound_to 6896
  150.8316  134.7575  159.6870 H   0  0  0  0  0  0  0  0  0  0  0  0  # atno 6908 bound_to 6896
  152.4399  134.5618  159.9948 H   0  0  0  0  0  0  0  0  0  0  0  0  # atno 6909 bound_to 6896
  144.8748  139.5789  143.5870 H   0  0  0  0  0  0  0  0  0  0  0  0  # atno 7974 bound_to 7965
  154.4311  140.1083  156.5967 H   0  0  0  0  0  0  0  0  0  0  0  0  # atno 8008 bound_to 7997
  155.5955  140.3492  155.4560 H   0  0  0  0  0  0  0  0  0  0  0  0  # atno 8009 bound_to 7997
  156.0214  140.1240  157.0343 H   0  0  0  0  0  0  0  0  0  0  0  0  # atno 8010 bound_to 7997
  140.3226  144.2686  150.6180 H   0  0  0  0  0  0  0  0  0  0  0  0  # atno 10167 bound_to 10162
  156.0024  130.5059  150.5895 H   0  0  0  0  0  0  0  0  0  0  0  0  # atno 10718 bound_to 10713
  154.4721  135.2771  155.1635 H   0  0  0  0  0  0  0  0  0  0  0  0  # atno 10763 bound_to 10752
  154.3379  135.6176  153.5586 H   0  0  0  0  0  0  0  0  0  0  0  0  # atno 10764 bound_to 10752
  152.9865  135.5781  154.5104 H   0  0  0  0  0  0  0  0  0  0  0  0  # atno 10765 bound_to 10752
  139.9064  134.9606  156.7305 H   0  0  0  0  0  0  0  0  0  0  0  0  # atno 11005 bound_to 11000
  146.2955  139.7265  142.9130 LP  0  0  0  0  0  0  0  0  0  0  0  0  # atno 17320 bound_to 7965
  145.4063  141.0391  143.3042 LP  0  0  0  0  0  0  0  0  0  0  0  0  # atno 17321 bound_to 7965
  140.5469  143.2213  151.7991 LP  0  0  0  0  0  0  0  0  0  0  0  0  # atno 17342 bound_to 10162
  139.4871  144.4527  151.9635 LP  0  0  0  0  0  0  0  0  0  0  0  0  # atno 17343 bound_to 10162
  157.3762  131.0773  151.1516 LP  0  0  0  0  0  0  0  0  0  0  0  0  # atno 17370 bound_to 10713
  157.2253  130.6500  149.5827 LP  0  0  0  0  0  0  0  0  0  0  0  0  # atno 17371 bound_to 10713
  140.6929  133.9374  155.7977 LP  0  0  0  0  0  0  0  0  0  0  0  0  # atno 17394 bound_to 11000
  141.0428  134.0596  157.3881 LP  0  0  0  0  0  0  0  0  0  0  0  0  # atno 17395 bound_to 11000

$$$$
