AV-unprocessed.smi:3278|AV-procd|sdf|12543|dock10
  -GOLD-   2272018463D 1   1.00000     0.00000
 Structure written by MMmdl.
 39 40  0  0  0  0  0  0  0  0  2 V2000
  152.5644  138.3635  155.3067 C   0  0  0  0  0  0  0  0  0  0  0  0
  151.3294  139.1179  155.3173 N   0  0  0  0  0  0  0  0  0  0  0  0
  150.7335  139.7785  156.3687 C   0  0  0  0  0  0  0  0  0  0  0  0
  149.5816  140.3503  155.9014 C   0  0  0  0  0  0  0  0  0  0  0  0
  148.5748  141.1922  156.6566 C   0  0  2  0  0  0  0  0  0  0  0  0
  147.4785  140.2909  157.2504 C   0  0  0  0  0  0  0  0  0  0  0  0
  147.9083  142.1081  155.8074 O   0  0  0  0  0  0  0  0  0  0  0  0
  149.2635  142.0136  157.7681 C   0  0  0  0  0  0  0  0  0  0  0  0
  150.3427  142.8705  157.2254 N   0  3  0  0  0  0  0  0  0  0  0  0
  151.3716  143.2966  158.1991 C   0  0  1  0  0  0  0  0  0  0  0  0
  150.9055  144.5381  158.9920 C   0  0  0  0  0  0  0  0  0  0  0  0
  151.9649  145.0455  159.9846 C   0  0  0  0  0  0  0  0  0  0  0  0
  152.3336  143.9962  161.0419 C   0  0  0  0  0  0  0  0  0  0  0  0
  153.0516  142.5213  160.2719 S   0  0  0  0  0  0  0  0  0  0  0  0
  151.6910  142.1223  159.1417 C   0  0  0  0  0  0  0  0  0  0  0  0
  149.5639  139.9634  154.5287 C   0  0  0  0  0  0  0  0  0  0  0  0
  150.6111  139.2334  154.1828 N   0  0  0  0  0  0  0  0  0  0  0  0
  153.0183  138.3752  156.2981 H   0  0  0  0  0  0  0  0  0  0  0  0
  153.2607  138.8045  154.5927 H   0  0  0  0  0  0  0  0  0  0  0  0
  152.3636  137.3304  155.0212 H   0  0  0  0  0  0  0  0  0  0  0  0
  151.1749  139.7905  157.3545 H   0  0  0  0  0  0  0  0  0  0  0  0
  147.8959  139.5646  157.9489 H   0  0  0  0  0  0  0  0  0  0  0  0
  146.9590  139.7329  156.4701 H   0  0  0  0  0  0  0  0  0  0  0  0
  146.7316  140.8725  157.7923 H   0  0  0  0  0  0  0  0  0  0  0  0
  148.1740  142.9857  156.0381 H   0  0  0  0  0  0  0  0  0  0  0  0
  148.5350  142.6363  158.2898 H   0  0  0  0  0  0  0  0  0  0  0  0
  149.6824  141.3348  158.5107 H   0  0  0  0  0  0  0  0  0  0  0  0
  150.7936  142.3902  156.4597 H   0  0  0  0  0  0  0  0  0  0  0  0
  152.2797  143.5405  157.6455 H   0  0  0  0  0  0  0  0  0  0  0  0
  150.6641  145.3535  158.3109 H   0  0  0  0  0  0  0  0  0  0  0  0
  149.9835  144.3098  159.5285 H   0  0  0  0  0  0  0  0  0  0  0  0
  152.8609  145.3525  159.4437 H   0  0  0  0  0  0  0  0  0  0  0  0
  151.5898  145.9395  160.4836 H   0  0  0  0  0  0  0  0  0  0  0  0
  153.0546  144.4081  161.7482 H   0  0  0  0  0  0  0  0  0  0  0  0
  151.4529  143.7066  161.6159 H   0  0  0  0  0  0  0  0  0  0  0  0
  150.8134  141.8500  159.7294 H   0  0  0  0  0  0  0  0  0  0  0  0
  151.9765  141.2400  158.5676 H   0  0  0  0  0  0  0  0  0  0  0  0
  148.8264  140.1961  153.7744 H   0  0  0  0  0  0  0  0  0  0  0  0
  149.9000  143.7014  156.8592 H   0  0  0  0  0  0  0  0  0  0  0  0
  1  2  1  0  0  0  0
  1 18  1  0  0  0  0
  1 19  1  0  0  0  0
  1 20  1  0  0  0  0
  2 17  1  0  0  0  0
  2  3  1  0  0  0  0
  3  4  2  0  0  0  0
  3 21  1  0  0  0  0
  4  5  1  0  0  0  0
  4 16  1  0  0  0  0
  5  6  1  0  0  0  0
  5  7  1  0  0  0  0
  5  8  1  0  0  0  0
  6 22  1  0  0  0  0
  6 23  1  0  0  0  0
  6 24  1  0  0  0  0
  7 25  1  0  0  0  0
  8  9  1  0  0  0  0
  8 26  1  0  0  0  0
  8 27  1  0  0  0  0
  9 10  1  0  0  0  0
  9 28  1  0  0  0  0
  9 39  1  0  0  0  0
 10 15  1  0  0  0  0
 10 11  1  0  0  0  0
 10 29  1  0  0  0  0
 11 12  1  0  0  0  0
 11 30  1  0  0  0  0
 11 31  1  0  0  0  0
 12 13  1  0  0  0  0
 12 32  1  0  0  0  0
 12 33  1  0  0  0  0
 13 14  1  0  0  0  0
 13 34  1  0  0  0  0
 13 35  1  0  0  0  0
 14 15  1  0  0  0  0
 15 36  1  0  0  0  0
 15 37  1  0  0  0  0
 16 17  2  0  0  0  0
 16 38  1  0  0  0  0
M  CHG  1   9   1
M  END
> <s_m_source_file>
AV-unprocessed.smi

> <i_m_source_file_index>
3278

> <i_lp_mmshare_version>
43012

> <i_f3d_flags>
0

> <s_epik_input>
W0NIM11uMVtjSF1jKFtjSF1uMSlbQ0BAXShbQ0gzXSkoW09IXSlbQ0gyXVtOSF1bQ0BASF0yW0NIMl1bQ0gyXVtDSDJdU1tDSDJdMg==

> <s_epik_cmdline>
J2VwaWtfcHl0aG9uJywgJy1waCcsICc3LjAnLCAnLXRuJywgJzgnLCAnLW1hJywgJzIwMCcsICctbWV0YWxfYmluZGluZycsICctaW1hZScsICc8aW5maWxlLm1hZT4nLCAnLW9tYWUnLCAnPG91dGZpbGUubWFlPic=

> <r_lp_tautomer_probability>
1

> <r_epik_Ionization_Penalty>
0.0185703

> <r_epik_Ionization_Penalty_Charging>
0.0185619

> <r_epik_Ionization_Penalty_Neutral>
8.47286e-06

> <r_epik_State_Penalty>
0.0147768

> <r_epik_Charging_Adjusted_Penalty>
0.0333386

> <i_epik_Tot_Q>
1

> <i_epik_Tot_abs_Q>
1

> <r_epik_Metal_State_Penalty>
0.0147782

> <b_epik_Metal_Only>
0

> <s_lp_Force_Field>
OPLS_2005

> <r_lp_Energy>
8.58851

> <b_lp_Chiralities_Consistent>
1

> <s_lp_Variant>
AV-unprocessed.smi:3278-4

> <Gold.Version>
5.8.1

> <Gold.Id.Protein>
6NUR|6NUR_protein|mol2

> <Gold.PLP.Fitness>
47.9099

> <Gold.PLP.PLP>
-37.7520

> <Gold.PLP.part.hbond>
-3.0000

> <Gold.PLP.part.metal>
0.0000

> <Gold.PLP.part.buried>
-2.7856

> <Gold.PLP.part.nonpolar>
-31.7508

> <Gold.PLP.part.repulsive>
0.1875

> <Gold.PLP.ligand.clash>
0.0000

> <Gold.PLP.ligand.torsion>
1.4604

> <Gold.PLP.Chemscore.Hbond>
3.5500

> <Gold.PLP.Chemscore.CHOScore>
0.8016

> <Gold.PLP.Chemscore.Metal>
0.0000

> <Gold.Chemscore.Hbonds>
donor molecule, donor type, donor heavy atom, donor atom, acceptor molecule, acceptor atom, score
      L1  H     7    25       P1  8028  1.00
      L1  H     9    39       P1  8028  2.00
      P1  H  7989  7998       L1    17  0.48
      L1  C    16    38       P1  7957  0.37

> <Gold.PLP.Chemscore.Internal.Correction>
0.0238

> <Gold.Rescore>
     Score         DG    S(hbond)    S(metal)    S(lipo)     H(rot)  DE(clash)    DE(int)     intcor
     18.17     -18.54       1.99        0.00      98.57       2.00       0.04       0.32       ----

> <Gold.Chemscore.Fitness>
18.1738

> <Gold.Chemscore.DG>
-18.5397

> <Gold.Chemscore.ZeroCoef>
-5.4800

> <Gold.Chemscore.Hbond>
1.9929

> <Gold.Chemscore.Metal>
0.0000

> <Gold.Chemscore.Lipo>
98.5728

> <Gold.Chemscore.Internal_Hbond>
0.0000

> <Gold.Chemscore.DEClash>
0.0420

> <Gold.Chemscore.DEInternal>
0.3240

> <Gold.Chemscore.Rot>
2.0038

> <Gold.Chemscore.Internal.Correction>
   9.000000E+99

> <Gold.Chemscore.Hbonds>
donor molecule, donor type, donor heavy atom, donor atom, acceptor molecule, acceptor atom, score
      L1  H     7    25       P1  8028  0.76
      L1  H     9    39       P1  8028  0.98

> <Gold.Chemscore.Hbond.Weighted>
-6.6564

> <Gold.Chemscore.Metal.Weighted>
-0.0000

> <Gold.Chemscore.Lipo.Weighted>
-11.5330

> <Gold.Chemscore.Internal_Hbond.Weighted>
0.0000

> <Gold.Chemscore.DEClash.Weighted>
0.0420

> <Gold.Chemscore.DEInternal.Weighted>
0.3240

> <Gold.Chemscore.Rot.Weighted>
5.1296

> <Gold.Chemscore.Internal.Correction.Weighted>
   9.000000E+99

> <Gold.Protein.RotatedTorsions>
[ 6907 6896 6895 6894 ] final -110.44 input  -60.11 | X-H torsion
[ 7974 7965 7964 7962 ] final    6.94 input  175.53 | X-H torsion
[ 8008 7997 7996 7995 ] final   87.11 input   59.86 | X-H torsion
[ 10167 10162 10161 10158 ] final  -61.99 input  -65.29 | X-H torsion
[ 10718 10713 10712 10709 ] final    4.30 input   66.30 | X-H torsion
[ 10763 10752 10751 10750 ] final  -79.72 input  -60.55 | X-H torsion
[ 11005 11000 10999 10996 ] final   43.91 input  -57.11 | X-H torsion

> <Gold.Protein.ActiveResidues>
 VAL166  LYS551  ARG553  GLY616  TRP617  ASP618  TYR619  PRO620  LYS621  CYS622 
 ASP623  PHE694  ASN695  SER759  ASP760  ASP761  ALA762  ILE779  LEU786  VAL792 
 PHE793  MET794  SER795  GLU796  ALA797  LYS798  CYS799  TRP800  GLU811  SER814 

> <Gold.Protein.RotatedAtoms>
  150.7625  133.9381  159.3447 H   0  0  0  0  0  0  0  0  0  0  0  0  # atno 6907 bound_to 6896
  151.7287  135.0877  160.0306 H   0  0  0  0  0  0  0  0  0  0  0  0  # atno 6908 bound_to 6896
  152.3604  133.6252  159.6046 H   0  0  0  0  0  0  0  0  0  0  0  0  # atno 6909 bound_to 6896
  146.2431  140.0158  142.8402 H   0  0  0  0  0  0  0  0  0  0  0  0  # atno 7974 bound_to 7965
  155.9712  140.3385  155.6578 H   0  0  0  0  0  0  0  0  0  0  0  0  # atno 8008 bound_to 7997
  155.6671  140.0722  157.2551 H   0  0  0  0  0  0  0  0  0  0  0  0  # atno 8009 bound_to 7997
  154.4167  140.1698  156.1827 H   0  0  0  0  0  0  0  0  0  0  0  0  # atno 8010 bound_to 7997
  140.5969  143.2353  151.6016 H   0  0  0  0  0  0  0  0  0  0  0  0  # atno 10167 bound_to 10162
  156.8906  130.5686  149.5650 H   0  0  0  0  0  0  0  0  0  0  0  0  # atno 10718 bound_to 10713
  154.5421  135.5686  153.6849 H   0  0  0  0  0  0  0  0  0  0  0  0  # atno 10763 bound_to 10752
  152.9966  135.6230  154.2487 H   0  0  0  0  0  0  0  0  0  0  0  0  # atno 10764 bound_to 10752
  154.2419  135.2862  155.2830 H   0  0  0  0  0  0  0  0  0  0  0  0  # atno 10765 bound_to 10752
  140.1601  134.4352  155.8323 H   0  0  0  0  0  0  0  0  0  0  0  0  # atno 11005 bound_to 11000
  145.1286  140.9504  143.4558 LP  0  0  0  0  0  0  0  0  0  0  0  0  # atno 17320 bound_to 7965
  145.0410  139.3260  143.5977 LP  0  0  0  0  0  0  0  0  0  0  0  0  # atno 17321 bound_to 7965
  139.5264  144.3046  152.1045 LP  0  0  0  0  0  0  0  0  0  0  0  0  # atno 17342 bound_to 10162
  140.2220  144.4457  150.6338 LP  0  0  0  0  0  0  0  0  0  0  0  0  # atno 17343 bound_to 10162
  156.0631  130.5680  150.9234 LP  0  0  0  0  0  0  0  0  0  0  0  0  # atno 17370 bound_to 10713
  157.6086  131.0937  150.8835 LP  0  0  0  0  0  0  0  0  0  0  0  0  # atno 17371 bound_to 10713
  141.2208  133.6909  156.7579 LP  0  0  0  0  0  0  0  0  0  0  0  0  # atno 17394 bound_to 11000
  140.2500  134.8548  157.3658 LP  0  0  0  0  0  0  0  0  0  0  0  0  # atno 17395 bound_to 11000

$$$$
