AV-unprocessed.smi:250|AV-procd|sdf|1931|dock3
  -GOLD-   2262021 53D 1   1.00000     0.00000
 Structure written by MMmdl.
 56 60  0  0  0  0  0  0  0  0  1 V2000
  151.9476  140.9785  158.8792 C   0  0  0  0  0  0  0  0  0  0  0  0
  151.0131  141.4067  157.8467 N   0  0  0  0  0  0  0  0  0  0  0  0
  150.8267  142.6618  157.3869 C   0  0  0  0  0  0  0  0  0  0  0  0
  151.3994  143.6753  157.7821 O   0  0  0  0  0  0  0  0  0  0  0  0
  149.9013  142.6225  156.4128 N   0  0  0  0  0  0  0  0  0  0  0  0
  149.2603  141.3286  156.3953 C   0  0  1  0  0  0  0  0  0  0  0  0
  148.7542  140.7072  155.0964 C   0  0  0  0  0  0  0  0  0  0  0  0
  148.2408  139.3680  155.4276 N   0  0  0  0  0  0  0  0  0  0  0  0
  147.4446  138.8103  154.4817 C   0  0  0  0  0  0  0  0  0  0  0  0
  147.3025  139.4198  153.2743 N   0  0  0  0  0  0  0  0  0  0  0  0
  146.5109  138.8872  152.3390 C   0  0  0  0  0  0  0  0  0  0  0  0
  145.7822  137.7713  152.3996 N   0  0  0  0  0  0  0  0  0  0  0  0
  145.9251  137.1505  153.6053 C   0  0  0  0  0  0  0  0  0  0  0  0
  146.7352  137.5936  154.6891 C   0  0  0  0  0  0  0  0  0  0  0  0
  146.6563  136.6867  155.7392 N   0  0  0  0  0  0  0  0  0  0  0  0
  145.8389  135.7673  155.3054 C   0  0  0  0  0  0  0  0  0  0  0  0
  145.3330  135.9772  154.0422 N   0  0  0  0  0  0  0  0  0  0  0  0
  144.4089  135.1131  153.3223 C   0  0  0  0  0  0  0  0  0  0  0  0
  144.9899  134.4002  152.0631 C   0  0  0  0  0  0  0  0  0  0  0  0
  145.3156  135.4307  150.9399 C   0  0  0  0  0  0  0  0  0  0  0  0
  144.1791  136.0959  150.4265 O   0  0  0  0  0  0  0  0  0  0  0  0
  146.2252  133.5381  152.4302 C   0  0  0  0  0  0  0  0  0  0  0  0
  146.6318  132.5757  151.3015 C   0  0  0  0  0  0  0  0  0  0  0  0
  145.5413  131.7210  150.9840 O   0  0  0  0  0  0  0  0  0  0  0  0
  144.4103  132.4286  150.4935 C   0  0  0  0  0  0  0  0  0  0  0  0
  143.8995  133.4212  151.5567 C   0  0  0  0  0  0  0  0  0  0  0  0
  149.1131  138.4667  156.2092 C   0  0  0  0  0  0  0  0  0  0  0  0
  149.7472  139.1594  157.4467 C   0  0  0  0  0  0  0  0  0  0  0  0
  150.3686  140.4661  156.9505 C   0  0  2  0  0  0  0  0  0  0  0  0
  148.4261  141.3910  157.0991 H   0  0  0  0  0  0  0  0  0  0  0  0
  151.1009  140.2315  156.1733 H   0  0  0  0  0  0  0  0  0  0  0  0
  152.2588  141.8104  159.5124 H   0  0  0  0  0  0  0  0  0  0  0  0
  152.8376  140.5430  158.4245 H   0  0  0  0  0  0  0  0  0  0  0  0
  151.4873  140.2271  159.5209 H   0  0  0  0  0  0  0  0  0  0  0  0
  149.5535  143.4264  155.9106 H   0  0  0  0  0  0  0  0  0  0  0  0
  147.9858  141.3428  154.6590 H   0  0  0  0  0  0  0  0  0  0  0  0
  149.5576  140.6210  154.3635 H   0  0  0  0  0  0  0  0  0  0  0  0
  146.4509  139.4347  151.4099 H   0  0  0  0  0  0  0  0  0  0  0  0
  145.5691  134.9097  155.9045 H   0  0  0  0  0  0  0  0  0  0  0  0
  144.0379  134.3738  154.0335 H   0  0  0  0  0  0  0  0  0  0  0  0
  143.5407  135.7112  153.0423 H   0  0  0  0  0  0  0  0  0  0  0  0
  145.9879  136.2093  151.2951 H   0  0  0  0  0  0  0  0  0  0  0  0
  145.8329  134.9403  150.1149 H   0  0  0  0  0  0  0  0  0  0  0  0
  144.3889  137.0114  150.3209 H   0  0  0  0  0  0  0  0  0  0  0  0
  147.0760  134.1615  152.7050 H   0  0  0  0  0  0  0  0  0  0  0  0
  145.9966  132.9407  153.3136 H   0  0  0  0  0  0  0  0  0  0  0  0
  146.9627  133.1167  150.4143 H   0  0  0  0  0  0  0  0  0  0  0  0
  147.4718  131.9609  151.6247 H   0  0  0  0  0  0  0  0  0  0  0  0
  144.6567  132.9265  149.5559 H   0  0  0  0  0  0  0  0  0  0  0  0
  143.6277  131.7069  150.2589 H   0  0  0  0  0  0  0  0  0  0  0  0
  143.5182  132.8359  152.3949 H   0  0  0  0  0  0  0  0  0  0  0  0
  143.0447  133.9739  151.1650 H   0  0  0  0  0  0  0  0  0  0  0  0
  148.5439  137.5955  156.5361 H   0  0  0  0  0  0  0  0  0  0  0  0
  149.9069  138.0995  155.5571 H   0  0  0  0  0  0  0  0  0  0  0  0
  148.9913  139.3537  158.2088 H   0  0  0  0  0  0  0  0  0  0  0  0
  150.5006  138.5132  157.8973 H   0  0  0  0  0  0  0  0  0  0  0  0
  1  2  1  0  0  0  0
  1 32  1  0  0  0  0
  1 33  1  0  0  0  0
  1 34  1  0  0  0  0
  2 29  1  0  0  0  0
  2  3  1  0  0  0  0
  3  4  2  0  0  0  0
  3  5  1  0  0  0  0
  5  6  1  0  0  0  0
  5 35  1  0  0  0  0
  6 30  1  0  0  0  0
  6 29  1  0  0  0  0
  6  7  1  0  0  0  0
  7  8  1  0  0  0  0
  7 36  1  0  0  0  0
  7 37  1  0  0  0  0
  8  9  1  0  0  0  0
  8 27  1  0  0  0  0
  9 14  1  0  0  0  0
  9 10  2  0  0  0  0
 10 11  1  0  0  0  0
 11 12  2  0  0  0  0
 11 38  1  0  0  0  0
 12 13  1  0  0  0  0
 13 17  1  0  0  0  0
 13 14  2  0  0  0  0
 14 15  1  0  0  0  0
 15 16  2  0  0  0  0
 16 17  1  0  0  0  0
 16 39  1  0  0  0  0
 17 18  1  0  0  0  0
 18 19  1  0  0  0  0
 18 40  1  0  0  0  0
 18 41  1  0  0  0  0
 19 26  1  0  0  0  0
 19 20  1  0  0  0  0
 19 22  1  0  0  0  0
 20 21  1  0  0  0  0
 20 42  1  0  0  0  0
 20 43  1  0  0  0  0
 21 44  1  0  0  0  0
 22 23  1  0  0  0  0
 22 45  1  0  0  0  0
 22 46  1  0  0  0  0
 23 24  1  0  0  0  0
 23 47  1  0  0  0  0
 23 48  1  0  0  0  0
 24 25  1  0  0  0  0
 25 26  1  0  0  0  0
 25 49  1  0  0  0  0
 25 50  1  0  0  0  0
 26 51  1  0  0  0  0
 26 52  1  0  0  0  0
 27 28  1  0  0  0  0
 27 53  1  0  0  0  0
 27 54  1  0  0  0  0
 28 29  1  0  0  0  0
 28 55  1  0  0  0  0
 28 56  1  0  0  0  0
 29 31  1  0  0  0  0
M  END
> <s_m_source_file>
AV-unprocessed.smi

> <i_m_source_file_index>
250

> <i_lp_mmshare_version>
43012

> <i_f3d_flags>
0

> <s_epik_input>
Tz1DKFtOSF0xKU4oW0NIM10pW0NASF0oW0NASF0xMilbQ0gyXVtDSDJdTihbQ0gyXTIpYyhuW2NIXW4zKWMoYzM0KW5bY0hdbjRbQ0gyXUM1KFtDSDJdW09IXSlbQ0gyXVtDSDJdT1tDSDJdW0NIMl01

> <s_epik_cmdline>
J2VwaWtfcHl0aG9uJywgJy1waCcsICc3LjAnLCAnLXRuJywgJzgnLCAnLW1hJywgJzIwMCcsICctbWV0YWxfYmluZGluZycsICctaW1hZScsICc8aW5maWxlLm1hZT4nLCAnLW9tYWUnLCAnPG91dGZpbGUubWFlPic=

> <r_lp_tautomer_probability>
1

> <r_epik_Ionization_Penalty>
0.00229024

> <r_epik_Ionization_Penalty_Charging>
0

> <r_epik_Ionization_Penalty_Neutral>
0.00229024

> <r_epik_State_Penalty>
0.0013961

> <r_epik_Charging_Adjusted_Penalty>
0.0013961

> <i_epik_Tot_Q>
0

> <i_epik_Tot_abs_Q>
0

> <r_epik_Metal_State_Penalty>
-0

> <b_epik_Metal_Only>
0

> <s_lp_Force_Field>
OPLS_2005

> <r_lp_Energy>
73.7244

> <b_lp_Chiralities_Consistent>
1

> <s_lp_Variant>
AV-unprocessed.smi:250-2

> <Gold.Version>
5.8.1

> <Gold.Id.Protein>
6NUR|6NUR_protein|mol2

> <Gold.PLP.Fitness>
40.8220

> <Gold.PLP.PLP>
-36.2121

> <Gold.PLP.part.hbond>
-1.9460

> <Gold.PLP.part.metal>
0.0000

> <Gold.PLP.part.buried>
-9.5808

> <Gold.PLP.part.nonpolar>
-27.5670

> <Gold.PLP.part.repulsive>
2.1520

> <Gold.PLP.ligand.clash>
0.0000

> <Gold.PLP.ligand.torsion>
0.4525

> <Gold.PLP.Chemscore.Hbond>
1.5840

> <Gold.PLP.Chemscore.CHOScore>
0.1579

> <Gold.PLP.Chemscore.Metal>
0.0000

> <Gold.Chemscore.Hbonds>
donor molecule, donor type, donor heavy atom, donor atom, acceptor molecule, acceptor atom, score
      L1  H     5    35       P1  8028  0.86
      L1  H    21    44       P1 10171  0.94

> <Gold.PLP.Chemscore.Internal.Correction>
0.2891

> <Gold.Rescore>
     Score         DG    S(hbond)    S(metal)    S(lipo)     H(rot)  DE(clash)    DE(int)     intcor
     12.07     -14.04       1.99        0.00      64.74       2.22       0.10       1.87       ----

> <Gold.Chemscore.Fitness>
12.0709

> <Gold.Chemscore.DG>
-14.0405

> <Gold.Chemscore.ZeroCoef>
-5.4800

> <Gold.Chemscore.Hbond>
1.9946

> <Gold.Chemscore.Metal>
0.0000

> <Gold.Chemscore.Lipo>
64.7365

> <Gold.Chemscore.Internal_Hbond>
0.0000

> <Gold.Chemscore.DEClash>
0.1002

> <Gold.Chemscore.DEInternal>
1.8693

> <Gold.Chemscore.Rot>
2.2170

> <Gold.Chemscore.Internal.Correction>
   9.000000E+99

> <Gold.Chemscore.Hbonds>
donor molecule, donor type, donor heavy atom, donor atom, acceptor molecule, acceptor atom, score
      L1  H     5    35       P1  8028  0.84
      L1  H    21    44       P1 10171  0.91

> <Gold.Chemscore.Hbond.Weighted>
-6.6619

> <Gold.Chemscore.Metal.Weighted>
-0.0000

> <Gold.Chemscore.Lipo.Weighted>
-7.5742

> <Gold.Chemscore.Internal_Hbond.Weighted>
0.0000

> <Gold.Chemscore.DEClash.Weighted>
0.1002

> <Gold.Chemscore.DEInternal.Weighted>
1.8693

> <Gold.Chemscore.Rot.Weighted>
5.6756

> <Gold.Chemscore.Internal.Correction.Weighted>
   9.000000E+99

> <Gold.Protein.RotatedTorsions>
[ 6907 6896 6895 6894 ] final   -4.32 input  -60.11 | X-H torsion
[ 7974 7965 7964 7962 ] final -172.02 input  175.53 | X-H torsion
[ 8008 7997 7996 7995 ] final  121.24 input   59.86 | X-H torsion
[ 10167 10162 10161 10158 ] final  -77.08 input  -65.29 | X-H torsion
[ 10718 10713 10712 10709 ] final -139.82 input   66.30 | X-H torsion
[ 10763 10752 10751 10750 ] final  156.12 input  -60.55 | X-H torsion
[ 11005 11000 10999 10996 ] final  -33.98 input  -57.11 | X-H torsion

> <Gold.Protein.ActiveResidues>
 VAL166  LYS551  ARG553  GLY616  TRP617  ASP618  TYR619  PRO620  LYS621  CYS622 
 ASP623  PHE694  ASN695  SER759  ASP760  ASP761  ALA762  ILE779  LEU786  VAL792 
 PHE793  MET794  SER795  GLU796  ALA797  LYS798  CYS799  TRP800  GLU811  SER814 

> <Gold.Protein.RotatedAtoms>
  151.4995  135.1061  159.9824 H   0  0  0  0  0  0  0  0  0  0  0  0  # atno 6907 bound_to 6896
  152.4708  133.8020  159.6969 H   0  0  0  0  0  0  0  0  0  0  0  0  # atno 6908 bound_to 6896
  150.8716  133.7435  159.2985 H   0  0  0  0  0  0  0  0  0  0  0  0  # atno 6909 bound_to 6896
  144.7150  140.1834  143.6356 H   0  0  0  0  0  0  0  0  0  0  0  0  # atno 7974 bound_to 7965
  156.2678  140.2813  156.1277 H   0  0  0  0  0  0  0  0  0  0  0  0  # atno 8008 bound_to 7997
  155.1088  140.0390  157.2735 H   0  0  0  0  0  0  0  0  0  0  0  0  # atno 8009 bound_to 7997
  154.6759  140.2598  155.6965 H   0  0  0  0  0  0  0  0  0  0  0  0  # atno 8010 bound_to 7997
  140.4801  143.2404  151.8071 H   0  0  0  0  0  0  0  0  0  0  0  0  # atno 10167 bound_to 10162
  156.3152  130.7503  151.1589 H   0  0  0  0  0  0  0  0  0  0  0  0  # atno 10718 bound_to 10713
  154.1793  135.2800  155.3057 H   0  0  0  0  0  0  0  0  0  0  0  0  # atno 10763 bound_to 10752
  154.6015  135.5528  153.7382 H   0  0  0  0  0  0  0  0  0  0  0  0  # atno 10764 bound_to 10752
  153.0142  135.6393  154.1932 H   0  0  0  0  0  0  0  0  0  0  0  0  # atno 10765 bound_to 10752
  140.9679  133.7126  156.1475 H   0  0  0  0  0  0  0  0  0  0  0  0  # atno 11005 bound_to 11000
  145.8835  139.2336  143.1591 LP  0  0  0  0  0  0  0  0  0  0  0  0  # atno 17320 bound_to 7965
  145.9972  140.8552  143.0036 LP  0  0  0  0  0  0  0  0  0  0  0  0  # atno 17321 bound_to 7965
  139.4832  144.4783  151.9339 LP  0  0  0  0  0  0  0  0  0  0  0  0  # atno 17342 bound_to 10162
  140.3869  144.2666  150.5903 LP  0  0  0  0  0  0  0  0  0  0  0  0  # atno 17343 bound_to 10162
  157.7400  131.0522  150.5196 LP  0  0  0  0  0  0  0  0  0  0  0  0  # atno 17370 bound_to 10713
  156.5341  130.4192  149.6187 LP  0  0  0  0  0  0  0  0  0  0  0  0  # atno 17371 bound_to 10713
  140.7372  134.4189  157.5559 LP  0  0  0  0  0  0  0  0  0  0  0  0  # atno 17394 bound_to 11000
  139.8901  134.8813  156.2386 LP  0  0  0  0  0  0  0  0  0  0  0  0  # atno 17395 bound_to 11000

$$$$
