#       Name:                AV-unprocessed.smi:1697
#       Creating user name   scv26
#       Creation time:       Fri Mar 27 07:59:04 2020


#       File generated by GOLD software.
#

@<TRIPOS>MOLECULE
AV-unprocessed.smi:1697
    59    61     1
SMALL
NO_CHARGES


@<TRIPOS>ATOM
      1 ****        -6.5636   4.2948  -0.5200 C.3            1 S1                 0.0000
      2 ****        -5.3611   4.8533  -1.2936 C.3            1 S1                 0.0000
      3 ****        -4.1267   4.5073  -0.6788 O.3            1 S1                 0.0000
      4 ****        -3.7417   3.1445  -0.8168 C.3            1 S1                 0.0000
      5 ****        -3.7173   2.4756   0.5669 C.3            1 S1                 0.0000
      6 ****        -3.1353   1.0558   0.4636 C.3            1 S1                 0.0000
      7 ****        -1.7871   1.0362  -0.1081 N.3            1 S1                 0.0000
      8 ****        -1.2578  -0.3298  -0.1232 C.3            1 S1                 0.0000
      9 ****         0.2523  -0.4597  -0.4086 C.3            1 S1                 0.0000
     10 ****         0.9615   0.0371   0.7095 O.3            1 S1                 0.0000
     11 ****         0.6549  -1.9263  -0.6537 C.3            1 S1                 0.0000
     12 ****         2.0699  -2.0752  -0.9449 N.pl3          1 S1                 0.0000
     13 ****         2.6803  -1.8494  -2.1239 C.2            1 S1                 0.0000
     14 ****         3.9935  -2.0510  -2.1791 N.2            1 S1                 0.0000
     15 ****         4.2674  -2.4553  -0.8837 C.ar           1 S1                 0.0000
     16 ****         5.4882  -2.8269  -0.2792 C.ar           1 S1                 0.0000
     17 ****         5.5362  -3.2134   1.0791 C.ar           1 S1                 0.0000
     18 ****         6.8704  -3.6077   1.6876 C.3            1 S1                 0.0000
     19 ****         4.3496  -3.2302   1.8555 C.ar           1 S1                 0.0000
     20 ****         4.3771  -3.6424   3.3166 C.3            1 S1                 0.0000
     21 ****         3.1217  -2.8608   1.2674 C.ar           1 S1                 0.0000
     22 ****         3.0860  -2.4806  -0.0859 C.ar           1 S1                 0.0000
     23 ****        -1.8110   1.6409  -1.4452 C.3            1 S1                 0.0000
     24 ****        -2.3362   3.0869  -1.4335 C.3            1 S1                 0.0000
     25 ****        -7.4992   4.6353  -0.9639 H              1 S1                 0.0000
     26 ****        -6.5473   4.6263   0.5185 H              1 S1                 0.0000
     27 ****        -6.5765   3.2050  -0.5253 H              1 S1                 0.0000
     28 ****        -5.3765   4.5275  -2.3347 H              1 S1                 0.0000
     29 ****        -5.4263   5.9414  -1.3103 H              1 S1                 0.0000
     30 ****        -4.4261   2.5960  -1.4675 H              1 S1                 0.0000
     31 ****        -3.1127   3.0681   1.2551 H              1 S1                 0.0000
     32 ****        -4.7218   2.4384   0.9886 H              1 S1                 0.0000
     33 ****        -3.1168   0.6145   1.4610 H              1 S1                 0.0000
     34 ****        -3.8014   0.4330  -0.1358 H              1 S1                 0.0000
     35 ****        -1.4582  -0.8082   0.8369 H              1 S1                 0.0000
     36 ****        -1.8127  -0.9126  -0.8602 H              1 S1                 0.0000
     37 ****         0.5376   0.1229  -1.2832 H              1 S1                 0.0000
     38 ****         0.7001   0.9341   0.8522 H              1 S1                 0.0000
     39 ****         0.4063  -2.5427   0.2112 H              1 S1                 0.0000
     40 ****         0.0930  -2.3329  -1.4956 H              1 S1                 0.0000
     41 ****         2.1282  -1.5176  -2.9912 H              1 S1                 0.0000
     42 ****         6.3916  -2.8135  -0.8711 H              1 S1                 0.0000
     43 ****         6.8356  -4.6350   2.0510 H              1 S1                 0.0000
     44 ****         7.1182  -2.9521   2.5226 H              1 S1                 0.0000
     45 ****         7.6772  -3.5386   0.9572 H              1 S1                 0.0000
     46 ****         3.3828  -3.5966   3.7616 H              1 S1                 0.0000
     47 ****         5.0300  -2.9824   3.8879 H              1 S1                 0.0000
     48 ****         4.7422  -4.6645   3.4178 H              1 S1                 0.0000
     49 ****         2.2107  -2.8663   1.8475 H              1 S1                 0.0000
     50 ****        -0.8114   1.6529  -1.8760 H              1 S1                 0.0000
     51 ****        -2.4273   1.0372  -2.1132 H              1 S1                 0.0000
     52 ****        -2.3556   3.4876  -2.4474 H              1 S1                 0.0000
     53 ****        -1.6538   3.7175  -0.8616 H              1 S1                 0.0000
     54 ****        -4.1998   4.7107   0.2976 LP             1 S1                 0.0000
     55 ****        -3.4096   5.0739  -1.0846 LP             1 S1                 0.0000
     56 ****        -1.1701   1.5797   0.4611 LP             1 S1                 0.0000
     57 ****         1.9447  -0.0044   0.5319 LP             1 S1                 0.0000
     58 ****         0.7453  -0.5107   1.5177 LP             1 S1                 0.0000
     59 ****         4.6181  -1.9399  -2.9521 LP             1 S1                 0.0000
@<TRIPOS>BOND
    1    1    2 1     
    2    1   25 1     
    3    1   26 1     
    4    1   27 1     
    5    2    3 1     
    6    2   28 1     
    7    2   29 1     
    8    3    4 1     
    9    4   24 1     
   10    4    5 1     
   11    4   30 1     
   12    5    6 1     
   13    5   31 1     
   14    5   32 1     
   15    6    7 1     
   16    6   33 1     
   17    6   34 1     
   18    7    8 1     
   19    7   23 1     
   20    8    9 1     
   21    8   35 1     
   22    8   36 1     
   23    9   10 1     
   24    9   11 1     
   25    9   37 1     
   26   10   38 1     
   27   11   12 1     
   28   11   39 1     
   29   11   40 1     
   30   12   22 1     
   31   12   13 1     
   32   13   14 2     
   33   13   41 1     
   34   14   15 1     
   35   15   22 ar    
   36   15   16 ar    
   37   16   17 ar    
   38   16   42 1     
   39   17   18 1     
   40   17   19 ar    
   41   18   43 1     
   42   18   44 1     
   43   18   45 1     
   44   19   20 1     
   45   19   21 ar    
   46   20   46 1     
   47   20   47 1     
   48   20   48 1     
   49   21   22 ar    
   50   21   49 1     
   51   23   24 1     
   52   23   50 1     
   53   23   51 1     
   54   24   52 1     
   55   24   53 1     
   56    3   54 1     
   57    3   55 1     
   58    7   56 1     
   59   10   57 1     
   60   10   58 1     
   61   14   59 1     
@<TRIPOS>SUBSTRUCTURE
      1 S1             1
@<TRIPOS>SET
LONE_PAIRS      STATIC     ATOMS    <user>   **** ""
6 54 55 56 57 58 59
DONOR_HYDROGENS      STATIC     ATOMS    <user>   **** ""
1 38
ATOM$BLUE        STATIC     ATOMS    COLORGROUP SYSTEM
6 54 55 56 57 58 59
ATOM$RED        STATIC     ATOMS    COLORGROUP SYSTEM
1 38
