AV-unprocessed.smi:634|AV-procd|sdf|3133|dock7
  -GOLD-   22720 0 53D 1   1.00000     0.00000
 Structure written by MMmdl.
 33 34  0  0  0  0  0  0  0  0  1 V2000
  143.4857  132.6478  149.0674 C   0  0  0  0  0  0  0  0  0  0  0  0
  144.3801  133.3693  150.0163 C   0  0  0  0  0  0  0  0  0  0  0  0
  145.5376  133.0189  150.6527 C   0  0  0  0  0  0  0  0  0  0  0  0
  145.8555  134.1829  151.4019 C   0  0  0  0  0  0  0  0  0  0  0  0
  147.0171  134.2299  152.2142 N   0  0  0  0  0  0  0  0  0  0  0  0
  147.4018  133.3417  153.1462 C   0  0  0  0  0  0  0  0  0  0  0  0
  146.7911  132.3127  153.4356 O   0  0  0  0  0  0  0  0  0  0  0  0
  148.5483  133.7251  153.7326 N   0  0  0  0  0  0  0  0  0  0  0  0
  149.2885  133.0547  154.8109 C   0  0  1  0  0  0  0  0  0  0  0  0
  149.7364  131.6467  154.3645 C   0  0  0  0  0  0  0  0  0  0  0  0
  150.5277  133.9271  155.1256 C   0  0  0  0  0  0  0  0  0  0  0  0
  150.1016  135.1634  155.9277 C   0  0  0  0  0  0  0  0  0  0  0  0
  148.6756  134.6287  156.9416 S   0  0  0  0  0  0  0  0  0  0  0  0
  149.1103  134.4070  158.3290 O   0  0  0  0  0  0  0  0  0  0  0  0
  147.5257  135.4934  156.6364 O   0  0  0  0  0  0  0  0  0  0  0  0
  148.4570  133.0069  156.1145 C   0  0  0  0  0  0  0  0  0  0  0  0
  144.9698  135.1541  151.2415 N   0  0  0  0  0  0  0  0  0  0  0  0
  144.0194  134.6374  150.3530 O   0  0  0  0  0  0  0  0  0  0  0  0
  143.9634  131.7418  148.6941 H   0  0  0  0  0  0  0  0  0  0  0  0
  143.2414  133.2767  148.2112 H   0  0  0  0  0  0  0  0  0  0  0  0
  142.5541  132.3631  149.5563 H   0  0  0  0  0  0  0  0  0  0  0  0
  146.0697  132.0815  150.5878 H   0  0  0  0  0  0  0  0  0  0  0  0
  147.6117  135.0340  152.0802 H   0  0  0  0  0  0  0  0  0  0  0  0
  148.9535  134.5903  153.4065 H   0  0  0  0  0  0  0  0  0  0  0  0
  150.3709  131.1769  155.1166 H   0  0  0  0  0  0  0  0  0  0  0  0
  150.3064  131.6888  153.4357 H   0  0  0  0  0  0  0  0  0  0  0  0
  148.8895  130.9800  154.2032 H   0  0  0  0  0  0  0  0  0  0  0  0
  151.2209  133.3511  155.7402 H   0  0  0  0  0  0  0  0  0  0  0  0
  151.0755  134.2064  154.2245 H   0  0  0  0  0  0  0  0  0  0  0  0
  150.8950  135.5513  156.5666 H   0  0  0  0  0  0  0  0  0  0  0  0
  149.7647  135.9613  155.2656 H   0  0  0  0  0  0  0  0  0  0  0  0
  147.3966  132.7998  155.9737 H   0  0  0  0  0  0  0  0  0  0  0  0
  148.8514  132.2474  156.7902 H   0  0  0  0  0  0  0  0  0  0  0  0
  1  2  1  0  0  0  0
  1 19  1  0  0  0  0
  1 20  1  0  0  0  0
  1 21  1  0  0  0  0
  2 18  1  0  0  0  0
  2  3  2  0  0  0  0
  3  4  1  0  0  0  0
  3 22  1  0  0  0  0
  4  5  1  0  0  0  0
  4 17  2  0  0  0  0
  5  6  1  0  0  0  0
  5 23  1  0  0  0  0
  6  7  2  0  0  0  0
  6  8  1  0  0  0  0
  8  9  1  0  0  0  0
  8 24  1  0  0  0  0
  9 16  1  0  0  0  0
  9 10  1  0  0  0  0
  9 11  1  0  0  0  0
 10 25  1  0  0  0  0
 10 26  1  0  0  0  0
 10 27  1  0  0  0  0
 11 12  1  0  0  0  0
 11 28  1  0  0  0  0
 11 29  1  0  0  0  0
 12 13  1  0  0  0  0
 12 30  1  0  0  0  0
 12 31  1  0  0  0  0
 13 14  2  0  0  0  0
 13 15  2  0  0  0  0
 13 16  1  0  0  0  0
 16 32  1  0  0  0  0
 16 33  1  0  0  0  0
 17 18  1  0  0  0  0
M  END
> <s_m_source_file>
AV-unprocessed.smi

> <i_m_source_file_index>
634

> <i_lp_mmshare_version>
43012

> <i_f3d_flags>
0

> <s_epik_input>
W0NIM11jMVtjSF1jKG5vMSlbTkhdQyg9TylbTkhdW0NAQF0yKFtDSDNdKVtDSDJdW0NIMl1TKD1PKSg9TylbQ0gyXTI=

> <s_epik_cmdline>
J2VwaWtfcHl0aG9uJywgJy1waCcsICc3LjAnLCAnLXRuJywgJzgnLCAnLW1hJywgJzIwMCcsICctbWV0YWxfYmluZGluZycsICctaW1hZScsICc8aW5maWxlLm1hZT4nLCAnLW9tYWUnLCAnPG91dGZpbGUubWFlPic=

> <r_lp_tautomer_probability>
1

> <r_epik_Ionization_Penalty>
3.87281e-05

> <r_epik_Ionization_Penalty_Charging>
0

> <r_epik_Ionization_Penalty_Neutral>
3.87281e-05

> <r_epik_State_Penalty>
-0

> <r_epik_Charging_Adjusted_Penalty>
0

> <i_epik_Tot_Q>
0

> <i_epik_Tot_abs_Q>
0

> <r_epik_Metal_State_Penalty>
0.0249287

> <b_epik_Metal_Only>
0

> <s_lp_Force_Field>
OPLS_2005

> <r_lp_Energy>
3.17223

> <b_lp_Chiralities_Consistent>
1

> <s_lp_Variant>
AV-unprocessed.smi:634-1

> <Gold.Version>
5.8.1

> <Gold.Id.Protein>
6NUR|6NUR_protein|mol2

> <Gold.PLP.Fitness>
30.9878

> <Gold.PLP.PLP>
-24.2408

> <Gold.PLP.part.hbond>
-2.9871

> <Gold.PLP.part.metal>
0.0000

> <Gold.PLP.part.buried>
-4.0815

> <Gold.PLP.part.nonpolar>
-17.7238

> <Gold.PLP.part.repulsive>
0.5956

> <Gold.PLP.ligand.clash>
0.0000

> <Gold.PLP.ligand.torsion>
0.4655

> <Gold.PLP.Chemscore.Hbond>
2.5543

> <Gold.PLP.Chemscore.CHOScore>
0.0000

> <Gold.PLP.Chemscore.Metal>
0.0000

> <Gold.Chemscore.Hbonds>
donor molecule, donor type, donor heavy atom, donor atom, acceptor molecule, acceptor atom, score
      L1  H     5    23       P1  7948  1.00
      L1  H     8    24       P1  7948  0.45
      P1  H  6896  6909       L1    14  1.00

> <Gold.PLP.Chemscore.Internal.Correction>
0.0151

> <Gold.Rescore>
     Score         DG    S(hbond)    S(metal)    S(lipo)     H(rot)  DE(clash)    DE(int)     intcor
     15.44     -15.90       2.04        0.00      52.79       1.00       0.00       0.46       ----

> <Gold.Chemscore.Fitness>
15.4387

> <Gold.Chemscore.DG>
-15.9011

> <Gold.Chemscore.ZeroCoef>
-5.4800

> <Gold.Chemscore.Hbond>
2.0374

> <Gold.Chemscore.Metal>
0.0000

> <Gold.Chemscore.Lipo>
52.7887

> <Gold.Chemscore.Internal_Hbond>
0.0000

> <Gold.Chemscore.DEClash>
0.0044

> <Gold.Chemscore.DEInternal>
0.4580

> <Gold.Chemscore.Rot>
1.0000

> <Gold.Chemscore.Internal.Correction>
   9.000000E+99

> <Gold.Chemscore.Hbonds>
donor molecule, donor type, donor heavy atom, donor atom, acceptor molecule, acceptor atom, score
      L1  H     5    23       P1  7948  0.91
      L1  H     8    24       P1  7948  0.07
      P1  H  6896  6909       L1    14  1.00

> <Gold.Chemscore.Hbond.Weighted>
-6.8049

> <Gold.Chemscore.Metal.Weighted>
-0.0000

> <Gold.Chemscore.Lipo.Weighted>
-6.1763

> <Gold.Chemscore.Internal_Hbond.Weighted>
0.0000

> <Gold.Chemscore.DEClash.Weighted>
0.0044

> <Gold.Chemscore.DEInternal.Weighted>
0.4580

> <Gold.Chemscore.Rot.Weighted>
2.5600

> <Gold.Chemscore.Internal.Correction.Weighted>
   9.000000E+99

> <Gold.Protein.RotatedTorsions>
[ 6907 6896 6895 6894 ] final   17.29 input  -60.11 | X-H torsion
[ 7974 7965 7964 7962 ] final  154.35 input  175.53 | X-H torsion
[ 8008 7997 7996 7995 ] final  168.41 input   59.86 | X-H torsion
[ 10167 10162 10161 10158 ] final  -66.06 input  -65.29 | X-H torsion
[ 10718 10713 10712 10709 ] final   64.35 input   66.30 | X-H torsion
[ 10763 10752 10751 10750 ] final   57.45 input  -60.55 | X-H torsion
[ 11005 11000 10999 10996 ] final  169.02 input  -57.11 | X-H torsion

> <Gold.Protein.ActiveResidues>
 VAL166  LYS551  ARG553  GLY616  TRP617  ASP618  TYR619  PRO620  LYS621  CYS622 
 ASP623  PHE694  ASN695  SER759  ASP760  ASP761  ALA762  ILE779  LEU786  VAL792 
 PHE793  MET794  SER795  GLU796  ALA797  LYS798  CYS799  TRP800  GLU811  SER814 

> <Gold.Protein.RotatedAtoms>
  151.8473  135.0570  160.0454 H   0  0  0  0  0  0  0  0  0  0  0  0  # atno 6907 bound_to 6896
  152.2763  133.5424  159.5479 H   0  0  0  0  0  0  0  0  0  0  0  0  # atno 6908 bound_to 6896
  150.7171  134.0542  159.3851 H   0  0  0  0  0  0  0  0  0  0  0  0  # atno 6909 bound_to 6896
  144.8094  139.6922  143.6148 H   0  0  0  0  0  0  0  0  0  0  0  0  # atno 7974 bound_to 7965
  156.1549  140.1591  156.8708 H   0  0  0  0  0  0  0  0  0  0  0  0  # atno 8008 bound_to 7997
  154.5106  140.0802  156.8018 H   0  0  0  0  0  0  0  0  0  0  0  0  # atno 8009 bound_to 7997
  155.3822  140.3405  155.4249 H   0  0  0  0  0  0  0  0  0  0  0  0  # atno 8010 bound_to 7997
  140.5684  143.2316  151.6587 H   0  0  0  0  0  0  0  0  0  0  0  0  # atno 10167 bound_to 10162
  157.6033  130.9155  149.9834 H   0  0  0  0  0  0  0  0  0  0  0  0  # atno 10718 bound_to 10713
  152.9850  135.5641  154.5393 H   0  0  0  0  0  0  0  0  0  0  0  0  # atno 10763 bound_to 10752
  154.4851  135.2790  155.1543 H   0  0  0  0  0  0  0  0  0  0  0  0  # atno 10764 bound_to 10752
  154.3035  135.6302  153.5488 H   0  0  0  0  0  0  0  0  0  0  0  0  # atno 10765 bound_to 10752
  140.2934  134.7654  157.3857 H   0  0  0  0  0  0  0  0  0  0  0  0  # atno 11005 bound_to 11000
  146.2391  139.5964  142.9504 LP  0  0  0  0  0  0  0  0  0  0  0  0  # atno 17320 bound_to 7965
  145.5360  141.0424  143.2357 LP  0  0  0  0  0  0  0  0  0  0  0  0  # atno 17321 bound_to 7965
  139.5105  144.3541  152.0624 LP  0  0  0  0  0  0  0  0  0  0  0  0  # atno 17342 bound_to 10162
  140.2676  144.4000  150.6163 LP  0  0  0  0  0  0  0  0  0  0  0  0  # atno 17343 bound_to 10162
  156.1112  130.3650  150.0045 LP  0  0  0  0  0  0  0  0  0  0  0  0  # atno 17370 bound_to 10713
  156.8143  130.9336  151.3643 LP  0  0  0  0  0  0  0  0  0  0  0  0  # atno 17371 bound_to 10713
  140.1175  134.5264  155.8212 LP  0  0  0  0  0  0  0  0  0  0  0  0  # atno 17394 bound_to 11000
  141.2142  133.6745  156.6803 LP  0  0  0  0  0  0  0  0  0  0  0  0  # atno 17395 bound_to 11000

$$$$
