#       Name:                AV-unprocessed.smi:3158
#       Creating user name   scv26
#       Creation time:       Fri Mar 27 17:47:40 2020


#       File generated by GOLD software.
#

@<TRIPOS>MOLECULE
AV-unprocessed.smi:3158
    43    43     1
SMALL
NO_CHARGES


@<TRIPOS>ATOM
      1 ****        -2.0722   1.0303   4.0481 C.3            1 S1                 0.0000
      2 ****        -2.3396   1.7911   2.7414 C.3            1 S1                 0.0000
      3 ****        -2.0488   0.9717   1.4687 C.3            1 S1                 0.0000
      4 ****        -2.4412   1.7386   0.1984 C.3            1 S1                 0.0000
      5 ****        -0.6329   0.6175   1.3908 N.am           1 S1                 0.0000
      6 ****        -0.1128  -0.6058   1.5818 C.2            1 S1                 0.0000
      7 ****        -0.7897  -1.5953   1.8630 O.2            1 S1                 0.0000
      8 ****         1.4085  -0.7372   1.3978 C.3            1 S1                 0.0000
      9 ****         2.0400  -1.4889   2.5812 C.3            1 S1                 0.0000
     10 ****         1.7869  -1.3916   0.1322 N.3            1 S1                 0.0000
     11 ****         1.3072  -0.7083  -1.0641 C.3            1 S1                 0.0000
     12 ****         1.9080  -1.3756  -2.3088 C.3            1 S1                 0.0000
     13 ****         1.4567  -0.7308  -3.5265 N.pl3          1 S1                 0.0000
     14 ****         0.4563  -1.1298  -4.3875 C.2            1 S1                 0.0000
     15 ****         0.3894  -0.2036  -5.3887 C.2            1 S1                 0.0000
     16 ****         1.4017   0.7366  -5.0477 C.2            1 S1                 0.0000
     17 ****         2.0380   0.4189  -3.9319 N.2            1 S1                 0.0000
     18 ****        -2.3547   1.6333   4.9112 H              1 S1                 0.0000
     19 ****        -1.0175   0.7769   4.1568 H              1 S1                 0.0000
     20 ****        -2.6456   0.1037   4.0877 H              1 S1                 0.0000
     21 ****        -3.3849   2.1020   2.7324 H              1 S1                 0.0000
     22 ****        -1.7515   2.7097   2.7329 H              1 S1                 0.0000
     23 ****        -2.6600   0.0680   1.4997 H              1 S1                 0.0000
     24 ****        -3.5010   1.9947   0.2065 H              1 S1                 0.0000
     25 ****        -2.2550   1.1403  -0.6944 H              1 S1                 0.0000
     26 ****        -1.8754   2.6659   0.1022 H              1 S1                 0.0000
     27 ****         0.0057   1.3637   1.1566 H              1 S1                 0.0000
     28 ****         1.8346   0.2679   1.3921 H              1 S1                 0.0000
     29 ****         1.7930  -1.0117   3.5304 H              1 S1                 0.0000
     30 ****         3.1272  -1.5030   2.4982 H              1 S1                 0.0000
     31 ****         1.7005  -2.5245   2.6306 H              1 S1                 0.0000
     32 ****         1.5006  -2.3601   0.1140 H              1 S1                 0.0000
     33 ****         0.2189  -0.7496  -1.1222 H              1 S1                 0.0000
     34 ****         1.5959   0.3432  -1.0268 H              1 S1                 0.0000
     35 ****         2.9983  -1.3394  -2.2779 H              1 S1                 0.0000
     36 ****         1.6261  -2.4287  -2.3512 H              1 S1                 0.0000
     37 ****        -0.1189  -2.0280  -4.2169 H              1 S1                 0.0000
     38 ****        -0.2807  -0.1982  -6.2353 H              1 S1                 0.0000
     39 ****         1.6908   1.6344  -5.5739 H              1 S1                 0.0000
     40 ****        -1.7815  -1.5114   1.9603 LP             1 S1                 0.0000
     41 ****        -0.3477  -2.4826   1.9941 LP             1 S1                 0.0000
     42 ****         2.7851  -1.3381   0.1087 LP             1 S1                 0.0000
     43 ****         2.7823   0.9181  -3.4883 LP             1 S1                 0.0000
@<TRIPOS>BOND
    1    1    2 1     
    2    1   18 1     
    3    1   19 1     
    4    1   20 1     
    5    2    3 1     
    6    2   21 1     
    7    2   22 1     
    8    3    4 1     
    9    3    5 1     
   10    3   23 1     
   11    4   24 1     
   12    4   25 1     
   13    4   26 1     
   14    5    6 am    
   15    5   27 1     
   16    6    7 2     
   17    6    8 1     
   18    8    9 1     
   19    8   10 1     
   20    8   28 1     
   21    9   29 1     
   22    9   30 1     
   23    9   31 1     
   24   10   11 1     
   25   10   32 1     
   26   11   12 1     
   27   11   33 1     
   28   11   34 1     
   29   12   13 1     
   30   12   35 1     
   31   12   36 1     
   32   13   17 1     
   33   13   14 1     
   34   14   15 2     
   35   14   37 1     
   36   15   16 1     
   37   15   38 1     
   38   16   17 2     
   39   16   39 1     
   40    7   40 1     
   41    7   41 1     
   42   10   42 1     
   43   17   43 1     
@<TRIPOS>SUBSTRUCTURE
      1 S1             1
@<TRIPOS>SET
LONE_PAIRS      STATIC     ATOMS    <user>   **** ""
4 40 41 42 43
DONOR_HYDROGENS      STATIC     ATOMS    <user>   **** ""
2 27 32
ATOM$BLUE        STATIC     ATOMS    COLORGROUP SYSTEM
4 40 41 42 43
ATOM$RED        STATIC     ATOMS    COLORGROUP SYSTEM
2 27 32
