AV-unprocessed.smi:1225|AV-procd|sdf|5140|dock7
  -GOLD-   22720 4203D 1   1.00000     0.00000
 Structure written by MMmdl.
 49 51  0  0  0  0  0  0  0  0  2 V2000
  144.7949  134.8027  150.9810 C   0  0  0  0  0  0  0  0  0  0  0  0
  145.2374  136.0477  151.6703 C   0  0  0  0  0  0  0  0  0  0  0  0
  144.9930  136.3031  152.9574 N   0  0  0  0  0  0  0  0  0  0  0  0
  145.5148  137.5319  153.3664 C   0  0  0  0  0  0  0  0  0  0  0  0
  146.1578  138.2220  152.3683 C   0  0  0  0  0  0  0  0  0  0  0  0
  146.8247  139.5569  152.4668 C   0  0  0  0  0  0  0  0  0  0  0  0
  147.5449  139.7461  153.7513 N   0  3  1  0  0  0  0  0  0  0  0  0
  148.6381  138.7580  153.9103 C   0  0  0  0  0  0  0  0  0  0  0  0
  147.9925  141.1484  153.9720 C   0  0  0  0  0  0  0  0  0  0  0  0
  148.6857  141.3469  155.3340 C   0  0  2  0  0  0  0  0  0  0  0  0
  147.9478  142.2885  156.0895 O   0  0  0  0  0  0  0  0  0  0  0  0
  150.1301  141.8552  155.1672 C   0  0  0  0  0  0  0  0  0  0  0  0
  151.0087  141.3743  156.2176 N   0  0  0  0  0  0  0  0  0  0  0  0
  151.6951  140.2153  156.2434 C   0  0  0  0  0  0  0  0  0  0  0  0
  152.4463  139.9777  157.3149 N   0  0  0  0  0  0  0  0  0  0  0  0
  152.2147  141.1107  158.0763 C   0  0  0  0  0  0  0  0  0  0  0  0
  152.7137  141.4835  159.3434 C   0  0  0  0  0  0  0  0  0  0  0  0
  152.3338  142.7068  159.9405 C   0  0  0  0  0  0  0  0  0  0  0  0
  152.8913  143.0667  161.3063 C   0  0  0  0  0  0  0  0  0  0  0  0
  151.4430  143.5806  159.2666 C   0  0  0  0  0  0  0  0  0  0  0  0
  151.0200  144.8993  159.8892 C   0  0  0  0  0  0  0  0  0  0  0  0
  150.9365  143.2243  157.9993 C   0  0  0  0  0  0  0  0  0  0  0  0
  151.3199  142.0034  157.4174 C   0  0  0  0  0  0  0  0  0  0  0  0
  146.1415  137.3268  150.8697 S   0  0  0  0  0  0  0  0  0  0  0  0
  143.8100  134.5010  151.3384 H   0  0  0  0  0  0  0  0  0  0  0  0
  145.5021  133.9966  151.1769 H   0  0  0  0  0  0  0  0  0  0  0  0
  144.7393  134.9664  149.9047 H   0  0  0  0  0  0  0  0  0  0  0  0
  145.3777  137.8419  154.3920 H   0  0  0  0  0  0  0  0  0  0  0  0
  147.5300  139.6450  151.6392 H   0  0  0  0  0  0  0  0  0  0  0  0
  146.0977  140.3597  152.3354 H   0  0  0  0  0  0  0  0  0  0  0  0
  149.4179  138.9150  153.1641 H   0  0  0  0  0  0  0  0  0  0  0  0
  148.2588  137.7421  153.7949 H   0  0  0  0  0  0  0  0  0  0  0  0
  149.0935  138.8151  154.8980 H   0  0  0  0  0  0  0  0  0  0  0  0
  148.6571  141.4442  153.1587 H   0  0  0  0  0  0  0  0  0  0  0  0
  147.1437  141.8305  153.9261 H   0  0  0  0  0  0  0  0  0  0  0  0
  148.7106  140.4089  155.8877 H   0  0  0  0  0  0  0  0  0  0  0  0
  148.2241  143.1575  155.8389 H   0  0  0  0  0  0  0  0  0  0  0  0
  150.5375  141.5251  154.2107 H   0  0  0  0  0  0  0  0  0  0  0  0
  150.1566  142.9461  155.1570 H   0  0  0  0  0  0  0  0  0  0  0  0
  151.6439  139.5081  155.4284 H   0  0  0  0  0  0  0  0  0  0  0  0
  153.3925  140.8182  159.8565 H   0  0  0  0  0  0  0  0  0  0  0  0
  153.4817  143.9814  161.2482 H   0  0  0  0  0  0  0  0  0  0  0  0
  153.5344  142.2768  161.6957 H   0  0  0  0  0  0  0  0  0  0  0  0
  152.0826  143.2210  162.0208 H   0  0  0  0  0  0  0  0  0  0  0  0
  150.3486  145.4527  159.2320 H   0  0  0  0  0  0  0  0  0  0  0  0
  151.8899  145.5270  160.0837 H   0  0  0  0  0  0  0  0  0  0  0  0
  150.4991  144.7269  160.8312 H   0  0  0  0  0  0  0  0  0  0  0  0
  150.2567  143.8797  157.4755 H   0  0  0  0  0  0  0  0  0  0  0  0
  146.8705  139.5483  154.4772 H   0  0  0  0  0  0  0  0  0  0  0  0
  1  2  1  0  0  0  0
  1 25  1  0  0  0  0
  1 26  1  0  0  0  0
  1 27  1  0  0  0  0
  2 24  1  0  0  0  0
  2  3  2  0  0  0  0
  3  4  1  0  0  0  0
  4  5  2  0  0  0  0
  4 28  1  0  0  0  0
  5  6  1  0  0  0  0
  5 24  1  0  0  0  0
  6  7  1  0  0  0  0
  6 29  1  0  0  0  0
  6 30  1  0  0  0  0
  7  8  1  0  0  0  0
  7  9  1  0  0  0  0
  7 49  1  0  0  0  0
  8 31  1  0  0  0  0
  8 32  1  0  0  0  0
  8 33  1  0  0  0  0
  9 10  1  0  0  0  0
  9 34  1  0  0  0  0
  9 35  1  0  0  0  0
 10 11  1  0  0  0  0
 10 12  1  0  0  0  0
 10 36  1  0  0  0  0
 11 37  1  0  0  0  0
 12 13  1  0  0  0  0
 12 38  1  0  0  0  0
 12 39  1  0  0  0  0
 13 23  1  0  0  0  0
 13 14  1  0  0  0  0
 14 15  2  0  0  0  0
 14 40  1  0  0  0  0
 15 16  1  0  0  0  0
 16 23  2  0  0  0  0
 16 17  1  0  0  0  0
 17 18  2  0  0  0  0
 17 41  1  0  0  0  0
 18 19  1  0  0  0  0
 18 20  1  0  0  0  0
 19 42  1  0  0  0  0
 19 43  1  0  0  0  0
 19 44  1  0  0  0  0
 20 21  1  0  0  0  0
 20 22  2  0  0  0  0
 21 45  1  0  0  0  0
 21 46  1  0  0  0  0
 21 47  1  0  0  0  0
 22 23  1  0  0  0  0
 22 48  1  0  0  0  0
M  CHG  1   7   1
M  END
> <s_m_source_file>
AV-unprocessed.smi

> <i_m_source_file_index>
1225

> <i_lp_mmshare_version>
43012

> <i_f3d_flags>
0

> <s_epik_input>
W0NIM11jMW5bY0hdYyhzMSlbQ0gyXU4oW0NIM10pW0NIMl1bQ0BIXShbT0hdKVtDSDJdbihbY0hdbjIpYyhjMjMpW2NIXWMoW0NIM10pYyhbY0hdMylbQ0gzXQ==

> <s_epik_cmdline>
J2VwaWtfcHl0aG9uJywgJy1waCcsICc3LjAnLCAnLXRuJywgJzgnLCAnLW1hJywgJzIwMCcsICctbWV0YWxfYmluZGluZycsICctaW1hZScsICc8aW5maWxlLm1hZT4nLCAnLW9tYWUnLCAnPG91dGZpbGUubWFlPic=

> <r_epik_Ionization_Penalty>
1.62543

> <r_epik_Ionization_Penalty_Charging>
1.53932

> <r_epik_Ionization_Penalty_Neutral>
0.0861152

> <r_epik_State_Penalty>
1.73127

> <r_epik_Charging_Adjusted_Penalty>
3.27059

> <i_epik_Tot_Q>
1

> <i_epik_Tot_abs_Q>
1

> <r_epik_Metal_State_Penalty>
1.71387

> <b_epik_Metal_Only>
0

> <s_lp_Force_Field>
OPLS_2005

> <r_lp_Energy>
11.3728

> <b_lp_Chiralities_Consistent>
1

> <s_lp_Variant>
AV-unprocessed.smi:1225-5

> <Gold.Version>
5.8.1

> <Gold.Id.Protein>
6NUR|6NUR_protein|mol2

> <Gold.PLP.Fitness>
49.5584

> <Gold.PLP.PLP>
-47.2157

> <Gold.PLP.part.hbond>
-2.1737

> <Gold.PLP.part.metal>
0.0000

> <Gold.PLP.part.buried>
3.4613

> <Gold.PLP.part.nonpolar>
-47.9784

> <Gold.PLP.part.repulsive>
0.1511

> <Gold.PLP.ligand.clash>
0.0000

> <Gold.PLP.ligand.torsion>
1.8661

> <Gold.PLP.Chemscore.Hbond>
1.9913

> <Gold.PLP.Chemscore.CHOScore>
0.0000

> <Gold.PLP.Chemscore.Metal>
0.0000

> <Gold.Chemscore.Hbonds>
donor molecule, donor type, donor heavy atom, donor atom, acceptor molecule, acceptor atom, score
      L1  H    11    37       P1  8028  1.00
      P1  H  7997  8008       L1    15  0.96

> <Gold.PLP.Chemscore.Internal.Correction>
0.1012

> <Gold.Rescore>
     Score         DG    S(hbond)    S(metal)    S(lipo)     H(rot)  DE(clash)    DE(int)     intcor
     15.53     -21.28       1.38        0.00     147.61       2.37       3.92       1.84       ----

> <Gold.Chemscore.Fitness>
15.5288

> <Gold.Chemscore.DG>
-21.2834

> <Gold.Chemscore.ZeroCoef>
-5.4800

> <Gold.Chemscore.Hbond>
1.3812

> <Gold.Chemscore.Metal>
0.0000

> <Gold.Chemscore.Lipo>
147.6082

> <Gold.Chemscore.Internal_Hbond>
0.0000

> <Gold.Chemscore.DEClash>
3.9169

> <Gold.Chemscore.DEInternal>
1.8376

> <Gold.Chemscore.Rot>
2.3750

> <Gold.Chemscore.Internal.Correction>
   9.000000E+99

> <Gold.Chemscore.Hbonds>
donor molecule, donor type, donor heavy atom, donor atom, acceptor molecule, acceptor atom, score
      L1  H    11    37       P1  8028  0.82
      P1  H  7997  8008       L1    15  0.24

> <Gold.Chemscore.Hbond.Weighted>
-4.6132

> <Gold.Chemscore.Metal.Weighted>
-0.0000

> <Gold.Chemscore.Lipo.Weighted>
-17.2702

> <Gold.Chemscore.Internal_Hbond.Weighted>
0.0000

> <Gold.Chemscore.DEClash.Weighted>
3.9169

> <Gold.Chemscore.DEInternal.Weighted>
1.8376

> <Gold.Chemscore.Rot.Weighted>
6.0800

> <Gold.Chemscore.Internal.Correction.Weighted>
   9.000000E+99

> <Gold.Protein.RotatedTorsions>
[ 6907 6896 6895 6894 ] final -129.49 input  -60.11 | X-H torsion
[ 7974 7965 7964 7962 ] final   18.16 input  175.53 | X-H torsion
[ 8008 7997 7996 7995 ] final  -58.41 input   59.86 | X-H torsion
[ 10167 10162 10161 10158 ] final -159.32 input  -65.29 | X-H torsion
[ 10718 10713 10712 10709 ] final   59.25 input   66.30 | X-H torsion
[ 10763 10752 10751 10750 ] final  -80.59 input  -60.55 | X-H torsion
[ 11005 11000 10999 10996 ] final  -51.21 input  -57.11 | X-H torsion

> <Gold.Protein.ActiveResidues>
 VAL166  LYS551  ARG553  GLY616  TRP617  ASP618  TYR619  PRO620  LYS621  CYS622 
 ASP623  PHE694  ASN695  SER759  ASP760  ASP761  ALA762  ILE779  LEU786  VAL792 
 PHE793  MET794  SER795  GLU796  ALA797  LYS798  CYS799  TRP800  GLU811  SER814 

> <Gold.Protein.RotatedAtoms>
  150.9293  133.6785  159.2814 H   0  0  0  0  0  0  0  0  0  0  0  0  # atno 6907 bound_to 6896
  151.4213  135.0997  159.9624 H   0  0  0  0  0  0  0  0  0  0  0  0  # atno 6908 bound_to 6896
  152.5018  133.8744  159.7370 H   0  0  0  0  0  0  0  0  0  0  0  0  # atno 6909 bound_to 6896
  146.2194  139.8498  142.8625 H   0  0  0  0  0  0  0  0  0  0  0  0  # atno 7974 bound_to 7965
  154.4308  140.1085  156.5952 H   0  0  0  0  0  0  0  0  0  0  0  0  # atno 8008 bound_to 7997
  155.5969  140.3493  155.4564 H   0  0  0  0  0  0  0  0  0  0  0  0  # atno 8009 bound_to 7997
  156.0203  140.1238  157.0353 H   0  0  0  0  0  0  0  0  0  0  0  0  # atno 8010 bound_to 7997
  139.6624  143.9889  152.2233 H   0  0  0  0  0  0  0  0  0  0  0  0  # atno 10167 bound_to 10162
  157.5660  130.8871  149.9189 H   0  0  0  0  0  0  0  0  0  0  0  0  # atno 10718 bound_to 10713
  154.5531  135.5655  153.6940 H   0  0  0  0  0  0  0  0  0  0  0  0  # atno 10763 bound_to 10752
  152.9995  135.6255  154.2347 H   0  0  0  0  0  0  0  0  0  0  0  0  # atno 10764 bound_to 10752
  154.2282  135.2867  155.2879 H   0  0  0  0  0  0  0  0  0  0  0  0  # atno 10765 bound_to 10752
  141.0858  133.6643  156.3843 H   0  0  0  0  0  0  0  0  0  0  0  0  # atno 11005 bound_to 11000
  145.2813  141.0139  143.3716 LP  0  0  0  0  0  0  0  0  0  0  0  0  # atno 17320 bound_to 7965
  144.9148  139.4484  143.6570 LP  0  0  0  0  0  0  0  0  0  0  0  0  # atno 17321 bound_to 7965
  139.9632  144.6544  150.8059 LP  0  0  0  0  0  0  0  0  0  0  0  0  # atno 17342 bound_to 10162
  140.7585  143.3109  151.2847 LP  0  0  0  0  0  0  0  0  0  0  0  0  # atno 17343 bound_to 10162
  156.0709  130.3685  150.0779 LP  0  0  0  0  0  0  0  0  0  0  0  0  # atno 17370 bound_to 10713
  156.8937  130.9597  151.3585 LP  0  0  0  0  0  0  0  0  0  0  0  0  # atno 17371 bound_to 10713
  140.5365  134.6162  157.5366 LP  0  0  0  0  0  0  0  0  0  0  0  0  # atno 17394 bound_to 11000
  139.9677  134.7346  156.0105 LP  0  0  0  0  0  0  0  0  0  0  0  0  # atno 17395 bound_to 11000

$$$$
