AV-unprocessed.smi:3027|AV-procd|sdf|11515|dock2
  -GOLD-   2272016453D 1   1.00000     0.00000
 Structure written by MMmdl.
 37 38  0  0  0  0  0  0  0  0  2 V2000
  153.4295  142.5942  162.7065 C   0  0  0  0  0  0  0  0  0  0  0  0
  152.8369  143.2148  161.4743 C   0  0  0  0  0  0  0  0  0  0  0  0
  152.1881  144.4768  161.3565 C   0  0  0  0  0  0  0  0  0  0  0  0
  151.7724  144.7284  160.1257 N   0  0  0  0  0  0  0  0  0  0  0  0
  152.1421  143.6412  159.4163 N   0  0  0  0  0  0  0  0  0  0  0  0
  151.8414  143.5634  157.9985 C   0  0  0  0  0  0  0  0  0  0  0  0
  151.0223  142.3072  157.6272 C   0  0  2  0  0  0  0  0  0  0  0  0
  151.8379  141.0109  157.7660 C   0  0  0  0  0  0  0  0  0  0  0  0
  150.5075  142.4137  156.2427 N   0  3  0  0  0  0  0  0  0  0  0  0
  149.6385  141.3043  155.7880 C   0  0  0  0  0  0  0  0  0  0  0  0
  150.4478  140.1302  155.2366 C   0  0  0  0  0  0  0  0  0  0  0  0
  149.4506  139.3348  154.3867 C   0  0  0  0  0  0  0  0  0  0  0  0
  148.3438  140.3235  153.9862 C   0  0  0  0  0  0  0  0  0  0  0  0
  148.7201  141.6680  154.6186 C   0  0  0  0  0  0  0  0  0  0  0  0
  152.7843  142.7111  160.2056 C   0  0  0  0  0  0  0  0  0  0  0  0
  153.6737  143.3432  163.4599 H   0  0  0  0  0  0  0  0  0  0  0  0
  154.3488  142.0524  162.4834 H   0  0  0  0  0  0  0  0  0  0  0  0
  152.7421  141.8857  163.1688 H   0  0  0  0  0  0  0  0  0  0  0  0
  152.0073  145.2130  162.1258 H   0  0  0  0  0  0  0  0  0  0  0  0
  151.3052  144.4721  157.7286 H   0  0  0  0  0  0  0  0  0  0  0  0
  152.7774  143.5830  157.4373 H   0  0  0  0  0  0  0  0  0  0  0  0
  150.1751  142.2260  158.3102 H   0  0  0  0  0  0  0  0  0  0  0  0
  152.1564  140.8450  158.7954 H   0  0  0  0  0  0  0  0  0  0  0  0
  152.7313  141.0352  157.1414 H   0  0  0  0  0  0  0  0  0  0  0  0
  151.2484  140.1428  157.4695 H   0  0  0  0  0  0  0  0  0  0  0  0
  150.0245  143.2937  156.1320 H   0  0  0  0  0  0  0  0  0  0  0  0
  149.0378  140.9469  156.6264 H   0  0  0  0  0  0  0  0  0  0  0  0
  151.2519  140.4983  154.5972 H   0  0  0  0  0  0  0  0  0  0  0  0
  150.9014  139.5250  156.0226 H   0  0  0  0  0  0  0  0  0  0  0  0
  149.9351  138.8903  153.5167 H   0  0  0  0  0  0  0  0  0  0  0  0
  149.0224  138.5205  154.9725 H   0  0  0  0  0  0  0  0  0  0  0  0
  148.2436  140.4082  152.9036 H   0  0  0  0  0  0  0  0  0  0  0  0
  147.3847  139.9799  154.3756 H   0  0  0  0  0  0  0  0  0  0  0  0
  147.8428  142.2349  154.9320 H   0  0  0  0  0  0  0  0  0  0  0  0
  149.2638  142.2689  153.8879 H   0  0  0  0  0  0  0  0  0  0  0  0
  153.1472  141.7766  159.8032 H   0  0  0  0  0  0  0  0  0  0  0  0
  151.3116  142.4167  155.6310 H   0  0  0  0  0  0  0  0  0  0  0  0
  1  2  1  0  0  0  0
  1 16  1  0  0  0  0
  1 17  1  0  0  0  0
  1 18  1  0  0  0  0
  2 15  2  0  0  0  0
  2  3  1  0  0  0  0
  3  4  2  0  0  0  0
  3 19  1  0  0  0  0
  4  5  1  0  0  0  0
  5  6  1  0  0  0  0
  5 15  1  0  0  0  0
  6  7  1  0  0  0  0
  6 20  1  0  0  0  0
  6 21  1  0  0  0  0
  7  8  1  0  0  0  0
  7  9  1  0  0  0  0
  7 22  1  0  0  0  0
  8 23  1  0  0  0  0
  8 24  1  0  0  0  0
  8 25  1  0  0  0  0
  9 10  1  0  0  0  0
  9 26  1  0  0  0  0
  9 37  1  0  0  0  0
 10 14  1  0  0  0  0
 10 11  1  0  0  0  0
 10 27  1  0  0  0  0
 11 12  1  0  0  0  0
 11 28  1  0  0  0  0
 11 29  1  0  0  0  0
 12 13  1  0  0  0  0
 12 30  1  0  0  0  0
 12 31  1  0  0  0  0
 13 14  1  0  0  0  0
 13 32  1  0  0  0  0
 13 33  1  0  0  0  0
 14 34  1  0  0  0  0
 14 35  1  0  0  0  0
 15 36  1  0  0  0  0
M  CHG  1   9   1
M  END
> <s_m_source_file>
AV-unprocessed.smi

> <i_m_source_file_index>
3027

> <i_lp_mmshare_version>
43012

> <i_f3d_flags>
0

> <s_epik_input>
W0NIM11jMVtjSF1ubihbY0hdMSlbQ0gyXVtDQEhdKFtDSDNdKVtOSF1bQ0hdMltDSDJdW0NIMl1bQ0gyXVtDSDJdMg==

> <s_epik_cmdline>
J2VwaWtfcHl0aG9uJywgJy1waCcsICc3LjAnLCAnLXRuJywgJzgnLCAnLW1hJywgJzIwMCcsICctbWV0YWxfYmluZGluZycsICctaW1hZScsICc8aW5maWxlLm1hZT4nLCAnLW9tYWUnLCAnPG91dGZpbGUubWFlPic=

> <r_lp_tautomer_probability>
1

> <r_epik_Ionization_Penalty>
0.00150056

> <r_epik_Ionization_Penalty_Charging>
0.00149132

> <r_epik_Ionization_Penalty_Neutral>
9.24096e-06

> <r_epik_State_Penalty>
0.00099871

> <r_epik_Charging_Adjusted_Penalty>
0.00249003

> <i_epik_Tot_Q>
1

> <i_epik_Tot_abs_Q>
1

> <r_epik_Metal_State_Penalty>
-0

> <b_epik_Metal_Only>
0

> <s_lp_Force_Field>
OPLS_2005

> <r_lp_Energy>
26.7441

> <b_lp_Chiralities_Consistent>
1

> <s_lp_Variant>
AV-unprocessed.smi:3027-1

> <Gold.Version>
5.8.1

> <Gold.Id.Protein>
6NUR|6NUR_protein|mol2

> <Gold.PLP.Fitness>
45.8925

> <Gold.PLP.PLP>
-40.5185

> <Gold.PLP.part.hbond>
-1.0000

> <Gold.PLP.part.metal>
0.0000

> <Gold.PLP.part.buried>
-1.7961

> <Gold.PLP.part.nonpolar>
-36.4641

> <Gold.PLP.part.repulsive>
0.1874

> <Gold.PLP.ligand.clash>
0.0000

> <Gold.PLP.ligand.torsion>
0.3263

> <Gold.PLP.Chemscore.Hbond>
2.0000

> <Gold.PLP.Chemscore.CHOScore>
0.0000

> <Gold.PLP.Chemscore.Metal>
0.0000

> <Gold.Chemscore.Hbonds>
donor molecule, donor type, donor heavy atom, donor atom, acceptor molecule, acceptor atom, score
      L1  H     9    26       P1  8028  2.00

> <Gold.PLP.Chemscore.Internal.Correction>
0.0265

> <Gold.Rescore>
     Score         DG    S(hbond)    S(metal)    S(lipo)     H(rot)  DE(clash)    DE(int)     intcor
     17.32     -17.97       1.00        0.00     108.89       1.40       0.21       0.44       ----

> <Gold.Chemscore.Fitness>
17.3212

> <Gold.Chemscore.DG>
-17.9744

> <Gold.Chemscore.ZeroCoef>
-5.4800

> <Gold.Chemscore.Hbond>
0.9988

> <Gold.Chemscore.Metal>
0.0000

> <Gold.Chemscore.Lipo>
108.8894

> <Gold.Chemscore.Internal_Hbond>
0.0000

> <Gold.Chemscore.DEClash>
0.2120

> <Gold.Chemscore.DEInternal>
0.4411

> <Gold.Chemscore.Rot>
1.3991

> <Gold.Chemscore.Internal.Correction>
   9.000000E+99

> <Gold.Chemscore.Hbonds>
donor molecule, donor type, donor heavy atom, donor atom, acceptor molecule, acceptor atom, score
      L1  H     9    26       P1  8028  1.00

> <Gold.Chemscore.Hbond.Weighted>
-3.3361

> <Gold.Chemscore.Metal.Weighted>
-0.0000

> <Gold.Chemscore.Lipo.Weighted>
-12.7401

> <Gold.Chemscore.Internal_Hbond.Weighted>
0.0000

> <Gold.Chemscore.DEClash.Weighted>
0.2120

> <Gold.Chemscore.DEInternal.Weighted>
0.4411

> <Gold.Chemscore.Rot.Weighted>
3.5818

> <Gold.Chemscore.Internal.Correction.Weighted>
   9.000000E+99

> <Gold.Protein.RotatedTorsions>
[ 6907 6896 6895 6894 ] final -155.82 input  -60.11 | X-H torsion
[ 7974 7965 7964 7962 ] final   59.43 input  175.53 | X-H torsion
[ 8008 7997 7996 7995 ] final   44.81 input   59.86 | X-H torsion
[ 10167 10162 10161 10158 ] final  -76.19 input  -65.29 | X-H torsion
[ 10718 10713 10712 10709 ] final  -46.10 input   66.30 | X-H torsion
[ 10763 10752 10751 10750 ] final  179.11 input  -60.55 | X-H torsion
[ 11005 11000 10999 10996 ] final  -65.60 input  -57.11 | X-H torsion

> <Gold.Protein.ActiveResidues>
 VAL166  LYS551  ARG553  GLY616  TRP617  ASP618  TYR619  PRO620  LYS621  CYS622 
 ASP623  PHE694  ASN695  SER759  ASP760  ASP761  ALA762  ILE779  LEU786  VAL792 
 PHE793  MET794  SER795  GLU796  ALA797  LYS798  CYS799  TRP800  GLU811  SER814 

> <Gold.Protein.RotatedAtoms>
  151.2782  133.4222  159.2625 H   0  0  0  0  0  0  0  0  0  0  0  0  # atno 6907 bound_to 6896
  151.0384  134.9590  159.8159 H   0  0  0  0  0  0  0  0  0  0  0  0  # atno 6908 bound_to 6896
  152.5360  134.2741  159.9035 H   0  0  0  0  0  0  0  0  0  0  0  0  # atno 6909 bound_to 6896
  145.9073  139.3627  143.0557 H   0  0  0  0  0  0  0  0  0  0  0  0  # atno 7974 bound_to 7965
  155.3255  140.3399  155.4240 H   0  0  0  0  0  0  0  0  0  0  0  0  # atno 8008 bound_to 7997
  156.1888  140.1690  156.8170 H   0  0  0  0  0  0  0  0  0  0  0  0  # atno 8009 bound_to 7997
  154.5417  140.0723  156.8505 H   0  0  0  0  0  0  0  0  0  0  0  0  # atno 8010 bound_to 7997
  140.4878  143.2387  151.7955 H   0  0  0  0  0  0  0  0  0  0  0  0  # atno 10167 bound_to 10162
  156.2217  130.4166  149.8985 H   0  0  0  0  0  0  0  0  0  0  0  0  # atno 10718 bound_to 10713
  154.5164  135.2791  155.1299 H   0  0  0  0  0  0  0  0  0  0  0  0  # atno 10763 bound_to 10752
  154.2874  135.6273  153.5375 H   0  0  0  0  0  0  0  0  0  0  0  0  # atno 10764 bound_to 10752
  152.9928  135.5666  154.5642 H   0  0  0  0  0  0  0  0  0  0  0  0  # atno 10765 bound_to 10752
  141.1459  133.6684  156.6012 H   0  0  0  0  0  0  0  0  0  0  0  0  # atno 11005 bound_to 11000
  145.8716  140.9416  143.0647 LP  0  0  0  0  0  0  0  0  0  0  0  0  # atno 17320 bound_to 7965
  144.6740  140.0662  143.7474 LP  0  0  0  0  0  0  0  0  0  0  0  0  # atno 17321 bound_to 7965
  139.4845  144.4689  151.9450 LP  0  0  0  0  0  0  0  0  0  0  0  0  # atno 17342 bound_to 10162
  140.3775  144.2778  150.5912 LP  0  0  0  0  0  0  0  0  0  0  0  0  # atno 17343 bound_to 10162
  156.6629  130.8789  151.3550 LP  0  0  0  0  0  0  0  0  0  0  0  0  # atno 17370 bound_to 10713
  157.7090  130.9419  150.1027 LP  0  0  0  0  0  0  0  0  0  0  0  0  # atno 17371 bound_to 10713
  140.3687  134.7624  157.4584 LP  0  0  0  0  0  0  0  0  0  0  0  0  # atno 17394 bound_to 11000
  140.0727  134.5840  155.8624 LP  0  0  0  0  0  0  0  0  0  0  0  0  # atno 17395 bound_to 11000

$$$$
