AV-unprocessed.smi:1147|AV-procd|sdf|4888|dock3
  -GOLD-   22720 3463D 1   1.00000     0.00000
 Structure written by MMmdl.
 41 42  0  0  0  0  0  0  0  0  1 V2000
  150.2817  133.4957  155.0347 C   0  0  0  0  0  0  0  0  0  0  0  0
  150.9293  134.2215  156.2160 C   0  0  0  0  0  0  0  0  0  0  0  0
  151.5160  133.5418  157.0583 O   0  0  0  0  0  0  0  0  0  0  0  0
  150.8375  135.5709  156.2978 N   0  0  0  0  0  0  0  0  0  0  0  0
  151.4393  136.4050  157.3509 C   0  0  0  0  0  0  0  0  0  0  0  0
  152.4699  137.3578  156.7125 C   0  0  0  0  0  0  0  0  0  0  0  0
  151.7901  138.1824  155.6955 N   0  0  0  0  0  0  0  0  0  0  0  0
  151.5331  139.5123  155.7783 C   0  0  0  0  0  0  0  0  0  0  0  0
  151.1590  140.1881  154.8187 O   0  0  0  0  0  0  0  0  0  0  0  0
  151.7544  140.0528  156.9891 N   0  0  0  0  0  0  0  0  0  0  0  0
  151.5714  141.4574  157.3446 C   0  0  1  0  0  0  0  0  0  0  0  0
  150.1492  141.9155  156.9719 C   0  0  0  0  0  0  0  0  0  0  0  0
  151.8990  141.6439  158.8396 C   0  0  0  0  0  0  0  0  0  0  0  0
  151.6795  143.0042  159.2978 N   0  0  0  0  0  0  0  0  0  0  0  0
  152.6086  144.0091  159.4660 C   0  0  0  0  0  0  0  0  0  0  0  0
  151.9384  145.1120  159.9118 C   0  0  0  0  0  0  0  0  0  0  0  0
  150.5857  144.6770  159.9885 C   0  0  0  0  0  0  0  0  0  0  0  0
  150.4342  143.4143  159.6233 N   0  0  0  0  0  0  0  0  0  0  0  0
  151.2112  137.3401  154.6382 C   0  0  0  0  0  0  0  0  0  0  0  0
  150.1759  136.3868  155.2675 C   0  0  0  0  0  0  0  0  0  0  0  0
  149.2059  133.6725  155.0146 H   0  0  0  0  0  0  0  0  0  0  0  0
  150.4397  132.4194  155.1118 H   0  0  0  0  0  0  0  0  0  0  0  0
  150.7153  133.8279  154.0911 H   0  0  0  0  0  0  0  0  0  0  0  0
  150.6520  136.9789  157.8421 H   0  0  0  0  0  0  0  0  0  0  0  0
  151.9220  135.8326  158.1411 H   0  0  0  0  0  0  0  0  0  0  0  0
  152.9603  137.9343  157.4965 H   0  0  0  0  0  0  0  0  0  0  0  0
  153.2644  136.7833  156.2331 H   0  0  0  0  0  0  0  0  0  0  0  0
  152.0738  139.4385  157.7238 H   0  0  0  0  0  0  0  0  0  0  0  0
  152.2821  142.0581  156.7738 H   0  0  0  0  0  0  0  0  0  0  0  0
  150.0111  142.9807  157.1581 H   0  0  0  0  0  0  0  0  0  0  0  0
  149.3967  141.3763  157.5480 H   0  0  0  0  0  0  0  0  0  0  0  0
  149.9430  141.7460  155.9147 H   0  0  0  0  0  0  0  0  0  0  0  0
  151.2988  140.9645  159.4477 H   0  0  0  0  0  0  0  0  0  0  0  0
  152.9429  141.3903  159.0297 H   0  0  0  0  0  0  0  0  0  0  0  0
  153.6570  143.8574  159.2545 H   0  0  0  0  0  0  0  0  0  0  0  0
  152.3514  146.0816  160.1474 H   0  0  0  0  0  0  0  0  0  0  0  0
  149.7156  145.2373  160.2975 H   0  0  0  0  0  0  0  0  0  0  0  0
  150.7416  137.9219  153.8439 H   0  0  0  0  0  0  0  0  0  0  0  0
  152.0064  136.7691  154.1565 H   0  0  0  0  0  0  0  0  0  0  0  0
  149.7144  135.7859  154.4831 H   0  0  0  0  0  0  0  0  0  0  0  0
  149.3655  136.9563  155.7252 H   0  0  0  0  0  0  0  0  0  0  0  0
  1  2  1  0  0  0  0
  1 21  1  0  0  0  0
  1 22  1  0  0  0  0
  1 23  1  0  0  0  0
  2  3  2  0  0  0  0
  2  4  1  0  0  0  0
  4 20  1  0  0  0  0
  4  5  1  0  0  0  0
  5  6  1  0  0  0  0
  5 24  1  0  0  0  0
  5 25  1  0  0  0  0
  6  7  1  0  0  0  0
  6 26  1  0  0  0  0
  6 27  1  0  0  0  0
  7  8  1  0  0  0  0
  7 19  1  0  0  0  0
  8  9  2  0  0  0  0
  8 10  1  0  0  0  0
 10 11  1  0  0  0  0
 10 28  1  0  0  0  0
 11 12  1  0  0  0  0
 11 13  1  0  0  0  0
 11 29  1  0  0  0  0
 12 30  1  0  0  0  0
 12 31  1  0  0  0  0
 12 32  1  0  0  0  0
 13 14  1  0  0  0  0
 13 33  1  0  0  0  0
 13 34  1  0  0  0  0
 14 18  1  0  0  0  0
 14 15  1  0  0  0  0
 15 16  2  0  0  0  0
 15 35  1  0  0  0  0
 16 17  1  0  0  0  0
 16 36  1  0  0  0  0
 17 18  2  0  0  0  0
 17 37  1  0  0  0  0
 19 20  1  0  0  0  0
 19 38  1  0  0  0  0
 19 39  1  0  0  0  0
 20 40  1  0  0  0  0
 20 41  1  0  0  0  0
M  END
> <s_m_source_file>
AV-unprocessed.smi

> <i_m_source_file_index>
1147

> <i_lp_mmshare_version>
43012

> <i_f3d_flags>
0

> <s_epik_input>
W0NIM11DKD1PKU4xW0NIMl1bQ0gyXU4oW0NIMl1bQ0gyXTEpQyg9TylbTkhdW0NASF0oW0NIM10pW0NIMl1uMltjSF1bY0hdW2NIXW4y

> <s_epik_cmdline>
J2VwaWtfcHl0aG9uJywgJy1waCcsICc3LjAnLCAnLXRuJywgJzgnLCAnLW1hJywgJzIwMCcsICctbWV0YWxfYmluZGluZycsICctaW1hZScsICc8aW5maWxlLm1hZT4nLCAnLW9tYWUnLCAnPG91dGZpbGUubWFlPic=

> <r_lp_tautomer_probability>
1

> <r_epik_Ionization_Penalty>
5.58143e-05

> <r_epik_Ionization_Penalty_Charging>
0

> <r_epik_Ionization_Penalty_Neutral>
5.58143e-05

> <r_epik_State_Penalty>
-0

> <r_epik_Charging_Adjusted_Penalty>
0

> <i_epik_Tot_Q>
0

> <i_epik_Tot_abs_Q>
0

> <r_epik_Metal_State_Penalty>
-0

> <b_epik_Metal_Only>
0

> <s_lp_Force_Field>
OPLS_2005

> <r_lp_Energy>
47.733

> <b_lp_Chiralities_Consistent>
1

> <s_lp_Variant>
AV-unprocessed.smi:1147-2

> <Gold.Version>
5.8.1

> <Gold.Id.Protein>
6NUR|6NUR_protein|mol2

> <Gold.PLP.Fitness>
41.6604

> <Gold.PLP.PLP>
-37.5929

> <Gold.PLP.part.hbond>
-2.3538

> <Gold.PLP.part.metal>
0.0000

> <Gold.PLP.part.buried>
-6.5137

> <Gold.PLP.part.nonpolar>
-29.5324

> <Gold.PLP.part.repulsive>
0.2595

> <Gold.PLP.ligand.clash>
0.0000

> <Gold.PLP.ligand.torsion>
0.4642

> <Gold.PLP.Chemscore.Hbond>
1.6473

> <Gold.PLP.Chemscore.CHOScore>
0.0000

> <Gold.PLP.Chemscore.Metal>
0.0000

> <Gold.Chemscore.Hbonds>
donor molecule, donor type, donor heavy atom, donor atom, acceptor molecule, acceptor atom, score
      P1  H  6896  6908       L1     3  0.37
      P1  H  7989  7998       L1     9  1.00

> <Gold.PLP.Chemscore.Internal.Correction>
0.0543

> <Gold.Rescore>
     Score         DG    S(hbond)    S(metal)    S(lipo)     H(rot)  DE(clash)    DE(int)     intcor
     16.49     -18.24       1.97        0.00      84.95       1.46       0.09       1.66       ----

> <Gold.Chemscore.Fitness>
16.4902

> <Gold.Chemscore.DG>
-18.2448

> <Gold.Chemscore.ZeroCoef>
-5.4800

> <Gold.Chemscore.Hbond>
1.9681

> <Gold.Chemscore.Metal>
0.0000

> <Gold.Chemscore.Lipo>
84.9493

> <Gold.Chemscore.Internal_Hbond>
0.0000

> <Gold.Chemscore.DEClash>
0.0901

> <Gold.Chemscore.DEInternal>
1.6644

> <Gold.Chemscore.Rot>
1.4640

> <Gold.Chemscore.Internal.Correction>
   9.000000E+99

> <Gold.Chemscore.Hbonds>
donor molecule, donor type, donor heavy atom, donor atom, acceptor molecule, acceptor atom, score
      P1  H  6896  6908       L1     3  0.37
      P1  H  7989  7998       L1     9  0.96

> <Gold.Chemscore.Hbond.Weighted>
-6.5735

> <Gold.Chemscore.Metal.Weighted>
-0.0000

> <Gold.Chemscore.Lipo.Weighted>
-9.9391

> <Gold.Chemscore.Internal_Hbond.Weighted>
0.0000

> <Gold.Chemscore.DEClash.Weighted>
0.0901

> <Gold.Chemscore.DEInternal.Weighted>
1.6644

> <Gold.Chemscore.Rot.Weighted>
3.7477

> <Gold.Chemscore.Internal.Correction.Weighted>
   9.000000E+99

> <Gold.Protein.RotatedTorsions>
[ 6907 6896 6895 6894 ] final   92.35 input  -60.11 | X-H torsion
[ 7974 7965 7964 7962 ] final -121.66 input  175.53 | X-H torsion
[ 8008 7997 7996 7995 ] final  102.10 input   59.86 | X-H torsion
[ 10167 10162 10161 10158 ] final   91.53 input  -65.29 | X-H torsion
[ 10718 10713 10712 10709 ] final  -99.03 input   66.30 | X-H torsion
[ 10763 10752 10751 10750 ] final  -71.74 input  -60.55 | X-H torsion
[ 11005 11000 10999 10996 ] final  -17.96 input  -57.11 | X-H torsion

> <Gold.Protein.ActiveResidues>
 VAL166  LYS551  ARG553  GLY616  TRP617  ASP618  TYR619  PRO620  LYS621  CYS622 
 ASP623  PHE694  ASN695  SER759  ASP760  ASP761  ALA762  ILE779  LEU786  VAL792 
 PHE793  MET794  SER795  GLU796  ALA797  LYS798  CYS799  TRP800  GLU811  SER814 

> <Gold.Protein.RotatedAtoms>
  152.5452  134.1515  159.8520 H   0  0  0  0  0  0  0  0  0  0  0  0  # atno 6907 bound_to 6896
  151.1542  133.4880  159.2602 H   0  0  0  0  0  0  0  0  0  0  0  0  # atno 6908 bound_to 6896
  151.1440  135.0205  159.8693 H   0  0  0  0  0  0  0  0  0  0  0  0  # atno 6909 bound_to 6896
  145.0379  140.8121  143.4284 H   0  0  0  0  0  0  0  0  0  0  0  0  # atno 7974 bound_to 7965
  156.1361  140.3187  155.8423 H   0  0  0  0  0  0  0  0  0  0  0  0  # atno 8008 bound_to 7997
  155.4241  140.0514  157.3040 H   0  0  0  0  0  0  0  0  0  0  0  0  # atno 8009 bound_to 7997
  154.4938  140.2103  155.9503 H   0  0  0  0  0  0  0  0  0  0  0  0  # atno 8010 bound_to 7997
  139.8365  144.6662  150.9335 H   0  0  0  0  0  0  0  0  0  0  0  0  # atno 10167 bound_to 10162
  156.0123  130.5264  150.6610 H   0  0  0  0  0  0  0  0  0  0  0  0  # atno 10718 bound_to 10713
  154.4360  135.5952  153.6099 H   0  0  0  0  0  0  0  0  0  0  0  0  # atno 10763 bound_to 10752
  152.9802  135.5986  154.3781 H   0  0  0  0  0  0  0  0  0  0  0  0  # atno 10764 bound_to 10752
  154.3625  135.2841  155.2290 H   0  0  0  0  0  0  0  0  0  0  0  0  # atno 10765 bound_to 10752
  140.8220  133.8061  155.9669 H   0  0  0  0  0  0  0  0  0  0  0  0  # atno 11005 bound_to 11000
  145.1685  139.2417  143.5354 LP  0  0  0  0  0  0  0  0  0  0  0  0  # atno 17320 bound_to 7965
  146.3506  140.1430  142.8594 LP  0  0  0  0  0  0  0  0  0  0  0  0  # atno 17321 bound_to 7965
  140.7802  143.3952  151.1242 LP  0  0  0  0  0  0  0  0  0  0  0  0  # atno 17342 bound_to 10162
  139.7602  143.8647  152.3098 LP  0  0  0  0  0  0  0  0  0  0  0  0  # atno 17343 bound_to 10162
  157.4352  131.0854  151.0999 LP  0  0  0  0  0  0  0  0  0  0  0  0  # atno 17370 bound_to 10713
  157.1559  130.6204  149.5596 LP  0  0  0  0  0  0  0  0  0  0  0  0  # atno 17371 bound_to 10713
  140.9089  134.2286  157.4998 LP  0  0  0  0  0  0  0  0  0  0  0  0  # atno 17394 bound_to 11000
  139.8708  134.9741  156.4833 LP  0  0  0  0  0  0  0  0  0  0  0  0  # atno 17395 bound_to 11000

$$$$
