#       Name:                AV-unprocessed.smi:283
#       Creating user name   scv26
#       Creation time:       Thu Mar 26 21:47:06 2020


#       File generated by GOLD software.
#

@<TRIPOS>MOLECULE
AV-unprocessed.smi:283
    59    62     1
SMALL
NO_CHARGES


@<TRIPOS>ATOM
      1 ****        -5.2476  -0.7032  -0.8270 C.3            1 S1                 0.0000
      2 ****        -3.7373  -0.7091  -0.5543 C.3            1 S1                 0.0000
      3 ****        -3.1584   0.5655  -0.9727 N.pl3          1 S1                 0.0000
      4 ****        -1.8299   0.7999  -0.8886 C.ar           1 S1                 0.0000
      5 ****        -1.4718   2.1053  -0.8402 N.ar           1 S1                 0.0000
      6 ****        -0.1838   2.4454  -0.7424 C.ar           1 S1                 0.0000
      7 ****         0.8852   1.6506  -0.6850 N.ar           1 S1                 0.0000
      8 ****         0.5355   0.3336  -0.7440 C.ar           1 S1                 0.0000
      9 ****        -0.7901  -0.1764  -0.8513 C.ar           1 S1                 0.0000
     10 ****        -0.7407  -1.5650  -0.9035 N.2            1 S1                 0.0000
     11 ****         0.5294  -1.8510  -0.8159 C.2            1 S1                 0.0000
     12 ****         1.3694  -0.7658  -0.7201 N.pl3          1 S1                 0.0000
     13 ****         2.8619  -0.7683  -0.5940 C.3            1 S1                 0.0000
     14 ****         3.1913   0.0435   0.4896 O.3            1 S1                 0.0000
     15 ****         4.3529   0.7902   0.1683 C.3            1 S1                 0.0000
     16 ****         4.4929   2.0156   1.0903 C.3            1 S1                 0.0000
     17 ****         3.5677   3.0344   0.7715 O.3            1 S1                 0.0000
     18 ****         4.2508   1.0549  -1.3376 C.3            1 S1                 0.0000
     19 ****         5.5392   1.2089  -1.8988 O.3            1 S1                 0.0000
     20 ****         3.5889  -0.2211  -1.8489 C.3            1 S1                 0.0000
     21 ****         2.7423   0.0525  -2.9510 O.3            1 S1                 0.0000
     22 ****        -3.4613  -1.0925   0.9028 C.ar           1 S1                 0.0000
     23 ****        -3.3973  -0.0893   1.8984 C.ar           1 S1                 0.0000
     24 ****        -3.1430  -0.4247   3.2414 C.ar           1 S1                 0.0000
     25 ****        -2.9583  -1.7700   3.6069 C.ar           1 S1                 0.0000
     26 ****        -3.0347  -2.7780   2.6283 C.ar           1 S1                 0.0000
     27 ****        -3.2888  -2.4479   1.2819 C.ar           1 S1                 0.0000
     28 ****        -3.3869  -3.7298   0.1255 Cl             1 S1                 0.0000
     29 ****         3.1192  -1.8064  -0.3801 H              1 S1                 0.0000
     30 ****         5.1949   0.1207   0.3565 H              1 S1                 0.0000
     31 ****         3.6303   1.9258  -1.5506 H              1 S1                 0.0000
     32 ****         4.3370  -0.9599  -2.1408 H              1 S1                 0.0000
     33 ****        -5.6902  -1.6744  -0.6043 H              1 S1                 0.0000
     34 ****        -5.4576  -0.4799  -1.8735 H              1 S1                 0.0000
     35 ****        -5.7586   0.0427  -0.2172 H              1 S1                 0.0000
     36 ****        -3.3039  -1.4644  -1.2076 H              1 S1                 0.0000
     37 ****        -3.8250   1.3168  -1.0758 H              1 S1                 0.0000
     38 ****         0.0202   3.5052  -0.7032 H              1 S1                 0.0000
     39 ****         0.8893  -2.8695  -0.8207 H              1 S1                 0.0000
     40 ****         4.3697   1.7246   2.1338 H              1 S1                 0.0000
     41 ****         5.4948   2.4348   0.9928 H              1 S1                 0.0000
     42 ****         3.6856   3.7484   1.3790 H              1 S1                 0.0000
     43 ****         5.4446   1.3199  -2.8326 H              1 S1                 0.0000
     44 ****         2.0663   0.6478  -2.6632 H              1 S1                 0.0000
     45 ****        -3.5409   0.9488   1.6376 H              1 S1                 0.0000
     46 ****        -3.0913   0.3511   3.9911 H              1 S1                 0.0000
     47 ****        -2.7633  -2.0295   4.6371 H              1 S1                 0.0000
     48 ****        -2.8998  -3.8110   2.9139 H              1 S1                 0.0000
     49 ****        -2.1737   2.8165  -0.8778 LP             1 S1                 0.0000
     50 ****         1.8265   1.9793  -0.6083 LP             1 S1                 0.0000
     51 ****        -1.5069  -2.2018  -0.9891 LP             1 S1                 0.0000
     52 ****         3.3693  -0.5249   1.2928 LP             1 S1                 0.0000
     53 ****         2.4344   0.6674   0.6838 LP             1 S1                 0.0000
     54 ****         2.6360   2.6789   0.8457 LP             1 S1                 0.0000
     55 ****         3.7285   3.3558  -0.1618 LP             1 S1                 0.0000
     56 ****         6.0902   0.3962  -1.7090 LP             1 S1                 0.0000
     57 ****         5.9852   2.0132  -1.5061 LP             1 S1                 0.0000
     58 ****         2.3285  -0.7967  -3.2791 LP             1 S1                 0.0000
     59 ****         3.2715   0.4721  -3.6885 LP             1 S1                 0.0000
@<TRIPOS>BOND
    1    1    2 1     
    2    1   33 1     
    3    1   34 1     
    4    1   35 1     
    5    2    3 1     
    6    2   22 1     
    7    2   36 1     
    8    3    4 1     
    9    3   37 1     
   10    4    9 ar    
   11    4    5 ar    
   12    5    6 ar    
   13    6    7 ar    
   14    6   38 1     
   15    7    8 ar    
   16    8   12 1     
   17    8    9 ar    
   18    9   10 1     
   19   10   11 2     
   20   11   12 1     
   21   11   39 1     
   22   12   13 1     
   23   13   29 1     
   24   13   20 1     
   25   13   14 1     
   26   14   15 1     
   27   15   30 1     
   28   15   16 1     
   29   15   18 1     
   30   16   17 1     
   31   16   40 1     
   32   16   41 1     
   33   17   42 1     
   34   18   31 1     
   35   18   19 1     
   36   18   20 1     
   37   19   43 1     
   38   20   32 1     
   39   20   21 1     
   40   21   44 1     
   41   22   27 ar    
   42   22   23 ar    
   43   23   24 ar    
   44   23   45 1     
   45   24   25 ar    
   46   24   46 1     
   47   25   26 ar    
   48   25   47 1     
   49   26   27 ar    
   50   26   48 1     
   51   27   28 1     
   52    5   49 1     
   53    7   50 1     
   54   10   51 1     
   55   14   52 1     
   56   14   53 1     
   57   17   54 1     
   58   17   55 1     
   59   19   56 1     
   60   19   57 1     
   61   21   58 1     
   62   21   59 1     
@<TRIPOS>SUBSTRUCTURE
      1 S1             1
@<TRIPOS>SET
LONE_PAIRS      STATIC     ATOMS    <user>   **** ""
11 49 50 51 52 53 54 55 56 57 58 59
DONOR_HYDROGENS      STATIC     ATOMS    <user>   **** ""
4 37 42 43 44
ATOM$BLUE        STATIC     ATOMS    COLORGROUP SYSTEM
11 49 50 51 52 53 54 55 56 57 58 59
ATOM$RED        STATIC     ATOMS    COLORGROUP SYSTEM
4 37 42 43 44
