AV-unprocessed.smi:1795|AV-procd|sdf|7249|dock5
  -GOLD-   22720 8503D 1   1.00000     0.00000
 Structure written by MMmdl.
 48 49  0  0  0  0  0  0  0  0  2 V2000
  143.7285  137.2453  155.8983 C   0  0  0  0  0  0  0  0  0  0  0  0
  143.7697  138.7036  155.4279 C   0  0  2  0  0  0  0  0  0  0  0  0
  145.1911  139.2921  155.4831 C   0  0  0  0  0  0  0  0  0  0  0  0
  145.1949  140.7240  155.0781 N   0  3  2  0  0  0  0  0  0  0  0  0
  146.5797  141.2958  155.0031 C   0  0  1  0  0  0  0  0  0  0  0  0
  146.5307  142.6976  154.3530 C   0  0  0  0  0  0  0  0  0  0  0  0
  147.3129  141.3454  156.3731 C   0  0  0  0  0  0  0  0  0  0  0  0
  148.6481  141.9302  156.2792 N   0  0  0  0  0  0  0  0  0  0  0  0
  149.7981  141.2942  156.5520 C   0  0  0  0  0  0  0  0  0  0  0  0
  149.8527  140.1113  156.8903 O   0  0  0  0  0  0  0  0  0  0  0  0
  151.0796  142.1276  156.4170 C   0  0  0  0  0  0  0  0  0  0  0  0
  151.7066  142.4249  157.7156 N   0  0  0  0  0  0  0  0  0  0  0  0
  151.6574  143.7600  158.1643 C   0  0  0  0  0  0  0  0  0  0  0  0
  152.1992  144.1364  159.3334 C   0  0  0  0  0  0  0  0  0  0  0  0
  152.8463  143.1300  160.1415 C   0  0  0  0  0  0  0  0  0  0  0  0
  152.9022  141.8507  159.7205 C   0  0  0  0  0  0  0  0  0  0  0  0
  152.3136  141.4353  158.4421 C   0  0  0  0  0  0  0  0  0  0  0  0
  152.3634  140.2694  158.0472 O   0  0  0  0  0  0  0  0  0  0  0  0
  144.2211  141.4754  155.9169 C   0  0  0  0  0  0  0  0  0  0  0  0
  142.8260  140.8222  155.8664 C   0  0  2  0  0  0  0  0  0  0  0  0
  141.8243  141.5281  156.7872 C   0  0  0  0  0  0  0  0  0  0  0  0
  142.9250  139.4660  156.2796 O   0  0  0  0  0  0  0  0  0  0  0  0
  144.3629  136.6135  155.2761 H   0  0  0  0  0  0  0  0  0  0  0  0
  142.7143  136.8480  155.8480 H   0  0  0  0  0  0  0  0  0  0  0  0
  144.0713  137.1519  156.9292 H   0  0  0  0  0  0  0  0  0  0  0  0
  143.3909  138.7487  154.4051 H   0  0  0  0  0  0  0  0  0  0  0  0
  145.5916  139.2014  156.4943 H   0  0  0  0  0  0  0  0  0  0  0  0
  145.8374  138.7014  154.8365 H   0  0  0  0  0  0  0  0  0  0  0  0
  147.1695  140.6430  154.3572 H   0  0  0  0  0  0  0  0  0  0  0  0
  147.5291  143.0984  154.1813 H   0  0  0  0  0  0  0  0  0  0  0  0
  145.9966  143.4052  154.9878 H   0  0  0  0  0  0  0  0  0  0  0  0
  146.0421  142.6962  153.3806 H   0  0  0  0  0  0  0  0  0  0  0  0
  146.7075  141.8756  157.1105 H   0  0  0  0  0  0  0  0  0  0  0  0
  147.4654  140.3389  156.7617 H   0  0  0  0  0  0  0  0  0  0  0  0
  148.7015  142.8997  156.0018 H   0  0  0  0  0  0  0  0  0  0  0  0
  151.7684  141.5864  155.7669 H   0  0  0  0  0  0  0  0  0  0  0  0
  150.8622  143.0598  155.8915 H   0  0  0  0  0  0  0  0  0  0  0  0
  151.1614  144.4527  157.4998 H   0  0  0  0  0  0  0  0  0  0  0  0
  152.1548  145.1650  159.6597 H   0  0  0  0  0  0  0  0  0  0  0  0
  153.2890  143.4049  161.0877 H   0  0  0  0  0  0  0  0  0  0  0  0
  153.3912  141.1118  160.3384 H   0  0  0  0  0  0  0  0  0  0  0  0
  144.5833  141.5188  156.9455 H   0  0  0  0  0  0  0  0  0  0  0  0
  144.1138  142.4999  155.5617 H   0  0  0  0  0  0  0  0  0  0  0  0
  142.4407  140.8586  154.8457 H   0  0  0  0  0  0  0  0  0  0  0  0
  141.6956  142.5724  156.5014 H   0  0  0  0  0  0  0  0  0  0  0  0
  142.1565  141.5037  157.8257 H   0  0  0  0  0  0  0  0  0  0  0  0
  140.8463  141.0484  156.7396 H   0  0  0  0  0  0  0  0  0  0  0  0
  144.8283  140.7638  154.1375 H   0  0  0  0  0  0  0  0  0  0  0  0
  1  2  1  0  0  0  0
  1 23  1  0  0  0  0
  1 24  1  0  0  0  0
  1 25  1  0  0  0  0
  2 22  1  0  0  0  0
  2  3  1  0  0  0  0
  2 26  1  0  0  0  0
  3  4  1  0  0  0  0
  3 27  1  0  0  0  0
  3 28  1  0  0  0  0
  4  5  1  0  0  0  0
  4 19  1  0  0  0  0
  4 48  1  0  0  0  0
  5  6  1  0  0  0  0
  5  7  1  0  0  0  0
  5 29  1  0  0  0  0
  6 30  1  0  0  0  0
  6 31  1  0  0  0  0
  6 32  1  0  0  0  0
  7  8  1  0  0  0  0
  7 33  1  0  0  0  0
  7 34  1  0  0  0  0
  8  9  1  0  0  0  0
  8 35  1  0  0  0  0
  9 10  2  0  0  0  0
  9 11  1  0  0  0  0
 11 12  1  0  0  0  0
 11 36  1  0  0  0  0
 11 37  1  0  0  0  0
 12 17  1  0  0  0  0
 12 13  1  0  0  0  0
 13 14  2  0  0  0  0
 13 38  1  0  0  0  0
 14 15  1  0  0  0  0
 14 39  1  0  0  0  0
 15 16  2  0  0  0  0
 15 40  1  0  0  0  0
 16 17  1  0  0  0  0
 16 41  1  0  0  0  0
 17 18  2  0  0  0  0
 19 20  1  0  0  0  0
 19 42  1  0  0  0  0
 19 43  1  0  0  0  0
 20 21  1  0  0  0  0
 20 22  1  0  0  0  0
 20 44  1  0  0  0  0
 21 45  1  0  0  0  0
 21 46  1  0  0  0  0
 21 47  1  0  0  0  0
M  CHG  1   4   1
M  END
> <s_m_source_file>
AV-unprocessed.smi

> <i_m_source_file_index>
1795

> <i_lp_mmshare_version>
43012

> <i_f3d_flags>
0

> <s_epik_input>
W0NIM11bQ0BASF0xW0NIMl1OKFtDSDJdW0NASF0oTzEpW0NIM10pW0NASF0oW0NIM10pW0NIMl1bTkhdQyg9TylbQ0gyXW4yW2NIXVtjSF1bY0hdW2NIXWMyPU8=

> <s_epik_cmdline>
J2VwaWtfcHl0aG9uJywgJy1waCcsICc3LjAnLCAnLXRuJywgJzgnLCAnLW1hJywgJzIwMCcsICctbWV0YWxfYmluZGluZycsICctaW1hZScsICc8aW5maWxlLm1hZT4nLCAnLW9tYWUnLCAnPG91dGZpbGUubWFlPic=

> <r_lp_tautomer_probability>
1

> <r_epik_Ionization_Penalty>
0.656654

> <r_epik_Ionization_Penalty_Charging>
0.656654

> <r_epik_Ionization_Penalty_Neutral>
8.90321e-08

> <r_epik_State_Penalty>
0.675641

> <r_epik_Charging_Adjusted_Penalty>
1.33229

> <i_epik_Tot_Q>
1

> <i_epik_Tot_abs_Q>
1

> <r_epik_Metal_State_Penalty>
0.675691

> <b_epik_Metal_Only>
0

> <s_lp_Force_Field>
OPLS_2005

> <r_lp_Energy>
27.2799

> <b_lp_Chiralities_Consistent>
1

> <s_lp_Variant>
AV-unprocessed.smi:1795-13

> <Gold.Version>
5.8.1

> <Gold.Id.Protein>
6NUR|6NUR_protein|mol2

> <Gold.PLP.Fitness>
48.1731

> <Gold.PLP.PLP>
-36.5967

> <Gold.PLP.part.hbond>
-1.9451

> <Gold.PLP.part.metal>
0.0000

> <Gold.PLP.part.buried>
-5.1747

> <Gold.PLP.part.nonpolar>
-30.5436

> <Gold.PLP.part.repulsive>
0.1356

> <Gold.PLP.ligand.clash>
0.0000

> <Gold.PLP.ligand.torsion>
0.2404

> <Gold.PLP.Chemscore.Hbond>
3.0000

> <Gold.PLP.Chemscore.CHOScore>
0.9938

> <Gold.PLP.Chemscore.Metal>
0.0000

> <Gold.Chemscore.Hbonds>
donor molecule, donor type, donor heavy atom, donor atom, acceptor molecule, acceptor atom, score
      L1  H     4    48       P1 10175  2.00
      L1  H     8    35       P1  8028  1.00
      L1  C    13    38       P1  8028  0.07

> <Gold.PLP.Chemscore.Internal.Correction>
0.0758

> <Gold.Rescore>
     Score         DG    S(hbond)    S(metal)    S(lipo)     H(rot)  DE(clash)    DE(int)     intcor
     17.89     -18.52       2.72        0.00      74.99       1.89       0.19       0.44       ----

> <Gold.Chemscore.Fitness>
17.8884

> <Gold.Chemscore.DG>
-18.5195

> <Gold.Chemscore.ZeroCoef>
-5.4800

> <Gold.Chemscore.Hbond>
2.7234

> <Gold.Chemscore.Metal>
0.0000

> <Gold.Chemscore.Lipo>
74.9910

> <Gold.Chemscore.Internal_Hbond>
0.0000

> <Gold.Chemscore.DEClash>
0.1860

> <Gold.Chemscore.DEInternal>
0.4450

> <Gold.Chemscore.Rot>
1.8870

> <Gold.Chemscore.Internal.Correction>
   9.000000E+99

> <Gold.Chemscore.Hbonds>
donor molecule, donor type, donor heavy atom, donor atom, acceptor molecule, acceptor atom, score
      L1  H     4    48       P1 10175  0.92
      L1  H     8    35       P1  8028  1.00
      P1  H  7997  8010       L1    18  0.04

> <Gold.Chemscore.Hbond.Weighted>
-9.0963

> <Gold.Chemscore.Metal.Weighted>
-0.0000

> <Gold.Chemscore.Lipo.Weighted>
-8.7739

> <Gold.Chemscore.Internal_Hbond.Weighted>
0.0000

> <Gold.Chemscore.DEClash.Weighted>
0.1860

> <Gold.Chemscore.DEInternal.Weighted>
0.4450

> <Gold.Chemscore.Rot.Weighted>
4.8308

> <Gold.Chemscore.Internal.Correction.Weighted>
   9.000000E+99

> <Gold.Protein.RotatedTorsions>
[ 6907 6896 6895 6894 ] final  -51.67 input  -60.11 | X-H torsion
[ 7974 7965 7964 7962 ] final -120.88 input  175.53 | X-H torsion
[ 8008 7997 7996 7995 ] final   53.67 input   59.86 | X-H torsion
[ 10167 10162 10161 10158 ] final  -55.39 input  -65.29 | X-H torsion
[ 10718 10713 10712 10709 ] final -158.12 input   66.30 | X-H torsion
[ 10763 10752 10751 10750 ] final  179.34 input  -60.55 | X-H torsion
[ 11005 11000 10999 10996 ] final -120.49 input  -57.11 | X-H torsion

> <Gold.Protein.ActiveResidues>
 VAL166  LYS551  ARG553  GLY616  TRP617  ASP618  TYR619  PRO620  LYS621  CYS622 
 ASP623  PHE694  ASN695  SER759  ASP760  ASP761  ALA762  ILE779  LEU786  VAL792 
 PHE793  MET794  SER795  GLU796  ALA797  LYS798  CYS799  TRP800  GLU811  SER814 

> <Gold.Protein.RotatedAtoms>
  150.8590  134.7936  159.7067 H   0  0  0  0  0  0  0  0  0  0  0  0  # atno 6907 bound_to 6896
  152.4633  134.5131  159.9770 H   0  0  0  0  0  0  0  0  0  0  0  0  # atno 6908 bound_to 6896
  151.5239  133.3423  159.2942 H   0  0  0  0  0  0  0  0  0  0  0  0  # atno 6909 bound_to 6896
  145.0464  140.8185  143.4235 H   0  0  0  0  0  0  0  0  0  0  0  0  # atno 7974 bound_to 7965
  155.4722  140.3465  155.4327 H   0  0  0  0  0  0  0  0  0  0  0  0  # atno 8008 bound_to 7997
  156.1093  140.1456  156.9389 H   0  0  0  0  0  0  0  0  0  0  0  0  # atno 8009 bound_to 7997
  154.4746  140.0889  156.7207 H   0  0  0  0  0  0  0  0  0  0  0  0  # atno 8010 bound_to 7997
  140.6377  143.2491  151.5073 H   0  0  0  0  0  0  0  0  0  0  0  0  # atno 10167 bound_to 10162
  156.5498  130.8600  151.2776 H   0  0  0  0  0  0  0  0  0  0  0  0  # atno 10718 bound_to 10713
  154.5195  135.2793  155.1275 H   0  0  0  0  0  0  0  0  0  0  0  0  # atno 10763 bound_to 10752
  154.2838  135.6280  153.5361 H   0  0  0  0  0  0  0  0  0  0  0  0  # atno 10764 bound_to 10752
  152.9934  135.5657  154.5680 H   0  0  0  0  0  0  0  0  0  0  0  0  # atno 10765 bound_to 10752
  141.0140  134.0223  157.3375 H   0  0  0  0  0  0  0  0  0  0  0  0  # atno 11005 bound_to 11000
  145.1582  139.2474  143.5405 LP  0  0  0  0  0  0  0  0  0  0  0  0  # atno 17320 bound_to 7965
  146.3514  140.1302  142.8597 LP  0  0  0  0  0  0  0  0  0  0  0  0  # atno 17321 bound_to 7965
  139.5587  144.2211  152.1655 LP  0  0  0  0  0  0  0  0  0  0  0  0  # atno 17342 bound_to 10162
  140.1472  144.5148  150.6709 LP  0  0  0  0  0  0  0  0  0  0  0  0  # atno 17343 bound_to 10162
  157.7390  130.9823  150.2285 LP  0  0  0  0  0  0  0  0  0  0  0  0  # atno 17370 bound_to 10713
  156.2895  130.3744  149.7855 LP  0  0  0  0  0  0  0  0  0  0  0  0  # atno 17371 bound_to 10713
  139.9106  135.0189  156.7674 LP  0  0  0  0  0  0  0  0  0  0  0  0  # atno 17394 bound_to 11000
  140.6686  133.9580  155.7844 LP  0  0  0  0  0  0  0  0  0  0  0  0  # atno 17395 bound_to 11000

$$$$
