#       Name:                AV-unprocessed.smi:3116
#       Creating user name   scv26
#       Creation time:       Fri Mar 27 17:24:25 2020


#       File generated by GOLD software.
#

@<TRIPOS>MOLECULE
AV-unprocessed.smi:3116
    37    37     1
SMALL
NO_CHARGES


@<TRIPOS>ATOM
      1 ****        -1.8004   1.9817  -1.6815 C.3            1 S1                 0.0000
      2 ****        -1.9417   1.1510  -0.3929 C.3            1 S1                 0.0000
      3 ****        -1.2741  -0.1645  -0.5296 N.4            1 S1                 1.0000
      4 ****         0.2065  -0.1460  -0.4907 C.3            1 S1                 0.0000
      5 ****         0.7475  -0.6982  -1.8224 C.3            1 S1                 0.0000
      6 ****         0.7182  -0.9279   0.7481 C.3            1 S1                 0.0000
      7 ****         0.2712  -0.2904   2.0780 C.3            1 S1                 0.0000
      8 ****         2.1665  -1.0901   0.7348 N.pl3          1 S1                 0.0000
      9 ****         2.8943  -2.2616   0.6966 C.2            1 S1                 0.0000
     10 ****         4.2166  -1.9215   0.7007 C.2            1 S1                 0.0000
     11 ****         4.2002  -0.4997   0.7469 C.2            1 S1                 0.0000
     12 ****         2.9732  -0.0051   0.7681 N.2            1 S1                 0.0000
     13 ****        -3.4232   0.9670  -0.0427 C.2            1 S1                 0.0000
     14 ****        -4.0091   1.9458   0.6520 N.am           1 S1                 0.0000
     15 ****        -4.0374  -0.0365  -0.4010 O.2            1 S1                 0.0000
     16 ****        -2.3021   2.9459  -1.5890 H              1 S1                 0.0000
     17 ****        -2.2332   1.4641  -2.5387 H              1 S1                 0.0000
     18 ****        -0.7553   2.1868  -1.9138 H              1 S1                 0.0000
     19 ****        -1.4737   1.6851   0.4360 H              1 S1                 0.0000
     20 ****        -1.5886  -0.7441   0.2353 H              1 S1                 0.0000
     21 ****         0.5529   0.8852  -0.4056 H              1 S1                 0.0000
     22 ****         1.8325  -0.6143  -1.8860 H              1 S1                 0.0000
     23 ****         0.3365  -0.1482  -2.6697 H              1 S1                 0.0000
     24 ****         0.4863  -1.7492  -1.9510 H              1 S1                 0.0000
     25 ****         0.2942  -1.9328   0.7077 H              1 S1                 0.0000
     26 ****        -0.8146  -0.2836   2.1745 H              1 S1                 0.0000
     27 ****         0.6173   0.7402   2.1643 H              1 S1                 0.0000
     28 ****         0.6669  -0.8447   2.9298 H              1 S1                 0.0000
     29 ****         2.4167  -3.2299   0.6688 H              1 S1                 0.0000
     30 ****         5.0666  -2.5872   0.6760 H              1 S1                 0.0000
     31 ****         5.0372   0.1825   0.7659 H              1 S1                 0.0000
     32 ****        -4.9812   1.8717   0.9154 H              1 S1                 0.0000
     33 ****        -3.4729   2.7588   0.9201 H              1 S1                 0.0000
     34 ****        -1.5794  -0.5917  -1.3923 H              1 S1                 0.0000
     35 ****         2.7025   0.9570   0.8014 LP             1 S1                 0.0000
     36 ****        -3.5709  -0.7466  -0.9283 LP             1 S1                 0.0000
     37 ****        -5.0034  -0.1423  -0.1650 LP             1 S1                 0.0000
@<TRIPOS>BOND
    1    1    2 1     
    2    1   16 1     
    3    1   17 1     
    4    1   18 1     
    5    2    3 1     
    6    2   13 1     
    7    2   19 1     
    8    3    4 1     
    9    3   20 1     
   10    3   34 1     
   11    4    5 1     
   12    4    6 1     
   13    4   21 1     
   14    5   22 1     
   15    5   23 1     
   16    5   24 1     
   17    6    7 1     
   18    6    8 1     
   19    6   25 1     
   20    7   26 1     
   21    7   27 1     
   22    7   28 1     
   23    8   12 1     
   24    8    9 1     
   25    9   10 2     
   26    9   29 1     
   27   10   11 1     
   28   10   30 1     
   29   11   12 2     
   30   11   31 1     
   31   13   14 am    
   32   13   15 2     
   33   14   32 1     
   34   14   33 1     
   35   12   35 1     
   36   15   36 1     
   37   15   37 1     
@<TRIPOS>SUBSTRUCTURE
      1 S1             1
@<TRIPOS>SET
LONE_PAIRS      STATIC     ATOMS    <user>   **** ""
3 35 36 37
DONOR_HYDROGENS      STATIC     ATOMS    <user>   **** ""
4 20 34 32 33
ATOM$BLUE        STATIC     ATOMS    COLORGROUP SYSTEM
3 35 36 37
ATOM$RED        STATIC     ATOMS    COLORGROUP SYSTEM
4 20 34 32 33
