#       Name:                AV-unprocessed.smi:1060
#       Creating user name   scv26
#       Creation time:       Fri Mar 27 03:16:45 2020


#       File generated by GOLD software.
#

@<TRIPOS>MOLECULE
AV-unprocessed.smi:1060
    45    46     1
SMALL
NO_CHARGES


@<TRIPOS>ATOM
      1 ****        -1.2636   1.7065  -2.2004 O.2            1 S1                 0.0000
      2 ****        -0.5510   0.8312  -1.7107 C.2            1 S1                 0.0000
      3 ****         0.9534   1.0743  -1.5967 C.3            1 S1                 0.0000
      4 ****         1.3935   0.6692  -0.3096 O.3            1 S1                 0.0000
      5 ****         2.7858   0.8571  -0.1222 C.3            1 S1                 0.0000
      6 ****         3.1629   0.3985   1.2918 C.3            1 S1                 0.0000
      7 ****         4.6696   0.3024   1.5234 C.3            1 S1                 0.0000
      8 ****         4.7548   0.4423   3.0261 C.3            1 S1                 0.0000
      9 ****         3.6731   1.4821   3.3048 C.3            1 S1                 0.0000
     10 ****         2.7132   1.3443   2.2593 O.3            1 S1                 0.0000
     11 ****        -0.9792  -0.3730  -1.2820 N.am           1 S1                 0.0000
     12 ****        -2.2842  -0.8908  -1.2276 C.2            1 S1                 0.0000
     13 ****        -3.4193  -0.1481  -1.3084 C.2            1 S1                 0.0000
     14 ****        -4.7410  -0.7480  -1.2327 C.2            1 S1                 0.0000
     15 ****        -6.0034   0.1000  -1.2676 C.3            1 S1                 0.0000
     16 ****        -6.9926  -0.4754  -0.5827 F              1 S1                 0.0000
     17 ****        -5.7827   1.3079  -0.7481 F              1 S1                 0.0000
     18 ****        -6.4080   0.2583  -2.5272 F              1 S1                 0.0000
     19 ****        -4.7853  -2.0802  -1.0469 C.2            1 S1                 0.0000
     20 ****        -3.6236  -2.8509  -0.9630 N.am           1 S1                 0.0000
     21 ****        -2.3709  -2.3482  -1.0376 C.2            1 S1                 0.0000
     22 ****        -1.3962  -3.0941  -0.9483 O.2            1 S1                 0.0000
     23 ****        -3.7409  -3.8452  -0.8317 H              1 S1                 0.0000
     24 ****         1.4668   0.5068  -2.3744 H              1 S1                 0.0000
     25 ****         1.1696   2.1323  -1.7552 H              1 S1                 0.0000
     26 ****         3.3279   0.2619  -0.8587 H              1 S1                 0.0000
     27 ****         3.0630   1.9017  -0.2730 H              1 S1                 0.0000
     28 ****         2.7074  -0.5681   1.5130 H              1 S1                 0.0000
     29 ****         5.0986  -0.6297   1.1548 H              1 S1                 0.0000
     30 ****         5.1875   1.1331   1.0420 H              1 S1                 0.0000
     31 ****         4.4999  -0.5044   3.5047 H              1 S1                 0.0000
     32 ****         5.7414   0.7481   3.3754 H              1 S1                 0.0000
     33 ****         3.2151   1.3504   4.2853 H              1 S1                 0.0000
     34 ****         4.0902   2.4887   3.2588 H              1 S1                 0.0000
     35 ****        -0.2609  -1.0131  -0.9740 H              1 S1                 0.0000
     36 ****        -3.3754   0.9230  -1.4177 H              1 S1                 0.0000
     37 ****        -5.6967  -2.6506  -0.9447 H              1 S1                 0.0000
     38 ****        -0.8567   2.5632  -2.5174 LP             1 S1                 0.0000
     39 ****        -2.2496   1.5612  -2.2813 LP             1 S1                 0.0000
     40 ****         1.1830  -0.3011  -0.1904 LP             1 S1                 0.0000
     41 ****         0.9033   1.2037   0.3789 LP             1 S1                 0.0000
     42 ****         1.8463   1.0316   2.6474 LP             1 S1                 0.0000
     43 ****         2.5796   2.2307   1.8161 LP             1 S1                 0.0000
     44 ****        -0.4715  -2.7175  -1.0044 LP             1 S1                 0.0000
     45 ****        -1.5288  -4.0769  -0.8196 LP             1 S1                 0.0000
@<TRIPOS>BOND
    1    1    2 2     
    2    2    3 1     
    3    2   11 am    
    4    3    4 1     
    5    3   24 1     
    6    3   25 1     
    7    4    5 1     
    8    5    6 1     
    9    5   26 1     
   10    5   27 1     
   11    6   10 1     
   12    6    7 1     
   13    6   28 1     
   14    7    8 1     
   15    7   29 1     
   16    7   30 1     
   17    8    9 1     
   18    8   31 1     
   19    8   32 1     
   20    9   10 1     
   21    9   33 1     
   22    9   34 1     
   23   11   12 1     
   24   11   35 1     
   25   12   21 1     
   26   12   13 2     
   27   13   14 1     
   28   13   36 1     
   29   14   15 1     
   30   14   19 2     
   31   15   16 1     
   32   15   17 1     
   33   15   18 1     
   34   19   20 1     
   35   19   37 1     
   36   20   23 1     
   37   20   21 am    
   38   21   22 2     
   39    1   38 1     
   40    1   39 1     
   41    4   40 1     
   42    4   41 1     
   43   10   42 1     
   44   10   43 1     
   45   22   44 1     
   46   22   45 1     
@<TRIPOS>SUBSTRUCTURE
      1 S1             1
@<TRIPOS>SET
LONE_PAIRS      STATIC     ATOMS    <user>   **** ""
8 38 39 40 41 42 43 44 45
DONOR_HYDROGENS      STATIC     ATOMS    <user>   **** ""
2 35 23
ATOM$BLUE        STATIC     ATOMS    COLORGROUP SYSTEM
8 38 39 40 41 42 43 44 45
ATOM$RED        STATIC     ATOMS    COLORGROUP SYSTEM
2 35 23
