AV-unprocessed.smi:3287|AV-procd|sdf|12605|dock7
  -GOLD-   2272018533D 1   1.00000     0.00000
 Structure written by MMmdl.
 43 44  0  0  0  0  0  0  0  0  2 V2000
  152.6464  144.0708  162.1967 C   0  0  0  0  0  0  0  0  0  0  0  0
  151.9836  143.5002  160.9302 C   0  0  1  0  0  0  0  0  0  0  0  0
  151.2569  144.6277  160.1694 C   0  0  0  0  0  0  0  0  0  0  0  0
  150.5713  144.1209  158.8930 C   0  0  0  0  0  0  0  0  0  0  0  0
  151.5821  143.4256  157.9623 C   0  0  2  0  0  0  0  0  0  0  0  0
  150.9324  142.8979  156.7421 N   0  3  0  0  0  0  0  0  0  0  0  0
  150.2006  141.6242  156.9157 C   0  0  0  0  0  0  0  0  0  0  0  0
  149.7272  141.0577  155.5659 C   0  0  1  0  0  0  0  0  0  0  0  0
  149.8116  142.0768  154.5886 O   0  0  0  0  0  0  0  0  0  0  0  0
  150.5356  139.8303  155.1752 C   0  0  0  0  0  0  0  0  0  0  0  0
  151.9462  139.8312  155.2386 C   0  0  0  0  0  0  0  0  0  0  0  0
  152.6380  138.6588  154.8741 C   0  0  0  0  0  0  0  0  0  0  0  0
  152.0196  137.5293  154.4685 N   0  0  0  0  0  0  0  0  0  0  0  0
  150.6708  137.5329  154.4117 C   0  0  0  0  0  0  0  0  0  0  0  0
  149.8849  138.6516  154.7537 C   0  0  0  0  0  0  0  0  0  0  0  0
  152.2836  142.2823  158.7154 C   0  0  0  0  0  0  0  0  0  0  0  0
  152.9876  142.7704  159.9988 C   0  0  2  0  0  0  0  0  0  0  0  0
  153.6958  141.5903  160.6881 C   0  0  0  0  0  0  0  0  0  0  0  0
  153.4655  144.7458  161.9462 H   0  0  0  0  0  0  0  0  0  0  0  0
  153.0434  143.2837  162.8371 H   0  0  0  0  0  0  0  0  0  0  0  0
  151.9280  144.6315  162.7953 H   0  0  0  0  0  0  0  0  0  0  0  0
  151.2304  142.7786  161.2502 H   0  0  0  0  0  0  0  0  0  0  0  0
  150.5123  145.0926  160.8166 H   0  0  0  0  0  0  0  0  0  0  0  0
  151.9683  145.4128  159.9088 H   0  0  0  0  0  0  0  0  0  0  0  0
  149.7703  143.4294  159.1579 H   0  0  0  0  0  0  0  0  0  0  0  0
  150.0993  144.9648  158.3902 H   0  0  0  0  0  0  0  0  0  0  0  0
  152.3432  144.1457  157.6571 H   0  0  0  0  0  0  0  0  0  0  0  0
  150.2635  143.5874  156.4306 H   0  0  0  0  0  0  0  0  0  0  0  0
  150.8292  140.8950  157.4272 H   0  0  0  0  0  0  0  0  0  0  0  0
  149.3359  141.8054  157.5556 H   0  0  0  0  0  0  0  0  0  0  0  0
  148.6781  140.7683  155.6443 H   0  0  0  0  0  0  0  0  0  0  0  0
  149.5125  142.8868  154.9741 H   0  0  0  0  0  0  0  0  0  0  0  0
  152.4906  140.7069  155.5607 H   0  0  0  0  0  0  0  0  0  0  0  0
  153.7168  138.6268  154.9117 H   0  0  0  0  0  0  0  0  0  0  0  0
  150.2030  136.6156  154.0860 H   0  0  0  0  0  0  0  0  0  0  0  0
  148.8077  138.5992  154.6929 H   0  0  0  0  0  0  0  0  0  0  0  0
  151.5560  141.5099  158.9709 H   0  0  0  0  0  0  0  0  0  0  0  0
  153.0131  141.8094  158.0564 H   0  0  0  0  0  0  0  0  0  0  0  0
  153.7571  143.4851  159.7024 H   0  0  0  0  0  0  0  0  0  0  0  0
  152.9777  140.8656  161.0729 H   0  0  0  0  0  0  0  0  0  0  0  0
  154.3176  141.9205  161.5197 H   0  0  0  0  0  0  0  0  0  0  0  0
  154.3529  141.0675  159.9925 H   0  0  0  0  0  0  0  0  0  0  0  0
  151.6291  142.7818  156.0198 H   0  0  0  0  0  0  0  0  0  0  0  0
  1  2  1  0  0  0  0
  1 19  1  0  0  0  0
  1 20  1  0  0  0  0
  1 21  1  0  0  0  0
  2 17  1  0  0  0  0
  2  3  1  0  0  0  0
  2 22  1  0  0  0  0
  3  4  1  0  0  0  0
  3 23  1  0  0  0  0
  3 24  1  0  0  0  0
  4  5  1  0  0  0  0
  4 25  1  0  0  0  0
  4 26  1  0  0  0  0
  5  6  1  0  0  0  0
  5 16  1  0  0  0  0
  5 27  1  0  0  0  0
  6  7  1  0  0  0  0
  6 28  1  0  0  0  0
  6 43  1  0  0  0  0
  7  8  1  0  0  0  0
  7 29  1  0  0  0  0
  7 30  1  0  0  0  0
  8  9  1  0  0  0  0
  8 10  1  0  0  0  0
  8 31  1  0  0  0  0
  9 32  1  0  0  0  0
 10 15  1  0  0  0  0
 10 11  2  0  0  0  0
 11 12  1  0  0  0  0
 11 33  1  0  0  0  0
 12 13  2  0  0  0  0
 12 34  1  0  0  0  0
 13 14  1  0  0  0  0
 14 15  2  0  0  0  0
 14 35  1  0  0  0  0
 15 36  1  0  0  0  0
 16 17  1  0  0  0  0
 16 37  1  0  0  0  0
 16 38  1  0  0  0  0
 17 18  1  0  0  0  0
 17 39  1  0  0  0  0
 18 40  1  0  0  0  0
 18 41  1  0  0  0  0
 18 42  1  0  0  0  0
M  CHG  1   6   1
M  END
> <s_m_source_file>
AV-unprocessed.smi

> <i_m_source_file_index>
3287

> <i_lp_mmshare_version>
43012

> <i_f3d_flags>
0

> <s_epik_input>
W0NIM11bQ0BASF0xW0NIMl1bQ0gyXVtDQEhdKFtDSDJdW0NASF0xW0NIM10pW05IXVtDSDJdW0NASF0oW09IXSljMltjSF1bY0hdbltjSF1bY0hdMg==

> <s_epik_cmdline>
J2VwaWtfcHl0aG9uJywgJy1waCcsICc3LjAnLCAnLXRuJywgJzgnLCAnLW1hJywgJzIwMCcsICctbWV0YWxfYmluZGluZycsICctaW1hZScsICc8aW5maWxlLm1hZT4nLCAnLW9tYWUnLCAnPG91dGZpbGUubWFlPic=

> <r_lp_tautomer_probability>
1

> <r_epik_Ionization_Penalty>
0.00537262

> <r_epik_Ionization_Penalty_Charging>
0.00321624

> <r_epik_Ionization_Penalty_Neutral>
0.00215638

> <r_epik_State_Penalty>
-0

> <r_epik_Charging_Adjusted_Penalty>
0.00321624

> <i_epik_Tot_Q>
1

> <i_epik_Tot_abs_Q>
1

> <r_epik_Metal_State_Penalty>
-0

> <b_epik_Metal_Only>
0

> <s_lp_Force_Field>
OPLS_2005

> <r_lp_Energy>
15.7065

> <b_lp_Chiralities_Consistent>
1

> <s_lp_Variant>
AV-unprocessed.smi:3287-16

> <Gold.Version>
5.8.1

> <Gold.Id.Protein>
6NUR|6NUR_protein|mol2

> <Gold.PLP.Fitness>
56.9751

> <Gold.PLP.PLP>
-44.8516

> <Gold.PLP.part.hbond>
-5.0000

> <Gold.PLP.part.metal>
0.0000

> <Gold.PLP.part.buried>
-0.2372

> <Gold.PLP.part.nonpolar>
-39.8408

> <Gold.PLP.part.repulsive>
0.1842

> <Gold.PLP.ligand.clash>
0.0000

> <Gold.PLP.ligand.torsion>
1.0942

> <Gold.PLP.Chemscore.Hbond>
3.8411

> <Gold.PLP.Chemscore.CHOScore>
0.9209

> <Gold.PLP.Chemscore.Metal>
0.0000

> <Gold.Chemscore.Hbonds>
donor molecule, donor type, donor heavy atom, donor atom, acceptor molecule, acceptor atom, score
      L1  H     6    28       P1  8028  2.00
      L1  H     9    32       P1  8028  0.96
      P1  H  8011  8017       L1     9  0.10
      P1  H 10752 10765       L1    13  0.76
      L1  C    14    35       P1  7948  0.85
      L1  C    14    35       P1  7949  0.03

> <Gold.PLP.Chemscore.Internal.Correction>
0.0256

> <Gold.Rescore>
     Score         DG    S(hbond)    S(metal)    S(lipo)     H(rot)  DE(clash)    DE(int)     intcor
     21.91     -25.42       2.69        0.00     135.22       1.90       2.49       1.02       ----

> <Gold.Chemscore.Fitness>
21.9146

> <Gold.Chemscore.DG>
-25.4197

> <Gold.Chemscore.ZeroCoef>
-5.4800

> <Gold.Chemscore.Hbond>
2.6920

> <Gold.Chemscore.Metal>
0.0000

> <Gold.Chemscore.Lipo>
135.2239

> <Gold.Chemscore.Internal_Hbond>
0.0000

> <Gold.Chemscore.DEClash>
2.4852

> <Gold.Chemscore.DEInternal>
1.0199

> <Gold.Chemscore.Rot>
1.9035

> <Gold.Chemscore.Internal.Correction>
   9.000000E+99

> <Gold.Chemscore.Hbonds>
donor molecule, donor type, donor heavy atom, donor atom, acceptor molecule, acceptor atom, score
      L1  H     6    28       P1  8028  0.99
      L1  H     9    32       P1  8028  0.91
      P1  H  8011  8017       L1     9  0.05
      P1  H 10752 10765       L1    13  0.68

> <Gold.Chemscore.Hbond.Weighted>
-8.9914

> <Gold.Chemscore.Metal.Weighted>
-0.0000

> <Gold.Chemscore.Lipo.Weighted>
-15.8212

> <Gold.Chemscore.Internal_Hbond.Weighted>
0.0000

> <Gold.Chemscore.DEClash.Weighted>
2.4852

> <Gold.Chemscore.DEInternal.Weighted>
1.0199

> <Gold.Chemscore.Rot.Weighted>
4.8729

> <Gold.Chemscore.Internal.Correction.Weighted>
   9.000000E+99

> <Gold.Protein.RotatedTorsions>
[ 6907 6896 6895 6894 ] final  -13.49 input  -60.11 | X-H torsion
[ 7974 7965 7964 7962 ] final -122.62 input  175.53 | X-H torsion
[ 8008 7997 7996 7995 ] final  108.66 input   59.86 | X-H torsion
[ 10167 10162 10161 10158 ] final  -75.09 input  -65.29 | X-H torsion
[ 10718 10713 10712 10709 ] final   39.27 input   66.30 | X-H torsion
[ 10763 10752 10751 10750 ] final  158.59 input  -60.55 | X-H torsion
[ 11005 11000 10999 10996 ] final   34.39 input  -57.11 | X-H torsion

> <Gold.Protein.ActiveResidues>
 VAL166  LYS551  ARG553  GLY616  TRP617  ASP618  TYR619  PRO620  LYS621  CYS622 
 ASP623  PHE694  ASN695  SER759  ASP760  ASP761  ALA762  ILE779  LEU786  VAL792 
 PHE793  MET794  SER795  GLU796  ALA797  LYS798  CYS799  TRP800  GLU811  SER814 

> <Gold.Protein.RotatedAtoms>
  151.3541  135.0890  159.9412 H   0  0  0  0  0  0  0  0  0  0  0  0  # atno 6907 bound_to 6896
  152.5179  133.9323  159.7597 H   0  0  0  0  0  0  0  0  0  0  0  0  # atno 6908 bound_to 6896
  150.9705  133.6295  159.2768 H   0  0  0  0  0  0  0  0  0  0  0  0  # atno 6909 bound_to 6896
  145.0275  140.8040  143.4343 H   0  0  0  0  0  0  0  0  0  0  0  0  # atno 7974 bound_to 7965
  156.1920  140.3072  155.9351 H   0  0  0  0  0  0  0  0  0  0  0  0  # atno 8008 bound_to 7997
  155.3152  140.0453  157.3054 H   0  0  0  0  0  0  0  0  0  0  0  0  # atno 8009 bound_to 7997
  154.5464  140.2277  155.8566 H   0  0  0  0  0  0  0  0  0  0  0  0  # atno 8010 bound_to 7997
  140.4972  143.2368  151.7812 H   0  0  0  0  0  0  0  0  0  0  0  0  # atno 10167 bound_to 10162
  157.3686  130.7688  149.7101 H   0  0  0  0  0  0  0  0  0  0  0  0  # atno 10718 bound_to 10713
  154.2185  135.2783  155.2933 H   0  0  0  0  0  0  0  0  0  0  0  0  # atno 10763 bound_to 10752
  154.5721  135.5615  153.7108 H   0  0  0  0  0  0  0  0  0  0  0  0  # atno 10764 bound_to 10752
  153.0047  135.6324  154.2325 H   0  0  0  0  0  0  0  0  0  0  0  0  # atno 10765 bound_to 10752
  140.2534  134.3277  155.7882 H   0  0  0  0  0  0  0  0  0  0  0  0  # atno 11005 bound_to 11000
  145.1814  139.2350  143.5290 LP  0  0  0  0  0  0  0  0  0  0  0  0  # atno 17320 bound_to 7965
  146.3494  140.1588  142.8591 LP  0  0  0  0  0  0  0  0  0  0  0  0  # atno 17321 bound_to 7965
  139.4864  144.4571  151.9585 LP  0  0  0  0  0  0  0  0  0  0  0  0  # atno 17342 bound_to 10162
  140.3659  144.2915  150.5926 LP  0  0  0  0  0  0  0  0  0  0  0  0  # atno 17343 bound_to 10162
  155.9751  130.4094  150.3875 LP  0  0  0  0  0  0  0  0  0  0  0  0  # atno 17370 bound_to 10713
  157.1962  131.0427  151.2674 LP  0  0  0  0  0  0  0  0  0  0  0  0  # atno 17371 bound_to 10713
  141.2199  133.7366  156.9072 LP  0  0  0  0  0  0  0  0  0  0  0  0  # atno 17394 bound_to 11000
  140.1536  134.9213  157.2624 LP  0  0  0  0  0  0  0  0  0  0  0  0  # atno 17395 bound_to 11000

$$$$
