AV-unprocessed.smi:2829|AV-procd|sdf|10898|dock2
  -GOLD-   2272015343D 1   1.00000     0.00000
 Structure written by MMmdl.
 50 53  0  0  0  0  0  0  0  0  1 V2000
  151.9919  145.2192  160.4760 C   0  0  0  0  0  0  0  0  0  0  0  0
  151.9752  144.2308  159.2880 C   0  0  0  0  0  0  0  0  0  0  0  0
  150.5208  144.1410  158.7804 C   0  0  0  0  0  0  0  0  0  0  0  0
  152.8814  144.8164  158.1850 C   0  0  0  0  0  0  0  0  0  0  0  0
  152.4757  142.8296  159.6827 C   0  0  0  0  0  0  0  0  0  0  0  0
  153.0156  142.5308  160.9543 C   0  0  0  0  0  0  0  0  0  0  0  0
  153.4387  141.2124  161.1921 C   0  0  0  0  0  0  0  0  0  0  0  0
  153.3024  140.2660  160.1570 C   0  0  0  0  0  0  0  0  0  0  0  0
  153.7518  138.9567  160.4682 N   0  0  0  0  0  0  0  0  0  0  0  0
  154.6172  138.5781  161.4295 C   0  0  0  0  0  0  0  0  0  0  0  0
  155.1905  139.3454  162.2004 O   0  0  0  0  0  0  0  0  0  0  0  0
  154.8145  137.2498  161.4928 N   0  0  0  0  0  0  0  0  0  0  0  0
  155.6901  136.5229  162.4224 C   0  0  2  0  0  0  0  0  0  0  0  0
  155.3687  135.0272  162.5457 C   0  0  2  0  0  0  0  0  0  0  0  0
  154.7117  134.0107  161.6840 C   0  0  0  0  0  0  0  0  0  0  0  0
  153.9446  133.2731  162.8112 C   0  0  0  0  0  0  0  0  0  0  0  0
  154.1119  134.0855  164.0011 O   0  0  0  0  0  0  0  0  0  0  0  0
  154.2591  135.4066  163.5130 C   0  0  1  0  0  0  0  0  0  0  0  0
  155.2013  136.5562  163.9092 C   0  0  0  0  0  0  0  0  0  0  0  0
  156.1838  136.4196  165.0839 C   0  0  0  0  0  0  0  0  0  0  0  0
  155.9940  137.9161  165.3497 C   0  0  0  0  0  0  0  0  0  0  0  0
  154.6816  137.8444  164.5625 C   0  0  0  0  0  0  0  0  0  0  0  0
  152.7751  140.6225  158.9589 N   0  0  0  0  0  0  0  0  0  0  0  0
  152.3710  141.8747  158.7262 N   0  0  0  0  0  0  0  0  0  0  0  0
  151.6326  146.2042  160.1756 H   0  0  0  0  0  0  0  0  0  0  0  0
  152.9986  145.3556  160.8733 H   0  0  0  0  0  0  0  0  0  0  0  0
  151.3498  144.8813  161.2904 H   0  0  0  0  0  0  0  0  0  0  0  0
  149.8610  143.7251  159.5428 H   0  0  0  0  0  0  0  0  0  0  0  0
  150.4381  143.5096  157.8952 H   0  0  0  0  0  0  0  0  0  0  0  0
  150.1320  145.1235  158.5101 H   0  0  0  0  0  0  0  0  0  0  0  0
  152.5624  145.8192  157.8985 H   0  0  0  0  0  0  0  0  0  0  0  0
  152.8674  144.2056  157.2815 H   0  0  0  0  0  0  0  0  0  0  0  0
  153.9172  144.8840  158.5194 H   0  0  0  0  0  0  0  0  0  0  0  0
  153.1133  143.2673  161.7366 H   0  0  0  0  0  0  0  0  0  0  0  0
  153.8582  140.9379  162.1492 H   0  0  0  0  0  0  0  0  0  0  0  0
  153.3598  138.2164  159.9051 H   0  0  0  0  0  0  0  0  0  0  0  0
  154.3006  136.6826  160.8339 H   0  0  0  0  0  0  0  0  0  0  0  0
  156.7523  136.7468  162.3115 H   0  0  0  0  0  0  0  0  0  0  0  0
  156.2130  134.5553  163.0619 H   0  0  0  0  0  0  0  0  0  0  0  0
  154.0344  134.4586  160.9558 H   0  0  0  0  0  0  0  0  0  0  0  0
  155.4239  133.3676  161.1667 H   0  0  0  0  0  0  0  0  0  0  0  0
  152.8868  133.1787  162.5623 H   0  0  0  0  0  0  0  0  0  0  0  0
  154.3418  132.2737  162.9897 H   0  0  0  0  0  0  0  0  0  0  0  0
  153.3434  135.7582  163.0283 H   0  0  0  0  0  0  0  0  0  0  0  0
  155.7931  135.7951  165.8889 H   0  0  0  0  0  0  0  0  0  0  0  0
  157.1987  136.1333  164.8061 H   0  0  0  0  0  0  0  0  0  0  0  0
  155.8816  138.1823  166.4011 H   0  0  0  0  0  0  0  0  0  0  0  0
  156.7479  138.5299  164.8547 H   0  0  0  0  0  0  0  0  0  0  0  0
  154.5177  138.6795  163.8809 H   0  0  0  0  0  0  0  0  0  0  0  0
  153.8157  137.6709  165.2034 H   0  0  0  0  0  0  0  0  0  0  0  0
  1  2  1  0  0  0  0
  1 25  1  0  0  0  0
  1 26  1  0  0  0  0
  1 27  1  0  0  0  0
  2  3  1  0  0  0  0
  2  4  1  0  0  0  0
  2  5  1  0  0  0  0
  3 28  1  0  0  0  0
  3 29  1  0  0  0  0
  3 30  1  0  0  0  0
  4 31  1  0  0  0  0
  4 32  1  0  0  0  0
  4 33  1  0  0  0  0
  5 24  1  0  0  0  0
  5  6  2  0  0  0  0
  6  7  1  0  0  0  0
  6 34  1  0  0  0  0
  7  8  2  0  0  0  0
  7 35  1  0  0  0  0
  8  9  1  0  0  0  0
  8 23  1  0  0  0  0
  9 10  1  0  0  0  0
  9 36  1  0  0  0  0
 10 11  2  0  0  0  0
 10 12  1  0  0  0  0
 12 13  1  0  0  0  0
 12 37  1  0  0  0  0
 13 19  1  0  0  0  0
 13 14  1  0  0  0  0
 13 38  1  0  0  0  0
 14 18  1  0  0  0  0
 14 15  1  0  0  0  0
 14 39  1  0  0  0  0
 15 16  1  0  0  0  0
 15 40  1  0  0  0  0
 15 41  1  0  0  0  0
 16 17  1  0  0  0  0
 16 42  1  0  0  0  0
 16 43  1  0  0  0  0
 17 18  1  0  0  0  0
 18 19  1  0  0  0  0
 18 44  1  0  0  0  0
 19 22  1  0  0  0  0
 19 20  1  0  0  0  0
 20 21  1  0  0  0  0
 20 45  1  0  0  0  0
 20 46  1  0  0  0  0
 21 22  1  0  0  0  0
 21 47  1  0  0  0  0
 21 48  1  0  0  0  0
 22 49  1  0  0  0  0
 22 50  1  0  0  0  0
 23 24  2  0  0  0  0
M  END
> <s_m_source_file>
AV-unprocessed.smi

> <i_m_source_file_index>
2829

> <i_lp_mmshare_version>
43012

> <i_f3d_flags>
0

> <s_epik_input>
W0NIM11DKFtDSDNdKShbQ0gzXSljMVtjSF1bY0hdYyhubjEpW05IXUMoPU8pW05IXVtDQEBIXTJbQ0BIXShbQ0gyXVtDSDJdTzMpW0NAQEhdM0MyNFtDSDJdW0NIMl1bQ0gyXTQ=

> <s_epik_cmdline>
J2VwaWtfcHl0aG9uJywgJy1waCcsICc3LjAnLCAnLXRuJywgJzgnLCAnLW1hJywgJzIwMCcsICctbWV0YWxfYmluZGluZycsICctaW1hZScsICc8aW5maWxlLm1hZT4nLCAnLW9tYWUnLCAnPG91dGZpbGUubWFlPic=

> <r_lp_tautomer_probability>
1

> <r_epik_Ionization_Penalty>
0.011915

> <r_epik_Ionization_Penalty_Charging>
0

> <r_epik_Ionization_Penalty_Neutral>
0.011915

> <r_epik_State_Penalty>
0.00486223

> <r_epik_Charging_Adjusted_Penalty>
0.00486223

> <i_epik_Tot_Q>
0

> <i_epik_Tot_abs_Q>
0

> <r_epik_Metal_State_Penalty>
-0

> <b_epik_Metal_Only>
0

> <s_lp_Force_Field>
OPLS_2005

> <r_lp_Energy>
85.5181

> <b_lp_Chiralities_Consistent>
1

> <s_lp_Variant>
AV-unprocessed.smi:2829-1

> <Gold.Version>
5.8.1

> <Gold.Id.Protein>
6NUR|6NUR_protein|mol2

> <Gold.PLP.Fitness>
43.9224

> <Gold.PLP.PLP>
-44.3304

> <Gold.PLP.part.hbond>
0.0000

> <Gold.PLP.part.metal>
0.0000

> <Gold.PLP.part.buried>
-7.1265

> <Gold.PLP.part.nonpolar>
-37.1556

> <Gold.PLP.part.repulsive>
0.1133

> <Gold.PLP.ligand.clash>
0.0000

> <Gold.PLP.ligand.torsion>
0.3651

> <Gold.PLP.Chemscore.Hbond>
0.0000

> <Gold.PLP.Chemscore.CHOScore>
0.0000

> <Gold.PLP.Chemscore.Metal>
0.0000

> <Gold.PLP.Chemscore.Internal.Correction>
0.3222

> <Gold.Rescore>
     Score         DG    S(hbond)    S(metal)    S(lipo)     H(rot)  DE(clash)    DE(int)     intcor
     15.96     -17.74       0.00        0.00     130.20       1.16       0.08       1.71       ----

> <Gold.Chemscore.Fitness>
15.9551

> <Gold.Chemscore.DG>
-17.7419

> <Gold.Chemscore.ZeroCoef>
-5.4800

> <Gold.Chemscore.Hbond>
0.0007

> <Gold.Chemscore.Metal>
0.0000

> <Gold.Chemscore.Lipo>
130.2017

> <Gold.Chemscore.Internal_Hbond>
0.0000

> <Gold.Chemscore.DEClash>
0.0762

> <Gold.Chemscore.DEInternal>
1.7105

> <Gold.Chemscore.Rot>
1.1618

> <Gold.Chemscore.Internal.Correction>
   9.000000E+99

> <Gold.Chemscore.Hbond.Weighted>
-0.0024

> <Gold.Chemscore.Metal.Weighted>
-0.0000

> <Gold.Chemscore.Lipo.Weighted>
-15.2336

> <Gold.Chemscore.Internal_Hbond.Weighted>
0.0000

> <Gold.Chemscore.DEClash.Weighted>
0.0762

> <Gold.Chemscore.DEInternal.Weighted>
1.7105

> <Gold.Chemscore.Rot.Weighted>
2.9741

> <Gold.Chemscore.Internal.Correction.Weighted>
   9.000000E+99

> <Gold.Protein.RotatedTorsions>
[ 6907 6896 6895 6894 ] final  115.07 input  -60.11 | X-H torsion
[ 7974 7965 7964 7962 ] final    3.21 input  175.53 | X-H torsion
[ 8008 7997 7996 7995 ] final   33.43 input   59.86 | X-H torsion
[ 10167 10162 10161 10158 ] final  -51.40 input  -65.29 | X-H torsion
[ 10718 10713 10712 10709 ] final   79.80 input   66.30 | X-H torsion
[ 10763 10752 10751 10750 ] final  -17.46 input  -60.55 | X-H torsion
[ 11005 11000 10999 10996 ] final  155.80 input  -57.11 | X-H torsion

> <Gold.Protein.ActiveResidues>
 VAL166  LYS551  ARG553  GLY616  TRP617  ASP618  TYR619  PRO620  LYS621  CYS622 
 ASP623  PHE694  ASN695  SER759  ASP760  ASP761  ALA762  ILE779  LEU786  VAL792 
 PHE793  MET794  SER795  GLU796  ALA797  LYS798  CYS799  TRP800  GLU811  SER814 

> <Gold.Protein.RotatedAtoms>
  152.4764  133.8149  159.7022 H   0  0  0  0  0  0  0  0  0  0  0  0  # atno 6907 bound_to 6896
  150.8784  133.7397  159.2946 H   0  0  0  0  0  0  0  0  0  0  0  0  # atno 6908 bound_to 6896
  151.4909  135.1061  159.9855 H   0  0  0  0  0  0  0  0  0  0  0  0  # atno 6909 bound_to 6896
  146.2445  140.0719  142.8362 H   0  0  0  0  0  0  0  0  0  0  0  0  # atno 7974 bound_to 7965
  155.1384  140.3264  155.4458 H   0  0  0  0  0  0  0  0  0  0  0  0  # atno 8008 bound_to 7997
  156.2612  140.1998  156.6450 H   0  0  0  0  0  0  0  0  0  0  0  0  # atno 8009 bound_to 7997
  154.6560  140.0553  156.9996 H   0  0  0  0  0  0  0  0  0  0  0  0  # atno 8010 bound_to 7997
  140.6590  143.2621  151.4498 H   0  0  0  0  0  0  0  0  0  0  0  0  # atno 10167 bound_to 10162
  157.6788  130.9931  150.1986 H   0  0  0  0  0  0  0  0  0  0  0  0  # atno 10718 bound_to 10713
  153.5741  135.7007  153.5491 H   0  0  0  0  0  0  0  0  0  0  0  0  # atno 10763 bound_to 10752
  153.3318  135.4045  155.1501 H   0  0  0  0  0  0  0  0  0  0  0  0  # atno 10764 bound_to 10752
  154.8628  135.3720  154.5266 H   0  0  0  0  0  0  0  0  0  0  0  0  # atno 10765 bound_to 10752
  140.1615  134.8606  157.2580 H   0  0  0  0  0  0  0  0  0  0  0  0  # atno 11005 bound_to 11000
  145.0808  140.9220  143.4826 LP  0  0  0  0  0  0  0  0  0  0  0  0  # atno 17320 bound_to 7965
  145.0872  139.2916  143.5753 LP  0  0  0  0  0  0  0  0  0  0  0  0  # atno 17321 bound_to 7965
  139.5819  144.1690  152.1979 LP  0  0  0  0  0  0  0  0  0  0  0  0  # atno 17342 bound_to 10162
  140.1018  144.5533  150.6983 LP  0  0  0  0  0  0  0  0  0  0  0  0  # atno 17343 bound_to 10162
  156.2682  130.3718  149.8059 LP  0  0  0  0  0  0  0  0  0  0  0  0  # atno 17370 bound_to 10713
  156.5784  130.8455  151.3376 LP  0  0  0  0  0  0  0  0  0  0  0  0  # atno 17371 bound_to 10713
  140.2484  134.3712  155.7452 LP  0  0  0  0  0  0  0  0  0  0  0  0  # atno 17394 bound_to 11000
  141.2210  133.7303  156.8897 LP  0  0  0  0  0  0  0  0  0  0  0  0  # atno 17395 bound_to 11000

$$$$
