AV-unprocessed.smi:1970|AV-procd|sdf|7961|dock7
  -GOLD-   2272010133D 1   1.00000     0.00000
 Structure written by MMmdl.
 34 35  0  0  0  0  0  0  0  0  2 V2000
  149.9964  136.5204  156.3899 O   0  0  0  0  0  0  0  0  0  0  0  0
  150.0773  136.5524  155.1612 C   0  0  0  0  0  0  0  0  0  0  0  0
  151.0703  137.4934  154.4670 C   0  0  0  0  0  0  0  0  0  0  0  0
  150.8869  138.8958  154.8502 N   0  0  0  0  0  0  0  0  0  0  0  0
  149.6897  139.5944  154.3954 C   0  0  0  0  0  0  0  0  0  0  0  0
  149.6179  141.1598  155.3032 S   0  0  0  0  0  0  0  0  0  0  0  0
  151.3279  141.0303  155.8532 C   0  0  0  0  0  0  0  0  0  0  0  0
  151.7638  139.5995  155.5880 C   0  0  0  0  0  0  0  0  0  0  0  0
  152.8267  139.1614  156.0275 O   0  0  0  0  0  0  0  0  0  0  0  0
  149.3141  135.7979  154.3562 N   0  0  0  0  0  0  0  0  0  0  0  0
  148.3271  134.8276  154.8144 C   0  0  0  0  0  0  0  0  0  0  0  0
  148.5431  133.4532  154.1583 C   0  0  0  0  0  0  0  0  0  0  0  0
  147.5189  133.1630  153.0789 C   0  0  0  0  0  0  0  0  0  0  0  0
  146.8173  131.9391  153.0216 C   0  0  0  0  0  0  0  0  0  0  0  0
  145.8730  131.7336  151.9944 C   0  0  0  0  0  0  0  0  0  0  0  0
  145.6493  132.7553  151.0480 C   0  0  0  0  0  0  0  0  0  0  0  0
  146.3765  133.9585  151.1536 C   0  0  0  0  0  0  0  0  0  0  0  0
  147.2732  134.1173  152.1520 N   0  3  0  0  0  0  0  0  0  0  0  0
  152.0938  137.1863  154.6907 H   0  0  0  0  0  0  0  0  0  0  0  0
  150.9483  137.3875  153.3884 H   0  0  0  0  0  0  0  0  0  0  0  0
  149.7590  139.7897  153.3249 H   0  0  0  0  0  0  0  0  0  0  0  0
  148.7903  139.0076  154.5851 H   0  0  0  0  0  0  0  0  0  0  0  0
  151.9553  141.7180  155.2858 H   0  0  0  0  0  0  0  0  0  0  0  0
  151.4080  141.2758  156.9123 H   0  0  0  0  0  0  0  0  0  0  0  0
  149.4369  135.8929  153.3583 H   0  0  0  0  0  0  0  0  0  0  0  0
  148.3663  134.7426  155.9019 H   0  0  0  0  0  0  0  0  0  0  0  0
  147.3357  135.2090  154.5684 H   0  0  0  0  0  0  0  0  0  0  0  0
  149.5420  133.3989  153.7232 H   0  0  0  0  0  0  0  0  0  0  0  0
  148.4935  132.6633  154.9092 H   0  0  0  0  0  0  0  0  0  0  0  0
  146.9982  131.1669  153.7556 H   0  0  0  0  0  0  0  0  0  0  0  0
  145.3267  130.8036  151.9337 H   0  0  0  0  0  0  0  0  0  0  0  0
  144.9301  132.6176  150.2536 H   0  0  0  0  0  0  0  0  0  0  0  0
  146.2691  134.7921  150.4751 H   0  0  0  0  0  0  0  0  0  0  0  0
  147.7883  134.9961  152.2087 H   0  0  0  0  0  0  0  0  0  0  0  0
  1  2  2  0  0  0  0
  2  3  1  0  0  0  0
  2 10  1  0  0  0  0
  3  4  1  0  0  0  0
  3 19  1  0  0  0  0
  3 20  1  0  0  0  0
  4  8  1  0  0  0  0
  4  5  1  0  0  0  0
  5  6  1  0  0  0  0
  5 21  1  0  0  0  0
  5 22  1  0  0  0  0
  6  7  1  0  0  0  0
  7  8  1  0  0  0  0
  7 23  1  0  0  0  0
  7 24  1  0  0  0  0
  8  9  2  0  0  0  0
 10 11  1  0  0  0  0
 10 25  1  0  0  0  0
 11 12  1  0  0  0  0
 11 26  1  0  0  0  0
 11 27  1  0  0  0  0
 12 13  1  0  0  0  0
 12 28  1  0  0  0  0
 12 29  1  0  0  0  0
 13 18  1  0  0  0  0
 13 14  2  0  0  0  0
 14 15  1  0  0  0  0
 14 30  1  0  0  0  0
 15 16  2  0  0  0  0
 15 31  1  0  0  0  0
 16 17  1  0  0  0  0
 16 32  1  0  0  0  0
 17 18  2  0  0  0  0
 17 33  1  0  0  0  0
 18 34  1  0  0  0  0
M  CHG  1  18   1
M  END
> <s_m_source_file>
AV-unprocessed.smi

> <i_m_source_file_index>
1970

> <i_lp_mmshare_version>
43012

> <i_f3d_flags>
0

> <s_epik_input>
Tz1DMVtDSDJdU1tDSDJdTjFbQ0gyXUMoPU8pW05IXVtDSDJdW0NIMl1jMltjSF1bY0hdW2NIXVtjSF1uMg==

> <s_epik_cmdline>
J2VwaWtfcHl0aG9uJywgJy1waCcsICc3LjAnLCAnLXRuJywgJzgnLCAnLW1hJywgJzIwMCcsICctbWV0YWxfYmluZGluZycsICctaW1hZScsICc8aW5maWxlLm1hZT4nLCAnLW9tYWUnLCAnPG91dGZpbGUubWFlPic=

> <r_epik_Ionization_Penalty>
1.87519

> <r_epik_Ionization_Penalty_Charging>
1.87519

> <r_epik_Ionization_Penalty_Neutral>
8.746e-08

> <r_epik_State_Penalty>
1.99452

> <r_epik_Charging_Adjusted_Penalty>
3.86972

> <i_epik_Tot_Q>
1

> <i_epik_Tot_abs_Q>
1

> <r_epik_Metal_State_Penalty>
2.01927

> <b_epik_Metal_Only>
0

> <s_epik_Chemistry_Notes>
This compound contains an acetal/aminal-like group ( X-CH(R)-Y where X, Y are N, S, or O) that may be acid/base labile, releasing an aldehyde.

> <s_lp_Force_Field>
OPLS_2005

> <r_lp_Energy>
10.5607

> <b_lp_Chiralities_Consistent>
1

> <s_lp_Variant>
AV-unprocessed.smi:1970-2

> <Gold.Version>
5.8.1

> <Gold.Id.Protein>
6NUR|6NUR_protein|mol2

> <Gold.PLP.Fitness>
46.5117

> <Gold.PLP.PLP>
-35.6063

> <Gold.PLP.part.hbond>
-3.0000

> <Gold.PLP.part.metal>
0.0000

> <Gold.PLP.part.buried>
-3.2206

> <Gold.PLP.part.nonpolar>
-29.7077

> <Gold.PLP.part.repulsive>
0.0738

> <Gold.PLP.ligand.clash>
0.0000

> <Gold.PLP.ligand.torsion>
0.5700

> <Gold.PLP.Chemscore.Hbond>
4.0000

> <Gold.PLP.Chemscore.CHOScore>
0.0000

> <Gold.PLP.Chemscore.Metal>
0.0000

> <Gold.Chemscore.Hbonds>
donor molecule, donor type, donor heavy atom, donor atom, acceptor molecule, acceptor atom, score
      L1  H    10    25       P1  7948  1.00
      L1  H    18    34       P1  7948  2.00
      P1  H  7997  8008       L1     9  1.00

> <Gold.PLP.Chemscore.Internal.Correction>
0.0454

> <Gold.Rescore>
     Score         DG    S(hbond)    S(metal)    S(lipo)     H(rot)  DE(clash)    DE(int)     intcor
     16.42     -16.85       2.78        0.00      62.35       2.03       0.00       0.43       ----

> <Gold.Chemscore.Fitness>
16.4194

> <Gold.Chemscore.DG>
-16.8500

> <Gold.Chemscore.ZeroCoef>
-5.4800

> <Gold.Chemscore.Hbond>
2.7759

> <Gold.Chemscore.Metal>
0.0000

> <Gold.Chemscore.Lipo>
62.3523

> <Gold.Chemscore.Internal_Hbond>
0.0000

> <Gold.Chemscore.DEClash>
0.0000

> <Gold.Chemscore.DEInternal>
0.4306

> <Gold.Chemscore.Rot>
2.0300

> <Gold.Chemscore.Internal.Correction>
   9.000000E+99

> <Gold.Chemscore.Hbonds>
donor molecule, donor type, donor heavy atom, donor atom, acceptor molecule, acceptor atom, score
      L1  H    10    25       P1  7948  0.33
      L1  H    18    34       P1  7948  0.85
      P1  H  7997  8008       L1     9  0.99

> <Gold.Chemscore.Hbond.Weighted>
-9.2715

> <Gold.Chemscore.Metal.Weighted>
-0.0000

> <Gold.Chemscore.Lipo.Weighted>
-7.2952

> <Gold.Chemscore.Internal_Hbond.Weighted>
0.0000

> <Gold.Chemscore.DEClash.Weighted>
0.0000

> <Gold.Chemscore.DEInternal.Weighted>
0.4306

> <Gold.Chemscore.Rot.Weighted>
5.1967

> <Gold.Chemscore.Internal.Correction.Weighted>
   9.000000E+99

> <Gold.Protein.RotatedTorsions>
[ 6907 6896 6895 6894 ] final   52.70 input  -60.11 | X-H torsion
[ 7974 7965 7964 7962 ] final   68.40 input  175.53 | X-H torsion
[ 8008 7997 7996 7995 ] final  -26.97 input   59.86 | X-H torsion
[ 10167 10162 10161 10158 ] final   52.28 input  -65.29 | X-H torsion
[ 10718 10713 10712 10709 ] final  -70.55 input   66.30 | X-H torsion
[ 10763 10752 10751 10750 ] final  -48.76 input  -60.55 | X-H torsion
[ 11005 11000 10999 10996 ] final  119.47 input  -57.11 | X-H torsion

> <Gold.Protein.ActiveResidues>
 VAL166  LYS551  ARG553  GLY616  TRP617  ASP618  TYR619  PRO620  LYS621  CYS622 
 ASP623  PHE694  ASN695  SER759  ASP760  ASP761  ALA762  ILE779  LEU786  VAL792 
 PHE793  MET794  SER795  GLU796  ALA797  LYS798  CYS799  TRP800  GLU811  SER814 

> <Gold.Protein.RotatedAtoms>
  152.3261  134.7319  160.0301 H   0  0  0  0  0  0  0  0  0  0  0  0  # atno 6907 bound_to 6896
  151.7752  133.3339  159.3464 H   0  0  0  0  0  0  0  0  0  0  0  0  # atno 6908 bound_to 6896
  150.7396  134.5914  159.6033 H   0  0  0  0  0  0  0  0  0  0  0  0  # atno 6909 bound_to 6896
  145.8030  139.2992  143.1143 H   0  0  0  0  0  0  0  0  0  0  0  0  # atno 7974 bound_to 7965
  154.4399  140.1885  156.0859 H   0  0  0  0  0  0  0  0  0  0  0  0  # atno 8008 bound_to 7997
  156.0403  140.3320  155.7210 H   0  0  0  0  0  0  0  0  0  0  0  0  # atno 8009 bound_to 7997
  155.5709  140.0612  157.2797 H   0  0  0  0  0  0  0  0  0  0  0  0  # atno 8010 bound_to 7997
  140.2531  144.3457  150.6342 H   0  0  0  0  0  0  0  0  0  0  0  0  # atno 10167 bound_to 10162
  156.0403  130.4334  150.2312 H   0  0  0  0  0  0  0  0  0  0  0  0  # atno 10718 bound_to 10713
  154.0830  135.6588  153.4841 H   0  0  0  0  0  0  0  0  0  0  0  0  # atno 10763 bound_to 10752
  153.0349  135.5184  154.7455 H   0  0  0  0  0  0  0  0  0  0  0  0  # atno 10764 bound_to 10752
  154.6556  135.3007  154.9900 H   0  0  0  0  0  0  0  0  0  0  0  0  # atno 10765 bound_to 10752
  139.9148  134.9628  156.7660 H   0  0  0  0  0  0  0  0  0  0  0  0  # atno 11005 bound_to 11000
  145.9857  140.8645  143.0091 LP  0  0  0  0  0  0  0  0  0  0  0  0  # atno 17320 bound_to 7965
  144.6766  140.2144  143.7373 LP  0  0  0  0  0  0  0  0  0  0  0  0  # atno 17321 bound_to 7965
  140.6025  143.2167  151.7044 LP  0  0  0  0  0  0  0  0  0  0  0  0  # atno 17342 bound_to 10162
  139.5040  144.3770  152.0414 LP  0  0  0  0  0  0  0  0  0  0  0  0  # atno 17343 bound_to 10162
  157.0407  131.0034  151.3284 LP  0  0  0  0  0  0  0  0  0  0  0  0  # atno 17370 bound_to 10713
  157.5211  130.7998  149.7810 LP  0  0  0  0  0  0  0  0  0  0  0  0  # atno 17371 bound_to 10713
  140.6659  133.9603  155.7830 LP  0  0  0  0  0  0  0  0  0  0  0  0  # atno 17394 bound_to 11000
  141.0611  134.0344  157.3657 LP  0  0  0  0  0  0  0  0  0  0  0  0  # atno 17395 bound_to 11000

$$$$
