AV-unprocessed.smi:1336|AV-procd|sdf|5496|dock6
  -GOLD-   22720 5 73D 1   1.00000     0.00000
 Structure written by MMmdl.
 43 43  0  0  0  0  0  0  0  0  1 V2000
  148.9649  131.9827  153.3196 C   0  0  0  0  0  0  0  0  0  0  0  0
  149.0919  133.4756  153.6540 C   0  0  0  0  0  0  0  0  0  0  0  0
  150.0303  133.7630  154.8367 C   0  0  0  0  0  0  0  0  0  0  0  0
  150.0847  135.1909  155.1322 N   0  0  0  0  0  0  0  0  0  0  0  0
  150.5935  135.7418  156.2443 C   0  0  0  0  0  0  0  0  0  0  0  0
  151.0732  135.0841  157.1699 O   0  0  0  0  0  0  0  0  0  0  0  0
  150.5717  137.2785  156.3040 C   0  0  2  0  0  0  0  0  0  0  0  0
  151.1506  137.8111  154.9827 C   0  0  0  0  0  0  0  0  0  0  0  0
  151.4209  137.7540  157.3933 N   0  0  0  0  0  0  0  0  0  0  0  0
  151.2784  137.4301  158.6896 C   0  0  0  0  0  0  0  0  0  0  0  0
  150.3425  136.7554  159.1188 O   0  0  0  0  0  0  0  0  0  0  0  0
  152.3598  137.9373  159.6492 C   0  0  0  0  0  0  0  0  0  0  0  0
  152.4151  139.4402  159.6418 C   0  0  0  0  0  0  0  0  0  0  0  0
  153.2528  140.2357  160.3838 C   0  0  0  0  0  0  0  0  0  0  0  0
  152.9502  141.9299  160.1129 S   0  0  0  0  0  0  0  0  0  0  0  0
  151.6800  141.4920  158.9759 C   0  0  0  0  0  0  0  0  0  0  0  0
  150.8386  142.4978  158.2563 C   0  0  0  0  0  0  0  0  0  0  0  0
  150.6938  142.1610  156.7645 C   0  0  0  0  0  0  0  0  0  0  0  0
  151.3149  143.9358  158.5064 C   0  0  0  0  0  0  0  0  0  0  0  0
  151.5403  140.1714  158.8307 N   0  0  0  0  0  0  0  0  0  0  0  0
  148.2559  131.8280  152.5060 H   0  0  0  0  0  0  0  0  0  0  0  0
  148.6120  131.4155  154.1812 H   0  0  0  0  0  0  0  0  0  0  0  0
  149.9203  131.5596  153.0083 H   0  0  0  0  0  0  0  0  0  0  0  0
  149.4360  134.0166  152.7717 H   0  0  0  0  0  0  0  0  0  0  0  0
  148.1022  133.8713  153.8845 H   0  0  0  0  0  0  0  0  0  0  0  0
  149.6692  133.2465  155.7264 H   0  0  0  0  0  0  0  0  0  0  0  0
  151.0201  133.3562  154.6234 H   0  0  0  0  0  0  0  0  0  0  0  0
  149.7138  135.8122  154.4282 H   0  0  0  0  0  0  0  0  0  0  0  0
  149.5502  137.6418  156.4329 H   0  0  0  0  0  0  0  0  0  0  0  0
  150.5538  137.4860  154.1294 H   0  0  0  0  0  0  0  0  0  0  0  0
  152.1751  137.4722  154.8211 H   0  0  0  0  0  0  0  0  0  0  0  0
  151.1595  138.9016  154.9741 H   0  0  0  0  0  0  0  0  0  0  0  0
  152.2224  138.3097  157.1322 H   0  0  0  0  0  0  0  0  0  0  0  0
  152.1440  137.5612  160.6497 H   0  0  0  0  0  0  0  0  0  0  0  0
  153.3257  137.5200  159.3619 H   0  0  0  0  0  0  0  0  0  0  0  0
  154.0175  139.9294  161.0819 H   0  0  0  0  0  0  0  0  0  0  0  0
  149.8390  142.4254  158.6865 H   0  0  0  0  0  0  0  0  0  0  0  0
  150.2790  141.1620  156.6263 H   0  0  0  0  0  0  0  0  0  0  0  0
  151.6577  142.1928  156.2551 H   0  0  0  0  0  0  0  0  0  0  0  0
  150.0305  142.8671  156.2647 H   0  0  0  0  0  0  0  0  0  0  0  0
  151.3331  144.1628  159.5729 H   0  0  0  0  0  0  0  0  0  0  0  0
  150.6533  144.6574  158.0264 H   0  0  0  0  0  0  0  0  0  0  0  0
  152.3198  144.0944  158.1142 H   0  0  0  0  0  0  0  0  0  0  0  0
  1  2  1  0  0  0  0
  1 21  1  0  0  0  0
  1 22  1  0  0  0  0
  1 23  1  0  0  0  0
  2  3  1  0  0  0  0
  2 24  1  0  0  0  0
  2 25  1  0  0  0  0
  3  4  1  0  0  0  0
  3 26  1  0  0  0  0
  3 27  1  0  0  0  0
  4  5  1  0  0  0  0
  4 28  1  0  0  0  0
  5  6  2  0  0  0  0
  5  7  1  0  0  0  0
  7  8  1  0  0  0  0
  7  9  1  0  0  0  0
  7 29  1  0  0  0  0
  8 30  1  0  0  0  0
  8 31  1  0  0  0  0
  8 32  1  0  0  0  0
  9 10  1  0  0  0  0
  9 33  1  0  0  0  0
 10 11  2  0  0  0  0
 10 12  1  0  0  0  0
 12 13  1  0  0  0  0
 12 34  1  0  0  0  0
 12 35  1  0  0  0  0
 13 20  1  0  0  0  0
 13 14  2  0  0  0  0
 14 15  1  0  0  0  0
 14 36  1  0  0  0  0
 15 16  1  0  0  0  0
 16 17  1  0  0  0  0
 16 20  2  0  0  0  0
 17 18  1  0  0  0  0
 17 19  1  0  0  0  0
 17 37  1  0  0  0  0
 18 38  1  0  0  0  0
 18 39  1  0  0  0  0
 18 40  1  0  0  0  0
 19 41  1  0  0  0  0
 19 42  1  0  0  0  0
 19 43  1  0  0  0  0
M  END
> <s_m_source_file>
AV-unprocessed.smi

> <i_m_source_file_index>
1336

> <i_lp_mmshare_version>
43012

> <i_f3d_flags>
0

> <s_epik_input>
W0NIM11bQ0gyXVtDSDJdW05IXUMoPU8pW0NASF0oW0NIM10pW05IXUMoPU8pW0NIMl1jMVtjSF1zYyhuMSlbQ0hdKFtDSDNdKVtDSDNd

> <s_epik_cmdline>
J2VwaWtfcHl0aG9uJywgJy1waCcsICc3LjAnLCAnLXRuJywgJzgnLCAnLW1hJywgJzIwMCcsICctbWV0YWxfYmluZGluZycsICctaW1hZScsICc8aW5maWxlLm1hZT4nLCAnLW9tYWUnLCAnPG91dGZpbGUubWFlPic=

> <r_lp_tautomer_probability>
1

> <r_epik_Ionization_Penalty>
3.10785e-05

> <r_epik_Ionization_Penalty_Charging>
0

> <r_epik_Ionization_Penalty_Neutral>
3.10785e-05

> <r_epik_State_Penalty>
-0

> <r_epik_Charging_Adjusted_Penalty>
0

> <i_epik_Tot_Q>
0

> <i_epik_Tot_abs_Q>
0

> <r_epik_Metal_State_Penalty>
-0

> <b_epik_Metal_Only>
0

> <s_lp_Force_Field>
OPLS_2005

> <r_lp_Energy>
-3.8093

> <b_lp_Chiralities_Consistent>
1

> <s_lp_Variant>
AV-unprocessed.smi:1336-1

> <Gold.Version>
5.8.1

> <Gold.Id.Protein>
6NUR|6NUR_protein|mol2

> <Gold.PLP.Fitness>
40.1439

> <Gold.PLP.PLP>
-38.0890

> <Gold.PLP.part.hbond>
-2.0000

> <Gold.PLP.part.metal>
0.0000

> <Gold.PLP.part.buried>
-6.2022

> <Gold.PLP.part.nonpolar>
-29.9100

> <Gold.PLP.part.repulsive>
0.1337

> <Gold.PLP.ligand.clash>
0.0000

> <Gold.PLP.ligand.torsion>
0.5531

> <Gold.PLP.Chemscore.Hbond>
1.0000

> <Gold.PLP.Chemscore.CHOScore>
0.0000

> <Gold.PLP.Chemscore.Metal>
0.0000

> <Gold.Chemscore.Hbonds>
donor molecule, donor type, donor heavy atom, donor atom, acceptor molecule, acceptor atom, score
      P1  H  6896  6908       L1    11  1.00

> <Gold.PLP.Chemscore.Internal.Correction>
0.1612

> <Gold.Rescore>
     Score         DG    S(hbond)    S(metal)    S(lipo)     H(rot)  DE(clash)    DE(int)     intcor
     15.71     -17.51       1.78        0.00      96.55       2.04       0.07       1.73       ----

> <Gold.Chemscore.Fitness>
15.7093

> <Gold.Chemscore.DG>
-17.5062

> <Gold.Chemscore.ZeroCoef>
-5.4800

> <Gold.Chemscore.Hbond>
1.7787

> <Gold.Chemscore.Metal>
0.0000

> <Gold.Chemscore.Lipo>
96.5450

> <Gold.Chemscore.Internal_Hbond>
0.0000

> <Gold.Chemscore.DEClash>
0.0662

> <Gold.Chemscore.DEInternal>
1.7308

> <Gold.Chemscore.Rot>
2.0353

> <Gold.Chemscore.Internal.Correction>
   9.000000E+99

> <Gold.Chemscore.Hbonds>
donor molecule, donor type, donor heavy atom, donor atom, acceptor molecule, acceptor atom, score
      P1  H  6896  6908       L1    11  0.59

> <Gold.Chemscore.Hbond.Weighted>
-5.9408

> <Gold.Chemscore.Metal.Weighted>
-0.0000

> <Gold.Chemscore.Lipo.Weighted>
-11.2958

> <Gold.Chemscore.Internal_Hbond.Weighted>
0.0000

> <Gold.Chemscore.DEClash.Weighted>
0.0662

> <Gold.Chemscore.DEInternal.Weighted>
1.7308

> <Gold.Chemscore.Rot.Weighted>
5.2104

> <Gold.Chemscore.Internal.Correction.Weighted>
   9.000000E+99

> <Gold.Protein.RotatedTorsions>
[ 6907 6896 6895 6894 ] final -146.49 input  -60.11 | X-H torsion
[ 7974 7965 7964 7962 ] final    1.30 input  175.53 | X-H torsion
[ 8008 7997 7996 7995 ] final  105.30 input   59.86 | X-H torsion
[ 10167 10162 10161 10158 ] final  120.13 input  -65.29 | X-H torsion
[ 10718 10713 10712 10709 ] final -118.60 input   66.30 | X-H torsion
[ 10763 10752 10751 10750 ] final  -98.52 input  -60.55 | X-H torsion
[ 11005 11000 10999 10996 ] final  -23.65 input  -57.11 | X-H torsion

> <Gold.Protein.ActiveResidues>
 VAL166  LYS551  ARG553  GLY616  TRP617  ASP618  TYR619  PRO620  LYS621  CYS622 
 ASP623  PHE694  ASN695  SER759  ASP760  ASP761  ALA762  ILE779  LEU786  VAL792 
 PHE793  MET794  SER795  GLU796  ALA797  LYS798  CYS799  TRP800  GLU811  SER814 

> <Gold.Protein.RotatedAtoms>
  151.1424  133.4962  159.2596 H   0  0  0  0  0  0  0  0  0  0  0  0  # atno 6907 bound_to 6896
  151.1641  135.0287  159.8733 H   0  0  0  0  0  0  0  0  0  0  0  0  # atno 6908 bound_to 6896
  152.5462  134.1295  159.8486 H   0  0  0  0  0  0  0  0  0  0  0  0  # atno 6909 bound_to 6896
  146.2439  140.1008  142.8348 H   0  0  0  0  0  0  0  0  0  0  0  0  # atno 7974 bound_to 7965
  156.1647  140.3133  155.8868 H   0  0  0  0  0  0  0  0  0  0  0  0  # atno 8008 bound_to 7997
  155.3710  140.0482  157.3062 H   0  0  0  0  0  0  0  0  0  0  0  0  # atno 8009 bound_to 7997
  154.5181  140.2188  155.9038 H   0  0  0  0  0  0  0  0  0  0  0  0  # atno 8010 bound_to 7997
  139.6001  144.7054  151.3082 H   0  0  0  0  0  0  0  0  0  0  0  0  # atno 10167 bound_to 10162
  156.1118  130.6255  150.9311 H   0  0  0  0  0  0  0  0  0  0  0  0  # atno 10718 bound_to 10713
  154.7421  135.5006  153.9140 H   0  0  0  0  0  0  0  0  0  0  0  0  # atno 10763 bound_to 10752
  153.1054  135.6696  153.9605 H   0  0  0  0  0  0  0  0  0  0  0  0  # atno 10764 bound_to 10752
  153.9379  135.3071  155.3423 H   0  0  0  0  0  0  0  0  0  0  0  0  # atno 10765 bound_to 10752
  140.8772  133.7679  156.0257 H   0  0  0  0  0  0  0  0  0  0  0  0  # atno 11005 bound_to 11000
  145.0570  140.9060  143.4961 LP  0  0  0  0  0  0  0  0  0  0  0  0  # atno 17320 bound_to 7965
  145.1116  139.2753  143.5634 LP  0  0  0  0  0  0  0  0  0  0  0  0  # atno 17321 bound_to 7965
  140.7243  143.7048  150.7816 LP  0  0  0  0  0  0  0  0  0  0  0  0  # atno 17342 bound_to 10162
  140.0622  143.5143  152.2622 LP  0  0  0  0  0  0  0  0  0  0  0  0  # atno 17343 bound_to 10162
  157.6300  131.0922  150.8460 LP  0  0  0  0  0  0  0  0  0  0  0  0  # atno 17370 bound_to 10713
  156.8570  130.5100  149.5307 LP  0  0  0  0  0  0  0  0  0  0  0  0  # atno 17371 bound_to 10713
  140.8504  134.2960  157.5277 LP  0  0  0  0  0  0  0  0  0  0  0  0  # atno 17394 bound_to 11000
  139.8716  134.9465  156.3939 LP  0  0  0  0  0  0  0  0  0  0  0  0  # atno 17395 bound_to 11000

$$$$
