AV-unprocessed.smi:1868|AV-procd|sdf|7589|dock4
  -GOLD-   22720 9303D 1   1.00000     0.00000
 Structure written by MMmdl.
 48 50  0  0  0  0  0  0  0  0  3 V2000
  142.2402  136.1827  153.8028 C   0  0  0  0  0  0  0  0  0  0  0  0
  143.2547  135.3208  153.1295 C   0  0  0  0  0  0  0  0  0  0  0  0
  143.3723  133.9694  153.2623 N   0  3  0  0  0  0  0  0  0  0  0  0
  144.4376  133.5090  152.4869 C   0  0  0  0  0  0  0  0  0  0  0  0
  144.9436  132.2261  152.3025 C   0  0  0  0  0  0  0  0  0  0  0  0
  146.0512  132.1010  151.4383 C   0  0  0  0  0  0  0  0  0  0  0  0
  146.6124  133.2242  150.7960 C   0  0  0  0  0  0  0  0  0  0  0  0
  146.0907  134.5205  150.9907 C   0  0  0  0  0  0  0  0  0  0  0  0
  144.9957  134.6347  151.8467 C   0  0  0  0  0  0  0  0  0  0  0  0
  144.2323  135.7287  152.2693 N   0  0  0  0  0  0  0  0  0  0  0  0
  144.5684  137.0740  151.7773 C   0  0  0  0  0  0  0  0  0  0  0  0
  145.9994  137.5151  152.1454 C   0  0  1  0  0  0  0  0  0  0  0  0
  146.6463  138.0146  150.9911 O   0  0  0  0  0  0  0  0  0  0  0  0
  145.9904  138.6171  153.2236 C   0  0  0  0  0  0  0  0  0  0  0  0
  147.3560  139.0115  153.6567 N   0  3  2  0  0  0  0  0  0  0  0  0
  147.9755  138.0475  154.6050 C   0  0  0  0  0  0  0  0  0  0  0  0
  149.4305  138.4353  154.9184 C   0  0  0  0  0  0  0  0  0  0  0  0
  149.5194  139.8652  155.4775 C   0  0  1  0  0  0  0  0  0  0  0  0
  150.9697  140.2752  155.7687 C   0  0  0  0  0  0  0  0  0  0  0  0
  148.8403  140.8341  154.4954 C   0  0  0  0  0  0  0  0  0  0  0  0
  147.3979  140.3981  154.1883 C   0  0  0  0  0  0  0  0  0  0  0  0
  141.6140  135.5892  154.4693 H   0  0  0  0  0  0  0  0  0  0  0  0
  141.6003  136.6612  153.0614 H   0  0  0  0  0  0  0  0  0  0  0  0
  142.7335  136.9571  154.3909 H   0  0  0  0  0  0  0  0  0  0  0  0
  144.5168  131.3641  152.7942 H   0  0  0  0  0  0  0  0  0  0  0  0
  146.4794  131.1242  151.2653 H   0  0  0  0  0  0  0  0  0  0  0  0
  147.4615  133.0887  150.1417 H   0  0  0  0  0  0  0  0  0  0  0  0
  146.5293  135.3739  150.4954 H   0  0  0  0  0  0  0  0  0  0  0  0
  144.4401  137.0713  150.6941 H   0  0  0  0  0  0  0  0  0  0  0  0
  143.8317  137.7769  152.1688 H   0  0  0  0  0  0  0  0  0  0  0  0
  146.5550  136.6449  152.4920 H   0  0  0  0  0  0  0  0  0  0  0  0
  145.9975  138.4176  150.4338 H   0  0  0  0  0  0  0  0  0  0  0  0
  145.4669  139.4858  152.8203 H   0  0  0  0  0  0  0  0  0  0  0  0
  145.4167  138.2975  154.0948 H   0  0  0  0  0  0  0  0  0  0  0  0
  147.3913  138.0150  155.5260 H   0  0  0  0  0  0  0  0  0  0  0  0
  147.9621  137.0408  154.1895 H   0  0  0  0  0  0  0  0  0  0  0  0
  149.8517  137.7279  155.6337 H   0  0  0  0  0  0  0  0  0  0  0  0
  150.0323  138.3531  154.0118 H   0  0  0  0  0  0  0  0  0  0  0  0
  148.9712  139.8965  156.4204 H   0  0  0  0  0  0  0  0  0  0  0  0
  151.5754  140.2675  154.8621 H   0  0  0  0  0  0  0  0  0  0  0  0
  151.4338  139.5962  156.4846 H   0  0  0  0  0  0  0  0  0  0  0  0
  151.0158  141.2794  156.1912 H   0  0  0  0  0  0  0  0  0  0  0  0
  148.8373  141.8435  154.9083 H   0  0  0  0  0  0  0  0  0  0  0  0
  149.4117  140.8824  153.5671 H   0  0  0  0  0  0  0  0  0  0  0  0
  146.9670  141.0860  153.4597 H   0  0  0  0  0  0  0  0  0  0  0  0
  146.7841  140.4630  155.0884 H   0  0  0  0  0  0  0  0  0  0  0  0
  147.9254  139.0153  152.8220 H   0  0  0  0  0  0  0  0  0  0  0  0
  142.7673  133.4051  153.8454 H   0  0  0  0  0  0  0  0  0  0  0  0
  1  2  1  0  0  0  0
  1 22  1  0  0  0  0
  1 23  1  0  0  0  0
  1 24  1  0  0  0  0
  2 10  1  0  0  0  0
  2  3  2  0  0  0  0
  3  4  1  0  0  0  0
  3 48  1  0  0  0  0
  4  9  2  0  0  0  0
  4  5  1  0  0  0  0
  5  6  2  0  0  0  0
  5 25  1  0  0  0  0
  6  7  1  0  0  0  0
  6 26  1  0  0  0  0
  7  8  2  0  0  0  0
  7 27  1  0  0  0  0
  8  9  1  0  0  0  0
  8 28  1  0  0  0  0
  9 10  1  0  0  0  0
 10 11  1  0  0  0  0
 11 12  1  0  0  0  0
 11 29  1  0  0  0  0
 11 30  1  0  0  0  0
 12 13  1  0  0  0  0
 12 14  1  0  0  0  0
 12 31  1  0  0  0  0
 13 32  1  0  0  0  0
 14 15  1  0  0  0  0
 14 33  1  0  0  0  0
 14 34  1  0  0  0  0
 15 21  1  0  0  0  0
 15 16  1  0  0  0  0
 15 47  1  0  0  0  0
 16 17  1  0  0  0  0
 16 35  1  0  0  0  0
 16 36  1  0  0  0  0
 17 18  1  0  0  0  0
 17 37  1  0  0  0  0
 17 38  1  0  0  0  0
 18 19  1  0  0  0  0
 18 20  1  0  0  0  0
 18 39  1  0  0  0  0
 19 40  1  0  0  0  0
 19 41  1  0  0  0  0
 19 42  1  0  0  0  0
 20 21  1  0  0  0  0
 20 43  1  0  0  0  0
 20 44  1  0  0  0  0
 21 45  1  0  0  0  0
 21 46  1  0  0  0  0
M  CHG  1   3   1
M  CHG  1  15   1
M  END
> <s_m_source_file>
AV-unprocessed.smi

> <i_m_source_file_index>
1868

> <i_lp_mmshare_version>
43012

> <i_f3d_flags>
0

> <s_epik_input>
W2NIXTFbY0hdW2NIXVtjSF1jKGMxMiluKGMobjIpW0NIM10pW0NIMl1bQ0BIXShbT0hdKVtDSDJdTjNbQ0gyXVtDSDJdW0NIXShbQ0gzXSlbQ0gyXVtDSDJdMw==

> <s_epik_cmdline>
J2VwaWtfcHl0aG9uJywgJy1waCcsICc3LjAnLCAnLXRuJywgJzgnLCAnLW1hJywgJzIwMCcsICctbWV0YWxfYmluZGluZycsICctaW1hZScsICc8aW5maWxlLm1hZT4nLCAnLW9tYWUnLCAnPG91dGZpbGUubWFlPic=

> <r_epik_Ionization_Penalty>
1.10901

> <r_epik_Ionization_Penalty_Charging>
1.10901

> <r_epik_Ionization_Penalty_Neutral>
6.90208e-07

> <r_epik_State_Penalty>
1.18788

> <r_epik_Charging_Adjusted_Penalty>
2.29689

> <i_epik_Tot_Q>
2

> <i_epik_Tot_abs_Q>
2

> <r_epik_Metal_State_Penalty>
5.19353

> <b_epik_Metal_Only>
0

> <s_lp_Force_Field>
OPLS_2005

> <r_lp_Energy>
29.1884

> <b_lp_Chiralities_Consistent>
1

> <s_lp_Variant>
AV-unprocessed.smi:1868-6

> <Gold.Version>
5.8.1

> <Gold.Id.Protein>
6NUR|6NUR_protein|mol2

> <Gold.PLP.Fitness>
43.0061

> <Gold.PLP.PLP>
-32.7763

> <Gold.PLP.part.hbond>
-3.5629

> <Gold.PLP.part.metal>
0.0000

> <Gold.PLP.part.buried>
2.1031

> <Gold.PLP.part.nonpolar>
-30.5590

> <Gold.PLP.part.repulsive>
0.0099

> <Gold.PLP.ligand.clash>
0.0000

> <Gold.PLP.ligand.torsion>
0.9142

> <Gold.PLP.Chemscore.Hbond>
4.0000

> <Gold.PLP.Chemscore.CHOScore>
0.0000

> <Gold.PLP.Chemscore.Metal>
0.0000

> <Gold.Chemscore.Hbonds>
donor molecule, donor type, donor heavy atom, donor atom, acceptor molecule, acceptor atom, score
      L1  H     3    48       P1 10957  1.76
      L1  H    13    32       P1 10171  0.56
      P1  H  7954  7966       L1    13  1.00

> <Gold.PLP.Chemscore.Internal.Correction>
0.0582

> <Gold.Rescore>
     Score         DG    S(hbond)    S(metal)    S(lipo)     H(rot)  DE(clash)    DE(int)     intcor
     17.39     -20.29       2.78        0.00      90.60       1.99       2.12       0.78       ----

> <Gold.Chemscore.Fitness>
17.3890

> <Gold.Chemscore.DG>
-20.2862

> <Gold.Chemscore.ZeroCoef>
-5.4800

> <Gold.Chemscore.Hbond>
2.7818

> <Gold.Chemscore.Metal>
0.0000

> <Gold.Chemscore.Lipo>
90.5979

> <Gold.Chemscore.Internal_Hbond>
0.0000

> <Gold.Chemscore.DEClash>
2.1165

> <Gold.Chemscore.DEInternal>
0.7807

> <Gold.Chemscore.Rot>
1.9863

> <Gold.Chemscore.Internal.Correction>
   9.000000E+99

> <Gold.Chemscore.Hbonds>
donor molecule, donor type, donor heavy atom, donor atom, acceptor molecule, acceptor atom, score
      L1  H     3    48       P1 10957  0.86
      L1  H    13    32       P1 10171  0.53
      P1  H  7954  7966       L1    13  0.45

> <Gold.Chemscore.Hbond.Weighted>
-9.2913

> <Gold.Chemscore.Metal.Weighted>
-0.0000

> <Gold.Chemscore.Lipo.Weighted>
-10.6000

> <Gold.Chemscore.Internal_Hbond.Weighted>
0.0000

> <Gold.Chemscore.DEClash.Weighted>
2.1165

> <Gold.Chemscore.DEInternal.Weighted>
0.7807

> <Gold.Chemscore.Rot.Weighted>
5.0850

> <Gold.Chemscore.Internal.Correction.Weighted>
   9.000000E+99

> <Gold.Protein.RotatedTorsions>
[ 6907 6896 6895 6894 ] final -110.33 input  -60.11 | X-H torsion
[ 7974 7965 7964 7962 ] final  132.72 input  175.53 | X-H torsion
[ 8008 7997 7996 7995 ] final  -73.26 input   59.86 | X-H torsion
[ 10167 10162 10161 10158 ] final   -5.94 input  -65.29 | X-H torsion
[ 10718 10713 10712 10709 ] final  169.93 input   66.30 | X-H torsion
[ 10763 10752 10751 10750 ] final -114.55 input  -60.55 | X-H torsion
[ 11005 11000 10999 10996 ] final -153.63 input  -57.11 | X-H torsion

> <Gold.Protein.ActiveResidues>
 VAL166  LYS551  ARG553  GLY616  TRP617  ASP618  TYR619  PRO620  LYS621  CYS622 
 ASP623  PHE694  ASN695  SER759  ASP760  ASP761  ALA762  ILE779  LEU786  VAL792 
 PHE793  MET794  SER795  GLU796  ALA797  LYS798  CYS799  TRP800  GLU811  SER814 

> <Gold.Protein.RotatedAtoms>
  150.7618  133.9398  159.3452 H   0  0  0  0  0  0  0  0  0  0  0  0  # atno 6907 bound_to 6896
  151.7305  135.0874  160.0308 H   0  0  0  0  0  0  0  0  0  0  0  0  # atno 6908 bound_to 6896
  152.3593  133.6238  159.6038 H   0  0  0  0  0  0  0  0  0  0  0  0  # atno 6909 bound_to 6896
  144.9939  139.4379  143.5325 H   0  0  0  0  0  0  0  0  0  0  0  0  # atno 7974 bound_to 7965
  154.5233  140.0782  156.8212 H   0  0  0  0  0  0  0  0  0  0  0  0  # atno 8008 bound_to 7997
  155.3530  140.3413  155.4221 H   0  0  0  0  0  0  0  0  0  0  0  0  # atno 8009 bound_to 7997
  156.1704  140.1618  156.8444 H   0  0  0  0  0  0  0  0  0  0  0  0  # atno 8010 bound_to 7997
  140.6980  143.6251  150.8575 H   0  0  0  0  0  0  0  0  0  0  0  0  # atno 10167 bound_to 10162
  157.0155  131.0216  151.2790 H   0  0  0  0  0  0  0  0  0  0  0  0  # atno 10718 bound_to 10713
  154.8445  135.4413  154.1524 H   0  0  0  0  0  0  0  0  0  0  0  0  # atno 10763 bound_to 10752
  153.2681  135.6942  153.7514 H   0  0  0  0  0  0  0  0  0  0  0  0  # atno 10764 bound_to 10752
  153.6765  135.3410  155.3142 H   0  0  0  0  0  0  0  0  0  0  0  0  # atno 10765 bound_to 10752
  140.7060  134.3884  157.5204 H   0  0  0  0  0  0  0  0  0  0  0  0  # atno 11005 bound_to 11000
  146.3437  139.9287  142.8756 LP  0  0  0  0  0  0  0  0  0  0  0  0  # atno 17320 bound_to 7965
  145.2247  140.9949  143.4025 LP  0  0  0  0  0  0  0  0  0  0  0  0  # atno 17321 bound_to 7965
  139.9971  143.5784  152.2889 LP  0  0  0  0  0  0  0  0  0  0  0  0  # atno 17342 bound_to 10162
  139.6460  144.7658  151.2242 LP  0  0  0  0  0  0  0  0  0  0  0  0  # atno 17343 bound_to 10162
  157.5289  130.8045  149.7894 LP  0  0  0  0  0  0  0  0  0  0  0  0  # atno 17370 bound_to 10713
  156.0121  130.3829  150.2231 LP  0  0  0  0  0  0  0  0  0  0  0  0  # atno 17371 bound_to 10713
  139.8884  134.8857  156.2477 LP  0  0  0  0  0  0  0  0  0  0  0  0  # atno 17394 bound_to 11000
  141.0124  133.7088  156.1133 LP  0  0  0  0  0  0  0  0  0  0  0  0  # atno 17395 bound_to 11000

$$$$
