AV-unprocessed.smi:1873|AV-procd|sdf|7610|dock1
  -GOLD-   22720 9333D 1   1.00000     0.00000
 Structure written by MMmdl.
 37 39  0  0  0  0  0  0  0  0  2 V2000
  149.9759  139.6818  153.5612 O   0  0  0  0  0  0  0  0  0  0  0  0
  148.9584  140.1665  154.4168 C   0  0  1  0  0  0  0  0  0  0  0  0
  148.0154  139.0188  154.8294 C   0  0  0  0  0  0  0  0  0  0  0  0
  147.0846  138.6282  153.7609 N   0  0  0  0  0  0  0  0  0  0  0  0
  146.9263  139.1499  152.5143 C   0  0  0  0  0  0  0  0  0  0  0  0
  145.9345  138.4494  151.8976 N   0  3  0  0  0  0  0  0  0  0  0  0
  145.4519  137.4647  152.7619 C   0  0  0  0  0  0  0  0  0  0  0  0
  144.4534  136.5111  152.5887 C   0  0  0  0  0  0  0  0  0  0  0  0
  144.2081  135.6469  153.6760 C   0  0  0  0  0  0  0  0  0  0  0  0
  144.9428  135.7487  154.8752 C   0  0  0  0  0  0  0  0  0  0  0  0
  145.9525  136.7196  155.0398 C   0  0  0  0  0  0  0  0  0  0  0  0
  146.1875  137.5723  153.9614 C   0  0  0  0  0  0  0  0  0  0  0  0
  149.5207  140.8768  155.6380 C   0  0  0  0  0  0  0  0  0  0  0  0
  148.6499  141.5191  156.5425 C   0  0  0  0  0  0  0  0  0  0  0  0
  149.1624  142.1673  157.6827 C   0  0  0  0  0  0  0  0  0  0  0  0
  150.5489  142.1896  157.9343 C   0  0  0  0  0  0  0  0  0  0  0  0
  150.9849  142.8273  159.0737 O   0  0  0  0  0  0  0  0  0  0  0  0
  151.2469  144.1608  159.0331 C   0  0  0  0  0  0  0  0  0  0  0  0
  151.7734  144.5600  160.2159 F   0  0  0  0  0  0  0  0  0  0  0  0
  152.1577  144.4354  158.0669 F   0  0  0  0  0  0  0  0  0  0  0  0
  151.4205  141.5320  157.0332 C   0  0  0  0  0  0  0  0  0  0  0  0
  150.9088  140.8825  155.8934 C   0  0  0  0  0  0  0  0  0  0  0  0
  149.6394  139.6621  152.6781 H   0  0  0  0  0  0  0  0  0  0  0  0
  148.3879  140.8920  153.8352 H   0  0  0  0  0  0  0  0  0  0  0  0
  148.5760  138.1430  155.1571 H   0  0  0  0  0  0  0  0  0  0  0  0
  147.4096  139.3278  155.6823 H   0  0  0  0  0  0  0  0  0  0  0  0
  147.4861  139.9712  152.0905 H   0  0  0  0  0  0  0  0  0  0  0  0
  143.8910  136.4294  151.6702 H   0  0  0  0  0  0  0  0  0  0  0  0
  143.4430  134.8893  153.5878 H   0  0  0  0  0  0  0  0  0  0  0  0
  144.7294  135.0668  155.6856 H   0  0  0  0  0  0  0  0  0  0  0  0
  146.5133  136.7833  155.9605 H   0  0  0  0  0  0  0  0  0  0  0  0
  147.5839  141.5137  156.3686 H   0  0  0  0  0  0  0  0  0  0  0  0
  148.4852  142.6529  158.3699 H   0  0  0  0  0  0  0  0  0  0  0  0
  150.3429  144.7445  158.8576 H   0  0  0  0  0  0  0  0  0  0  0  0
  152.4859  141.5103  157.2082 H   0  0  0  0  0  0  0  0  0  0  0  0
  151.5881  140.3821  155.2187 H   0  0  0  0  0  0  0  0  0  0  0  0
  145.6130  138.6318  150.9556 H   0  0  0  0  0  0  0  0  0  0  0  0
  1  2  1  0  0  0  0
  1 23  1  0  0  0  0
  2  3  1  0  0  0  0
  2 13  1  0  0  0  0
  2 24  1  0  0  0  0
  3  4  1  0  0  0  0
  3 25  1  0  0  0  0
  3 26  1  0  0  0  0
  4 12  1  0  0  0  0
  4  5  1  0  0  0  0
  5  6  2  0  0  0  0
  5 27  1  0  0  0  0
  6  7  1  0  0  0  0
  6 37  1  0  0  0  0
  7 12  2  0  0  0  0
  7  8  1  0  0  0  0
  8  9  2  0  0  0  0
  8 28  1  0  0  0  0
  9 10  1  0  0  0  0
  9 29  1  0  0  0  0
 10 11  2  0  0  0  0
 10 30  1  0  0  0  0
 11 12  1  0  0  0  0
 11 31  1  0  0  0  0
 13 22  1  0  0  0  0
 13 14  2  0  0  0  0
 14 15  1  0  0  0  0
 14 32  1  0  0  0  0
 15 16  2  0  0  0  0
 15 33  1  0  0  0  0
 16 17  1  0  0  0  0
 16 21  1  0  0  0  0
 17 18  1  0  0  0  0
 18 19  1  0  0  0  0
 18 20  1  0  0  0  0
 18 34  1  0  0  0  0
 21 22  2  0  0  0  0
 21 35  1  0  0  0  0
 22 36  1  0  0  0  0
M  CHG  1   6   1
M  END
> <s_m_source_file>
AV-unprocessed.smi

> <i_m_source_file_index>
1873

> <i_lp_mmshare_version>
43012

> <i_f3d_flags>
0

> <s_epik_input>
RltDSF0oRilPYyhbY0hdW2NIXTEpW2NIXVtjSF1jMVtDQEhdKFtPSF0pW0NIMl1uKFtjSF1uMiljKGMyMylbY0hdW2NIXVtjSF1bY0hdMw==

> <s_epik_cmdline>
J2VwaWtfcHl0aG9uJywgJy1waCcsICc3LjAnLCAnLXRuJywgJzgnLCAnLW1hJywgJzIwMCcsICctbWV0YWxfYmluZGluZycsICctaW1hZScsICc8aW5maWxlLm1hZT4nLCAnLW9tYWUnLCAnPG91dGZpbGUubWFlPic=

> <r_lp_tautomer_probability>
1

> <r_epik_Ionization_Penalty>
1.3029

> <r_epik_Ionization_Penalty_Charging>
1.3029

> <r_epik_Ionization_Penalty_Neutral>
2.50501e-07

> <r_epik_State_Penalty>
1.377

> <r_epik_Charging_Adjusted_Penalty>
2.6799

> <i_epik_Tot_Q>
1

> <i_epik_Tot_abs_Q>
1

> <r_epik_Metal_State_Penalty>
5.40879

> <b_epik_Metal_Only>
0

> <s_lp_Force_Field>
OPLS_2005

> <r_lp_Energy>
16.5832

> <b_lp_Chiralities_Consistent>
1

> <s_lp_Variant>
AV-unprocessed.smi:1873-4

> <Gold.Version>
5.8.1

> <Gold.Id.Protein>
6NUR|6NUR_protein|mol2

> <Gold.PLP.Fitness>
48.2769

> <Gold.PLP.PLP>
-38.4840

> <Gold.PLP.part.hbond>
-3.6420

> <Gold.PLP.part.metal>
0.0000

> <Gold.PLP.part.buried>
-5.6397

> <Gold.PLP.part.nonpolar>
-29.5667

> <Gold.PLP.part.repulsive>
0.0804

> <Gold.PLP.ligand.clash>
0.0000

> <Gold.PLP.ligand.torsion>
0.5821

> <Gold.PLP.Chemscore.Hbond>
2.6320

> <Gold.PLP.Chemscore.CHOScore>
0.9931

> <Gold.PLP.Chemscore.Metal>
0.0000

> <Gold.Chemscore.Hbonds>
donor molecule, donor type, donor heavy atom, donor atom, acceptor molecule, acceptor atom, score
      L1  H     1    23       P1  7957  1.00
      L1  H     6    37       P1 10171  0.74
      P1  H  7989  7998       L1     1  0.77
      L1  C     5    27       P1  7957  1.00

> <Gold.PLP.Chemscore.Internal.Correction>
0.0817

> <Gold.Rescore>
     Score         DG    S(hbond)    S(metal)    S(lipo)     H(rot)  DE(clash)    DE(int)     intcor
     14.38     -15.03       2.36        0.00      68.10       2.47       0.07       0.58       ----

> <Gold.Chemscore.Fitness>
14.3794

> <Gold.Chemscore.DG>
-15.0284

> <Gold.Chemscore.ZeroCoef>
-5.4800

> <Gold.Chemscore.Hbond>
2.3639

> <Gold.Chemscore.Metal>
0.0000

> <Gold.Chemscore.Lipo>
68.1033

> <Gold.Chemscore.Internal_Hbond>
0.0000

> <Gold.Chemscore.DEClash>
0.0697

> <Gold.Chemscore.DEInternal>
0.5793

> <Gold.Chemscore.Rot>
2.4668

> <Gold.Chemscore.Internal.Correction>
   9.000000E+99

> <Gold.Chemscore.Hbonds>
donor molecule, donor type, donor heavy atom, donor atom, acceptor molecule, acceptor atom, score
      L1  H     1    23       P1  7957  0.94
      L1  H     6    37       P1 10171  0.72
      P1  H  7989  7998       L1     1  0.29

> <Gold.Chemscore.Hbond.Weighted>
-7.8954

> <Gold.Chemscore.Metal.Weighted>
-0.0000

> <Gold.Chemscore.Lipo.Weighted>
-7.9681

> <Gold.Chemscore.Internal_Hbond.Weighted>
0.0000

> <Gold.Chemscore.DEClash.Weighted>
0.0697

> <Gold.Chemscore.DEInternal.Weighted>
0.5793

> <Gold.Chemscore.Rot.Weighted>
6.3151

> <Gold.Chemscore.Internal.Correction.Weighted>
   9.000000E+99

> <Gold.Protein.RotatedTorsions>
[ 6907 6896 6895 6894 ] final -122.82 input  -60.11 | X-H torsion
[ 7974 7965 7964 7962 ] final  131.06 input  175.53 | X-H torsion
[ 8008 7997 7996 7995 ] final   28.61 input   59.86 | X-H torsion
[ 10167 10162 10161 10158 ] final   53.95 input  -65.29 | X-H torsion
[ 10718 10713 10712 10709 ] final -168.07 input   66.30 | X-H torsion
[ 10763 10752 10751 10750 ] final  127.19 input  -60.55 | X-H torsion
[ 11005 11000 10999 10996 ] final  171.53 input  -57.11 | X-H torsion

> <Gold.Protein.ActiveResidues>
 VAL166  LYS551  ARG553  GLY616  TRP617  ASP618  TYR619  PRO620  LYS621  CYS622 
 ASP623  PHE694  ASN695  SER759  ASP760  ASP761  ALA762  ILE779  LEU786  VAL792 
 PHE793  MET794  SER795  GLU796  ALA797  LYS798  CYS799  TRP800  GLU811  SER814 

> <Gold.Protein.RotatedAtoms>
  150.8612  133.7641  159.2991 H   0  0  0  0  0  0  0  0  0  0  0  0  # atno 6907 bound_to 6896
  151.5283  135.1066  159.9905 H   0  0  0  0  0  0  0  0  0  0  0  0  # atno 6908 bound_to 6896
  152.4627  133.7813  159.6908 H   0  0  0  0  0  0  0  0  0  0  0  0  # atno 6909 bound_to 6896
  145.0113  139.4218  143.5243 H   0  0  0  0  0  0  0  0  0  0  0  0  # atno 7974 bound_to 7965
  155.0614  140.3190  155.4659 H   0  0  0  0  0  0  0  0  0  0  0  0  # atno 8008 bound_to 7997
  156.2812  140.2128  156.5685 H   0  0  0  0  0  0  0  0  0  0  0  0  # atno 8009 bound_to 7997
  154.7129  140.0496  157.0555 H   0  0  0  0  0  0  0  0  0  0  0  0  # atno 8010 bound_to 7997
  140.2353  144.3643  150.6399 H   0  0  0  0  0  0  0  0  0  0  0  0  # atno 10167 bound_to 10162
  156.6915  130.9161  151.3069 H   0  0  0  0  0  0  0  0  0  0  0  0  # atno 10718 bound_to 10713
  153.7055  135.3276  155.3234 H   0  0  0  0  0  0  0  0  0  0  0  0  # atno 10763 bound_to 10752
  154.8400  135.4464  154.1368 H   0  0  0  0  0  0  0  0  0  0  0  0  # atno 10764 bound_to 10752
  153.2447  135.6975  153.7823 H   0  0  0  0  0  0  0  0  0  0  0  0  # atno 10765 bound_to 10752
  140.3200  134.7445  157.4057 H   0  0  0  0  0  0  0  0  0  0  0  0  # atno 11005 bound_to 11000
  146.3470  139.9559  142.8723 LP  0  0  0  0  0  0  0  0  0  0  0  0  # atno 17320 bound_to 7965
  145.2019  140.9858  143.4151 LP  0  0  0  0  0  0  0  0  0  0  0  0  # atno 17321 bound_to 7965
  140.6155  143.2172  151.6801 LP  0  0  0  0  0  0  0  0  0  0  0  0  # atno 17342 bound_to 10162
  139.5096  144.3572  152.0597 LP  0  0  0  0  0  0  0  0  0  0  0  0  # atno 17343 bound_to 10162
  157.7007  130.9330  150.0776 LP  0  0  0  0  0  0  0  0  0  0  0  0  # atno 17370 bound_to 10713
  156.1794  130.3649  149.9056 LP  0  0  0  0  0  0  0  0  0  0  0  0  # atno 17371 bound_to 10713
  140.0950  134.5549  155.8407 LP  0  0  0  0  0  0  0  0  0  0  0  0  # atno 17394 bound_to 11000
  141.2089  133.6678  156.6400 LP  0  0  0  0  0  0  0  0  0  0  0  0  # atno 17395 bound_to 11000

$$$$
