AV-unprocessed.smi:2911|AV-procd|sdf|11179|dock3
  -GOLD-   2272016 73D 1   1.00000     0.00000
 Structure written by MMmdl.
 41 42  0  0  0  0  0  0  0  0  1 V2000
  154.8980  143.7945  165.2879 C   0  0  0  0  0  0  0  0  0  0  0  0
  155.1379  142.3298  165.1504 C   0  0  0  0  0  0  0  0  0  0  0  0
  155.3195  141.5604  166.2167 N   0  0  0  0  0  0  0  0  0  0  0  0
  155.5192  140.2864  165.6657 O   0  0  0  0  0  0  0  0  0  0  0  0
  155.4165  140.4441  164.3240 C   0  0  0  0  0  0  0  0  0  0  0  0
  155.6312  139.2621  163.4394 C   0  0  0  0  0  0  0  0  0  0  0  0
  155.6708  139.6446  161.9513 C   0  0  0  0  0  0  0  0  0  0  0  0
  154.6116  140.5876  161.6107 N   0  0  0  0  0  0  0  0  0  0  0  0
  154.1220  140.7965  160.3764 C   0  0  0  0  0  0  0  0  0  0  0  0
  154.5685  140.2013  159.3943 O   0  0  0  0  0  0  0  0  0  0  0  0
  153.1497  141.7444  160.2976 N   0  0  0  0  0  0  0  0  0  0  0  0
  152.3991  142.2850  161.4528 C   0  0  0  0  0  0  0  0  0  0  0  0
  152.4214  143.8200  161.4531 C   0  0  0  0  0  0  0  0  0  0  0  0
  151.8418  144.3749  160.1438 C   0  0  1  0  0  0  0  0  0  0  0  0
  151.8721  145.9095  160.1150 C   0  0  0  0  0  0  0  0  0  0  0  0
  152.5937  143.7692  158.9471 C   0  0  0  0  0  0  0  0  0  0  0  0
  152.6619  142.2264  158.9864 C   0  0  2  0  0  0  0  0  0  0  0  0
  151.3513  141.5299  158.5770 C   0  0  0  0  0  0  0  0  0  0  0  0
  155.1977  141.7009  163.9446 N   0  0  0  0  0  0  0  0  0  0  0  0
  154.2336  143.9963  166.1288 H   0  0  0  0  0  0  0  0  0  0  0  0
  154.4380  144.1951  164.3841 H   0  0  0  0  0  0  0  0  0  0  0  0
  155.8409  144.3150  165.4563 H   0  0  0  0  0  0  0  0  0  0  0  0
  156.5624  138.7764  163.7330 H   0  0  0  0  0  0  0  0  0  0  0  0
  154.8322  138.5426  163.6218 H   0  0  0  0  0  0  0  0  0  0  0  0
  156.6263  140.1136  161.7148 H   0  0  0  0  0  0  0  0  0  0  0  0
  155.5985  138.7541  161.3241 H   0  0  0  0  0  0  0  0  0  0  0  0
  154.2193  141.1253  162.3699 H   0  0  0  0  0  0  0  0  0  0  0  0
  151.3692  141.9319  161.3985 H   0  0  0  0  0  0  0  0  0  0  0  0
  152.7598  141.9393  162.4210 H   0  0  0  0  0  0  0  0  0  0  0  0
  151.8491  144.1954  162.3021 H   0  0  0  0  0  0  0  0  0  0  0  0
  153.4455  144.1709  161.5888 H   0  0  0  0  0  0  0  0  0  0  0  0
  150.7973  144.0673  160.0796 H   0  0  0  0  0  0  0  0  0  0  0  0
  152.8928  146.2882  160.1793 H   0  0  0  0  0  0  0  0  0  0  0  0
  151.3082  146.3289  160.9487 H   0  0  0  0  0  0  0  0  0  0  0  0
  151.4321  146.2929  159.1941 H   0  0  0  0  0  0  0  0  0  0  0  0
  152.1392  144.0982  158.0118 H   0  0  0  0  0  0  0  0  0  0  0  0
  153.6123  144.1604  158.9385 H   0  0  0  0  0  0  0  0  0  0  0  0
  153.3831  141.9679  158.2091 H   0  0  0  0  0  0  0  0  0  0  0  0
  151.0534  141.8245  157.5705 H   0  0  0  0  0  0  0  0  0  0  0  0
  150.5276  141.7776  159.2457 H   0  0  0  0  0  0  0  0  0  0  0  0
  151.4671  140.4457  158.5791 H   0  0  0  0  0  0  0  0  0  0  0  0
  1  2  1  0  0  0  0
  1 20  1  0  0  0  0
  1 21  1  0  0  0  0
  1 22  1  0  0  0  0
  2 19  1  0  0  0  0
  2  3  2  0  0  0  0
  3  4  1  0  0  0  0
  4  5  1  0  0  0  0
  5  6  1  0  0  0  0
  5 19  2  0  0  0  0
  6  7  1  0  0  0  0
  6 23  1  0  0  0  0
  6 24  1  0  0  0  0
  7  8  1  0  0  0  0
  7 25  1  0  0  0  0
  7 26  1  0  0  0  0
  8  9  1  0  0  0  0
  8 27  1  0  0  0  0
  9 10  2  0  0  0  0
  9 11  1  0  0  0  0
 11 17  1  0  0  0  0
 11 12  1  0  0  0  0
 12 13  1  0  0  0  0
 12 28  1  0  0  0  0
 12 29  1  0  0  0  0
 13 14  1  0  0  0  0
 13 30  1  0  0  0  0
 13 31  1  0  0  0  0
 14 15  1  0  0  0  0
 14 16  1  0  0  0  0
 14 32  1  0  0  0  0
 15 33  1  0  0  0  0
 15 34  1  0  0  0  0
 15 35  1  0  0  0  0
 16 17  1  0  0  0  0
 16 36  1  0  0  0  0
 16 37  1  0  0  0  0
 17 18  1  0  0  0  0
 17 38  1  0  0  0  0
 18 39  1  0  0  0  0
 18 40  1  0  0  0  0
 18 41  1  0  0  0  0
M  END
> <s_m_source_file>
AV-unprocessed.smi

> <i_m_source_file_index>
2911

> <i_lp_mmshare_version>
43012

> <i_f3d_flags>
0

> <s_epik_input>
W0NIM11jMW5vYyhuMSlbQ0gyXVtDSDJdW05IXUMoPU8pTjJbQ0gyXVtDSDJdW0NAQEhdKFtDSDNdKVtDSDJdW0NASF0yW0NIM10=

> <s_epik_cmdline>
J2VwaWtfcHl0aG9uJywgJy1waCcsICc3LjAnLCAnLXRuJywgJzgnLCAnLW1hJywgJzIwMCcsICctbWV0YWxfYmluZGluZycsICctaW1hZScsICc8aW5maWxlLm1hZT4nLCAnLW9tYWUnLCAnPG91dGZpbGUubWFlPic=

> <r_lp_tautomer_probability>
1

> <r_epik_Ionization_Penalty>
6.61671e-05

> <r_epik_Ionization_Penalty_Charging>
0

> <r_epik_Ionization_Penalty_Neutral>
6.61671e-05

> <r_epik_State_Penalty>
-0

> <r_epik_Charging_Adjusted_Penalty>
0

> <i_epik_Tot_Q>
0

> <i_epik_Tot_abs_Q>
0

> <r_epik_Metal_State_Penalty>
-0

> <b_epik_Metal_Only>
0

> <s_lp_Force_Field>
OPLS_2005

> <r_lp_Energy>
30.51

> <b_lp_Chiralities_Consistent>
1

> <s_lp_Variant>
AV-unprocessed.smi:2911-3

> <Gold.Version>
5.8.1

> <Gold.Id.Protein>
6NUR|6NUR_protein|mol2

> <Gold.PLP.Fitness>
48.7518

> <Gold.PLP.PLP>
-47.2508

> <Gold.PLP.part.hbond>
-2.9881

> <Gold.PLP.part.metal>
0.0000

> <Gold.PLP.part.buried>
-4.2828

> <Gold.PLP.part.nonpolar>
-38.9258

> <Gold.PLP.part.repulsive>
0.0122

> <Gold.PLP.ligand.clash>
0.0000

> <Gold.PLP.ligand.torsion>
0.3154

> <Gold.PLP.Chemscore.Hbond>
0.7020

> <Gold.PLP.Chemscore.CHOScore>
0.0000

> <Gold.PLP.Chemscore.Metal>
0.0000

> <Gold.Chemscore.Hbonds>
donor molecule, donor type, donor heavy atom, donor atom, acceptor molecule, acceptor atom, score
      P1  H  7997  8010       L1    10  0.69

> <Gold.PLP.Chemscore.Internal.Correction>
0.0258

> <Gold.Rescore>
     Score         DG    S(hbond)    S(metal)    S(lipo)     H(rot)  DE(clash)    DE(int)     intcor
     12.49     -15.98       0.88        0.00      99.85       1.61       1.63       1.86       ----

> <Gold.Chemscore.Fitness>
12.4876

> <Gold.Chemscore.DG>
-15.9790

> <Gold.Chemscore.ZeroCoef>
-5.4800

> <Gold.Chemscore.Hbond>
0.8788

> <Gold.Chemscore.Metal>
0.0000

> <Gold.Chemscore.Lipo>
99.8507

> <Gold.Chemscore.Internal_Hbond>
0.0000

> <Gold.Chemscore.DEClash>
1.6307

> <Gold.Chemscore.DEInternal>
1.8606

> <Gold.Chemscore.Rot>
1.6088

> <Gold.Chemscore.Internal.Correction>
   9.000000E+99

> <Gold.Chemscore.Hbonds>
donor molecule, donor type, donor heavy atom, donor atom, acceptor molecule, acceptor atom, score
      P1  H  7997  8010       L1    10  0.67

> <Gold.Chemscore.Hbond.Weighted>
-2.9351

> <Gold.Chemscore.Metal.Weighted>
-0.0000

> <Gold.Chemscore.Lipo.Weighted>
-11.6825

> <Gold.Chemscore.Internal_Hbond.Weighted>
0.0000

> <Gold.Chemscore.DEClash.Weighted>
1.6307

> <Gold.Chemscore.DEInternal.Weighted>
1.8606

> <Gold.Chemscore.Rot.Weighted>
4.1186

> <Gold.Chemscore.Internal.Correction.Weighted>
   9.000000E+99

> <Gold.Protein.RotatedTorsions>
[ 6907 6896 6895 6894 ] final -101.95 input  -60.11 | X-H torsion
[ 7974 7965 7964 7962 ] final -172.18 input  175.53 | X-H torsion
[ 8008 7997 7996 7995 ] final   -3.63 input   59.86 | X-H torsion
[ 10167 10162 10161 10158 ] final  -81.06 input  -65.29 | X-H torsion
[ 10718 10713 10712 10709 ] final  -31.43 input   66.30 | X-H torsion
[ 10763 10752 10751 10750 ] final -108.80 input  -60.55 | X-H torsion
[ 11005 11000 10999 10996 ] final -155.96 input  -57.11 | X-H torsion

> <Gold.Protein.ActiveResidues>
 VAL166  LYS551  ARG553  GLY616  TRP617  ASP618  TYR619  PRO620  LYS621  CYS622 
 ASP623  PHE694  ASN695  SER759  ASP760  ASP761  ALA762  ILE779  LEU786  VAL792 
 PHE793  MET794  SER795  GLU796  ALA797  LYS798  CYS799  TRP800  GLU811  SER814 

> <Gold.Protein.RotatedAtoms>
  150.7176  134.0655  159.3845 H   0  0  0  0  0  0  0  0  0  0  0  0  # atno 6907 bound_to 6896
  151.8636  135.0513  160.0481 H   0  0  0  0  0  0  0  0  0  0  0  0  # atno 6908 bound_to 6896
  152.2698  133.5336  159.5469 H   0  0  0  0  0  0  0  0  0  0  0  0  # atno 6909 bound_to 6896
  144.7149  140.1811  143.6358 H   0  0  0  0  0  0  0  0  0  0  0  0  # atno 7974 bound_to 7965
  154.6229  140.2504  155.7528 H   0  0  0  0  0  0  0  0  0  0  0  0  # atno 8008 bound_to 7997
  156.2437  140.2923  156.0464 H   0  0  0  0  0  0  0  0  0  0  0  0  # atno 8009 bound_to 7997
  155.1868  140.0390  157.2883 H   0  0  0  0  0  0  0  0  0  0  0  0  # atno 8010 bound_to 7997
  140.4446  143.2503  151.8576 H   0  0  0  0  0  0  0  0  0  0  0  0  # atno 10167 bound_to 10162
  156.3874  130.4367  149.7421 H   0  0  0  0  0  0  0  0  0  0  0  0  # atno 10718 bound_to 10713
  154.8157  135.4624  154.0636 H   0  0  0  0  0  0  0  0  0  0  0  0  # atno 10763 bound_to 10752
  153.2031  135.6871  153.8213 H   0  0  0  0  0  0  0  0  0  0  0  0  # atno 10764 bound_to 10752
  153.7691  135.3273  155.3326 H   0  0  0  0  0  0  0  0  0  0  0  0  # atno 10765 bound_to 10752
  140.6807  134.4147  157.5226 H   0  0  0  0  0  0  0  0  0  0  0  0  # atno 11005 bound_to 11000
  145.8856  139.2347  143.1580 LP  0  0  0  0  0  0  0  0  0  0  0  0  # atno 17320 bound_to 7965
  145.9953  140.8567  143.0046 LP  0  0  0  0  0  0  0  0  0  0  0  0  # atno 17321 bound_to 7965
  139.4792  144.5190  151.8828 LP  0  0  0  0  0  0  0  0  0  0  0  0  # atno 17342 bound_to 10162
  140.4278  144.2156  150.5887 LP  0  0  0  0  0  0  0  0  0  0  0  0  # atno 17343 bound_to 10162
  156.4488  130.7896  151.2918 LP  0  0  0  0  0  0  0  0  0  0  0  0  # atno 17370 bound_to 10713
  157.7497  131.0102  150.3296 LP  0  0  0  0  0  0  0  0  0  0  0  0  # atno 17371 bound_to 10713
  139.8952  134.8687  156.2140 LP  0  0  0  0  0  0  0  0  0  0  0  0  # atno 17394 bound_to 11000
  141.0319  133.6984  156.1446 LP  0  0  0  0  0  0  0  0  0  0  0  0  # atno 17395 bound_to 11000

$$$$
