AV-unprocessed.smi:663|AV-procd|sdf|3248|dock3
  -GOLD-   22720 0193D 1   1.00000     0.00000
 Structure written by MMmdl.
 30 31  0  0  0  0  0  0  0  0  1 V2000
  149.7373  138.2505  153.7526 N   0  0  0  0  0  0  0  0  0  0  0  0
  149.7669  139.4937  154.2387 C   0  0  0  0  0  0  0  0  0  0  0  0
  150.7085  139.9090  154.9117 O   0  0  0  0  0  0  0  0  0  0  0  0
  148.5601  140.3893  153.9247 C   0  0  0  0  0  0  0  0  0  0  0  0
  147.8584  140.9858  155.1675 C   0  0  1  0  0  0  0  0  0  0  0  0
  148.7326  141.9633  155.8162 N   0  0  0  0  0  0  0  0  0  0  0  0
  149.4341  141.7547  156.9396 C   0  0  0  0  0  0  0  0  0  0  0  0
  149.4108  140.6981  157.5702 O   0  0  0  0  0  0  0  0  0  0  0  0
  150.1507  142.8409  157.2709 N   0  0  0  0  0  0  0  0  0  0  0  0
  151.0151  143.0095  158.3813 C   0  0  0  0  0  0  0  0  0  0  0  0
  150.8586  142.1916  159.4290 N   0  0  0  0  0  0  0  0  0  0  0  0
  151.7680  142.4653  160.4436 N   0  0  0  0  0  0  0  0  0  0  0  0
  152.5755  143.4804  160.1208 C   0  0  0  0  0  0  0  0  0  0  0  0
  152.3068  144.2029  158.5444 S   0  0  0  0  0  0  0  0  0  0  0  0
  146.5059  141.5653  154.7873 C   0  0  0  0  0  0  0  0  0  0  0  0
  146.3924  142.8378  153.9811 C   0  0  0  0  0  0  0  0  0  0  0  0
  145.9907  142.8272  155.4380 C   0  0  0  0  0  0  0  0  0  0  0  0
  150.5074  137.6239  153.9368 H   0  0  0  0  0  0  0  0  0  0  0  0
  148.9470  137.9388  153.2072 H   0  0  0  0  0  0  0  0  0  0  0  0
  148.8745  141.1970  153.2616 H   0  0  0  0  0  0  0  0  0  0  0  0
  147.8490  139.7882  153.3569 H   0  0  0  0  0  0  0  0  0  0  0  0
  147.6754  140.1671  155.8670 H   0  0  0  0  0  0  0  0  0  0  0  0
  148.8151  142.8638  155.3673 H   0  0  0  0  0  0  0  0  0  0  0  0
  150.0718  143.6390  156.6580 H   0  0  0  0  0  0  0  0  0  0  0  0
  153.3350  143.8057  160.8161 H   0  0  0  0  0  0  0  0  0  0  0  0
  145.7524  140.8067  154.5831 H   0  0  0  0  0  0  0  0  0  0  0  0
  147.3108  143.3597  153.7197 H   0  0  0  0  0  0  0  0  0  0  0  0
  145.5982  142.8920  153.2392 H   0  0  0  0  0  0  0  0  0  0  0  0
  144.9284  142.8752  155.6683 H   0  0  0  0  0  0  0  0  0  0  0  0
  146.6444  143.3398  156.1411 H   0  0  0  0  0  0  0  0  0  0  0  0
  1  2  1  0  0  0  0
  1 18  1  0  0  0  0
  1 19  1  0  0  0  0
  2  3  2  0  0  0  0
  2  4  1  0  0  0  0
  4  5  1  0  0  0  0
  4 20  1  0  0  0  0
  4 21  1  0  0  0  0
  5  6  1  0  0  0  0
  5 15  1  0  0  0  0
  5 22  1  0  0  0  0
  6  7  1  0  0  0  0
  6 23  1  0  0  0  0
  7  8  2  0  0  0  0
  7  9  1  0  0  0  0
  9 10  1  0  0  0  0
  9 24  1  0  0  0  0
 10 14  1  0  0  0  0
 10 11  2  0  0  0  0
 11 12  1  0  0  0  0
 12 13  2  0  0  0  0
 13 14  1  0  0  0  0
 13 25  1  0  0  0  0
 15 17  1  0  0  0  0
 15 16  1  0  0  0  0
 15 26  1  0  0  0  0
 16 17  1  0  0  0  0
 16 27  1  0  0  0  0
 16 28  1  0  0  0  0
 17 29  1  0  0  0  0
 17 30  1  0  0  0  0
M  END
> <s_m_source_file>
AV-unprocessed.smi

> <i_m_source_file_index>
663

> <i_lp_mmshare_version>
43012

> <i_f3d_flags>
0

> <s_epik_input>
W05IMl1DKD1PKVtDSDJdW0NAQEhdKFtDSF0xW0NIMl1bQ0gyXTEpW05IXUMoPU8pW05IXWMybm5bY0hdczI=

> <s_epik_cmdline>
J2VwaWtfcHl0aG9uJywgJy1waCcsICc3LjAnLCAnLXRuJywgJzgnLCAnLW1hJywgJzIwMCcsICctbWV0YWxfYmluZGluZycsICctaW1hZScsICc8aW5maWxlLm1hZT4nLCAnLW9tYWUnLCAnPG91dGZpbGUubWFlPic=

> <r_lp_tautomer_probability>
1

> <r_epik_Ionization_Penalty>
0.000388224

> <r_epik_Ionization_Penalty_Charging>
0

> <r_epik_Ionization_Penalty_Neutral>
0.000388224

> <r_epik_State_Penalty>
-0

> <r_epik_Charging_Adjusted_Penalty>
0

> <i_epik_Tot_Q>
0

> <i_epik_Tot_abs_Q>
0

> <r_epik_Metal_State_Penalty>
0.191941

> <b_epik_Metal_Only>
0

> <s_lp_Force_Field>
OPLS_2005

> <r_lp_Energy>
6.566

> <b_lp_Chiralities_Consistent>
1

> <s_lp_Variant>
AV-unprocessed.smi:663-2

> <Gold.Version>
5.8.1

> <Gold.Id.Protein>
6NUR|6NUR_protein|mol2

> <Gold.PLP.Fitness>
42.4182

> <Gold.PLP.PLP>
-33.6131

> <Gold.PLP.part.hbond>
-6.0532

> <Gold.PLP.part.metal>
0.0000

> <Gold.PLP.part.buried>
-2.0653

> <Gold.PLP.part.nonpolar>
-25.4306

> <Gold.PLP.part.repulsive>
0.2953

> <Gold.PLP.ligand.clash>
0.0000

> <Gold.PLP.ligand.torsion>
0.9429

> <Gold.PLP.Chemscore.Hbond>
3.1971

> <Gold.PLP.Chemscore.CHOScore>
0.0000

> <Gold.PLP.Chemscore.Metal>
0.0000

> <Gold.Chemscore.Hbonds>
donor molecule, donor type, donor heavy atom, donor atom, acceptor molecule, acceptor atom, score
      L1  H     1    19       P1  7948  0.34
      L1  H     6    23       P1  8028  0.91
      L1  H     9    24       P1  8028  0.91
      P1  H  7989  7998       L1     3  0.90

> <Gold.PLP.Chemscore.Internal.Correction>
1.0994

> <Gold.Rescore>
     Score         DG    S(hbond)    S(metal)    S(lipo)     H(rot)  DE(clash)    DE(int)     intcor
     12.49     -14.89       3.01        0.00      49.68       2.52       0.14       2.27       ----

> <Gold.Chemscore.Fitness>
12.4897

> <Gold.Chemscore.DG>
-14.8927

> <Gold.Chemscore.ZeroCoef>
-5.4800

> <Gold.Chemscore.Hbond>
3.0109

> <Gold.Chemscore.Metal>
0.0000

> <Gold.Chemscore.Lipo>
49.6775

> <Gold.Chemscore.Internal_Hbond>
0.0000

> <Gold.Chemscore.DEClash>
0.1370

> <Gold.Chemscore.DEInternal>
2.2661

> <Gold.Chemscore.Rot>
2.5218

> <Gold.Chemscore.Internal.Correction>
   9.000000E+99

> <Gold.Chemscore.Hbonds>
donor molecule, donor type, donor heavy atom, donor atom, acceptor molecule, acceptor atom, score
      L1  H     1    19       P1  7948  0.34
      L1  H     6    23       P1  8028  0.88
      L1  H     9    24       P1  8028  0.89
      P1  H  7989  7998       L1     3  0.18

> <Gold.Chemscore.Hbond.Weighted>
-10.0563

> <Gold.Chemscore.Metal.Weighted>
-0.0000

> <Gold.Chemscore.Lipo.Weighted>
-5.8123

> <Gold.Chemscore.Internal_Hbond.Weighted>
0.0000

> <Gold.Chemscore.DEClash.Weighted>
0.1370

> <Gold.Chemscore.DEInternal.Weighted>
2.2661

> <Gold.Chemscore.Rot.Weighted>
6.4559

> <Gold.Chemscore.Internal.Correction.Weighted>
   9.000000E+99

> <Gold.Protein.RotatedTorsions>
[ 6907 6896 6895 6894 ] final  -56.35 input  -60.11 | X-H torsion
[ 7974 7965 7964 7962 ] final  -58.82 input  175.53 | X-H torsion
[ 8008 7997 7996 7995 ] final  -73.47 input   59.86 | X-H torsion
[ 10167 10162 10161 10158 ] final  -67.67 input  -65.29 | X-H torsion
[ 10718 10713 10712 10709 ] final   21.85 input   66.30 | X-H torsion
[ 10763 10752 10751 10750 ] final  -76.74 input  -60.55 | X-H torsion
[ 11005 11000 10999 10996 ] final -158.37 input  -57.11 | X-H torsion

> <Gold.Protein.ActiveResidues>
 VAL166  LYS551  ARG553  GLY616  TRP617  ASP618  TYR619  PRO620  LYS621  CYS622 
 ASP623  PHE694  ASN695  SER759  ASP760  ASP761  ALA762  ILE779  LEU786  VAL792 
 PHE793  MET794  SER795  GLU796  ALA797  LYS798  CYS799  TRP800  GLU811  SER814 

> <Gold.Protein.RotatedAtoms>
  150.8175  134.7365  159.6742 H   0  0  0  0  0  0  0  0  0  0  0  0  # atno 6907 bound_to 6896
  152.4293  134.5805  159.9956 H   0  0  0  0  0  0  0  0  0  0  0  0  # atno 6908 bound_to 6896
  151.5998  133.3320  159.3081 H   0  0  0  0  0  0  0  0  0  0  0  0  # atno 6909 bound_to 6896
  145.8348  140.8456  143.0065 H   0  0  0  0  0  0  0  0  0  0  0  0  # atno 7974 bound_to 7965
  154.5250  140.0778  156.8241 H   0  0  0  0  0  0  0  0  0  0  0  0  # atno 8008 bound_to 7997
  155.3496  140.3412  155.4221 H   0  0  0  0  0  0  0  0  0  0  0  0  # atno 8009 bound_to 7997
  156.1721  140.1623  156.8415 H   0  0  0  0  0  0  0  0  0  0  0  0  # atno 8010 bound_to 7997
  140.5565  143.2312  151.6810 H   0  0  0  0  0  0  0  0  0  0  0  0  # atno 10167 bound_to 10162
  157.1442  130.6646  149.5990 H   0  0  0  0  0  0  0  0  0  0  0  0  # atno 10718 bound_to 10713
  154.5038  135.5787  153.6551 H   0  0  0  0  0  0  0  0  0  0  0  0  # atno 10763 bound_to 10752
  152.9884  135.6142  154.2968 H   0  0  0  0  0  0  0  0  0  0  0  0  # atno 10764 bound_to 10752
  154.2877  135.2849  155.2648 H   0  0  0  0  0  0  0  0  0  0  0  0  # atno 10765 bound_to 10752
  140.6544  134.4416  157.5235 H   0  0  0  0  0  0  0  0  0  0  0  0  # atno 11005 bound_to 11000
  144.6737  140.0726  143.7472 LP  0  0  0  0  0  0  0  0  0  0  0  0  # atno 17320 bound_to 7965
  145.9530  139.2747  143.1201 LP  0  0  0  0  0  0  0  0  0  0  0  0  # atno 17321 bound_to 7965
  139.5050  144.3732  152.0449 LP  0  0  0  0  0  0  0  0  0  0  0  0  # atno 17342 bound_to 10162
  140.2854  144.3813  150.6105 LP  0  0  0  0  0  0  0  0  0  0  0  0  # atno 17343 bound_to 10162
  155.9783  130.4767  150.6645 LP  0  0  0  0  0  0  0  0  0  0  0  0  # atno 17370 bound_to 10713
  157.4280  131.0845  151.1067 LP  0  0  0  0  0  0  0  0  0  0  0  0  # atno 17371 bound_to 10713
  139.9034  134.8503  156.1801 LP  0  0  0  0  0  0  0  0  0  0  0  0  # atno 17394 bound_to 11000
  141.0513  133.6887  156.1776 LP  0  0  0  0  0  0  0  0  0  0  0  0  # atno 17395 bound_to 11000

$$$$
