AV-unprocessed.smi:2774|AV-procd|sdf|10687|dock10
  -GOLD-   2272015133D 1   1.00000     0.00000
 Structure written by MMmdl.
 34 35  0  0  0  0  0  0  0  0  1 V2000
  148.9558  141.6403  154.9553 O   0  0  0  0  0  0  0  0  0  0  0  0
  150.1850  141.4431  155.6266 C   0  0  1  0  0  0  0  0  0  0  0  0
  149.9698  141.6055  157.1441 C   0  0  0  0  0  0  0  0  0  0  0  0
  149.8426  143.0117  157.5351 N   0  0  0  0  0  0  0  0  0  0  0  0
  150.9569  143.5650  158.3089 C   0  0  1  0  0  0  0  0  0  0  0  0
  150.5426  144.8376  159.0852 C   0  0  0  0  0  0  0  0  0  0  0  0
  151.7045  145.4606  159.8767 C   0  0  0  0  0  0  0  0  0  0  0  0
  152.2810  144.5061  160.9301 C   0  0  0  0  0  0  0  0  0  0  0  0
  152.9679  143.0216  160.1524 S   0  0  0  0  0  0  0  0  0  0  0  0
  151.4817  142.4791  159.2667 C   0  0  0  0  0  0  0  0  0  0  0  0
  150.8931  140.1477  155.2470 C   0  0  0  0  0  0  0  0  0  0  0  0
  152.2087  139.8678  155.6793 C   0  0  0  0  0  0  0  0  0  0  0  0
  152.8050  138.6541  155.2839 C   0  0  0  0  0  0  0  0  0  0  0  0
  152.1820  137.7380  154.5122 N   0  0  0  0  0  0  0  0  0  0  0  0
  150.9256  138.0108  154.1005 C   0  0  0  0  0  0  0  0  0  0  0  0
  150.2398  139.1947  154.4376 C   0  0  0  0  0  0  0  0  0  0  0  0
  148.2718  141.7145  155.6030 H   0  0  0  0  0  0  0  0  0  0  0  0
  150.8249  142.2629  155.2976 H   0  0  0  0  0  0  0  0  0  0  0  0
  149.0629  141.0718  157.4305 H   0  0  0  0  0  0  0  0  0  0  0  0
  150.7920  141.1228  157.6712 H   0  0  0  0  0  0  0  0  0  0  0  0
  149.6860  143.5771  156.7065 H   0  0  0  0  0  0  0  0  0  0  0  0
  151.7640  143.8243  157.6221 H   0  0  0  0  0  0  0  0  0  0  0  0
  150.1681  145.5975  158.4007 H   0  0  0  0  0  0  0  0  0  0  0  0
  149.7203  144.6067  159.7641 H   0  0  0  0  0  0  0  0  0  0  0  0
  152.4932  145.7702  159.1902 H   0  0  0  0  0  0  0  0  0  0  0  0
  151.3557  146.3686  160.3696 H   0  0  0  0  0  0  0  0  0  0  0  0
  153.0695  145.0006  161.4974 H   0  0  0  0  0  0  0  0  0  0  0  0
  151.5091  144.2120  161.6421 H   0  0  0  0  0  0  0  0  0  0  0  0
  150.7172  142.2046  159.9948 H   0  0  0  0  0  0  0  0  0  0  0  0
  151.7327  141.5738  158.7124 H   0  0  0  0  0  0  0  0  0  0  0  0
  152.7572  140.5673  156.2927 H   0  0  0  0  0  0  0  0  0  0  0  0
  153.8107  138.4135  155.5955 H   0  0  0  0  0  0  0  0  0  0  0  0
  150.4512  137.2627  153.4825 H   0  0  0  0  0  0  0  0  0  0  0  0
  149.2353  139.3656  154.0789 H   0  0  0  0  0  0  0  0  0  0  0  0
  1  2  1  0  0  0  0
  1 17  1  0  0  0  0
  2  3  1  0  0  0  0
  2 11  1  0  0  0  0
  2 18  1  0  0  0  0
  3  4  1  0  0  0  0
  3 19  1  0  0  0  0
  3 20  1  0  0  0  0
  4  5  1  0  0  0  0
  4 21  1  0  0  0  0
  5 10  1  0  0  0  0
  5  6  1  0  0  0  0
  5 22  1  0  0  0  0
  6  7  1  0  0  0  0
  6 23  1  0  0  0  0
  6 24  1  0  0  0  0
  7  8  1  0  0  0  0
  7 25  1  0  0  0  0
  7 26  1  0  0  0  0
  8  9  1  0  0  0  0
  8 27  1  0  0  0  0
  8 28  1  0  0  0  0
  9 10  1  0  0  0  0
 10 29  1  0  0  0  0
 10 30  1  0  0  0  0
 11 16  1  0  0  0  0
 11 12  2  0  0  0  0
 12 13  1  0  0  0  0
 12 31  1  0  0  0  0
 13 14  2  0  0  0  0
 13 32  1  0  0  0  0
 14 15  1  0  0  0  0
 15 16  2  0  0  0  0
 15 33  1  0  0  0  0
 16 34  1  0  0  0  0
M  END
> <s_m_source_file>
AV-unprocessed.smi

> <i_m_source_file_index>
2774

> <i_lp_mmshare_version>
43012

> <i_f3d_flags>
0

> <s_epik_input>
W2NIXTFbY0hdbltjSF1bY0hdYzFbQ0BIXShbT0hdKVtDSDJdW05IXVtDQEBIXTJbQ0gyXVtDSDJdW0NIMl1TW0NIMl0y

> <s_epik_cmdline>
J2VwaWtfcHl0aG9uJywgJy1waCcsICc3LjAnLCAnLXRuJywgJzgnLCAnLW1hJywgJzIwMCcsICctbWV0YWxfYmluZGluZycsICctaW1hZScsICc8aW5maWxlLm1hZT4nLCAnLW9tYWUnLCAnPG91dGZpbGUubWFlPic=

> <r_epik_Ionization_Penalty>
2.08116

> <r_epik_Ionization_Penalty_Charging>
0

> <r_epik_Ionization_Penalty_Neutral>
2.08116

> <r_epik_State_Penalty>
2.1944

> <r_epik_Charging_Adjusted_Penalty>
2.1944

> <i_epik_Tot_Q>
0

> <i_epik_Tot_abs_Q>
0

> <r_epik_Metal_State_Penalty>
2.1769

> <b_epik_Metal_Only>
0

> <s_lp_Force_Field>
OPLS_2005

> <r_lp_Energy>
17.4731

> <b_lp_Chiralities_Consistent>
1

> <s_lp_Variant>
AV-unprocessed.smi:2774-8

> <Gold.Version>
5.8.1

> <Gold.Id.Protein>
6NUR|6NUR_protein|mol2

> <Gold.PLP.Fitness>
46.4200

> <Gold.PLP.PLP>
-40.6250

> <Gold.PLP.part.hbond>
-2.6539

> <Gold.PLP.part.metal>
0.0000

> <Gold.PLP.part.buried>
-3.7455

> <Gold.PLP.part.nonpolar>
-34.4838

> <Gold.PLP.part.repulsive>
0.1080

> <Gold.PLP.ligand.clash>
0.0518

> <Gold.PLP.ligand.torsion>
0.8382

> <Gold.PLP.Chemscore.Hbond>
1.3978

> <Gold.PLP.Chemscore.CHOScore>
1.0890

> <Gold.PLP.Chemscore.Metal>
0.0000

> <Gold.Chemscore.Hbonds>
donor molecule, donor type, donor heavy atom, donor atom, acceptor molecule, acceptor atom, score
      L1  H     4    21       P1  8028  1.00
      P1  H 10752 10764       L1    14  0.37
      L1  C    15    33       P1  7948  0.64
      L1  C    15    33       P1  7949  0.45

> <Gold.PLP.Chemscore.Internal.Correction>
0.0630

> <Gold.Rescore>
     Score         DG    S(hbond)    S(metal)    S(lipo)     H(rot)  DE(clash)    DE(int)     intcor
     18.68     -19.60       1.64        0.00     115.38       1.89       0.13       0.79       ----

> <Gold.Chemscore.Fitness>
18.6792

> <Gold.Chemscore.DG>
-19.6001

> <Gold.Chemscore.ZeroCoef>
-5.4800

> <Gold.Chemscore.Hbond>
1.6366

> <Gold.Chemscore.Metal>
0.0000

> <Gold.Chemscore.Lipo>
115.3803

> <Gold.Chemscore.Internal_Hbond>
0.0000

> <Gold.Chemscore.DEClash>
0.1279

> <Gold.Chemscore.DEInternal>
0.7930

> <Gold.Chemscore.Rot>
1.8928

> <Gold.Chemscore.Internal.Correction>
   9.000000E+99

> <Gold.Chemscore.Hbonds>
donor molecule, donor type, donor heavy atom, donor atom, acceptor molecule, acceptor atom, score
      L1  H     4    21       P1  8028  0.99
      P1  H 10752 10764       L1    14  0.36

> <Gold.Chemscore.Hbond.Weighted>
-5.4662

> <Gold.Chemscore.Metal.Weighted>
-0.0000

> <Gold.Chemscore.Lipo.Weighted>
-13.4995

> <Gold.Chemscore.Internal_Hbond.Weighted>
0.0000

> <Gold.Chemscore.DEClash.Weighted>
0.1279

> <Gold.Chemscore.DEInternal.Weighted>
0.7930

> <Gold.Chemscore.Rot.Weighted>
4.8455

> <Gold.Chemscore.Internal.Correction.Weighted>
   9.000000E+99

> <Gold.Protein.RotatedTorsions>
[ 6907 6896 6895 6894 ] final  173.08 input  -60.11 | X-H torsion
[ 7974 7965 7964 7962 ] final  168.11 input  175.53 | X-H torsion
[ 8008 7997 7996 7995 ] final  -26.06 input   59.86 | X-H torsion
[ 10167 10162 10161 10158 ] final   92.87 input  -65.29 | X-H torsion
[ 10718 10713 10712 10709 ] final  -49.55 input   66.30 | X-H torsion
[ 10763 10752 10751 10750 ] final  -70.23 input  -60.55 | X-H torsion
[ 11005 11000 10999 10996 ] final   37.32 input  -57.11 | X-H torsion

> <Gold.Protein.ActiveResidues>
 VAL166  LYS551  ARG553  GLY616  TRP617  ASP618  TYR619  PRO620  LYS621  CYS622 
 ASP623  PHE694  ASN695  SER759  ASP760  ASP761  ALA762  ILE779  LEU786  VAL792 
 PHE793  MET794  SER795  GLU796  ALA797  LYS798  CYS799  TRP800  GLU811  SER814 

> <Gold.Protein.RotatedAtoms>
  151.7740  133.3343  159.3452 H   0  0  0  0  0  0  0  0  0  0  0  0  # atno 6907 bound_to 6896
  150.7451  134.5992  159.6037 H   0  0  0  0  0  0  0  0  0  0  0  0  # atno 6908 bound_to 6896
  152.3321  134.7247  160.0338 H   0  0  0  0  0  0  0  0  0  0  0  0  # atno 6909 bound_to 6896
  144.7400  139.8859  143.6399 H   0  0  0  0  0  0  0  0  0  0  0  0  # atno 7974 bound_to 7965
  154.4444  140.1909  156.0717 H   0  0  0  0  0  0  0  0  0  0  0  0  # atno 8008 bound_to 7997
  156.0506  140.3309  155.7320 H   0  0  0  0  0  0  0  0  0  0  0  0  # atno 8009 bound_to 7997
  155.5562  140.0599  157.2830 H   0  0  0  0  0  0  0  0  0  0  0  0  # atno 8010 bound_to 7997
  139.8235  144.6720  150.9489 H   0  0  0  0  0  0  0  0  0  0  0  0  # atno 10167 bound_to 10162
  156.1882  130.4152  149.9409 H   0  0  0  0  0  0  0  0  0  0  0  0  # atno 10718 bound_to 10713
  154.4147  135.6001  153.5973 H   0  0  0  0  0  0  0  0  0  0  0  0  # atno 10763 bound_to 10752
  152.9791  135.5938  154.4028 H   0  0  0  0  0  0  0  0  0  0  0  0  # atno 10764 bound_to 10752
  154.3845  135.2841  155.2170 H   0  0  0  0  0  0  0  0  0  0  0  0  # atno 10765 bound_to 10752
  140.2237  134.3610  155.7993 H   0  0  0  0  0  0  0  0  0  0  0  0  # atno 11005 bound_to 11000
  146.1177  139.4190  143.0248 LP  0  0  0  0  0  0  0  0  0  0  0  0  # atno 17320 bound_to 7965
  145.7351  141.0028  143.1331 LP  0  0  0  0  0  0  0  0  0  0  0  0  # atno 17321 bound_to 7965
  140.7812  143.4069  151.1056 LP  0  0  0  0  0  0  0  0  0  0  0  0  # atno 17342 bound_to 10162
  139.7728  143.8470  152.3123 LP  0  0  0  0  0  0  0  0  0  0  0  0  # atno 17343 bound_to 10162
  156.7157  130.8987  151.3613 LP  0  0  0  0  0  0  0  0  0  0  0  0  # atno 17370 bound_to 10713
  157.6912  130.9236  150.0520 LP  0  0  0  0  0  0  0  0  0  0  0  0  # atno 17371 bound_to 10713
  141.2222  133.7207  156.8618 LP  0  0  0  0  0  0  0  0  0  0  0  0  # atno 17394 bound_to 11000
  140.1823  134.9025  157.2963 LP  0  0  0  0  0  0  0  0  0  0  0  0  # atno 17395 bound_to 11000

$$$$
