#       Name:                AV-unprocessed.smi:153
#       Creating user name   scv26
#       Creation time:       Thu Mar 26 18:51:12 2020


#       File generated by GOLD software.
#

@<TRIPOS>MOLECULE
AV-unprocessed.smi:153
    71    74     1
SMALL
NO_CHARGES


@<TRIPOS>ATOM
      1 ****        -5.2896  -2.7841   0.8587 C.3            1 S1                 0.0000
      2 ****        -4.6752  -2.4900   2.2360 C.3            1 S1                 0.0000
      3 ****        -5.5230  -1.5527   2.8954 O.3            1 S1                 0.0000
      4 ****        -4.7355  -0.7476   3.7548 C.3            1 S1                 0.0000
      5 ****        -3.4869  -0.5053   2.9209 C.3            1 S1                 0.0000
      6 ****        -3.2545  -1.8567   2.2506 C.3            1 S1                 0.0000
      7 ****        -2.4467  -2.6363   3.1173 O.3            1 S1                 0.0000
      8 ****        -2.5270  -1.7559   0.8841 C.3            1 S1                 0.0000
      9 ****        -1.2442  -1.0728   0.9623 N.pl3          1 S1                 0.0000
     10 ****        -0.0329  -1.6278   1.3095 C.2            1 S1                 0.0000
     11 ****         0.9794  -0.8045   1.3038 N.2            1 S1                 0.0000
     12 ****         0.4255   0.4104   0.9196 C.ar           1 S1                 0.0000
     13 ****         0.9552   1.7109   0.6903 C.ar           1 S1                 0.0000
     14 ****         2.2721   1.9977   0.8463 N.pl3          1 S1                 0.0000
     15 ****         2.7634   1.7807   2.2019 C.3            1 S1                 0.0000
     16 ****         2.8694   3.0816   0.0626 C.3            1 S1                 0.0000
     17 ****         2.7989   2.8522  -1.4636 C.3            1 S1                 0.0000
     18 ****         3.3363   4.0049  -2.0772 O.3            1 S1                 0.0000
     19 ****         3.6256   1.6279  -1.9263 C.3            1 S1                 0.0000
     20 ****         2.9530   0.7397  -2.8757 N.3            1 S1                 0.0000
     21 ****         1.8403   0.0132  -2.2654 C.3            1 S1                 0.0000
     22 ****         1.1670  -0.9556  -3.2517 C.3            1 S1                 0.0000
     23 ****         2.1364  -1.8584  -3.7728 O.3            1 S1                 0.0000
     24 ****         3.2114  -1.1899  -4.4241 C.3            1 S1                 0.0000
     25 ****         3.8921  -0.2269  -3.4359 C.3            1 S1                 0.0000
     26 ****         0.0877   2.6811   0.2977 N.ar           1 S1                 0.0000
     27 ****        -1.2073   2.3990   0.1291 C.ar           1 S1                 0.0000
     28 ****        -1.8357   1.2335   0.2945 N.ar           1 S1                 0.0000
     29 ****        -0.9714   0.2575   0.6948 C.ar           1 S1                 0.0000
     30 ****        -4.6908  -3.5033   0.2998 H              1 S1                 0.0000
     31 ****        -5.3841  -1.8778   0.2601 H              1 S1                 0.0000
     32 ****        -6.2886  -3.2073   0.9671 H              1 S1                 0.0000
     33 ****        -4.6863  -3.4123   2.8201 H              1 S1                 0.0000
     34 ****        -5.2487   0.1750   4.0262 H              1 S1                 0.0000
     35 ****        -4.5013  -1.2978   4.6673 H              1 S1                 0.0000
     36 ****        -3.7123   0.2524   2.1697 H              1 S1                 0.0000
     37 ****        -2.6383  -0.1497   3.5071 H              1 S1                 0.0000
     38 ****        -2.3788  -3.5084   2.7598 H              1 S1                 0.0000
     39 ****        -2.3581  -2.7493   0.4664 H              1 S1                 0.0000
     40 ****        -3.1426  -1.2188   0.1623 H              1 S1                 0.0000
     41 ****         0.0768  -2.6699   1.5722 H              1 S1                 0.0000
     42 ****         1.9817   1.9525   2.9437 H              1 S1                 0.0000
     43 ****         3.5924   2.4494   2.4348 H              1 S1                 0.0000
     44 ****         3.1214   0.7568   2.3113 H              1 S1                 0.0000
     45 ****         2.3787   4.0198   0.3254 H              1 S1                 0.0000
     46 ****         3.9139   3.1952   0.3558 H              1 S1                 0.0000
     47 ****         1.7632   2.7821  -1.7921 H              1 S1                 0.0000
     48 ****         3.2742   3.8997  -3.0144 H              1 S1                 0.0000
     49 ****         4.5624   1.9794  -2.3621 H              1 S1                 0.0000
     50 ****         3.9302   1.0419  -1.0579 H              1 S1                 0.0000
     51 ****         2.1955  -0.5470  -1.3991 H              1 S1                 0.0000
     52 ****         1.0860   0.7083  -1.9010 H              1 S1                 0.0000
     53 ****         0.3842  -1.5228  -2.7475 H              1 S1                 0.0000
     54 ****         0.6929  -0.4082  -4.0676 H              1 S1                 0.0000
     55 ****         3.9253  -1.9305  -4.7847 H              1 S1                 0.0000
     56 ****         2.8395  -0.6505  -5.2966 H              1 S1                 0.0000
     57 ****         4.7014   0.2968  -3.9458 H              1 S1                 0.0000
     58 ****         4.3524  -0.8041  -2.6323 H              1 S1                 0.0000
     59 ****        -1.8283   3.2245  -0.1857 H              1 S1                 0.0000
     60 ****        -6.2115  -2.0417   3.4310 LP             1 S1                 0.0000
     61 ****        -5.9768  -0.9752   2.2168 LP             1 S1                 0.0000
     62 ****        -2.8653  -2.6753   4.0246 LP             1 S1                 0.0000
     63 ****        -1.5362  -2.2287   3.1876 LP             1 S1                 0.0000
     64 ****         1.9343  -1.0025   1.5251 LP             1 S1                 0.0000
     65 ****         4.2945   4.1132  -1.8121 LP             1 S1                 0.0000
     66 ****         2.8185   4.8117  -1.7927 LP             1 S1                 0.0000
     67 ****         2.5899   1.3260  -3.5998 LP             1 S1                 0.0000
     68 ****         1.6893  -2.4636  -4.4315 LP             1 S1                 0.0000
     69 ****         2.5065  -2.4015  -3.0190 LP             1 S1                 0.0000
     70 ****         0.4203   3.6099   0.1344 LP             1 S1                 0.0000
     71 ****        -2.8144   1.0937   0.1443 LP             1 S1                 0.0000
@<TRIPOS>BOND
    1    1    2 1     
    2    1   30 1     
    3    1   31 1     
    4    1   32 1     
    5    2    6 1     
    6    2    3 1     
    7    2   33 1     
    8    3    4 1     
    9    4    5 1     
   10    4   34 1     
   11    4   35 1     
   12    5    6 1     
   13    5   36 1     
   14    5   37 1     
   15    6    7 1     
   16    6    8 1     
   17    7   38 1     
   18    8    9 1     
   19    8   39 1     
   20    8   40 1     
   21    9   29 1     
   22    9   10 1     
   23   10   11 2     
   24   10   41 1     
   25   11   12 1     
   26   12   29 ar    
   27   12   13 ar    
   28   13   14 1     
   29   13   26 ar    
   30   14   15 1     
   31   14   16 1     
   32   15   42 1     
   33   15   43 1     
   34   15   44 1     
   35   16   17 1     
   36   16   45 1     
   37   16   46 1     
   38   17   18 1     
   39   17   19 1     
   40   17   47 1     
   41   18   48 1     
   42   19   20 1     
   43   19   49 1     
   44   19   50 1     
   45   20   25 1     
   46   20   21 1     
   47   21   22 1     
   48   21   51 1     
   49   21   52 1     
   50   22   23 1     
   51   22   53 1     
   52   22   54 1     
   53   23   24 1     
   54   24   25 1     
   55   24   55 1     
   56   24   56 1     
   57   25   57 1     
   58   25   58 1     
   59   26   27 ar    
   60   27   28 ar    
   61   27   59 1     
   62   28   29 ar    
   63    3   60 1     
   64    3   61 1     
   65    7   62 1     
   66    7   63 1     
   67   11   64 1     
   68   18   65 1     
   69   18   66 1     
   70   20   67 1     
   71   23   68 1     
   72   23   69 1     
   73   26   70 1     
   74   28   71 1     
@<TRIPOS>SUBSTRUCTURE
      1 S1             1
@<TRIPOS>SET
LONE_PAIRS      STATIC     ATOMS    <user>   **** ""
12 60 61 62 63 64 65 66 67 68 69 70 71
DONOR_HYDROGENS      STATIC     ATOMS    <user>   **** ""
2 38 48
ATOM$BLUE        STATIC     ATOMS    COLORGROUP SYSTEM
12 60 61 62 63 64 65 66 67 68 69 70 71
ATOM$RED        STATIC     ATOMS    COLORGROUP SYSTEM
2 38 48
