AV-unprocessed.smi:2069|AV-procd|sdf|8435|dock8
  -GOLD-   2272011133D 1   1.00000     0.00000
 Structure written by MMmdl.
 37 38  0  0  0  0  0  0  0  0  2 V2000
  145.3681  133.1287  162.3617 C   0  0  0  0  0  0  0  0  0  0  0  0
  145.8836  134.3984  161.7761 C   0  0  0  0  0  0  0  0  0  0  0  0
  145.0841  135.4090  161.4268 N   0  0  0  0  0  0  0  0  0  0  0  0
  145.7935  136.4797  160.9022 N   0  0  0  0  0  0  0  0  0  0  0  0
  147.1151  136.2611  160.8522 C   0  0  0  0  0  0  0  0  0  0  0  0
  147.9784  137.1756  160.3801 N   0  5  0  0  0  0  0  0  0  0  0  0
  148.9442  136.8074  159.5079 C   0  0  0  0  0  0  0  0  0  0  0  0
  149.1049  135.6829  159.0274 O   0  0  0  0  0  0  0  0  0  0  0  0
  149.7790  137.8026  159.1756 N   0  0  0  0  0  0  0  0  0  0  0  0
  150.9224  137.6963  158.2719 C   0  0  0  0  0  0  0  0  0  0  0  0
  152.2216  138.3440  158.8351 C   0  0  2  0  0  0  0  0  0  0  0  0
  152.7194  137.5025  160.0379 C   0  0  0  0  0  0  0  0  0  0  0  0
  152.0668  139.7799  159.1677 N   0  0  0  0  0  0  0  0  0  0  0  0
  151.6617  140.5902  158.0133 C   0  0  0  0  0  0  0  0  0  0  0  0
  151.5369  142.0868  158.3476 C   0  0  0  0  0  0  0  0  0  0  0  0
  152.7669  142.5670  158.8725 O   0  0  0  0  0  0  0  0  0  0  0  0
  153.1583  141.8598  160.0408 C   0  0  0  0  0  0  0  0  0  0  0  0
  153.2963  140.3619  159.7185 C   0  0  0  0  0  0  0  0  0  0  0  0
  147.5909  134.6851  161.4851 S   0  0  0  0  0  0  0  0  0  0  0  0
  144.9555  132.4970  161.5749 H   0  0  0  0  0  0  0  0  0  0  0  0
  144.5852  133.3393  163.0908 H   0  0  0  0  0  0  0  0  0  0  0  0
  146.1721  132.5875  162.8609 H   0  0  0  0  0  0  0  0  0  0  0  0
  149.6093  138.7068  159.5909 H   0  0  0  0  0  0  0  0  0  0  0  0
  151.0519  136.6363  158.0576 H   0  0  0  0  0  0  0  0  0  0  0  0
  150.6513  138.1700  157.3281 H   0  0  0  0  0  0  0  0  0  0  0  0
  152.9823  138.2639  158.0570 H   0  0  0  0  0  0  0  0  0  0  0  0
  152.7850  136.4405  159.8044 H   0  0  0  0  0  0  0  0  0  0  0  0
  152.0533  137.6084  160.8948 H   0  0  0  0  0  0  0  0  0  0  0  0
  153.7229  137.7838  160.3534 H   0  0  0  0  0  0  0  0  0  0  0  0
  152.3755  140.4580  157.1987 H   0  0  0  0  0  0  0  0  0  0  0  0
  150.6909  140.2712  157.6403 H   0  0  0  0  0  0  0  0  0  0  0  0
  151.2866  142.6545  157.4513 H   0  0  0  0  0  0  0  0  0  0  0  0
  150.7343  142.2559  159.0673 H   0  0  0  0  0  0  0  0  0  0  0  0
  154.1081  142.2593  160.3960 H   0  0  0  0  0  0  0  0  0  0  0  0
  152.4270  142.0187  160.8350 H   0  0  0  0  0  0  0  0  0  0  0  0
  153.5772  139.8620  160.6437 H   0  0  0  0  0  0  0  0  0  0  0  0
  154.1197  140.2179  159.0173 H   0  0  0  0  0  0  0  0  0  0  0  0
  1  2  1  0  0  0  0
  1 20  1  0  0  0  0
  1 21  1  0  0  0  0
  1 22  1  0  0  0  0
  2 19  1  0  0  0  0
  2  3  2  0  0  0  0
  3  4  1  0  0  0  0
  4  5  2  0  0  0  0
  5  6  1  0  0  0  0
  5 19  1  0  0  0  0
  6  7  1  0  0  0  0
  7  8  2  0  0  0  0
  7  9  1  0  0  0  0
  9 10  1  0  0  0  0
  9 23  1  0  0  0  0
 10 11  1  0  0  0  0
 10 24  1  0  0  0  0
 10 25  1  0  0  0  0
 11 12  1  0  0  0  0
 11 13  1  0  0  0  0
 11 26  1  0  0  0  0
 12 27  1  0  0  0  0
 12 28  1  0  0  0  0
 12 29  1  0  0  0  0
 13 18  1  0  0  0  0
 13 14  1  0  0  0  0
 14 15  1  0  0  0  0
 14 30  1  0  0  0  0
 14 31  1  0  0  0  0
 15 16  1  0  0  0  0
 15 32  1  0  0  0  0
 15 33  1  0  0  0  0
 16 17  1  0  0  0  0
 17 18  1  0  0  0  0
 17 34  1  0  0  0  0
 17 35  1  0  0  0  0
 18 36  1  0  0  0  0
 18 37  1  0  0  0  0
M  CHG  1   6  -1
M  END
> <s_m_source_file>
AV-unprocessed.smi

> <i_m_source_file_index>
2069

> <i_lp_mmshare_version>
43012

> <i_f3d_flags>
0

> <s_epik_input>
W0NIM11jMW5uYyhzMSlbTkhdQyg9TylbTkhdW0NIMl1bQ0BIXShbQ0gzXSlOMltDSDJdW0NIMl1PW0NIMl1bQ0gyXTI=

> <s_epik_cmdline>
J2VwaWtfcHl0aG9uJywgJy1waCcsICc3LjAnLCAnLXRuJywgJzgnLCAnLW1hJywgJzIwMCcsICctbWV0YWxfYmluZGluZycsICctaW1hZScsICc8aW5maWxlLm1hZT4nLCAnLW9tYWUnLCAnPG91dGZpbGUubWFlPic=

> <r_lp_tautomer_probability>
1

> <r_epik_Ionization_Penalty>
3.82002

> <r_epik_Ionization_Penalty_Charging>
3.36369

> <r_epik_Ionization_Penalty_Neutral>
0.456339

> <r_epik_State_Penalty>
3.571

> <r_epik_Charging_Adjusted_Penalty>
6.93469

> <i_epik_Tot_Q>
-1

> <i_epik_Tot_abs_Q>
1

> <r_epik_Metal_State_Penalty>
0.710436

> <b_epik_Metal_Only>
1

> <s_lp_Force_Field>
OPLS_2005

> <r_lp_Energy>
26.0796

> <b_lp_Chiralities_Consistent>
1

> <s_lp_Variant>
AV-unprocessed.smi:2069-5

> <Gold.Version>
5.8.1

> <Gold.Id.Protein>
6NUR|6NUR_protein|mol2

> <Gold.PLP.Fitness>
41.3372

> <Gold.PLP.PLP>
-30.4322

> <Gold.PLP.part.hbond>
-3.0000

> <Gold.PLP.part.metal>
0.0000

> <Gold.PLP.part.buried>
-5.2228

> <Gold.PLP.part.nonpolar>
-22.7567

> <Gold.PLP.part.repulsive>
0.7743

> <Gold.PLP.ligand.clash>
0.0000

> <Gold.PLP.ligand.torsion>
0.5040

> <Gold.PLP.Chemscore.Hbond>
3.9311

> <Gold.PLP.Chemscore.CHOScore>
0.0000

> <Gold.PLP.Chemscore.Metal>
0.0000

> <Gold.Chemscore.Hbonds>
donor molecule, donor type, donor heavy atom, donor atom, acceptor molecule, acceptor atom, score
      P1  H  6896  6909       L1     8  1.00
      P1  H  6931  6943       L1     6  1.05
      P1  H  6934  6947       L1     6  1.35

> <Gold.PLP.Chemscore.Internal.Correction>
0.1197

> <Gold.Rescore>
     Score         DG    S(hbond)    S(metal)    S(lipo)     H(rot)  DE(clash)    DE(int)     intcor
     14.38     -15.39       1.72        0.00      69.98       1.57       0.47       0.54       ----

> <Gold.Chemscore.Fitness>
14.3840

> <Gold.Chemscore.DG>
-15.3933

> <Gold.Chemscore.ZeroCoef>
-5.4800

> <Gold.Chemscore.Hbond>
1.7225

> <Gold.Chemscore.Metal>
0.0000

> <Gold.Chemscore.Lipo>
69.9785

> <Gold.Chemscore.Internal_Hbond>
0.0000

> <Gold.Chemscore.DEClash>
0.4684

> <Gold.Chemscore.DEInternal>
0.5410

> <Gold.Chemscore.Rot>
1.5732

> <Gold.Chemscore.Internal.Correction>
   9.000000E+99

> <Gold.Chemscore.Hbonds>
donor molecule, donor type, donor heavy atom, donor atom, acceptor molecule, acceptor atom, score
      P1  H  6896  6909       L1     8  0.92
      P1  H  6931  6943       L1     6  0.21
      P1  H  6934  6947       L1     6  0.37

> <Gold.Chemscore.Hbond.Weighted>
-5.7533

> <Gold.Chemscore.Metal.Weighted>
-0.0000

> <Gold.Chemscore.Lipo.Weighted>
-8.1875

> <Gold.Chemscore.Internal_Hbond.Weighted>
0.0000

> <Gold.Chemscore.DEClash.Weighted>
0.4684

> <Gold.Chemscore.DEInternal.Weighted>
0.5410

> <Gold.Chemscore.Rot.Weighted>
4.0274

> <Gold.Chemscore.Internal.Correction.Weighted>
   9.000000E+99

> <Gold.Protein.RotatedTorsions>
[ 6907 6896 6895 6894 ] final   39.79 input  -60.11 | X-H torsion
[ 7974 7965 7964 7962 ] final  -52.04 input  175.53 | X-H torsion
[ 8008 7997 7996 7995 ] final  152.12 input   59.86 | X-H torsion
[ 10167 10162 10161 10158 ] final   11.90 input  -65.29 | X-H torsion
[ 10718 10713 10712 10709 ] final  127.13 input   66.30 | X-H torsion
[ 10763 10752 10751 10750 ] final -134.55 input  -60.55 | X-H torsion
[ 11005 11000 10999 10996 ] final   60.44 input  -57.11 | X-H torsion

> <Gold.Protein.ActiveResidues>
 VAL166  LYS551  ARG553  GLY616  TRP617  ASP618  TYR619  PRO620  LYS621  CYS622 
 ASP623  PHE694  ASN695  SER759  ASP760  ASP761  ALA762  ILE779  LEU786  VAL792 
 PHE793  MET794  SER795  GLU796  ALA797  LYS798  CYS799  TRP800  GLU811  SER814 

> <Gold.Protein.RotatedAtoms>
  152.1742  134.8809  160.0531 H   0  0  0  0  0  0  0  0  0  0  0  0  # atno 6907 bound_to 6896
  151.9757  133.3736  159.4096 H   0  0  0  0  0  0  0  0  0  0  0  0  # atno 6908 bound_to 6896
  150.6906  134.4015  159.5165 H   0  0  0  0  0  0  0  0  0  0  0  0  # atno 6909 bound_to 6896
  145.9124  140.7904  142.9688 H   0  0  0  0  0  0  0  0  0  0  0  0  # atno 7974 bound_to 7965
  156.2643  140.2029  156.6284 H   0  0  0  0  0  0  0  0  0  0  0  0  # atno 8008 bound_to 7997
  154.6702  140.0551  157.0182 H   0  0  0  0  0  0  0  0  0  0  0  0  # atno 8009 bound_to 7997
  155.1148  140.3219  155.4515 H   0  0  0  0  0  0  0  0  0  0  0  0  # atno 8010 bound_to 7997
  140.6102  143.8423  150.7057 H   0  0  0  0  0  0  0  0  0  0  0  0  # atno 10167 bound_to 10162
  157.5359  131.1097  150.8936 H   0  0  0  0  0  0  0  0  0  0  0  0  # atno 10718 bound_to 10713
  154.8717  135.3731  154.4754 H   0  0  0  0  0  0  0  0  0  0  0  0  # atno 10763 bound_to 10752
  153.5411  135.7026  153.5641 H   0  0  0  0  0  0  0  0  0  0  0  0  # atno 10764 bound_to 10752
  153.3803  135.3998  155.1816 H   0  0  0  0  0  0  0  0  0  0  0  0  # atno 10765 bound_to 10752
  140.0232  134.6122  155.9610 H   0  0  0  0  0  0  0  0  0  0  0  0  # atno 11005 bound_to 11000
  144.6744  140.1846  143.7402 LP  0  0  0  0  0  0  0  0  0  0  0  0  # atno 17320 bound_to 7965
  145.8655  139.2244  143.1692 LP  0  0  0  0  0  0  0  0  0  0  0  0  # atno 17321 bound_to 7965
  140.1990  143.3975  152.1806 LP  0  0  0  0  0  0  0  0  0  0  0  0  # atno 17342 bound_to 10162
  139.5355  144.7205  151.4906 LP  0  0  0  0  0  0  0  0  0  0  0  0  # atno 17343 bound_to 10162
  156.9503  130.5417  149.5282 LP  0  0  0  0  0  0  0  0  0  0  0  0  # atno 17370 bound_to 10713
  156.0458  130.5535  150.8878 LP  0  0  0  0  0  0  0  0  0  0  0  0  # atno 17371 bound_to 10713
  141.1786  133.6543  156.4929 LP  0  0  0  0  0  0  0  0  0  0  0  0  # atno 17394 bound_to 11000
  140.4352  134.7066  157.4963 LP  0  0  0  0  0  0  0  0  0  0  0  0  # atno 17395 bound_to 11000

$$$$
