AV-unprocessed.smi:1103|AV-procd|sdf|4774|dock4
  -GOLD-   22720 3313D 1   1.00000     0.00000
 Structure written by MMmdl.
 44 45  0  0  0  0  0  0  0  0  2 V2000
  145.4659  135.9240  150.8049 C   0  0  0  0  0  0  0  0  0  0  0  0
  145.9227  137.3638  151.0816 C   0  0  0  0  0  0  0  0  0  0  0  0
  146.7260  137.4839  152.3251 N   0  3  2  0  0  0  0  0  0  0  0  0
  146.0612  136.8309  153.4814 C   0  0  0  0  0  0  0  0  0  0  0  0
  146.9706  136.8417  154.7189 C   0  0  0  0  0  0  0  0  0  0  0  0
  147.3897  138.2728  155.0755 C   0  0  0  0  0  0  0  0  0  0  0  0
  148.0546  138.9574  153.8685 C   0  0  2  0  0  0  0  0  0  0  0  0
  148.4740  140.4001  154.2254 C   0  0  0  0  0  0  0  0  0  0  0  0
  148.8714  140.5247  155.6243 N   0  0  0  0  0  0  0  0  0  0  0  0
  150.1353  140.5399  156.0758 C   0  0  0  0  0  0  0  0  0  0  0  0
  151.1222  140.5209  155.3407 O   0  0  0  0  0  0  0  0  0  0  0  0
  150.3127  140.5231  157.5932 C   0  0  0  0  0  0  0  0  0  0  0  0
  151.1965  141.5977  158.0070 N   0  0  0  0  0  0  0  0  0  0  0  0
  151.1044  142.9417  157.7138 C   0  0  0  0  0  0  0  0  0  0  0  0
  152.1724  143.5634  158.2959 C   0  0  0  0  0  0  0  0  0  0  0  0
  152.5386  145.0187  158.2662 C   0  0  0  0  0  0  0  0  0  0  0  0
  152.8676  142.4984  158.9358 C   0  0  0  0  0  0  0  0  0  0  0  0
  152.2863  141.3239  158.7565 N   0  0  0  0  0  0  0  0  0  0  0  0
  147.1183  138.8842  152.6388 C   0  0  0  0  0  0  0  0  0  0  0  0
  144.7907  135.8943  149.9496 H   0  0  0  0  0  0  0  0  0  0  0  0
  144.9339  135.5048  151.6594 H   0  0  0  0  0  0  0  0  0  0  0  0
  146.3031  135.2679  150.5726 H   0  0  0  0  0  0  0  0  0  0  0  0
  146.4844  137.7579  150.2337 H   0  0  0  0  0  0  0  0  0  0  0  0
  145.0287  137.9823  151.1735 H   0  0  0  0  0  0  0  0  0  0  0  0
  145.1213  137.3413  153.6983 H   0  0  0  0  0  0  0  0  0  0  0  0
  145.8119  135.7988  153.2316 H   0  0  0  0  0  0  0  0  0  0  0  0
  146.4551  136.3839  155.5638 H   0  0  0  0  0  0  0  0  0  0  0  0
  147.8565  136.2340  154.5300 H   0  0  0  0  0  0  0  0  0  0  0  0
  146.5142  138.8423  155.3911 H   0  0  0  0  0  0  0  0  0  0  0  0
  148.0731  138.2558  155.9254 H   0  0  0  0  0  0  0  0  0  0  0  0
  148.9621  138.4004  153.6288 H   0  0  0  0  0  0  0  0  0  0  0  0
  149.2681  140.7413  153.5589 H   0  0  0  0  0  0  0  0  0  0  0  0
  147.6341  141.0765  154.0643 H   0  0  0  0  0  0  0  0  0  0  0  0
  148.1283  140.5457  156.3083 H   0  0  0  0  0  0  0  0  0  0  0  0
  149.3469  140.6511  158.0834 H   0  0  0  0  0  0  0  0  0  0  0  0
  150.7194  139.5660  157.9242 H   0  0  0  0  0  0  0  0  0  0  0  0
  150.2977  143.3386  157.1150 H   0  0  0  0  0  0  0  0  0  0  0  0
  153.4965  145.2058  158.7517 H   0  0  0  0  0  0  0  0  0  0  0  0
  151.7940  145.6309  158.7755 H   0  0  0  0  0  0  0  0  0  0  0  0
  152.6186  145.3909  157.2446 H   0  0  0  0  0  0  0  0  0  0  0  0
  153.7769  142.5432  159.5168 H   0  0  0  0  0  0  0  0  0  0  0  0
  147.6261  139.3103  151.7754 H   0  0  0  0  0  0  0  0  0  0  0  0
  146.2241  139.4864  152.8088 H   0  0  0  0  0  0  0  0  0  0  0  0
  147.5801  136.9693  152.1641 H   0  0  0  0  0  0  0  0  0  0  0  0
  1  2  1  0  0  0  0
  1 20  1  0  0  0  0
  1 21  1  0  0  0  0
  1 22  1  0  0  0  0
  2  3  1  0  0  0  0
  2 23  1  0  0  0  0
  2 24  1  0  0  0  0
  3 19  1  0  0  0  0
  3  4  1  0  0  0  0
  3 44  1  0  0  0  0
  4  5  1  0  0  0  0
  4 25  1  0  0  0  0
  4 26  1  0  0  0  0
  5  6  1  0  0  0  0
  5 27  1  0  0  0  0
  5 28  1  0  0  0  0
  6  7  1  0  0  0  0
  6 29  1  0  0  0  0
  6 30  1  0  0  0  0
  7  8  1  0  0  0  0
  7 19  1  0  0  0  0
  7 31  1  0  0  0  0
  8  9  1  0  0  0  0
  8 32  1  0  0  0  0
  8 33  1  0  0  0  0
  9 10  1  0  0  0  0
  9 34  1  0  0  0  0
 10 11  2  0  0  0  0
 10 12  1  0  0  0  0
 12 13  1  0  0  0  0
 12 35  1  0  0  0  0
 12 36  1  0  0  0  0
 13 18  1  0  0  0  0
 13 14  1  0  0  0  0
 14 15  2  0  0  0  0
 14 37  1  0  0  0  0
 15 16  1  0  0  0  0
 15 17  1  0  0  0  0
 16 38  1  0  0  0  0
 16 39  1  0  0  0  0
 16 40  1  0  0  0  0
 17 18  2  0  0  0  0
 17 41  1  0  0  0  0
 19 42  1  0  0  0  0
 19 43  1  0  0  0  0
M  CHG  1   3   1
M  END
> <s_m_source_file>
AV-unprocessed.smi

> <i_m_source_file_index>
1103

> <i_lp_mmshare_version>
43012

> <i_f3d_flags>
0

> <s_epik_input>
W0NIM11bQ0gyXU4xW0NIMl1bQ0gyXVtDSDJdW0NASF0oW0NIMl0xKVtDSDJdW05IXUMoPU8pW0NIMl1uMltjSF1jKFtDSDNdKVtjSF1uMg==

> <s_epik_cmdline>
J2VwaWtfcHl0aG9uJywgJy1waCcsICc3LjAnLCAnLXRuJywgJzgnLCAnLW1hJywgJzIwMCcsICctbWV0YWxfYmluZGluZycsICctaW1hZScsICc8aW5maWxlLm1hZT4nLCAnLW9tYWUnLCAnPG91dGZpbGUubWFlPic=

> <r_lp_tautomer_probability>
1

> <r_epik_Ionization_Penalty>
0.000672456

> <r_epik_Ionization_Penalty_Charging>
0.000647327

> <r_epik_Ionization_Penalty_Neutral>
2.51297e-05

> <r_epik_State_Penalty>
0.000409793

> <r_epik_Charging_Adjusted_Penalty>
0.00105712

> <i_epik_Tot_Q>
1

> <i_epik_Tot_abs_Q>
1

> <r_epik_Metal_State_Penalty>
-0

> <b_epik_Metal_Only>
0

> <s_lp_Force_Field>
OPLS_2005

> <r_lp_Energy>
16.1771

> <b_lp_Chiralities_Consistent>
1

> <s_lp_Variant>
AV-unprocessed.smi:1103-4

> <Gold.Version>
5.8.1

> <Gold.Id.Protein>
6NUR|6NUR_protein|mol2

> <Gold.PLP.Fitness>
44.2740

> <Gold.PLP.PLP>
-33.5079

> <Gold.PLP.part.hbond>
-2.0000

> <Gold.PLP.part.metal>
0.0000

> <Gold.PLP.part.buried>
-0.3080

> <Gold.PLP.part.nonpolar>
-31.5906

> <Gold.PLP.part.repulsive>
0.1429

> <Gold.PLP.ligand.clash>
0.0000

> <Gold.PLP.ligand.torsion>
0.5492

> <Gold.PLP.Chemscore.Hbond>
2.9440

> <Gold.PLP.Chemscore.CHOScore>
1.0000

> <Gold.PLP.Chemscore.Metal>
0.0000

> <Gold.Chemscore.Hbonds>
donor molecule, donor type, donor heavy atom, donor atom, acceptor molecule, acceptor atom, score
      L1  H     3    44       P1  7948  2.00
      P1  H  7989  7998       L1    11  0.93
      L1  C    14    37       P1  8028  1.00

> <Gold.PLP.Chemscore.Internal.Correction>
0.0324

> <Gold.Rescore>
     Score         DG    S(hbond)    S(metal)    S(lipo)     H(rot)  DE(clash)    DE(int)     intcor
     16.77     -18.98       1.98        0.00      95.82       1.68       1.66       0.55       ----

> <Gold.Chemscore.Fitness>
16.7662

> <Gold.Chemscore.DG>
-18.9819

> <Gold.Chemscore.ZeroCoef>
-5.4800

> <Gold.Chemscore.Hbond>
1.9752

> <Gold.Chemscore.Metal>
0.0000

> <Gold.Chemscore.Lipo>
95.8237

> <Gold.Chemscore.Internal_Hbond>
0.0000

> <Gold.Chemscore.DEClash>
1.6620

> <Gold.Chemscore.DEInternal>
0.5536

> <Gold.Chemscore.Rot>
1.6823

> <Gold.Chemscore.Internal.Correction>
   9.000000E+99

> <Gold.Chemscore.Hbonds>
donor molecule, donor type, donor heavy atom, donor atom, acceptor molecule, acceptor atom, score
      L1  H     3    44       P1  7948  0.97
      P1  H  7989  7998       L1    11  0.89

> <Gold.Chemscore.Hbond.Weighted>
-6.5971

> <Gold.Chemscore.Metal.Weighted>
-0.0000

> <Gold.Chemscore.Lipo.Weighted>
-11.2114

> <Gold.Chemscore.Internal_Hbond.Weighted>
0.0000

> <Gold.Chemscore.DEClash.Weighted>
1.6620

> <Gold.Chemscore.DEInternal.Weighted>
0.5536

> <Gold.Chemscore.Rot.Weighted>
4.3066

> <Gold.Chemscore.Internal.Correction.Weighted>
   9.000000E+99

> <Gold.Protein.RotatedTorsions>
[ 6907 6896 6895 6894 ] final -165.05 input  -60.11 | X-H torsion
[ 7974 7965 7964 7962 ] final   57.00 input  175.53 | X-H torsion
[ 8008 7997 7996 7995 ] final -143.97 input   59.86 | X-H torsion
[ 10167 10162 10161 10158 ] final  142.45 input  -65.29 | X-H torsion
[ 10718 10713 10712 10709 ] final -111.09 input   66.30 | X-H torsion
[ 10763 10752 10751 10750 ] final  145.83 input  -60.55 | X-H torsion
[ 11005 11000 10999 10996 ] final  123.07 input  -57.11 | X-H torsion

> <Gold.Protein.ActiveResidues>
 VAL166  LYS551  ARG553  GLY616  TRP617  ASP618  TYR619  PRO620  LYS621  CYS622 
 ASP623  PHE694  ASN695  SER759  ASP760  ASP761  ALA762  ILE779  LEU786  VAL792 
 PHE793  MET794  SER795  GLU796  ALA797  LYS798  CYS799  TRP800  GLU811  SER814 

> <Gold.Protein.RotatedAtoms>
  151.4216  133.3696  159.2756 H   0  0  0  0  0  0  0  0  0  0  0  0  # atno 6907 bound_to 6896
  150.9290  134.8707  159.7549 H   0  0  0  0  0  0  0  0  0  0  0  0  # atno 6908 bound_to 6896
  152.5019  134.4159  159.9516 H   0  0  0  0  0  0  0  0  0  0  0  0  # atno 6909 bound_to 6896
  145.9338  139.3830  143.0405 H   0  0  0  0  0  0  0  0  0  0  0  0  # atno 7974 bound_to 7965
  155.5193  140.0590  157.2909 H   0  0  0  0  0  0  0  0  0  0  0  0  # atno 8008 bound_to 7997
  154.4523  140.1955  156.0428 H   0  0  0  0  0  0  0  0  0  0  0  0  # atno 8009 bound_to 7997
  156.0729  140.3257  155.7602 H   0  0  0  0  0  0  0  0  0  0  0  0  # atno 8010 bound_to 7997
  139.4994  144.6106  151.6279 H   0  0  0  0  0  0  0  0  0  0  0  0  # atno 10167 bound_to 10162
  156.0627  130.5849  150.8327 H   0  0  0  0  0  0  0  0  0  0  0  0  # atno 10718 bound_to 10713
  154.0118  135.2914  155.3391 H   0  0  0  0  0  0  0  0  0  0  0  0  # atno 10763 bound_to 10752
  154.7098  135.5154  153.8653 H   0  0  0  0  0  0  0  0  0  0  0  0  # atno 10764 bound_to 10752
  153.0720  135.6651  154.0349 H   0  0  0  0  0  0  0  0  0  0  0  0  # atno 10765 bound_to 10752
  139.9296  134.9641  156.8204 H   0  0  0  0  0  0  0  0  0  0  0  0  # atno 11005 bound_to 11000
  145.8391  140.9590  143.0809 LP  0  0  0  0  0  0  0  0  0  0  0  0  # atno 17320 bound_to 7965
  144.6768  140.0261  143.7483 LP  0  0  0  0  0  0  0  0  0  0  0  0  # atno 17321 bound_to 7965
  140.5780  143.9995  150.6252 LP  0  0  0  0  0  0  0  0  0  0  0  0  # atno 17342 bound_to 10162
  140.3135  143.3183  152.0855 LP  0  0  0  0  0  0  0  0  0  0  0  0  # atno 17343 bound_to 10162
  157.5648  131.0946  150.9506 LP  0  0  0  0  0  0  0  0  0  0  0  0  # atno 17370 bound_to 10713
  156.9735  130.5500  149.5292 LP  0  0  0  0  0  0  0  0  0  0  0  0  # atno 17371 bound_to 10713
  140.6239  133.9969  155.7630 LP  0  0  0  0  0  0  0  0  0  0  0  0  # atno 17394 bound_to 11000
  141.0876  133.9966  157.3288 LP  0  0  0  0  0  0  0  0  0  0  0  0  # atno 17395 bound_to 11000

$$$$
