AV-unprocessed.smi:3149|AV-procd|sdf|12002|dock7
  -GOLD-   2272017403D 1   1.00000     0.00000
 Structure written by MMmdl.
 38 39  0  0  0  0  0  0  0  0  2 V2000
  148.8619  138.9427  157.2811 C   0  0  0  0  0  0  0  0  0  0  0  0
  149.5695  140.3012  157.4499 C   0  0  1  0  0  0  0  0  0  0  0  0
  150.8015  140.1328  158.2563 N   0  3  0  0  0  0  0  0  0  0  0  0
  151.7950  141.2200  158.1358 C   0  0  0  0  0  0  0  0  0  0  0  0
  152.9952  140.9820  159.0568 C   0  0  0  0  0  0  0  0  0  0  0  0
  153.7032  139.9839  158.9180 O   0  0  0  0  0  0  0  0  0  0  0  0
  153.3020  141.9804  159.9834 N   0  0  0  0  0  0  0  0  0  0  0  0
  153.8027  141.6581  161.3113 C   0  0  0  0  0  0  0  0  0  0  0  0
  153.1074  142.9448  161.7674 C   0  0  0  0  0  0  0  0  0  0  0  0
  152.2766  142.8853  160.4811 C   0  0  0  0  0  0  0  0  0  0  0  0
  149.9171  140.9624  156.0875 C   0  0  1  0  0  0  0  0  0  0  0  0
  150.8093  140.0808  155.1939 C   0  0  0  0  0  0  0  0  0  0  0  0
  148.7190  141.3445  155.3470 N   0  0  0  0  0  0  0  0  0  0  0  0
  148.4028  141.0604  154.0341 C   0  0  0  0  0  0  0  0  0  0  0  0
  147.1755  141.6031  153.7822 C   0  0  0  0  0  0  0  0  0  0  0  0
  146.8069  142.1967  155.0210 C   0  0  0  0  0  0  0  0  0  0  0  0
  147.7289  142.0362  155.9561 N   0  0  0  0  0  0  0  0  0  0  0  0
  147.9114  139.0458  156.7587 H   0  0  0  0  0  0  0  0  0  0  0  0
  148.6355  138.4834  158.2429 H   0  0  0  0  0  0  0  0  0  0  0  0
  149.4781  138.2418  156.7168 H   0  0  0  0  0  0  0  0  0  0  0  0
  148.8993  140.9712  157.9910 H   0  0  0  0  0  0  0  0  0  0  0  0
  150.5537  140.0077  159.2271 H   0  0  0  0  0  0  0  0  0  0  0  0
  152.1530  141.2788  157.1073 H   0  0  0  0  0  0  0  0  0  0  0  0
  151.3266  142.1734  158.3798 H   0  0  0  0  0  0  0  0  0  0  0  0
  153.3595  140.7568  161.7399 H   0  0  0  0  0  0  0  0  0  0  0  0
  154.8898  141.6761  161.3949 H   0  0  0  0  0  0  0  0  0  0  0  0
  152.5242  142.8383  162.6827 H   0  0  0  0  0  0  0  0  0  0  0  0
  153.7764  143.8065  161.8110 H   0  0  0  0  0  0  0  0  0  0  0  0
  152.2139  143.8275  159.9352 H   0  0  0  0  0  0  0  0  0  0  0  0
  151.3023  142.4122  160.6207 H   0  0  0  0  0  0  0  0  0  0  0  0
  150.4656  141.8838  156.2909 H   0  0  0  0  0  0  0  0  0  0  0  0
  151.7910  139.9160  155.6367 H   0  0  0  0  0  0  0  0  0  0  0  0
  150.9756  140.5509  154.2239 H   0  0  0  0  0  0  0  0  0  0  0  0
  150.3541  139.1063  155.0143 H   0  0  0  0  0  0  0  0  0  0  0  0
  149.0702  140.5025  153.3936 H   0  0  0  0  0  0  0  0  0  0  0  0
  146.6222  141.5746  152.8551 H   0  0  0  0  0  0  0  0  0  0  0  0
  145.9023  142.7329  155.2675 H   0  0  0  0  0  0  0  0  0  0  0  0
  151.2577  139.2907  157.9341 H   0  0  0  0  0  0  0  0  0  0  0  0
  1  2  1  0  0  0  0
  1 18  1  0  0  0  0
  1 19  1  0  0  0  0
  1 20  1  0  0  0  0
  2  3  1  0  0  0  0
  2 11  1  0  0  0  0
  2 21  1  0  0  0  0
  3  4  1  0  0  0  0
  3 22  1  0  0  0  0
  3 38  1  0  0  0  0
  4  5  1  0  0  0  0
  4 23  1  0  0  0  0
  4 24  1  0  0  0  0
  5  6  2  0  0  0  0
  5  7  1  0  0  0  0
  7 10  1  0  0  0  0
  7  8  1  0  0  0  0
  8  9  1  0  0  0  0
  8 25  1  0  0  0  0
  8 26  1  0  0  0  0
  9 10  1  0  0  0  0
  9 27  1  0  0  0  0
  9 28  1  0  0  0  0
 10 29  1  0  0  0  0
 10 30  1  0  0  0  0
 11 12  1  0  0  0  0
 11 13  1  0  0  0  0
 11 31  1  0  0  0  0
 12 32  1  0  0  0  0
 12 33  1  0  0  0  0
 12 34  1  0  0  0  0
 13 17  1  0  0  0  0
 13 14  1  0  0  0  0
 14 15  2  0  0  0  0
 14 35  1  0  0  0  0
 15 16  1  0  0  0  0
 15 36  1  0  0  0  0
 16 17  2  0  0  0  0
 16 37  1  0  0  0  0
M  CHG  1   3   1
M  END
> <s_m_source_file>
AV-unprocessed.smi

> <i_m_source_file_index>
3149

> <i_lp_mmshare_version>
43012

> <i_f3d_flags>
0

> <s_epik_input>
bjFbY0hdW2NIXVtjSF1uMVtDQEBIXShbQ0gzXSlbQ0BIXShbQ0gzXSlbTkhdW0NIMl1DKD1PKU4yW0NIMl1bQ0gyXVtDSDJdMg==

> <s_epik_cmdline>
J2VwaWtfcHl0aG9uJywgJy1waCcsICc3LjAnLCAnLXRuJywgJzgnLCAnLW1hJywgJzIwMCcsICctbWV0YWxfYmluZGluZycsICctaW1hZScsICc8aW5maWxlLm1hZT4nLCAnLW9tYWUnLCAnPG91dGZpbGUubWFlPic=

> <r_lp_tautomer_probability>
1

> <r_epik_Ionization_Penalty>
0.141739

> <r_epik_Ionization_Penalty_Charging>
0.141731

> <r_epik_Ionization_Penalty_Neutral>
8.82171e-06

> <r_epik_State_Penalty>
0.131043

> <r_epik_Charging_Adjusted_Penalty>
0.272773

> <i_epik_Tot_Q>
1

> <i_epik_Tot_abs_Q>
1

> <r_epik_Metal_State_Penalty>
0.131384

> <b_epik_Metal_Only>
0

> <s_lp_Force_Field>
OPLS_2005

> <r_lp_Energy>
20.424

> <b_lp_Chiralities_Consistent>
1

> <s_lp_Variant>
AV-unprocessed.smi:3149-4

> <Gold.Version>
5.8.1

> <Gold.Id.Protein>
6NUR|6NUR_protein|mol2

> <Gold.PLP.Fitness>
41.1600

> <Gold.PLP.PLP>
-35.8207

> <Gold.PLP.part.hbond>
-1.0000

> <Gold.PLP.part.metal>
0.0000

> <Gold.PLP.part.buried>
-2.7939

> <Gold.PLP.part.nonpolar>
-32.2263

> <Gold.PLP.part.repulsive>
1.3783

> <Gold.PLP.ligand.clash>
0.0000

> <Gold.PLP.ligand.torsion>
0.7960

> <Gold.PLP.Chemscore.Hbond>
1.0000

> <Gold.PLP.Chemscore.CHOScore>
1.0000

> <Gold.PLP.Chemscore.Metal>
0.0000

> <Gold.Chemscore.Hbonds>
donor molecule, donor type, donor heavy atom, donor atom, acceptor molecule, acceptor atom, score
      P1  H  7997  8009       L1     6  0.98
      L1  C    14    35       P1  7957  1.00

> <Gold.PLP.Chemscore.Internal.Correction>
0.9313

> <Gold.Rescore>
     Score         DG    S(hbond)    S(metal)    S(lipo)     H(rot)  DE(clash)    DE(int)     intcor
     11.76     -12.82       0.93        0.00      76.84       1.85       0.33       0.74       ----

> <Gold.Chemscore.Fitness>
11.7569

> <Gold.Chemscore.DG>
-12.8247

> <Gold.Chemscore.ZeroCoef>
-5.4800

> <Gold.Chemscore.Hbond>
0.9286

> <Gold.Chemscore.Metal>
0.0000

> <Gold.Chemscore.Lipo>
76.8412

> <Gold.Chemscore.Internal_Hbond>
0.0000

> <Gold.Chemscore.DEClash>
0.3298

> <Gold.Chemscore.DEInternal>
0.7380

> <Gold.Chemscore.Rot>
1.8544

> <Gold.Chemscore.Internal.Correction>
   9.000000E+99

> <Gold.Chemscore.Hbonds>
donor molecule, donor type, donor heavy atom, donor atom, acceptor molecule, acceptor atom, score
      P1  H  7997  8009       L1     6  0.78

> <Gold.Chemscore.Hbond.Weighted>
-3.1015

> <Gold.Chemscore.Metal.Weighted>
-0.0000

> <Gold.Chemscore.Lipo.Weighted>
-8.9904

> <Gold.Chemscore.Internal_Hbond.Weighted>
0.0000

> <Gold.Chemscore.DEClash.Weighted>
0.3298

> <Gold.Chemscore.DEInternal.Weighted>
0.7380

> <Gold.Chemscore.Rot.Weighted>
4.7472

> <Gold.Chemscore.Internal.Correction.Weighted>
   9.000000E+99

> <Gold.Protein.RotatedTorsions>
[ 6907 6896 6895 6894 ] final -143.17 input  -60.11 | X-H torsion
[ 7974 7965 7964 7962 ] final    0.95 input  175.53 | X-H torsion
[ 8008 7997 7996 7995 ] final  132.22 input   59.86 | X-H torsion
[ 10167 10162 10161 10158 ] final   25.25 input  -65.29 | X-H torsion
[ 10718 10713 10712 10709 ] final   60.98 input   66.30 | X-H torsion
[ 10763 10752 10751 10750 ] final  156.87 input  -60.55 | X-H torsion
[ 11005 11000 10999 10996 ] final  -52.39 input  -57.11 | X-H torsion

> <Gold.Protein.ActiveResidues>
 VAL166  LYS551  ARG553  GLY616  TRP617  ASP618  TYR619  PRO620  LYS621  CYS622 
 ASP623  PHE694  ASN695  SER759  ASP760  ASP761  ALA762  ILE779  LEU786  VAL792 
 PHE793  MET794  SER795  GLU796  ALA797  LYS798  CYS799  TRP800  GLU811  SER814 

> <Gold.Protein.RotatedAtoms>
  151.0969  133.5273  159.2611 H   0  0  0  0  0  0  0  0  0  0  0  0  # atno 6907 bound_to 6896
  151.2119  135.0484  159.8924 H   0  0  0  0  0  0  0  0  0  0  0  0  # atno 6908 bound_to 6896
  152.5439  134.0783  159.8278 H   0  0  0  0  0  0  0  0  0  0  0  0  # atno 6909 bound_to 6896
  146.2437  140.1061  142.8345 H   0  0  0  0  0  0  0  0  0  0  0  0  # atno 7974 bound_to 7965
  156.2980  140.2552  156.3053 H   0  0  0  0  0  0  0  0  0  0  0  0  # atno 8008 bound_to 7997
  154.9378  140.0397  157.2100 H   0  0  0  0  0  0  0  0  0  0  0  0  # atno 8009 bound_to 7997
  154.8156  140.2851  155.5827 H   0  0  0  0  0  0  0  0  0  0  0  0  # atno 8010 bound_to 7997
  140.5121  144.0143  150.6377 H   0  0  0  0  0  0  0  0  0  0  0  0  # atno 10167 bound_to 10162
  157.5794  130.8969  149.9404 H   0  0  0  0  0  0  0  0  0  0  0  0  # atno 10718 bound_to 10713
  154.1911  135.2795  155.3021 H   0  0  0  0  0  0  0  0  0  0  0  0  # atno 10763 bound_to 10752
  154.5928  135.5554  153.7298 H   0  0  0  0  0  0  0  0  0  0  0  0  # atno 10764 bound_to 10752
  153.0112  135.6372  154.2050 H   0  0  0  0  0  0  0  0  0  0  0  0  # atno 10765 bound_to 10752
  141.0922  133.6630  156.4018 H   0  0  0  0  0  0  0  0  0  0  0  0  # atno 11005 bound_to 11000
  145.0527  140.9029  143.4986 LP  0  0  0  0  0  0  0  0  0  0  0  0  # atno 17320 bound_to 7965
  145.1162  139.2724  143.5612 LP  0  0  0  0  0  0  0  0  0  0  0  0  # atno 17321 bound_to 7965
  140.3468  143.2986  152.0530 LP  0  0  0  0  0  0  0  0  0  0  0  0  # atno 17342 bound_to 10162
  139.4899  144.6403  151.6891 LP  0  0  0  0  0  0  0  0  0  0  0  0  # atno 17343 bound_to 10162
  156.0839  130.3670  150.0525 LP  0  0  0  0  0  0  0  0  0  0  0  0  # atno 17370 bound_to 10713
  156.8667  130.9510  151.3613 LP  0  0  0  0  0  0  0  0  0  0  0  0  # atno 17371 bound_to 10713
  140.5225  134.6290  157.5323 LP  0  0  0  0  0  0  0  0  0  0  0  0  # atno 17394 bound_to 11000
  139.9750  134.7230  155.9967 LP  0  0  0  0  0  0  0  0  0  0  0  0  # atno 17395 bound_to 11000

$$$$
