AV-unprocessed.smi:284|AV-procd|sdf|2160|dock7
  -GOLD-   2262021513D 1   1.00000     0.00000
 Structure written by MMmdl.
 60 62  0  0  0  0  0  0  0  0  1 V2000
  148.9778  134.4449  155.6286 C   0  0  0  0  0  0  0  0  0  0  0  0
  149.2884  135.8975  155.3039 C   0  0  0  0  0  0  0  0  0  0  0  0
  148.3218  136.7798  154.9607 C   0  0  0  0  0  0  0  0  0  0  0  0
  148.5695  138.1062  154.6597 N   0  0  0  0  0  0  0  0  0  0  0  0
  147.4491  139.0490  154.2781 C   0  0  1  0  0  0  0  0  0  0  0  0
  147.6352  139.5465  152.8428 C   0  0  0  0  0  0  0  0  0  0  0  0
  146.6713  138.6634  152.0766 C   0  0  2  0  0  0  0  0  0  0  0  0
  146.2287  139.3027  150.8971 O   0  0  0  0  0  0  0  0  0  0  0  0
  145.5439  138.4651  153.0929 C   0  0  1  0  0  0  0  0  0  0  0  0
  144.7065  137.2003  152.8459 C   0  0  0  0  0  0  0  0  0  0  0  0
  143.4359  137.5506  152.3404 O   0  0  0  0  0  0  0  0  0  0  0  0
  146.2312  138.3652  154.3390 O   0  0  0  0  0  0  0  0  0  0  0  0
  149.8941  138.5884  154.6727 C   0  0  0  0  0  0  0  0  0  0  0  0
  150.1441  139.7598  154.3793 O   0  0  0  0  0  0  0  0  0  0  0  0
  150.9279  137.6923  155.0269 N   0  0  0  0  0  0  0  0  0  0  0  0
  152.3156  138.2050  155.0724 C   0  0  0  0  0  0  0  0  0  0  0  0
  152.5823  139.1229  156.2757 C   0  0  0  0  0  0  0  0  0  0  0  0
  153.4881  138.8593  157.0674 O   0  0  0  0  0  0  0  0  0  0  0  0
  151.7956  140.2121  156.3503 N   0  0  0  0  0  0  0  0  0  0  0  0
  151.7637  141.2273  157.3452 C   0  0  0  0  0  0  0  0  0  0  0  0
  150.9342  142.3394  157.1035 C   0  0  0  0  0  0  0  0  0  0  0  0
  150.8286  143.3780  158.0484 C   0  0  0  0  0  0  0  0  0  0  0  0
  151.5478  143.3258  159.2677 C   0  0  0  0  0  0  0  0  0  0  0  0
  151.4588  144.4403  160.3278 C   0  0  0  0  0  0  0  0  0  0  0  0
  152.0461  145.7481  159.7569 C   0  0  0  0  0  0  0  0  0  0  0  0
  152.2352  144.1055  161.6217 C   0  0  0  0  0  0  0  0  0  0  0  0
  149.9829  144.6701  160.7139 C   0  0  0  0  0  0  0  0  0  0  0  0
  152.3697  142.1997  159.5074 C   0  0  0  0  0  0  0  0  0  0  0  0
  152.4747  141.1588  158.5655 C   0  0  0  0  0  0  0  0  0  0  0  0
  150.6842  136.3382  155.3648 C   0  0  0  0  0  0  0  0  0  0  0  0
  151.6115  135.5947  155.6908 O   0  0  0  0  0  0  0  0  0  0  0  0
  147.9118  134.2296  155.5479 H   0  0  0  0  0  0  0  0  0  0  0  0
  149.2895  134.2064  156.6461 H   0  0  0  0  0  0  0  0  0  0  0  0
  149.5046  133.7800  154.9434 H   0  0  0  0  0  0  0  0  0  0  0  0
  147.3053  136.4193  154.9182 H   0  0  0  0  0  0  0  0  0  0  0  0
  147.4418  139.8489  155.0197 H   0  0  0  0  0  0  0  0  0  0  0  0
  147.3258  140.5922  152.8046 H   0  0  0  0  0  0  0  0  0  0  0  0
  148.6702  139.4728  152.5063 H   0  0  0  0  0  0  0  0  0  0  0  0
  147.1459  137.7124  151.8307 H   0  0  0  0  0  0  0  0  0  0  0  0
  145.3366  139.0403  150.7285 H   0  0  0  0  0  0  0  0  0  0  0  0
  144.9144  139.3572  153.1125 H   0  0  0  0  0  0  0  0  0  0  0  0
  145.1904  136.5706  152.0987 H   0  0  0  0  0  0  0  0  0  0  0  0
  144.6040  136.6048  153.7533 H   0  0  0  0  0  0  0  0  0  0  0  0
  143.4943  137.6178  151.3995 H   0  0  0  0  0  0  0  0  0  0  0  0
  153.0454  137.3946  155.0971 H   0  0  0  0  0  0  0  0  0  0  0  0
  152.5518  138.7406  154.1511 H   0  0  0  0  0  0  0  0  0  0  0  0
  151.1634  140.3498  155.5752 H   0  0  0  0  0  0  0  0  0  0  0  0
  150.3723  142.4041  156.1831 H   0  0  0  0  0  0  0  0  0  0  0  0
  150.1817  144.2068  157.8072 H   0  0  0  0  0  0  0  0  0  0  0  0
  152.0169  146.5513  160.4943 H   0  0  0  0  0  0  0  0  0  0  0  0
  151.4972  146.0991  158.8830 H   0  0  0  0  0  0  0  0  0  0  0  0
  153.0869  145.6162  159.4588 H   0  0  0  0  0  0  0  0  0  0  0  0
  153.2987  143.9594  161.4281 H   0  0  0  0  0  0  0  0  0  0  0  0
  151.8505  143.2051  162.1021 H   0  0  0  0  0  0  0  0  0  0  0  0
  152.1536  144.9128  162.3503 H   0  0  0  0  0  0  0  0  0  0  0  0
  149.8885  145.4408  161.4798 H   0  0  0  0  0  0  0  0  0  0  0  0
  149.5329  143.7589  161.1098 H   0  0  0  0  0  0  0  0  0  0  0  0
  149.3806  144.9904  159.8637 H   0  0  0  0  0  0  0  0  0  0  0  0
  152.9290  142.1189  160.4273 H   0  0  0  0  0  0  0  0  0  0  0  0
  153.0973  140.3131  158.8118 H   0  0  0  0  0  0  0  0  0  0  0  0
  1  2  1  0  0  0  0
  1 32  1  0  0  0  0
  1 33  1  0  0  0  0
  1 34  1  0  0  0  0
  2 30  1  0  0  0  0
  2  3  2  0  0  0  0
  3  4  1  0  0  0  0
  3 35  1  0  0  0  0
  4  5  1  0  0  0  0
  4 13  1  0  0  0  0
  5 12  1  0  0  0  0
  5  6  1  0  0  0  0
  5 36  1  0  0  0  0
  6  7  1  0  0  0  0
  6 37  1  0  0  0  0
  6 38  1  0  0  0  0
  7  8  1  0  0  0  0
  7  9  1  0  0  0  0
  7 39  1  0  0  0  0
  8 40  1  0  0  0  0
  9 10  1  0  0  0  0
  9 12  1  0  0  0  0
  9 41  1  0  0  0  0
 10 11  1  0  0  0  0
 10 42  1  0  0  0  0
 10 43  1  0  0  0  0
 11 44  1  0  0  0  0
 13 14  2  0  0  0  0
 13 15  1  0  0  0  0
 15 16  1  0  0  0  0
 15 30  1  0  0  0  0
 16 17  1  0  0  0  0
 16 45  1  0  0  0  0
 16 46  1  0  0  0  0
 17 18  2  0  0  0  0
 17 19  1  0  0  0  0
 19 20  1  0  0  0  0
 19 47  1  0  0  0  0
 20 29  1  0  0  0  0
 20 21  2  0  0  0  0
 21 22  1  0  0  0  0
 21 48  1  0  0  0  0
 22 23  2  0  0  0  0
 22 49  1  0  0  0  0
 23 24  1  0  0  0  0
 23 28  1  0  0  0  0
 24 25  1  0  0  0  0
 24 26  1  0  0  0  0
 24 27  1  0  0  0  0
 25 50  1  0  0  0  0
 25 51  1  0  0  0  0
 25 52  1  0  0  0  0
 26 53  1  0  0  0  0
 26 54  1  0  0  0  0
 26 55  1  0  0  0  0
 27 56  1  0  0  0  0
 27 57  1  0  0  0  0
 27 58  1  0  0  0  0
 28 29  2  0  0  0  0
 28 59  1  0  0  0  0
 29 60  1  0  0  0  0
 30 31  2  0  0  0  0
M  END
> <s_m_source_file>
AV-unprocessed.smi

> <i_m_source_file_index>
284

> <i_lp_mmshare_version>
43012

> <i_f3d_flags>
0

> <s_epik_input>
W09IXVtDSDJdW0NAQEhdKE8xKVtDQEhdKFtPSF0pW0NIMl1bQ0BIXTFuKFtjSF1jMltDSDNdKWMoPU8pbihjMj1PKVtDSDJdQyg9TylbTkhdYzNbY0hdW2NIXWMoQyhbQ0gzXSkoW0NIM10pW0NIM10pW2NIXVtjSF0z

> <s_epik_cmdline>
J2VwaWtfcHl0aG9uJywgJy1waCcsICc3LjAnLCAnLXRuJywgJzgnLCAnLW1hJywgJzIwMCcsICctbWV0YWxfYmluZGluZycsICctaW1hZScsICc8aW5maWxlLm1hZT4nLCAnLW9tYWUnLCAnPG91dGZpbGUubWFlPic=

> <r_lp_tautomer_probability>
1

> <r_epik_Ionization_Penalty>
4.92358e-06

> <r_epik_Ionization_Penalty_Charging>
1.29777e-07

> <r_epik_Ionization_Penalty_Neutral>
4.79381e-06

> <r_epik_State_Penalty>
-0

> <r_epik_Charging_Adjusted_Penalty>
1.29777e-07

> <i_epik_Tot_Q>
0

> <i_epik_Tot_abs_Q>
0

> <r_epik_Metal_State_Penalty>
-0

> <b_epik_Metal_Only>
0

> <s_epik_Chemistry_Notes>
This compound contains an acetal/aminal-like group ( X-CH(R)-Y where X, Y are N, S, or O) that may be acid/base labile, releasing an aldehyde.

> <s_lp_Force_Field>
OPLS_2005

> <r_lp_Energy>
39.3511

> <b_lp_Chiralities_Consistent>
1

> <s_lp_Variant>
AV-unprocessed.smi:284-4

> <Gold.Version>
5.8.1

> <Gold.Id.Protein>
6NUR|6NUR_protein|mol2

> <Gold.PLP.Fitness>
63.7018

> <Gold.PLP.PLP>
-50.4735

> <Gold.PLP.part.hbond>
-6.2687

> <Gold.PLP.part.metal>
0.0000

> <Gold.PLP.part.buried>
1.9441

> <Gold.PLP.part.nonpolar>
-46.2460

> <Gold.PLP.part.repulsive>
0.4291

> <Gold.PLP.ligand.clash>
0.0000

> <Gold.PLP.ligand.torsion>
0.8937

> <Gold.PLP.Chemscore.Hbond>
4.9750

> <Gold.PLP.Chemscore.CHOScore>
0.0000

> <Gold.PLP.Chemscore.Metal>
0.0000

> <Gold.Chemscore.Hbonds>
donor molecule, donor type, donor heavy atom, donor atom, acceptor molecule, acceptor atom, score
      L1  H     8    40       P1 10171  1.00
      L1  H    11    44       P1 10171  1.00
      P1  H  7989  7998       L1    14  0.96
      P1  H  7997  8008       L1    18  1.00
      P1  H 10752 10765       L1    31  1.00

> <Gold.PLP.Chemscore.Internal.Correction>
0.0908

> <Gold.Rescore>
     Score         DG    S(hbond)    S(metal)    S(lipo)     H(rot)  DE(clash)    DE(int)     intcor
     21.25     -28.65       4.47        0.00     141.93       3.27       3.07       4.33       ----

> <Gold.Chemscore.Fitness>
21.2490

> <Gold.Chemscore.DG>
-28.6455

> <Gold.Chemscore.ZeroCoef>
-5.4800

> <Gold.Chemscore.Hbond>
4.4728

> <Gold.Chemscore.Metal>
0.0000

> <Gold.Chemscore.Lipo>
141.9345

> <Gold.Chemscore.Internal_Hbond>
0.0000

> <Gold.Chemscore.DEClash>
3.0706

> <Gold.Chemscore.DEInternal>
4.3259

> <Gold.Chemscore.Rot>
3.2735

> <Gold.Chemscore.Internal.Correction>
   9.000000E+99

> <Gold.Chemscore.Hbonds>
donor molecule, donor type, donor heavy atom, donor atom, acceptor molecule, acceptor atom, score
      L1  H     8    40       P1 10171  0.99
      L1  H    11    44       P1 10171  0.92
      P1  H  7989  7998       L1    14  0.89
      P1  H  7997  8008       L1    18  0.47
      P1  H 10752 10765       L1    31  0.97

> <Gold.Chemscore.Hbond.Weighted>
-14.9392

> <Gold.Chemscore.Metal.Weighted>
-0.0000

> <Gold.Chemscore.Lipo.Weighted>
-16.6063

> <Gold.Chemscore.Internal_Hbond.Weighted>
0.0000

> <Gold.Chemscore.DEClash.Weighted>
3.0706

> <Gold.Chemscore.DEInternal.Weighted>
4.3259

> <Gold.Chemscore.Rot.Weighted>
8.3801

> <Gold.Chemscore.Internal.Correction.Weighted>
   9.000000E+99

> <Gold.Protein.RotatedTorsions>
[ 6907 6896 6895 6894 ] final  120.41 input  -60.11 | X-H torsion
[ 7974 7965 7964 7962 ] final   19.33 input  175.53 | X-H torsion
[ 8008 7997 7996 7995 ] final  -79.12 input   59.86 | X-H torsion
[ 10167 10162 10161 10158 ] final  -62.17 input  -65.29 | X-H torsion
[ 10718 10713 10712 10709 ] final  108.40 input   66.30 | X-H torsion
[ 10763 10752 10751 10750 ] final -171.03 input  -60.55 | X-H torsion
[ 11005 11000 10999 10996 ] final   75.99 input  -57.11 | X-H torsion

> <Gold.Protein.ActiveResidues>
 VAL166  LYS551  ARG553  GLY616  TRP617  ASP618  TYR619  PRO620  LYS621  CYS622 
 ASP623  PHE694  ASN695  SER759  ASP760  ASP761  ALA762  ILE779  LEU786  VAL792 
 PHE793  MET794  SER795  GLU796  ALA797  LYS798  CYS799  TRP800  GLU811  SER814 

> <Gold.Protein.RotatedAtoms>
  152.4400  133.7431  159.6651 H   0  0  0  0  0  0  0  0  0  0  0  0  # atno 6907 bound_to 6896
  150.8289  133.8113  159.3113 H   0  0  0  0  0  0  0  0  0  0  0  0  # atno 6908 bound_to 6896
  151.5773  135.1062  160.0061 H   0  0  0  0  0  0  0  0  0  0  0  0  # atno 6909 bound_to 6896
  146.2153  139.8328  142.8656 H   0  0  0  0  0  0  0  0  0  0  0  0  # atno 7974 bound_to 7965
  154.5755  140.0683  156.9027 H   0  0  0  0  0  0  0  0  0  0  0  0  # atno 8008 bound_to 7997
  155.2557  140.3355  155.4259 H   0  0  0  0  0  0  0  0  0  0  0  0  # atno 8009 bound_to 7997
  156.2150  140.1775  156.7593 H   0  0  0  0  0  0  0  0  0  0  0  0  # atno 8010 bound_to 7997
  140.5957  143.2350  151.6042 H   0  0  0  0  0  0  0  0  0  0  0  0  # atno 10167 bound_to 10162
  157.6588  131.0893  150.6299 H   0  0  0  0  0  0  0  0  0  0  0  0  # atno 10718 bound_to 10713
  154.6350  135.2891  155.0171 H   0  0  0  0  0  0  0  0  0  0  0  0  # atno 10763 bound_to 10752
  154.1318  135.6532  153.4927 H   0  0  0  0  0  0  0  0  0  0  0  0  # atno 10764 bound_to 10752
  153.0298  135.5312  154.7193 H   0  0  0  0  0  0  0  0  0  0  0  0  # atno 10765 bound_to 10752
  139.9318  134.7564  156.1340 H   0  0  0  0  0  0  0  0  0  0  0  0  # atno 11005 bound_to 11000
  145.2980  141.0186  143.3625 LP  0  0  0  0  0  0  0  0  0  0  0  0  # atno 17320 bound_to 7965
  144.9027  139.4628  143.6624 LP  0  0  0  0  0  0  0  0  0  0  0  0  # atno 17321 bound_to 7965
  139.5256  144.3069  152.1026 LP  0  0  0  0  0  0  0  0  0  0  0  0  # atno 17342 bound_to 10162
  140.2241  144.4436  150.6329 LP  0  0  0  0  0  0  0  0  0  0  0  0  # atno 17343 bound_to 10162
  156.6603  130.4510  149.5690 LP  0  0  0  0  0  0  0  0  0  0  0  0  # atno 17370 bound_to 10713
  156.2072  130.6656  151.1230 LP  0  0  0  0  0  0  0  0  0  0  0  0  # atno 17371 bound_to 10713
  141.0911  133.6714  156.2542 LP  0  0  0  0  0  0  0  0  0  0  0  0  # atno 17394 bound_to 11000
  140.6181  134.5389  157.5543 LP  0  0  0  0  0  0  0  0  0  0  0  0  # atno 17395 bound_to 11000

$$$$
