#       Name:                AV-unprocessed.smi:2252
#       Creating user name   scv26
#       Creation time:       Fri Mar 27 12:30:33 2020


#       File generated by GOLD software.
#

@<TRIPOS>MOLECULE
AV-unprocessed.smi:2252
    48    50     1
SMALL
NO_CHARGES


@<TRIPOS>ATOM
      1 ****        -1.6269   3.4059   0.9585 C.3            1 S1                 0.0000
      2 ****        -2.0524   2.4446   1.9782 N.pl3          1 S1                 0.0000
      3 ****        -1.6827   2.4430   3.2988 C.2            1 S1                 0.0000
      4 ****        -2.3057   1.3700   3.8801 C.2            1 S1                 0.0000
      5 ****        -3.0307   0.7622   2.8916 N.pl3          1 S1                 1.0000
      6 ****        -2.8805   1.4147   1.7328 C.2            1 S1                 0.0000
      7 ****        -3.5191   1.0243   0.4321 C.3            1 S1                 0.0000
      8 ****        -2.9044  -0.2334  -0.2036 C.3            1 S1                 0.0000
      9 ****        -1.4669  -0.0844  -0.4118 N.am           1 S1                 0.0000
     10 ****        -0.5729  -1.0839  -0.3567 C.2            1 S1                 0.0000
     11 ****        -0.8801  -2.2522  -0.1185 O.2            1 S1                 0.0000
     12 ****         0.8998  -0.7061  -0.5835 C.3            1 S1                 0.0000
     13 ****         1.5799  -0.5415   0.7937 C.3            1 S1                 0.0000
     14 ****         1.2330   0.6225   1.6977 C.3            1 S1                 0.0000
     15 ****         2.5913   0.5552   1.0505 C.3            1 S1                 0.0000
     16 ****         1.6102  -1.7164  -1.4194 N.4            1 S1                 1.0000
     17 ****         1.0660  -1.9134  -2.7810 C.3            1 S1                 0.0000
     18 ****         2.1745  -2.6319  -3.5412 C.3            1 S1                 0.0000
     19 ****         3.4519  -2.0160  -2.9762 C.3            1 S1                 0.0000
     20 ****         3.0682  -1.4961  -1.5827 C.3            1 S1                 0.0000
     21 ****        -0.8562   4.0581   1.3709 H              1 S1                 0.0000
     22 ****        -2.4836   4.0067   0.6517 H              1 S1                 0.0000
     23 ****        -1.2208   2.8713   0.0993 H              1 S1                 0.0000
     24 ****        -1.0194   3.1859   3.7180 H              1 S1                 0.0000
     25 ****        -2.2881   1.0033   4.8963 H              1 S1                 0.0000
     26 ****        -4.5781   0.8661   0.6381 H              1 S1                 0.0000
     27 ****        -3.4543   1.8730  -0.2487 H              1 S1                 0.0000
     28 ****        -3.1099  -1.0909   0.4397 H              1 S1                 0.0000
     29 ****        -3.3816  -0.4387  -1.1622 H              1 S1                 0.0000
     30 ****        -1.1291   0.8453  -0.6153 H              1 S1                 0.0000
     31 ****         0.9333   0.2487  -1.1123 H              1 S1                 0.0000
     32 ****         1.7603  -1.4854   1.3062 H              1 S1                 0.0000
     33 ****         0.5442   1.3744   1.3211 H              1 S1                 0.0000
     34 ****         1.1727   0.4284   2.7668 H              1 S1                 0.0000
     35 ****         3.4407   0.3148   1.6866 H              1 S1                 0.0000
     36 ****         2.7957   1.2615   0.2480 H              1 S1                 0.0000
     37 ****         0.1376  -2.4855  -2.7778 H              1 S1                 0.0000
     38 ****         0.8675  -0.9448  -3.2433 H              1 S1                 0.0000
     39 ****         2.1464  -3.6982  -3.3122 H              1 S1                 0.0000
     40 ****         2.0898  -2.5185  -4.6225 H              1 S1                 0.0000
     41 ****         4.2696  -2.7367  -2.9400 H              1 S1                 0.0000
     42 ****         3.7737  -1.1844  -3.6043 H              1 S1                 0.0000
     43 ****         3.3133  -0.4353  -1.5174 H              1 S1                 0.0000
     44 ****         3.6132  -2.0138  -0.7926 H              1 S1                 0.0000
     45 ****         1.5134  -2.6069  -0.9519 H              1 S1                 0.0000
     46 ****        -3.6023  -0.0641   3.0173 H              1 S1                 0.0000
     47 ****        -1.8364  -2.4943   0.0456 LP             1 S1                 0.0000
     48 ****        -0.1733  -2.9590  -0.0891 LP             1 S1                 0.0000
@<TRIPOS>BOND
    1    1    2 1     
    2    1   21 1     
    3    1   22 1     
    4    1   23 1     
    5    2    6 1     
    6    2    3 1     
    7    3    4 2     
    8    3   24 1     
    9    4    5 1     
   10    4   25 1     
   11    5    6 2     
   12    5   46 1     
   13    6    7 1     
   14    7    8 1     
   15    7   26 1     
   16    7   27 1     
   17    8    9 1     
   18    8   28 1     
   19    8   29 1     
   20    9   10 am    
   21    9   30 1     
   22   10   11 2     
   23   10   12 1     
   24   12   13 1     
   25   12   16 1     
   26   12   31 1     
   27   13   15 1     
   28   13   14 1     
   29   13   32 1     
   30   14   15 1     
   31   14   33 1     
   32   14   34 1     
   33   15   35 1     
   34   15   36 1     
   35   16   20 1     
   36   16   17 1     
   37   16   45 1     
   38   17   18 1     
   39   17   37 1     
   40   17   38 1     
   41   18   19 1     
   42   18   39 1     
   43   18   40 1     
   44   19   20 1     
   45   19   41 1     
   46   19   42 1     
   47   20   43 1     
   48   20   44 1     
   49   11   47 1     
   50   11   48 1     
@<TRIPOS>SUBSTRUCTURE
      1 S1             1
@<TRIPOS>SET
LONE_PAIRS      STATIC     ATOMS    <user>   **** ""
2 47 48
DONOR_HYDROGENS      STATIC     ATOMS    <user>   **** ""
3 46 30 45
ATOM$BLUE        STATIC     ATOMS    COLORGROUP SYSTEM
2 47 48
ATOM$RED        STATIC     ATOMS    COLORGROUP SYSTEM
3 46 30 45
