AV-unprocessed.smi:109|AV-procd|sdf|1034|dock7
  -GOLD-   2262018 43D 1   1.00000     0.00000
 Structure written by MMmdl.
 58 61  0  0  0  0  0  0  0  0  1 V2000
  146.1157  141.9861  155.5298 O   0  0  0  0  0  0  0  0  0  0  0  0
  146.4935  142.2486  154.1957 C   0  0  0  0  0  0  0  0  0  0  0  0
  147.9617  141.8480  153.9798 C   0  0  0  0  0  0  0  0  0  0  0  0
  148.2274  140.3558  154.2780 C   0  0  1  0  0  0  0  0  0  0  0  0
  147.7635  139.5374  153.1576 N   0  0  0  0  0  0  0  0  0  0  0  0
  146.7403  138.6641  153.2912 C   0  0  0  0  0  0  0  0  0  0  0  0
  146.0361  138.5710  154.4492 N   0  0  0  0  0  0  0  0  0  0  0  0
  145.0245  137.7042  154.5486 C   0  0  0  0  0  0  0  0  0  0  0  0
  144.5595  136.8569  153.6287 N   0  0  0  0  0  0  0  0  0  0  0  0
  145.2626  136.9438  152.4621 C   0  0  0  0  0  0  0  0  0  0  0  0
  146.3595  137.8171  152.2181 C   0  0  0  0  0  0  0  0  0  0  0  0
  146.8269  137.6363  150.9232 N   0  0  0  0  0  0  0  0  0  0  0  0
  146.0468  136.7111  150.4328 C   0  0  0  0  0  0  0  0  0  0  0  0
  145.0748  136.2403  151.2874 N   0  0  0  0  0  0  0  0  0  0  0  0
  144.0420  135.1930  150.9936 C   0  0  1  0  0  0  0  0  0  0  0  0
  144.2035  134.7354  149.6817 O   0  0  0  0  0  0  0  0  0  0  0  0
  144.4009  133.3242  149.6836 C   0  0  2  0  0  0  0  0  0  0  0  0
  143.8901  132.6992  148.3733 C   0  0  0  0  0  0  0  0  0  0  0  0
  142.4830  132.7663  148.2656 O   0  0  0  0  0  0  0  0  0  0  0  0
  143.7580  132.8434  150.9870 C   0  0  1  0  0  0  0  0  0  0  0  0
  144.2228  131.5760  151.4126 O   0  0  0  0  0  0  0  0  0  0  0  0
  144.1244  133.9747  151.9388 C   0  0  1  0  0  0  0  0  0  0  0  0
  145.4030  133.8030  152.5319 O   0  0  0  0  0  0  0  0  0  0  0  0
  149.7065  140.0303  154.6247 C   0  0  0  0  0  0  0  0  0  0  0  0
  150.0016  138.5145  154.6165 C   0  0  0  0  0  0  0  0  0  0  0  0
  151.4926  138.2307  154.8618 C   0  0  0  0  0  0  0  0  0  0  0  0
  151.9706  138.8674  156.1760 C   0  0  0  0  0  0  0  0  0  0  0  0
  151.6805  140.3763  156.1985 C   0  0  0  0  0  0  0  0  0  0  0  0
  150.1900  140.6618  155.9501 C   0  0  0  0  0  0  0  0  0  0  0  0
  143.0883  135.7170  151.0661 H   0  0  0  0  0  0  0  0  0  0  0  0
  145.4781  133.1613  149.7423 H   0  0  0  0  0  0  0  0  0  0  0  0
  142.6726  132.8078  150.8893 H   0  0  0  0  0  0  0  0  0  0  0  0
  143.3914  134.0836  152.7386 H   0  0  0  0  0  0  0  0  0  0  0  0
  145.3530  141.4280  155.5212 H   0  0  0  0  0  0  0  0  0  0  0  0
  145.8399  141.6898  153.5251 H   0  0  0  0  0  0  0  0  0  0  0  0
  146.3419  143.3087  153.9906 H   0  0  0  0  0  0  0  0  0  0  0  0
  148.2553  142.0842  152.9562 H   0  0  0  0  0  0  0  0  0  0  0  0
  148.5784  142.4722  154.6251 H   0  0  0  0  0  0  0  0  0  0  0  0
  147.6265  140.1088  155.1540 H   0  0  0  0  0  0  0  0  0  0  0  0
  148.2630  139.6637  152.2889 H   0  0  0  0  0  0  0  0  0  0  0  0
  144.5133  137.6886  155.4998 H   0  0  0  0  0  0  0  0  0  0  0  0
  146.1573  136.3460  149.4221 H   0  0  0  0  0  0  0  0  0  0  0  0
  144.3477  133.1876  147.5127 H   0  0  0  0  0  0  0  0  0  0  0  0
  144.1771  131.6484  148.3320 H   0  0  0  0  0  0  0  0  0  0  0  0
  142.2609  132.9926  147.3754 H   0  0  0  0  0  0  0  0  0  0  0  0
  143.8331  130.9136  150.8627 H   0  0  0  0  0  0  0  0  0  0  0  0
  145.5422  132.8805  152.6813 H   0  0  0  0  0  0  0  0  0  0  0  0
  150.3196  140.4569  153.8293 H   0  0  0  0  0  0  0  0  0  0  0  0
  149.4171  138.0063  155.3831 H   0  0  0  0  0  0  0  0  0  0  0  0
  149.7020  138.0816  153.6614 H   0  0  0  0  0  0  0  0  0  0  0  0
  151.6670  137.1547  154.8854 H   0  0  0  0  0  0  0  0  0  0  0  0
  152.0812  138.6209  154.0305 H   0  0  0  0  0  0  0  0  0  0  0  0
  151.4707  138.3864  157.0178 H   0  0  0  0  0  0  0  0  0  0  0  0
  153.0385  138.6915  156.3082 H   0  0  0  0  0  0  0  0  0  0  0  0
  151.9847  140.7984  157.1567 H   0  0  0  0  0  0  0  0  0  0  0  0
  152.2804  140.8757  155.4366 H   0  0  0  0  0  0  0  0  0  0  0  0
  150.0261  141.7396  155.9373 H   0  0  0  0  0  0  0  0  0  0  0  0
  149.6115  140.2699  156.7871 H   0  0  0  0  0  0  0  0  0  0  0  0
  1  2  1  0  0  0  0
  1 34  1  0  0  0  0
  2  3  1  0  0  0  0
  2 35  1  0  0  0  0
  2 36  1  0  0  0  0
  3  4  1  0  0  0  0
  3 37  1  0  0  0  0
  3 38  1  0  0  0  0
  4  5  1  0  0  0  0
  4 24  1  0  0  0  0
  4 39  1  0  0  0  0
  5  6  1  0  0  0  0
  5 40  1  0  0  0  0
  6 11  1  0  0  0  0
  6  7  2  0  0  0  0
  7  8  1  0  0  0  0
  8  9  2  0  0  0  0
  8 41  1  0  0  0  0
  9 10  1  0  0  0  0
 10 14  1  0  0  0  0
 10 11  2  0  0  0  0
 11 12  1  0  0  0  0
 12 13  2  0  0  0  0
 13 14  1  0  0  0  0
 13 42  1  0  0  0  0
 14 15  1  0  0  0  0
 15 30  1  0  0  0  0
 15 22  1  0  0  0  0
 15 16  1  0  0  0  0
 16 17  1  0  0  0  0
 17 31  1  0  0  0  0
 17 18  1  0  0  0  0
 17 20  1  0  0  0  0
 18 19  1  0  0  0  0
 18 43  1  0  0  0  0
 18 44  1  0  0  0  0
 19 45  1  0  0  0  0
 20 32  1  0  0  0  0
 20 21  1  0  0  0  0
 20 22  1  0  0  0  0
 21 46  1  0  0  0  0
 22 33  1  0  0  0  0
 22 23  1  0  0  0  0
 23 47  1  0  0  0  0
 24 29  1  0  0  0  0
 24 25  1  0  0  0  0
 24 48  1  0  0  0  0
 25 26  1  0  0  0  0
 25 49  1  0  0  0  0
 25 50  1  0  0  0  0
 26 27  1  0  0  0  0
 26 51  1  0  0  0  0
 26 52  1  0  0  0  0
 27 28  1  0  0  0  0
 27 53  1  0  0  0  0
 27 54  1  0  0  0  0
 28 29  1  0  0  0  0
 28 55  1  0  0  0  0
 28 56  1  0  0  0  0
 29 57  1  0  0  0  0
 29 58  1  0  0  0  0
M  END
> <s_m_source_file>
AV-unprocessed.smi

> <i_m_source_file_index>
109

> <i_lp_mmshare_version>
43012

> <i_f3d_flags>
0

> <s_epik_input>
W0NIMl0xW0NIMl1bQ0gyXVtDSDJdW0NIMl1bQ0hdMVtDQEhdKFtDSDJdW0NIMl1bT0hdKVtOSF1jKG5bY0hdbjIpYyhjMjMpbltjSF1uM1tDQEBIXTRPW0NASF0oW0NIMl1bT0hdKVtDQEBIXShbT0hdKVtDQEhdNFtPSF0=

> <s_epik_cmdline>
J2VwaWtfcHl0aG9uJywgJy1waCcsICc3LjAnLCAnLXRuJywgJzgnLCAnLW1hJywgJzIwMCcsICctbWV0YWxfYmluZGluZycsICctaW1hZScsICc8aW5maWxlLm1hZT4nLCAnLW9tYWUnLCAnPG91dGZpbGUubWFlPic=

> <r_lp_tautomer_probability>
1

> <r_epik_Ionization_Penalty>
0.000793976

> <r_epik_Ionization_Penalty_Charging>
0

> <r_epik_Ionization_Penalty_Neutral>
0.000793976

> <r_epik_State_Penalty>
-0

> <r_epik_Charging_Adjusted_Penalty>
0

> <i_epik_Tot_Q>
0

> <i_epik_Tot_abs_Q>
0

> <r_epik_Metal_State_Penalty>
-0

> <b_epik_Metal_Only>
0

> <s_epik_Chemistry_Notes>
This compound contains an acetal/aminal-like group ( X-CH(R)-Y where X, Y are N, S, or O) that may be acid/base labile, releasing an aldehyde.

> <s_lp_Force_Field>
OPLS_2005

> <r_lp_Energy>
63.9822

> <b_lp_Chiralities_Consistent>
1

> <s_lp_Variant>
AV-unprocessed.smi:109-4

> <Gold.Version>
5.8.1

> <Gold.Id.Protein>
6NUR|6NUR_protein|mol2

> <Gold.PLP.Fitness>
62.1568

> <Gold.PLP.PLP>
-50.7586

> <Gold.PLP.part.hbond>
-4.8359

> <Gold.PLP.part.metal>
0.0000

> <Gold.PLP.part.buried>
-2.0475

> <Gold.PLP.part.nonpolar>
-46.9867

> <Gold.PLP.part.repulsive>
4.4276

> <Gold.PLP.ligand.clash>
0.0000

> <Gold.PLP.ligand.torsion>
0.3972

> <Gold.PLP.Chemscore.Hbond>
3.0000

> <Gold.PLP.Chemscore.CHOScore>
1.0000

> <Gold.PLP.Chemscore.Metal>
0.0000

> <Gold.Chemscore.Hbonds>
donor molecule, donor type, donor heavy atom, donor atom, acceptor molecule, acceptor atom, score
      L1  H     5    40       P1  7957  1.00
      L1  H    19    45       P1 10195  1.00
      P1  H  7954  7966       L1    12  1.00
      L1  C    13    42       P1  7921  1.00

> <Gold.PLP.Chemscore.Internal.Correction>
0.1926

> <Gold.Rescore>
     Score         DG    S(hbond)    S(metal)    S(lipo)     H(rot)  DE(clash)    DE(int)     intcor
      8.48     -13.27       2.82        0.00     105.66       5.47       3.62       1.16       ----

> <Gold.Chemscore.Fitness>
8.4839

> <Gold.Chemscore.DG>
-13.2664

> <Gold.Chemscore.ZeroCoef>
-5.4800

> <Gold.Chemscore.Hbond>
2.8196

> <Gold.Chemscore.Metal>
0.0000

> <Gold.Chemscore.Lipo>
105.6610

> <Gold.Chemscore.Internal_Hbond>
0.0000

> <Gold.Chemscore.DEClash>
3.6217

> <Gold.Chemscore.DEInternal>
1.1608

> <Gold.Chemscore.Rot>
5.4662

> <Gold.Chemscore.Internal.Correction>
   9.000000E+99

> <Gold.Chemscore.Hbonds>
donor molecule, donor type, donor heavy atom, donor atom, acceptor molecule, acceptor atom, score
      L1  H     5    40       P1  7957  1.00
      L1  H    19    45       P1 10195  0.99
      P1  H  7954  7966       L1    12  0.70

> <Gold.Chemscore.Hbond.Weighted>
-9.4175

> <Gold.Chemscore.Metal.Weighted>
-0.0000

> <Gold.Chemscore.Lipo.Weighted>
-12.3623

> <Gold.Chemscore.Internal_Hbond.Weighted>
0.0000

> <Gold.Chemscore.DEClash.Weighted>
3.6217

> <Gold.Chemscore.DEInternal.Weighted>
1.1608

> <Gold.Chemscore.Rot.Weighted>
13.9935

> <Gold.Chemscore.Internal.Correction.Weighted>
   9.000000E+99

> <Gold.Protein.RotatedTorsions>
[ 6907 6896 6895 6894 ] final  -81.09 input  -60.11 | X-H torsion
[ 7974 7965 7964 7962 ] final -147.10 input  175.53 | X-H torsion
[ 8008 7997 7996 7995 ] final   99.56 input   59.86 | X-H torsion
[ 10167 10162 10161 10158 ] final  -41.47 input  -65.29 | X-H torsion
[ 10718 10713 10712 10709 ] final  145.56 input   66.30 | X-H torsion
[ 10763 10752 10751 10750 ] final   44.98 input  -60.55 | X-H torsion
[ 11005 11000 10999 10996 ] final  -73.71 input  -57.11 | X-H torsion

> <Gold.Protein.ActiveResidues>
 VAL166  LYS551  ARG553  GLY616  TRP617  ASP618  TYR619  PRO620  LYS621  CYS622 
 ASP623  PHE694  ASN695  SER759  ASP760  ASP761  ALA762  ILE779  LEU786  VAL792 
 PHE793  MET794  SER795  GLU796  ALA797  LYS798  CYS799  TRP800  GLU811  SER814 

> <Gold.Protein.RotatedAtoms>
  150.6918  134.3871  159.5059 H   0  0  0  0  0  0  0  0  0  0  0  0  # atno 6907 bound_to 6896
  152.1664  134.8867  160.0547 H   0  0  0  0  0  0  0  0  0  0  0  0  # atno 6908 bound_to 6896
  151.9909  133.3756  159.4181 H   0  0  0  0  0  0  0  0  0  0  0  0  # atno 6909 bound_to 6896
  144.8115  140.5370  143.5639 H   0  0  0  0  0  0  0  0  0  0  0  0  # atno 7974 bound_to 7965
  156.1117  140.3227  155.8081 H   0  0  0  0  0  0  0  0  0  0  0  0  # atno 8008 bound_to 7997
  155.4662  140.0543  157.3002 H   0  0  0  0  0  0  0  0  0  0  0  0  # atno 8009 bound_to 7997
  154.4764  140.2034  155.9882 H   0  0  0  0  0  0  0  0  0  0  0  0  # atno 8010 bound_to 7997
  140.7001  143.3093  151.3071 H   0  0  0  0  0  0  0  0  0  0  0  0  # atno 10167 bound_to 10162
  157.3438  131.0940  151.1060 H   0  0  0  0  0  0  0  0  0  0  0  0  # atno 10718 bound_to 10713
  152.9832  135.6054  154.3362 H   0  0  0  0  0  0  0  0  0  0  0  0  # atno 10763 bound_to 10752
  154.3062  135.2772  155.2589 H   0  0  0  0  0  0  0  0  0  0  0  0  # atno 10764 bound_to 10752
  154.4819  135.5915  153.6452 H   0  0  0  0  0  0  0  0  0  0  0  0  # atno 10765 bound_to 10752
  141.1626  133.6887  156.7254 H   0  0  0  0  0  0  0  0  0  0  0  0  # atno 11005 bound_to 11000
  145.5312  139.1475  143.3498 LP  0  0  0  0  0  0  0  0  0  0  0  0  # atno 17320 bound_to 7965
  146.2414  140.5453  142.8932 LP  0  0  0  0  0  0  0  0  0  0  0  0  # atno 17321 bound_to 7965
  139.6510  144.0363  152.2626 LP  0  0  0  0  0  0  0  0  0  0  0  0  # atno 17342 bound_to 10162
  139.9899  144.6369  150.7823 LP  0  0  0  0  0  0  0  0  0  0  0  0  # atno 17343 bound_to 10162
  157.2262  130.6504  149.5831 LP  0  0  0  0  0  0  0  0  0  0  0  0  # atno 17370 bound_to 10713
  155.9711  130.4613  150.6106 LP  0  0  0  0  0  0  0  0  0  0  0  0  # atno 17371 bound_to 10713
  140.2785  134.8336  157.3912 LP  0  0  0  0  0  0  0  0  0  0  0  0  # atno 17394 bound_to 11000
  140.1455  134.4917  155.7999 LP  0  0  0  0  0  0  0  0  0  0  0  0  # atno 17395 bound_to 11000

$$$$
