AV-unprocessed.smi:282|AV-procd|sdf|2117|dock1
  -GOLD-   2262021413D 1   1.00000     0.00000
 Structure written by MMmdl.
 65 69  0  0  0  0  0  0  0  0  2 V2000
  140.5637  136.2790  153.8383 C   0  0  0  0  0  0  0  0  0  0  0  0
  141.8576  135.5105  153.5399 C   0  0  0  0  0  0  0  0  0  0  0  0
  143.1016  136.4208  153.4441 C   0  0  2  0  0  0  0  0  0  0  0  0
  143.8585  136.2249  152.1137 C   0  0  0  0  0  0  0  0  0  0  0  0
  144.5773  134.9251  152.0672 N   0  3  1  0  0  0  0  0  0  0  0  0
  145.2534  134.7105  150.7624 C   0  0  0  0  0  0  0  0  0  0  0  0
  145.8876  133.3128  150.6855 C   0  0  0  0  0  0  0  0  0  0  0  0
  146.8617  133.0912  151.8487 C   0  0  0  0  0  0  0  0  0  0  0  0
  146.1461  133.3363  153.1833 C   0  0  0  0  0  0  0  0  0  0  0  0
  145.4994  134.7345  153.2248 C   0  0  2  0  0  0  0  0  0  0  0  0
  144.7572  134.9553  154.5602 C   0  0  0  0  0  0  0  0  0  0  0  0
  144.0234  136.2223  154.5667 N   0  0  0  0  0  0  0  0  0  0  0  0
  144.6403  137.3344  155.0524 C   0  0  0  0  0  0  0  0  0  0  0  0
  143.9235  138.4738  155.2460 N   0  0  0  0  0  0  0  0  0  0  0  0
  144.5134  139.5755  155.7179 C   0  0  0  0  0  0  0  0  0  0  0  0
  145.7900  139.7563  156.0571 N   0  0  0  0  0  0  0  0  0  0  0  0
  146.5194  138.6203  155.8681 C   0  0  0  0  0  0  0  0  0  0  0  0
  146.0290  137.3790  155.3700 C   0  0  0  0  0  0  0  0  0  0  0  0
  147.0702  136.4624  155.2895 N   0  0  0  0  0  0  0  0  0  0  0  0
  148.1111  137.1193  155.7214 C   0  0  0  0  0  0  0  0  0  0  0  0
  147.8687  138.4187  156.1070 N   0  0  0  0  0  0  0  0  0  0  0  0
  148.8484  139.3721  156.6114 C   0  0  0  0  0  0  0  0  0  0  0  0
  149.6562  140.1394  155.5158 C   0  0  0  0  0  0  0  0  0  0  0  0
  148.7074  140.7865  154.4717 C   0  0  0  0  0  0  0  0  0  0  0  0
  149.3947  141.2032  153.3086 O   0  0  0  0  0  0  0  0  0  0  0  0
  150.5254  141.2438  156.1682 C   0  0  0  0  0  0  0  0  0  0  0  0
  151.7133  140.6762  156.9665 C   0  0  0  0  0  0  0  0  0  0  0  0
  152.5141  139.8535  156.1279 O   0  0  0  0  0  0  0  0  0  0  0  0
  151.8067  138.7295  155.6205 C   0  0  0  0  0  0  0  0  0  0  0  0
  150.6257  139.2024  154.7525 C   0  0  0  0  0  0  0  0  0  0  0  0
  139.7124  135.6000  153.8884 H   0  0  0  0  0  0  0  0  0  0  0  0
  140.3552  137.0143  153.0609 H   0  0  0  0  0  0  0  0  0  0  0  0
  140.6222  136.8058  154.7911 H   0  0  0  0  0  0  0  0  0  0  0  0
  142.0007  134.7343  154.2917 H   0  0  0  0  0  0  0  0  0  0  0  0
  141.7279  134.9846  152.5935 H   0  0  0  0  0  0  0  0  0  0  0  0
  142.7360  137.4469  153.4374 H   0  0  0  0  0  0  0  0  0  0  0  0
  143.1652  136.2965  151.2745 H   0  0  0  0  0  0  0  0  0  0  0  0
  144.5835  137.0309  151.9870 H   0  0  0  0  0  0  0  0  0  0  0  0
  144.5304  134.8245  149.9537 H   0  0  0  0  0  0  0  0  0  0  0  0
  146.0161  135.4773  150.6159 H   0  0  0  0  0  0  0  0  0  0  0  0
  145.1061  132.5521  150.7096 H   0  0  0  0  0  0  0  0  0  0  0  0
  146.4086  133.1918  149.7352 H   0  0  0  0  0  0  0  0  0  0  0  0
  147.2645  132.0785  151.8166 H   0  0  0  0  0  0  0  0  0  0  0  0
  147.7113  133.7689  151.7545 H   0  0  0  0  0  0  0  0  0  0  0  0
  145.3831  132.5705  153.3318 H   0  0  0  0  0  0  0  0  0  0  0  0
  146.8555  133.2290  154.0047 H   0  0  0  0  0  0  0  0  0  0  0  0
  146.2910  135.4805  153.1393 H   0  0  0  0  0  0  0  0  0  0  0  0
  144.0451  134.1470  154.7269 H   0  0  0  0  0  0  0  0  0  0  0  0
  145.4529  134.9026  155.3989 H   0  0  0  0  0  0  0  0  0  0  0  0
  143.8714  140.4356  155.8393 H   0  0  0  0  0  0  0  0  0  0  0  0
  149.0922  136.6698  155.7714 H   0  0  0  0  0  0  0  0  0  0  0  0
  148.3149  140.0851  157.2413 H   0  0  0  0  0  0  0  0  0  0  0  0
  149.5106  138.8362  157.2898 H   0  0  0  0  0  0  0  0  0  0  0  0
  147.9354  140.0792  154.1661 H   0  0  0  0  0  0  0  0  0  0  0  0
  148.1813  141.6427  154.8946 H   0  0  0  0  0  0  0  0  0  0  0  0
  149.2822  140.5437  152.6410 H   0  0  0  0  0  0  0  0  0  0  0  0
  150.9227  141.9008  155.3935 H   0  0  0  0  0  0  0  0  0  0  0  0
  149.9184  141.8770  156.8163 H   0  0  0  0  0  0  0  0  0  0  0  0
  152.3303  141.4930  157.3412 H   0  0  0  0  0  0  0  0  0  0  0  0
  151.3788  140.1145  157.8392 H   0  0  0  0  0  0  0  0  0  0  0  0
  152.4915  138.1320  155.0187 H   0  0  0  0  0  0  0  0  0  0  0  0
  151.4778  138.0914  156.4406 H   0  0  0  0  0  0  0  0  0  0  0  0
  150.0966  138.3459  154.3363 H   0  0  0  0  0  0  0  0  0  0  0  0
  151.0394  139.7330  153.8936 H   0  0  0  0  0  0  0  0  0  0  0  0
  143.8704  134.2083  152.1464 H   0  0  0  0  0  0  0  0  0  0  0  0
  1  2  1  0  0  0  0
  1 31  1  0  0  0  0
  1 32  1  0  0  0  0
  1 33  1  0  0  0  0
  2  3  1  0  0  0  0
  2 34  1  0  0  0  0
  2 35  1  0  0  0  0
  3 12  1  0  0  0  0
  3  4  1  0  0  0  0
  3 36  1  0  0  0  0
  4  5  1  0  0  0  0
  4 37  1  0  0  0  0
  4 38  1  0  0  0  0
  5 10  1  0  0  0  0
  5  6  1  0  0  0  0
  5 65  1  0  0  0  0
  6  7  1  0  0  0  0
  6 39  1  0  0  0  0
  6 40  1  0  0  0  0
  7  8  1  0  0  0  0
  7 41  1  0  0  0  0
  7 42  1  0  0  0  0
  8  9  1  0  0  0  0
  8 43  1  0  0  0  0
  8 44  1  0  0  0  0
  9 10  1  0  0  0  0
  9 45  1  0  0  0  0
  9 46  1  0  0  0  0
 10 11  1  0  0  0  0
 10 47  1  0  0  0  0
 11 12  1  0  0  0  0
 11 48  1  0  0  0  0
 11 49  1  0  0  0  0
 12 13  1  0  0  0  0
 13 18  1  0  0  0  0
 13 14  2  0  0  0  0
 14 15  1  0  0  0  0
 15 16  2  0  0  0  0
 15 50  1  0  0  0  0
 16 17  1  0  0  0  0
 17 21  1  0  0  0  0
 17 18  2  0  0  0  0
 18 19  1  0  0  0  0
 19 20  2  0  0  0  0
 20 21  1  0  0  0  0
 20 51  1  0  0  0  0
 21 22  1  0  0  0  0
 22 23  1  0  0  0  0
 22 52  1  0  0  0  0
 22 53  1  0  0  0  0
 23 30  1  0  0  0  0
 23 24  1  0  0  0  0
 23 26  1  0  0  0  0
 24 25  1  0  0  0  0
 24 54  1  0  0  0  0
 24 55  1  0  0  0  0
 25 56  1  0  0  0  0
 26 27  1  0  0  0  0
 26 57  1  0  0  0  0
 26 58  1  0  0  0  0
 27 28  1  0  0  0  0
 27 59  1  0  0  0  0
 27 60  1  0  0  0  0
 28 29  1  0  0  0  0
 29 30  1  0  0  0  0
 29 61  1  0  0  0  0
 29 62  1  0  0  0  0
 30 63  1  0  0  0  0
 30 64  1  0  0  0  0
M  CHG  1   5   1
M  END
> <s_m_source_file>
AV-unprocessed.smi

> <i_m_source_file_index>
282

> <i_lp_mmshare_version>
43012

> <i_f3d_flags>
0

> <s_epik_input>
W0NIMl0xW0NIMl1bQ0gyXVtDSDJdW0NAQEhdKE4xMilbQ0gyXU4oW0NAQEhdKFtDSDJdMilbQ0gyXVtDSDNdKWMobltjSF1uMyljKGMzNCluW2NIXW40W0NIMl1DNShbQ0gyXVtPSF0pW0NIMl1bQ0gyXU9bQ0gyXVtDSDJdNQ==

> <s_epik_cmdline>
J2VwaWtfcHl0aG9uJywgJy1waCcsICc3LjAnLCAnLXRuJywgJzgnLCAnLW1hJywgJzIwMCcsICctbWV0YWxfYmluZGluZycsICctaW1hZScsICc8aW5maWxlLm1hZT4nLCAnLW9tYWUnLCAnPG91dGZpbGUubWFlPic=

> <r_lp_tautomer_probability>
1

> <r_epik_Ionization_Penalty>
0.00308583

> <r_epik_Ionization_Penalty_Charging>
0.00300384

> <r_epik_Ionization_Penalty_Neutral>
8.19894e-05

> <r_epik_State_Penalty>
-0

> <r_epik_Charging_Adjusted_Penalty>
0.00300384

> <i_epik_Tot_Q>
1

> <i_epik_Tot_abs_Q>
1

> <r_epik_Metal_State_Penalty>
-0

> <b_epik_Metal_Only>
0

> <s_lp_Force_Field>
OPLS_2005

> <r_lp_Energy>
57.6145

> <b_lp_Chiralities_Consistent>
1

> <s_lp_Variant>
AV-unprocessed.smi:282-1

> <Gold.Version>
5.8.1

> <Gold.Id.Protein>
6NUR|6NUR_protein|mol2

> <Gold.PLP.Fitness>
44.5384

> <Gold.PLP.PLP>
-38.5157

> <Gold.PLP.part.hbond>
-3.4927

> <Gold.PLP.part.metal>
0.0000

> <Gold.PLP.part.buried>
-6.0585

> <Gold.PLP.part.nonpolar>
-28.8727

> <Gold.PLP.part.repulsive>
0.1887

> <Gold.PLP.ligand.clash>
0.0000

> <Gold.PLP.ligand.torsion>
1.6662

> <Gold.PLP.Chemscore.Hbond>
2.9877

> <Gold.PLP.Chemscore.CHOScore>
0.0000

> <Gold.PLP.Chemscore.Metal>
0.0000

> <Gold.Chemscore.Hbonds>
donor molecule, donor type, donor heavy atom, donor atom, acceptor molecule, acceptor atom, score
      L1  H    25    56       P1  7957  0.94
      P1  H  7989  7998       L1    25  0.05
      P1  H  7997  8009       L1    28  1.00
      P1  H  8011  8017       L1    25  0.85

> <Gold.PLP.Chemscore.Internal.Correction>
0.3922

> <Gold.Rescore>
     Score         DG    S(hbond)    S(metal)    S(lipo)     H(rot)  DE(clash)    DE(int)     intcor
     14.89     -17.72       2.36        0.00      85.41       2.20       0.02       2.81       ----

> <Gold.Chemscore.Fitness>
14.8921

> <Gold.Chemscore.DG>
-17.7186

> <Gold.Chemscore.ZeroCoef>
-5.4800

> <Gold.Chemscore.Hbond>
2.3619

> <Gold.Chemscore.Metal>
0.0000

> <Gold.Chemscore.Lipo>
85.4062

> <Gold.Chemscore.Internal_Hbond>
0.0000

> <Gold.Chemscore.DEClash>
0.0162

> <Gold.Chemscore.DEInternal>
2.8103

> <Gold.Chemscore.Rot>
2.2042

> <Gold.Chemscore.Internal.Correction>
   9.000000E+99

> <Gold.Chemscore.Hbonds>
donor molecule, donor type, donor heavy atom, donor atom, acceptor molecule, acceptor atom, score
      L1  H    25    56       P1  7957  0.91
      P1  H  7997  8009       L1    28  0.91
      P1  H  8011  8017       L1    25  0.14

> <Gold.Chemscore.Hbond.Weighted>
-7.8889

> <Gold.Chemscore.Metal.Weighted>
-0.0000

> <Gold.Chemscore.Lipo.Weighted>
-9.9925

> <Gold.Chemscore.Internal_Hbond.Weighted>
0.0000

> <Gold.Chemscore.DEClash.Weighted>
0.0162

> <Gold.Chemscore.DEInternal.Weighted>
2.8103

> <Gold.Chemscore.Rot.Weighted>
5.6429

> <Gold.Chemscore.Internal.Correction.Weighted>
   9.000000E+99

> <Gold.Protein.RotatedTorsions>
[ 6907 6896 6895 6894 ] final    0.46 input  -60.11 | X-H torsion
[ 7974 7965 7964 7962 ] final   31.99 input  175.53 | X-H torsion
[ 8008 7997 7996 7995 ] final -158.01 input   59.86 | X-H torsion
[ 10167 10162 10161 10158 ] final -157.02 input  -65.29 | X-H torsion
[ 10718 10713 10712 10709 ] final  -39.58 input   66.30 | X-H torsion
[ 10763 10752 10751 10750 ] final  123.60 input  -60.55 | X-H torsion
[ 11005 11000 10999 10996 ] final  -16.69 input  -57.11 | X-H torsion

> <Gold.Protein.ActiveResidues>
 VAL166  LYS551  ARG553  GLY616  TRP617  ASP618  TYR619  PRO620  LYS621  CYS622 
 ASP623  PHE694  ASN695  SER759  ASP760  ASP761  ALA762  ILE779  LEU786  VAL792 
 PHE793  MET794  SER795  GLU796  ALA797  LYS798  CYS799  TRP800  GLU811  SER814 

> <Gold.Protein.RotatedAtoms>
  151.5768  135.1060  160.0007 H   0  0  0  0  0  0  0  0  0  0  0  0  # atno 6907 bound_to 6896
  152.4373  133.7381  159.6636 H   0  0  0  0  0  0  0  0  0  0  0  0  # atno 6908 bound_to 6896
  150.8273  133.8080  159.3136 H   0  0  0  0  0  0  0  0  0  0  0  0  # atno 6909 bound_to 6896
  146.1515  139.6585  142.9095 H   0  0  0  0  0  0  0  0  0  0  0  0  # atno 7974 bound_to 7965
  155.7410  140.0814  157.2245 H   0  0  0  0  0  0  0  0  0  0  0  0  # atno 8008 bound_to 7997
  154.4022  140.1578  156.2672 H   0  0  0  0  0  0  0  0  0  0  0  0  # atno 8009 bound_to 7997
  155.9020  140.3409  155.6036 H   0  0  0  0  0  0  0  0  0  0  0  0  # atno 8010 bound_to 7997
  139.6804  143.9592  152.2333 H   0  0  0  0  0  0  0  0  0  0  0  0  # atno 10167 bound_to 10162
  156.2909  130.4228  149.8240 H   0  0  0  0  0  0  0  0  0  0  0  0  # atno 10718 bound_to 10713
  153.6481  135.3367  155.3092 H   0  0  0  0  0  0  0  0  0  0  0  0  # atno 10763 bound_to 10752
  154.8544  135.4334  154.1933 H   0  0  0  0  0  0  0  0  0  0  0  0  # atno 10764 bound_to 10752
  153.2869  135.7014  153.7405 H   0  0  0  0  0  0  0  0  0  0  0  0  # atno 10765 bound_to 10752
  140.8093  133.8153  155.9547 H   0  0  0  0  0  0  0  0  0  0  0  0  # atno 11005 bound_to 11000
  145.4811  141.0438  143.2645 LP  0  0  0  0  0  0  0  0  0  0  0  0  # atno 17320 bound_to 7965
  144.7910  139.6328  143.7113 LP  0  0  0  0  0  0  0  0  0  0  0  0  # atno 17321 bound_to 7965
  139.9380  144.6700  150.8295 LP  0  0  0  0  0  0  0  0  0  0  0  0  # atno 17342 bound_to 10162
  140.7650  143.3263  151.2508 LP  0  0  0  0  0  0  0  0  0  0  0  0  # atno 17343 bound_to 10162
  156.5653  130.8401  151.3341 LP  0  0  0  0  0  0  0  0  0  0  0  0  # atno 17370 bound_to 10713
  157.7342  130.9742  150.2016 LP  0  0  0  0  0  0  0  0  0  0  0  0  # atno 17371 bound_to 10713
  140.9214  134.2137  157.4924 LP  0  0  0  0  0  0  0  0  0  0  0  0  # atno 17394 bound_to 11000
  139.8715  134.9794  156.5034 LP  0  0  0  0  0  0  0  0  0  0  0  0  # atno 17395 bound_to 11000

$$$$
