AV-unprocessed.smi:1220|AV-procd|sdf|5114|dock5
  -GOLD-   22720 4173D 1   1.00000     0.00000
 Structure written by MMmdl.
 35 36  0  0  0  0  0  0  0  0  1 V2000
  151.8899  140.7339  157.2338 C   0  0  0  0  0  0  0  0  0  0  0  0
  150.7237  141.5443  156.6521 C   0  0  2  0  0  0  0  0  0  0  0  0
  149.9645  142.3094  157.7578 C   0  0  0  0  0  0  0  0  0  0  0  0
  150.8043  143.2634  158.4609 N   0  0  0  0  0  0  0  0  0  0  0  0
  151.3171  144.4576  157.9991 C   0  0  0  0  0  0  0  0  0  0  0  0
  152.0635  144.9962  159.0073 C   0  0  0  0  0  0  0  0  0  0  0  0
  151.9405  144.0486  160.0616 C   0  0  0  0  0  0  0  0  0  0  0  0
  151.1826  143.0147  159.7331 N   0  0  0  0  0  0  0  0  0  0  0  0
  149.8241  140.6377  155.9393 N   0  0  0  0  0  0  0  0  0  0  0  0
  150.1836  139.7718  154.9780 C   0  0  0  0  0  0  0  0  0  0  0  0
  151.3480  139.6092  154.6124 O   0  0  0  0  0  0  0  0  0  0  0  0
  149.0480  138.9882  154.3104 C   0  0  2  0  0  0  0  0  0  0  0  0
  147.9510  139.9110  153.7372 C   0  0  0  0  0  0  0  0  0  0  0  0
  146.7274  139.0547  153.3941 C   0  0  0  0  0  0  0  0  0  0  0  0
  146.6903  137.7185  154.6465 S   0  0  0  0  0  0  0  0  0  0  0  0
  145.7104  138.0514  155.6911 O   0  0  0  0  0  0  0  0  0  0  0  0
  146.6515  136.4198  153.9579 O   0  0  0  0  0  0  0  0  0  0  0  0
  148.3772  138.0162  155.2971 C   0  0  0  0  0  0  0  0  0  0  0  0
  152.5986  141.3826  157.7493 H   0  0  0  0  0  0  0  0  0  0  0  0
  152.4357  140.2108  156.4478 H   0  0  0  0  0  0  0  0  0  0  0  0
  151.5395  139.9895  157.9496 H   0  0  0  0  0  0  0  0  0  0  0  0
  151.1518  142.2673  155.9553 H   0  0  0  0  0  0  0  0  0  0  0  0
  149.1094  142.8406  157.3375 H   0  0  0  0  0  0  0  0  0  0  0  0
  149.5635  141.6085  158.4914 H   0  0  0  0  0  0  0  0  0  0  0  0
  151.1176  144.8160  156.9999 H   0  0  0  0  0  0  0  0  0  0  0  0
  152.6152  145.9245  158.9938 H   0  0  0  0  0  0  0  0  0  0  0  0
  152.3757  144.0812  161.0493 H   0  0  0  0  0  0  0  0  0  0  0  0
  148.8438  140.6987  156.1734 H   0  0  0  0  0  0  0  0  0  0  0  0
  149.4518  138.4018  153.4830 H   0  0  0  0  0  0  0  0  0  0  0  0
  147.6581  140.6521  154.4826 H   0  0  0  0  0  0  0  0  0  0  0  0
  148.3026  140.4607  152.8637 H   0  0  0  0  0  0  0  0  0  0  0  0
  145.7933  139.6161  153.4113 H   0  0  0  0  0  0  0  0  0  0  0  0
  146.8405  138.5937  152.4129 H   0  0  0  0  0  0  0  0  0  0  0  0
  148.9106  137.0691  155.3804 H   0  0  0  0  0  0  0  0  0  0  0  0
  148.2806  138.4459  156.2954 H   0  0  0  0  0  0  0  0  0  0  0  0
  1  2  1  0  0  0  0
  1 19  1  0  0  0  0
  1 20  1  0  0  0  0
  1 21  1  0  0  0  0
  2  3  1  0  0  0  0
  2  9  1  0  0  0  0
  2 22  1  0  0  0  0
  3  4  1  0  0  0  0
  3 23  1  0  0  0  0
  3 24  1  0  0  0  0
  4  8  1  0  0  0  0
  4  5  1  0  0  0  0
  5  6  2  0  0  0  0
  5 25  1  0  0  0  0
  6  7  1  0  0  0  0
  6 26  1  0  0  0  0
  7  8  2  0  0  0  0
  7 27  1  0  0  0  0
  9 10  1  0  0  0  0
  9 28  1  0  0  0  0
 10 11  2  0  0  0  0
 10 12  1  0  0  0  0
 12 18  1  0  0  0  0
 12 13  1  0  0  0  0
 12 29  1  0  0  0  0
 13 14  1  0  0  0  0
 13 30  1  0  0  0  0
 13 31  1  0  0  0  0
 14 15  1  0  0  0  0
 14 32  1  0  0  0  0
 14 33  1  0  0  0  0
 15 16  2  0  0  0  0
 15 17  2  0  0  0  0
 15 18  1  0  0  0  0
 18 34  1  0  0  0  0
 18 35  1  0  0  0  0
M  END
> <s_m_source_file>
AV-unprocessed.smi

> <i_m_source_file_index>
1220

> <i_lp_mmshare_version>
43012

> <i_f3d_flags>
0

> <s_epik_input>
bjFbY0hdW2NIXVtjSF1uMVtDSDJdW0NAQEhdKFtDSDNdKVtOSF1DKD1PKVtDQEBIXShbQ0gyXTIpW0NIMl1bQ0gyXVMyKD1PKT1P

> <s_epik_cmdline>
J2VwaWtfcHl0aG9uJywgJy1waCcsICc3LjAnLCAnLXRuJywgJzgnLCAnLW1hJywgJzIwMCcsICctbWV0YWxfYmluZGluZycsICctaW1hZScsICc8aW5maWxlLm1hZT4nLCAnLW9tYWUnLCAnPG91dGZpbGUubWFlPic=

> <r_lp_tautomer_probability>
1

> <r_epik_Ionization_Penalty>
0.000293905

> <r_epik_Ionization_Penalty_Charging>
0

> <r_epik_Ionization_Penalty_Neutral>
0.000293905

> <r_epik_State_Penalty>
-0

> <r_epik_Charging_Adjusted_Penalty>
0

> <i_epik_Tot_Q>
0

> <i_epik_Tot_abs_Q>
0

> <r_epik_Metal_State_Penalty>
-0

> <b_epik_Metal_Only>
0

> <s_lp_Force_Field>
OPLS_2005

> <r_lp_Energy>
3.03909

> <b_lp_Chiralities_Consistent>
1

> <s_lp_Variant>
AV-unprocessed.smi:1220-1

> <Gold.Version>
5.8.1

> <Gold.Id.Protein>
6NUR|6NUR_protein|mol2

> <Gold.PLP.Fitness>
36.0471

> <Gold.PLP.PLP>
-30.4658

> <Gold.PLP.part.hbond>
-1.3501

> <Gold.PLP.part.metal>
0.0000

> <Gold.PLP.part.buried>
-4.6094

> <Gold.PLP.part.nonpolar>
-25.8385

> <Gold.PLP.part.repulsive>
0.2766

> <Gold.PLP.ligand.clash>
0.0000

> <Gold.PLP.ligand.torsion>
0.2129

> <Gold.PLP.Chemscore.Hbond>
1.0000

> <Gold.PLP.Chemscore.CHOScore>
0.9986

> <Gold.PLP.Chemscore.Metal>
0.0000

> <Gold.Chemscore.Hbonds>
donor molecule, donor type, donor heavy atom, donor atom, acceptor molecule, acceptor atom, score
      P1  H  7989  7998       L1    11  1.00
      L1  C     5    25       P1  8028  0.91

> <Gold.PLP.Chemscore.Internal.Correction>
0.0112

> <Gold.Rescore>
     Score         DG    S(hbond)    S(metal)    S(lipo)     H(rot)  DE(clash)    DE(int)     intcor
     12.80     -13.13       0.98        0.00      75.62       1.75       0.21       0.12       ----

> <Gold.Chemscore.Fitness>
12.7969

> <Gold.Chemscore.DG>
-13.1268

> <Gold.Chemscore.ZeroCoef>
-5.4800

> <Gold.Chemscore.Hbond>
0.9786

> <Gold.Chemscore.Metal>
0.0000

> <Gold.Chemscore.Lipo>
75.6241

> <Gold.Chemscore.Internal_Hbond>
0.0000

> <Gold.Chemscore.DEClash>
0.2058

> <Gold.Chemscore.DEInternal>
0.1242

> <Gold.Chemscore.Rot>
1.7460

> <Gold.Chemscore.Internal.Correction>
   9.000000E+99

> <Gold.Chemscore.Hbonds>
donor molecule, donor type, donor heavy atom, donor atom, acceptor molecule, acceptor atom, score
      P1  H  7989  7998       L1    11  0.55

> <Gold.Chemscore.Hbond.Weighted>
-3.2685

> <Gold.Chemscore.Metal.Weighted>
-0.0000

> <Gold.Chemscore.Lipo.Weighted>
-8.8480

> <Gold.Chemscore.Internal_Hbond.Weighted>
0.0000

> <Gold.Chemscore.DEClash.Weighted>
0.2058

> <Gold.Chemscore.DEInternal.Weighted>
0.1242

> <Gold.Chemscore.Rot.Weighted>
4.4697

> <Gold.Chemscore.Internal.Correction.Weighted>
   9.000000E+99

> <Gold.Protein.RotatedTorsions>
[ 6907 6896 6895 6894 ] final  132.90 input  -60.11 | X-H torsion
[ 7974 7965 7964 7962 ] final  132.95 input  175.53 | X-H torsion
[ 8008 7997 7996 7995 ] final -173.51 input   59.86 | X-H torsion
[ 10167 10162 10161 10158 ] final  171.82 input  -65.29 | X-H torsion
[ 10718 10713 10712 10709 ] final  -30.52 input   66.30 | X-H torsion
[ 10763 10752 10751 10750 ] final   17.95 input  -60.55 | X-H torsion
[ 11005 11000 10999 10996 ] final   32.83 input  -57.11 | X-H torsion

> <Gold.Protein.ActiveResidues>
 VAL166  LYS551  ARG553  GLY616  TRP617  ASP618  TYR619  PRO620  LYS621  CYS622 
 ASP623  PHE694  ASN695  SER759  ASP760  ASP761  ALA762  ILE779  LEU786  VAL792 
 PHE793  MET794  SER795  GLU796  ALA797  LYS798  CYS799  TRP800  GLU811  SER814 

> <Gold.Protein.RotatedAtoms>
  152.3276  133.5922  159.5787 H   0  0  0  0  0  0  0  0  0  0  0  0  # atno 6907 bound_to 6896
  150.7405  133.9917  159.3618 H   0  0  0  0  0  0  0  0  0  0  0  0  # atno 6908 bound_to 6896
  151.7795  135.0766  160.0422 H   0  0  0  0  0  0  0  0  0  0  0  0  # atno 6909 bound_to 6896
  144.9915  139.4401  143.5337 H   0  0  0  0  0  0  0  0  0  0  0  0  # atno 7974 bound_to 7965
  155.9584  140.1140  157.0917 H   0  0  0  0  0  0  0  0  0  0  0  0  # atno 8008 bound_to 7997
  154.4126  140.1187  156.5213 H   0  0  0  0  0  0  0  0  0  0  0  0  # atno 8009 bound_to 7997
  155.6752  140.3473  155.4836 H   0  0  0  0  0  0  0  0  0  0  0  0  # atno 8010 bound_to 7997
  139.5058  144.3443  151.9986 H   0  0  0  0  0  0  0  0  0  0  0  0  # atno 10167 bound_to 10162
  156.3988  130.4386  149.7338 H   0  0  0  0  0  0  0  0  0  0  0  0  # atno 10718 bound_to 10713
  153.1293  135.6736  153.9205 H   0  0  0  0  0  0  0  0  0  0  0  0  # atno 10763 bound_to 10752
  153.8696  135.3071  155.3443 H   0  0  0  0  0  0  0  0  0  0  0  0  # atno 10764 bound_to 10752
  154.7693  135.4948  153.9698 H   0  0  0  0  0  0  0  0  0  0  0  0  # atno 10765 bound_to 10752
  140.2693  134.3100  155.7832 H   0  0  0  0  0  0  0  0  0  0  0  0  # atno 11005 bound_to 11000
  146.3432  139.9250  142.8761 LP  0  0  0  0  0  0  0  0  0  0  0  0  # atno 17320 bound_to 7965
  145.2279  140.9961  143.4008 LP  0  0  0  0  0  0  0  0  0  0  0  0  # atno 17321 bound_to 7965
  140.2881  144.3785  150.6097 LP  0  0  0  0  0  0  0  0  0  0  0  0  # atno 17342 bound_to 10162
  140.5967  143.2167  151.7150 LP  0  0  0  0  0  0  0  0  0  0  0  0  # atno 17343 bound_to 10162
  156.4363  130.7839  151.2860 LP  0  0  0  0  0  0  0  0  0  0  0  0  # atno 17370 bound_to 10713
  157.7503  131.0138  150.3441 LP  0  0  0  0  0  0  0  0  0  0  0  0  # atno 17371 bound_to 10713
  141.2179  133.7457  156.9310 LP  0  0  0  0  0  0  0  0  0  0  0  0  # atno 17394 bound_to 11000
  140.1388  134.9307  157.2438 LP  0  0  0  0  0  0  0  0  0  0  0  0  # atno 17395 bound_to 11000

$$$$
