#       Name:                AV-unprocessed.smi:1009
#       Creating user name   scv26
#       Creation time:       Fri Mar 27 02:35:59 2020


#       File generated by GOLD software.
#

@<TRIPOS>MOLECULE
AV-unprocessed.smi:1009
    36    36     1
SMALL
NO_CHARGES


@<TRIPOS>ATOM
      1 ****        -3.0560   2.4588  -0.1404 C.3            1 S1                 0.0000
      2 ****        -1.8906   2.4697   0.7711 N.4            1 S1                 1.0000
      3 ****        -1.2157   3.7884   0.7730 C.3            1 S1                 0.0000
      4 ****        -0.9654   1.3400   0.5064 C.3            1 S1                 0.0000
      5 ****        -0.0686   1.0141   1.7164 C.3            1 S1                 0.0000
      6 ****         0.7974  -0.1244   1.4383 N.am           1 S1                 0.0000
      7 ****         1.9257  -0.0730   0.7134 C.2            1 S1                 0.0000
      8 ****         2.3702   0.9656   0.2248 O.2            1 S1                 0.0000
      9 ****         2.6557  -1.3981   0.4927 C.3            1 S1                 0.0000
     10 ****         2.0169  -2.1707  -0.5574 N.pl3          1 S1                 0.0000
     11 ****         2.2484  -2.1194  -1.9192 C.2            1 S1                 0.0000
     12 ****         1.4023  -3.0123  -2.5139 C.2            1 S1                 0.0000
     13 ****         0.6921  -3.5594  -1.4118 C.2            1 S1                 0.0000
     14 ****        -0.2976  -4.5290  -1.5478 N.pl3          1 S1                 0.0000
     15 ****         1.0508  -3.0637  -0.2419 N.2            1 S1                 0.0000
     16 ****        -2.7422   2.5842  -1.1778 H              1 S1                 0.0000
     17 ****        -3.7485   3.2640   0.1077 H              1 S1                 0.0000
     18 ****        -3.6034   1.5189  -0.0592 H              1 S1                 0.0000
     19 ****        -0.7633   3.9981  -0.1972 H              1 S1                 0.0000
     20 ****        -0.4349   3.8377   1.5311 H              1 S1                 0.0000
     21 ****        -1.9285   4.5842   0.9927 H              1 S1                 0.0000
     22 ****        -1.5479   0.4483   0.2690 H              1 S1                 0.0000
     23 ****        -0.3668   1.5600  -0.3791 H              1 S1                 0.0000
     24 ****         0.5438   1.8688   2.0049 H              1 S1                 0.0000
     25 ****        -0.6851   0.7676   2.5812 H              1 S1                 0.0000
     26 ****         0.5071  -1.0225   1.7987 H              1 S1                 0.0000
     27 ****         3.6927  -1.2103   0.2107 H              1 S1                 0.0000
     28 ****         2.6742  -1.9802   1.4156 H              1 S1                 0.0000
     29 ****         2.9863  -1.4560  -2.3462 H              1 S1                 0.0000
     30 ****         1.3079  -3.2350  -3.5664 H              1 S1                 0.0000
     31 ****        -0.5594  -4.8930  -2.4527 H              1 S1                 0.0000
     32 ****        -0.7341  -4.9503  -0.7406 H              1 S1                 0.0000
     33 ****        -2.2617   2.3275   1.6997 H              1 S1                 0.0000
     34 ****         1.8849   1.8295   0.3600 LP             1 S1                 0.0000
     35 ****         3.2166   0.9456  -0.3073 LP             1 S1                 0.0000
     36 ****         0.6930  -3.2938   0.6632 LP             1 S1                 0.0000
@<TRIPOS>BOND
    1    1    2 1     
    2    1   16 1     
    3    1   17 1     
    4    1   18 1     
    5    2    3 1     
    6    2    4 1     
    7    2   33 1     
    8    3   19 1     
    9    3   20 1     
   10    3   21 1     
   11    4    5 1     
   12    4   22 1     
   13    4   23 1     
   14    5    6 1     
   15    5   24 1     
   16    5   25 1     
   17    6    7 am    
   18    6   26 1     
   19    7    8 2     
   20    7    9 1     
   21    9   10 1     
   22    9   27 1     
   23    9   28 1     
   24   10   15 1     
   25   10   11 1     
   26   11   12 2     
   27   11   29 1     
   28   12   13 1     
   29   12   30 1     
   30   13   14 1     
   31   13   15 2     
   32   14   31 1     
   33   14   32 1     
   34    8   34 1     
   35    8   35 1     
   36   15   36 1     
@<TRIPOS>SUBSTRUCTURE
      1 S1             1
@<TRIPOS>SET
LONE_PAIRS      STATIC     ATOMS    <user>   **** ""
3 34 35 36
DONOR_HYDROGENS      STATIC     ATOMS    <user>   **** ""
4 33 26 31 32
ATOM$BLUE        STATIC     ATOMS    COLORGROUP SYSTEM
3 34 35 36
ATOM$RED        STATIC     ATOMS    COLORGROUP SYSTEM
4 33 26 31 32
