AV-unprocessed.smi:287|AV-procd|sdf|2184|dock6
  -GOLD-   2262021563D 1   1.00000     0.00000
 Structure written by MMmdl.
 55 58  0  0  0  0  0  0  0  0  1 V2000
  143.4884  134.3421  162.6995 C   0  0  0  0  0  0  0  0  0  0  0  0
  144.7887  134.3443  161.9708 C   0  0  0  0  0  0  0  0  0  0  0  0
  145.4386  133.4285  161.1958 C   0  0  0  0  0  0  0  0  0  0  0  0
  146.6641  134.0226  160.7701 C   0  0  0  0  0  0  0  0  0  0  0  0
  147.7107  133.3644  159.8808 C   0  0  2  0  0  0  0  0  0  0  0  0
  148.3577  132.1802  160.6188 C   0  0  0  0  0  0  0  0  0  0  0  0
  148.7825  134.2286  159.5566 O   0  0  0  0  0  0  0  0  0  0  0  0
  147.1180  132.8906  158.5347 C   0  0  0  0  0  0  0  0  0  0  0  0
  148.0135  132.0058  157.8008 N   0  0  0  0  0  0  0  0  0  0  0  0
  148.2561  132.1960  156.4872 C   0  0  0  0  0  0  0  0  0  0  0  0
  149.5631  132.2020  156.1312 N   0  0  0  0  0  0  0  0  0  0  0  0
  149.9122  132.3875  154.8552 C   0  0  0  0  0  0  0  0  0  0  0  0
  149.1258  132.5823  153.7952 N   0  0  0  0  0  0  0  0  0  0  0  0
  147.8070  132.5739  154.1455 C   0  0  0  0  0  0  0  0  0  0  0  0
  147.2867  132.3893  155.4584 C   0  0  0  0  0  0  0  0  0  0  0  0
  145.8974  132.4459  155.4102 N   0  0  0  0  0  0  0  0  0  0  0  0
  145.6234  132.6544  154.1512 C   0  0  0  0  0  0  0  0  0  0  0  0
  146.7181  132.7487  153.3204 N   0  0  0  0  0  0  0  0  0  0  0  0
  146.7669  132.9812  151.8417 C   0  0  1  0  0  0  0  0  0  0  0  0
  145.8849  132.0768  151.2454 O   0  0  0  0  0  0  0  0  0  0  0  0
  144.8739  132.7586  150.5031 C   0  0  1  0  0  0  0  0  0  0  0  0
  143.5463  131.9804  150.5325 C   0  0  0  0  0  0  0  0  0  0  0  0
  142.9042  132.0699  149.2789 O   0  0  0  0  0  0  0  0  0  0  0  0
  144.8295  134.1716  151.1029 C   0  0  1  0  0  0  0  0  0  0  0  0
  143.9726  134.2302  152.2313 O   0  0  0  0  0  0  0  0  0  0  0  0
  146.2903  134.3968  151.4658 C   0  0  1  0  0  0  0  0  0  0  0  0
  146.4703  135.3944  152.4572 O   0  0  0  0  0  0  0  0  0  0  0  0
  146.6608  135.2757  161.3352 C   0  0  0  0  0  0  0  0  0  0  0  0
  147.6111  136.4275  161.3146 C   0  0  0  0  0  0  0  0  0  0  0  0
  145.5278  135.4778  162.0644 O   0  0  0  0  0  0  0  0  0  0  0  0
  147.8005  132.7746  151.5617 H   0  0  0  0  0  0  0  0  0  0  0  0
  145.2274  132.8509  149.4744 H   0  0  0  0  0  0  0  0  0  0  0  0
  144.4798  134.9061  150.3768 H   0  0  0  0  0  0  0  0  0  0  0  0
  146.8373  134.6918  150.5693 H   0  0  0  0  0  0  0  0  0  0  0  0
  142.8490  133.5305  162.3515 H   0  0  0  0  0  0  0  0  0  0  0  0
  142.9554  135.2807  162.5455 H   0  0  0  0  0  0  0  0  0  0  0  0
  143.6460  134.2134  163.7703 H   0  0  0  0  0  0  0  0  0  0  0  0
  145.0745  132.4405  160.9554 H   0  0  0  0  0  0  0  0  0  0  0  0
  147.6181  131.4219  160.8781 H   0  0  0  0  0  0  0  0  0  0  0  0
  148.8347  132.5028  161.5454 H   0  0  0  0  0  0  0  0  0  0  0  0
  149.1192  131.6951  160.0066 H   0  0  0  0  0  0  0  0  0  0  0  0
  148.8511  134.8873  160.2307 H   0  0  0  0  0  0  0  0  0  0  0  0
  146.1482  132.4139  158.6847 H   0  0  0  0  0  0  0  0  0  0  0  0
  146.9483  133.7662  157.9065 H   0  0  0  0  0  0  0  0  0  0  0  0
  148.4645  131.2879  158.3494 H   0  0  0  0  0  0  0  0  0  0  0  0
  150.9736  132.3795  154.6555 H   0  0  0  0  0  0  0  0  0  0  0  0
  144.6077  132.7466  153.7957 H   0  0  0  0  0  0  0  0  0  0  0  0
  143.7019  130.9359  150.8034 H   0  0  0  0  0  0  0  0  0  0  0  0
  142.8729  132.4127  151.2733 H   0  0  0  0  0  0  0  0  0  0  0  0
  142.2121  132.7102  149.3413 H   0  0  0  0  0  0  0  0  0  0  0  0
  143.0910  134.0484  151.9422 H   0  0  0  0  0  0  0  0  0  0  0  0
  147.3767  135.6627  152.4499 H   0  0  0  0  0  0  0  0  0  0  0  0
  148.5804  136.1351  161.7181 H   0  0  0  0  0  0  0  0  0  0  0  0
  147.2372  137.2598  161.9114 H   0  0  0  0  0  0  0  0  0  0  0  0
  147.7608  136.7863  160.2962 H   0  0  0  0  0  0  0  0  0  0  0  0
  1  2  1  0  0  0  0
  1 35  1  0  0  0  0
  1 36  1  0  0  0  0
  1 37  1  0  0  0  0
  2 30  1  0  0  0  0
  2  3  2  0  0  0  0
  3  4  1  0  0  0  0
  3 38  1  0  0  0  0
  4  5  1  0  0  0  0
  4 28  2  0  0  0  0
  5  6  1  0  0  0  0
  5  7  1  0  0  0  0
  5  8  1  0  0  0  0
  6 39  1  0  0  0  0
  6 40  1  0  0  0  0
  6 41  1  0  0  0  0
  7 42  1  0  0  0  0
  8  9  1  0  0  0  0
  8 43  1  0  0  0  0
  8 44  1  0  0  0  0
  9 10  1  0  0  0  0
  9 45  1  0  0  0  0
 10 15  1  0  0  0  0
 10 11  2  0  0  0  0
 11 12  1  0  0  0  0
 12 13  2  0  0  0  0
 12 46  1  0  0  0  0
 13 14  1  0  0  0  0
 14 18  1  0  0  0  0
 14 15  2  0  0  0  0
 15 16  1  0  0  0  0
 16 17  2  0  0  0  0
 17 18  1  0  0  0  0
 17 47  1  0  0  0  0
 18 19  1  0  0  0  0
 19 31  1  0  0  0  0
 19 26  1  0  0  0  0
 19 20  1  0  0  0  0
 20 21  1  0  0  0  0
 21 32  1  0  0  0  0
 21 22  1  0  0  0  0
 21 24  1  0  0  0  0
 22 23  1  0  0  0  0
 22 48  1  0  0  0  0
 22 49  1  0  0  0  0
 23 50  1  0  0  0  0
 24 33  1  0  0  0  0
 24 25  1  0  0  0  0
 24 26  1  0  0  0  0
 25 51  1  0  0  0  0
 26 34  1  0  0  0  0
 26 27  1  0  0  0  0
 27 52  1  0  0  0  0
 28 29  1  0  0  0  0
 28 30  1  0  0  0  0
 29 53  1  0  0  0  0
 29 54  1  0  0  0  0
 29 55  1  0  0  0  0
M  END
> <s_m_source_file>
AV-unprocessed.smi

> <i_m_source_file_index>
287

> <i_lp_mmshare_version>
43012

> <i_f3d_flags>
0

> <s_epik_input>
W0NIM11jMVtjSF1jKGMobzEpW0NIM10pW0NAQF0oW0NIM10pKFtPSF0pW0NIMl1bTkhdYyhuW2NIXW4yKWMoYzIzKW5bY0hdbjNbQ0BASF00T1tDQEhdKFtDSDJdW09IXSlbQ0BASF0oW09IXSlbQ0BIXTRbT0hd

> <s_epik_cmdline>
J2VwaWtfcHl0aG9uJywgJy1waCcsICc3LjAnLCAnLXRuJywgJzgnLCAnLW1hJywgJzIwMCcsICctbWV0YWxfYmluZGluZycsICctaW1hZScsICc8aW5maWxlLm1hZT4nLCAnLW9tYWUnLCAnPG91dGZpbGUubWFlPic=

> <r_lp_tautomer_probability>
1

> <r_epik_Ionization_Penalty>
0.000992612

> <r_epik_Ionization_Penalty_Charging>
0

> <r_epik_Ionization_Penalty_Neutral>
0.000992612

> <r_epik_State_Penalty>
-0

> <r_epik_Charging_Adjusted_Penalty>
0

> <i_epik_Tot_Q>
0

> <i_epik_Tot_abs_Q>
0

> <r_epik_Metal_State_Penalty>
-0

> <b_epik_Metal_Only>
0

> <s_epik_Chemistry_Notes>
This compound contains an acetal/aminal-like group ( X-CH(R)-Y where X, Y are N, S, or O) that may be acid/base labile, releasing an aldehyde.

> <s_lp_Force_Field>
OPLS_2005

> <r_lp_Energy>
46.5399

> <b_lp_Chiralities_Consistent>
1

> <s_lp_Variant>
AV-unprocessed.smi:287-8

> <Gold.Version>
5.8.1

> <Gold.Id.Protein>
6NUR|6NUR_protein|mol2

> <Gold.PLP.Fitness>
45.6574

> <Gold.PLP.PLP>
-36.3707

> <Gold.PLP.part.hbond>
-4.9227

> <Gold.PLP.part.metal>
0.0000

> <Gold.PLP.part.buried>
-5.0321

> <Gold.PLP.part.nonpolar>
-27.4308

> <Gold.PLP.part.repulsive>
0.4138

> <Gold.PLP.ligand.clash>
0.5881

> <Gold.PLP.ligand.torsion>
1.3768

> <Gold.PLP.Chemscore.Hbond>
2.9930

> <Gold.PLP.Chemscore.CHOScore>
0.9485

> <Gold.PLP.Chemscore.Metal>
0.0000

> <Gold.Chemscore.Hbonds>
donor molecule, donor type, donor heavy atom, donor atom, acceptor molecule, acceptor atom, score
      L1  H    23    50       P1 10186  0.84
      L1  H    27    52       P1  7948  1.00
      P1  H  6896  6908       L1     7  0.22
      P1  H 10785 10796       L1    23  0.85
      L1  C    17    47       P1 10957  0.92

> <Gold.PLP.Chemscore.Internal.Correction>
0.8040

> <Gold.Rescore>
     Score         DG    S(hbond)    S(metal)    S(lipo)     H(rot)  DE(clash)    DE(int)     intcor
      4.64      -8.02       2.05        0.00      78.32       5.27       0.25       3.13       ----

> <Gold.Chemscore.Fitness>
4.6386

> <Gold.Chemscore.DG>
-8.0157

> <Gold.Chemscore.ZeroCoef>
-5.4800

> <Gold.Chemscore.Hbond>
2.0529

> <Gold.Chemscore.Metal>
0.0000

> <Gold.Chemscore.Lipo>
78.3155

> <Gold.Chemscore.Internal_Hbond>
0.0000

> <Gold.Chemscore.DEClash>
0.2475

> <Gold.Chemscore.DEInternal>
3.1296

> <Gold.Chemscore.Rot>
5.2672

> <Gold.Chemscore.Internal.Correction>
   9.000000E+99

> <Gold.Chemscore.Hbonds>
donor molecule, donor type, donor heavy atom, donor atom, acceptor molecule, acceptor atom, score
      L1  H    23    50       P1 10186  0.82
      L1  H    27    52       P1  7948  1.00
      P1  H  6896  6908       L1     7  0.07
      P1  H 10785 10796       L1    23  0.14

> <Gold.Chemscore.Hbond.Weighted>
-6.8567

> <Gold.Chemscore.Metal.Weighted>
-0.0000

> <Gold.Chemscore.Lipo.Weighted>
-9.1629

> <Gold.Chemscore.Internal_Hbond.Weighted>
0.0000

> <Gold.Chemscore.DEClash.Weighted>
0.2475

> <Gold.Chemscore.DEInternal.Weighted>
3.1296

> <Gold.Chemscore.Rot.Weighted>
13.4839

> <Gold.Chemscore.Internal.Correction.Weighted>
   9.000000E+99

> <Gold.Protein.RotatedTorsions>
[ 6907 6896 6895 6894 ] final  111.94 input  -60.11 | X-H torsion
[ 7974 7965 7964 7962 ] final  102.17 input  175.53 | X-H torsion
[ 8008 7997 7996 7995 ] final   63.64 input   59.86 | X-H torsion
[ 10167 10162 10161 10158 ] final -105.29 input  -65.29 | X-H torsion
[ 10718 10713 10712 10709 ] final  147.75 input   66.30 | X-H torsion
[ 10763 10752 10751 10750 ] final  121.41 input  -60.55 | X-H torsion
[ 11005 11000 10999 10996 ] final -164.07 input  -57.11 | X-H torsion

> <Gold.Protein.ActiveResidues>
 VAL166  LYS551  ARG553  GLY616  TRP617  ASP618  TYR619  PRO620  LYS621  CYS622 
 ASP623  PHE694  ASN695  SER759  ASP760  ASP761  ALA762  ILE779  LEU786  VAL792 
 PHE793  MET794  SER795  GLU796  ALA797  LYS798  CYS799  TRP800  GLU811  SER814 

> <Gold.Protein.RotatedAtoms>
  152.4943  133.8587  159.7238 H   0  0  0  0  0  0  0  0  0  0  0  0  # atno 6907 bound_to 6896
  150.9104  133.6995  159.2863 H   0  0  0  0  0  0  0  0  0  0  0  0  # atno 6908 bound_to 6896
  151.4406  135.1024  159.9721 H   0  0  0  0  0  0  0  0  0  0  0  0  # atno 6909 bound_to 6896
  145.3626  139.2415  143.3498 H   0  0  0  0  0  0  0  0  0  0  0  0  # atno 7974 bound_to 7965
  155.6334  140.3496  155.4690 H   0  0  0  0  0  0  0  0  0  0  0  0  # atno 8008 bound_to 7997
  155.9985  140.1208  157.0594 H   0  0  0  0  0  0  0  0  0  0  0  0  # atno 8009 bound_to 7997
  154.4241  140.1105  156.5649 H   0  0  0  0  0  0  0  0  0  0  0  0  # atno 8010 bound_to 7997
  140.2001  143.3825  152.1136 H   0  0  0  0  0  0  0  0  0  0  0  0  # atno 10167 bound_to 10162
  157.3171  131.0898  151.1270 H   0  0  0  0  0  0  0  0  0  0  0  0  # atno 10718 bound_to 10713
  153.6136  135.3426  155.2987 H   0  0  0  0  0  0  0  0  0  0  0  0  # atno 10763 bound_to 10752
  154.8614  135.4256  154.2283 H   0  0  0  0  0  0  0  0  0  0  0  0  # atno 10764 bound_to 10752
  153.3139  135.7033  153.7163 H   0  0  0  0  0  0  0  0  0  0  0  0  # atno 10765 bound_to 10752
  140.5910  134.5045  157.5193 H   0  0  0  0  0  0  0  0  0  0  0  0  # atno 11005 bound_to 11000
  146.2921  140.4262  142.8735 LP  0  0  0  0  0  0  0  0  0  0  0  0  # atno 17320 bound_to 7965
  144.8635  140.7173  143.6092 LP  0  0  0  0  0  0  0  0  0  0  0  0  # atno 17321 bound_to 7965
  139.5220  144.7054  151.5370 LP  0  0  0  0  0  0  0  0  0  0  0  0  # atno 17342 bound_to 10162
  140.6396  143.8916  150.6679 LP  0  0  0  0  0  0  0  0  0  0  0  0  # atno 17343 bound_to 10162
  157.2570  130.6641  149.5957 LP  0  0  0  0  0  0  0  0  0  0  0  0  # atno 17370 bound_to 10713
  155.9682  130.4520  150.5759 LP  0  0  0  0  0  0  0  0  0  0  0  0  # atno 17371 bound_to 10713
  139.9274  134.8029  156.1028 LP  0  0  0  0  0  0  0  0  0  0  0  0  # atno 17394 bound_to 11000
  141.0935  133.6705  156.2593 LP  0  0  0  0  0  0  0  0  0  0  0  0  # atno 17395 bound_to 11000

$$$$
