AV-unprocessed.smi:3064|AV-procd|sdf|11688|dock1
  -GOLD-   2272017 93D 1   1.00000     0.00000
 Structure written by MMmdl.
 22 23  0  0  0  0  0  0  0  0  2 V2000
  154.5099  140.4476  160.7183 C   0  0  0  0  0  0  0  0  0  0  0  0
  153.6781  139.5770  160.0615 C   0  0  0  0  0  0  0  0  0  0  0  0
  152.5472  140.4153  159.0350 S   0  0  0  0  0  0  0  0  0  0  0  0
  153.2700  141.9417  159.5331 C   0  0  0  0  0  0  0  0  0  0  0  0
  152.7696  143.2687  159.0589 C   0  0  1  0  0  0  0  0  0  0  0  0
  151.6008  143.1345  158.0647 C   0  0  0  0  0  0  0  0  0  0  0  0
  151.0969  144.4721  157.6980 N   0  3  0  0  0  0  0  0  0  0  0  0
  150.7283  145.2574  158.8925 C   0  0  0  0  0  0  0  0  0  0  0  0
  151.9124  145.3197  159.8739 C   0  0  0  0  0  0  0  0  0  0  0  0
  152.3362  144.0007  160.2036 O   0  0  0  0  0  0  0  0  0  0  0  0
  154.2606  141.7889  160.4183 N   0  0  0  0  0  0  0  0  0  0  0  0
  155.2980  140.2017  161.4149 H   0  0  0  0  0  0  0  0  0  0  0  0
  153.6607  138.4987  160.1210 H   0  0  0  0  0  0  0  0  0  0  0  0
  153.6029  143.7950  158.5900 H   0  0  0  0  0  0  0  0  0  0  0  0
  151.9171  142.6078  157.1640 H   0  0  0  0  0  0  0  0  0  0  0  0
  150.7877  142.5572  158.5075 H   0  0  0  0  0  0  0  0  0  0  0  0
  151.8225  144.9654  157.1974 H   0  0  0  0  0  0  0  0  0  0  0  0
  150.4289  146.2603  158.5876 H   0  0  0  0  0  0  0  0  0  0  0  0
  149.8643  144.7956  159.3722 H   0  0  0  0  0  0  0  0  0  0  0  0
  152.7434  145.8833  159.4465 H   0  0  0  0  0  0  0  0  0  0  0  0
  151.6165  145.8347  160.7880 H   0  0  0  0  0  0  0  0  0  0  0  0
  150.2904  144.3747  157.0974 H   0  0  0  0  0  0  0  0  0  0  0  0
  1 11  1  0  0  0  0
  1  2  2  0  0  0  0
  1 12  1  0  0  0  0
  2  3  1  0  0  0  0
  2 13  1  0  0  0  0
  3  4  1  0  0  0  0
  4  5  1  0  0  0  0
  4 11  2  0  0  0  0
  5 10  1  0  0  0  0
  5  6  1  0  0  0  0
  5 14  1  0  0  0  0
  6  7  1  0  0  0  0
  6 15  1  0  0  0  0
  6 16  1  0  0  0  0
  7  8  1  0  0  0  0
  7 17  1  0  0  0  0
  7 22  1  0  0  0  0
  8  9  1  0  0  0  0
  8 18  1  0  0  0  0
  8 19  1  0  0  0  0
  9 10  1  0  0  0  0
  9 20  1  0  0  0  0
  9 21  1  0  0  0  0
M  CHG  1   7   1
M  END
> <s_m_source_file>
AV-unprocessed.smi

> <i_m_source_file_index>
3064

> <i_lp_mmshare_version>
43012

> <i_f3d_flags>
0

> <s_epik_input>
bjFbY0hdW2NIXXNjMVtDQEBIXTJbQ0gyXVtOSF1bQ0gyXVtDSDJdTzI=

> <s_epik_cmdline>
J2VwaWtfcHl0aG9uJywgJy1waCcsICc3LjAnLCAnLXRuJywgJzgnLCAnLW1hJywgJzIwMCcsICctbWV0YWxfYmluZGluZycsICctaW1hZScsICc8aW5maWxlLm1hZT4nLCAnLW9tYWUnLCAnPG91dGZpbGUubWFlPic=

> <r_epik_Ionization_Penalty>
0.125708

> <r_epik_Ionization_Penalty_Charging>
0.125708

> <r_epik_Ionization_Penalty_Neutral>
1.25617e-07

> <r_epik_State_Penalty>
0.115169

> <r_epik_Charging_Adjusted_Penalty>
0.240877

> <i_epik_Tot_Q>
1

> <i_epik_Tot_abs_Q>
1

> <r_epik_Metal_State_Penalty>
0.115249

> <b_epik_Metal_Only>
0

> <s_lp_Force_Field>
OPLS_2005

> <r_lp_Energy>
7.58409

> <b_lp_Chiralities_Consistent>
1

> <s_lp_Variant>
AV-unprocessed.smi:3064-2

> <Gold.Version>
5.8.1

> <Gold.Id.Protein>
6NUR|6NUR_protein|mol2

> <Gold.PLP.Fitness>
32.6480

> <Gold.PLP.PLP>
-26.6480

> <Gold.PLP.part.hbond>
-1.1097

> <Gold.PLP.part.metal>
0.0000

> <Gold.PLP.part.buried>
-3.9816

> <Gold.PLP.part.nonpolar>
-21.4938

> <Gold.PLP.part.repulsive>
0.1035

> <Gold.PLP.ligand.clash>
0.0000

> <Gold.PLP.ligand.torsion>
0.0056

> <Gold.PLP.Chemscore.Hbond>
2.0000

> <Gold.PLP.Chemscore.CHOScore>
0.0000

> <Gold.PLP.Chemscore.Metal>
0.0000

> <Gold.Chemscore.Hbonds>
donor molecule, donor type, donor heavy atom, donor atom, acceptor molecule, acceptor atom, score
      L1  H     7    22       P1  8028  2.00

> <Gold.PLP.Chemscore.Internal.Correction>
0.0112

> <Gold.Rescore>
     Score         DG    S(hbond)    S(metal)    S(lipo)     H(rot)  DE(clash)    DE(int)     intcor
     15.56     -15.59       0.97        0.00      80.48       1.00       0.02       0.01       ----

> <Gold.Chemscore.Fitness>
15.5621

> <Gold.Chemscore.DG>
-15.5915

> <Gold.Chemscore.ZeroCoef>
-5.4800

> <Gold.Chemscore.Hbond>
0.9746

> <Gold.Chemscore.Metal>
0.0000

> <Gold.Chemscore.Lipo>
80.4816

> <Gold.Chemscore.Internal_Hbond>
0.0000

> <Gold.Chemscore.DEClash>
0.0219

> <Gold.Chemscore.DEInternal>
0.0075

> <Gold.Chemscore.Rot>
1.0000

> <Gold.Chemscore.Internal.Correction>
   9.000000E+99

> <Gold.Chemscore.Hbonds>
donor molecule, donor type, donor heavy atom, donor atom, acceptor molecule, acceptor atom, score
      L1  H     7    22       P1  8028  0.75

> <Gold.Chemscore.Hbond.Weighted>
-3.2551

> <Gold.Chemscore.Metal.Weighted>
-0.0000

> <Gold.Chemscore.Lipo.Weighted>
-9.4164

> <Gold.Chemscore.Internal_Hbond.Weighted>
0.0000

> <Gold.Chemscore.DEClash.Weighted>
0.0219

> <Gold.Chemscore.DEInternal.Weighted>
0.0075

> <Gold.Chemscore.Rot.Weighted>
2.5600

> <Gold.Chemscore.Internal.Correction.Weighted>
   9.000000E+99

> <Gold.Protein.RotatedTorsions>
[ 6907 6896 6895 6894 ] final  130.88 input  -60.11 | X-H torsion
[ 7974 7965 7964 7962 ] final  -72.47 input  175.53 | X-H torsion
[ 8008 7997 7996 7995 ] final -122.01 input   59.86 | X-H torsion
[ 10167 10162 10161 10158 ] final  -72.20 input  -65.29 | X-H torsion
[ 10718 10713 10712 10709 ] final   78.99 input   66.30 | X-H torsion
[ 10763 10752 10751 10750 ] final  166.93 input  -60.55 | X-H torsion
[ 11005 11000 10999 10996 ] final   95.38 input  -57.11 | X-H torsion

> <Gold.Protein.ActiveResidues>
 VAL166  LYS551  ARG553  GLY616  TRP617  ASP618  TYR619  PRO620  LYS621  CYS622 
 ASP623  PHE694  ASN695  SER759  ASP760  ASP761  ALA762  ILE779  LEU786  VAL792 
 PHE793  MET794  SER795  GLU796  ALA797  LYS798  CYS799  TRP800  GLU811  SER814 

> <Gold.Protein.RotatedAtoms>
  152.3482  133.6148  159.5925 H   0  0  0  0  0  0  0  0  0  0  0  0  # atno 6907 bound_to 6896
  150.7521  133.9615  159.3526 H   0  0  0  0  0  0  0  0  0  0  0  0  # atno 6908 bound_to 6896
  151.7470  135.0842  160.0376 H   0  0  0  0  0  0  0  0  0  0  0  0  # atno 6909 bound_to 6896
  145.6647  140.9241  143.0915 H   0  0  0  0  0  0  0  0  0  0  0  0  # atno 7974 bound_to 7965
  155.1572  140.0405  157.2834 H   0  0  0  0  0  0  0  0  0  0  0  0  # atno 8008 bound_to 7997
  154.6362  140.2536  155.7349 H   0  0  0  0  0  0  0  0  0  0  0  0  # atno 8009 bound_to 7997
  156.2509  140.2865  156.0735 H   0  0  0  0  0  0  0  0  0  0  0  0  # atno 8010 bound_to 7997
  140.5211  143.2331  151.7428 H   0  0  0  0  0  0  0  0  0  0  0  0  # atno 10167 bound_to 10162
  157.6763  130.9894  150.1867 H   0  0  0  0  0  0  0  0  0  0  0  0  # atno 10718 bound_to 10713
  154.3463  135.2753  155.2396 H   0  0  0  0  0  0  0  0  0  0  0  0  # atno 10763 bound_to 10752
  154.4645  135.5899  153.6282 H   0  0  0  0  0  0  0  0  0  0  0  0  # atno 10764 bound_to 10752
  152.9853  135.6073  154.3669 H   0  0  0  0  0  0  0  0  0  0  0  0  # atno 10765 bound_to 10752
  139.8789  134.8895  156.4002 H   0  0  0  0  0  0  0  0  0  0  0  0  # atno 11005 bound_to 11000
  144.7077  139.8495  143.7425 LP  0  0  0  0  0  0  0  0  0  0  0  0  # atno 17320 bound_to 7965
  146.1096  139.4099  143.0296 LP  0  0  0  0  0  0  0  0  0  0  0  0  # atno 17321 bound_to 7965
  139.4924  144.4253  151.9933 LP  0  0  0  0  0  0  0  0  0  0  0  0  # atno 17342 bound_to 10162
  140.3350  144.3272  150.5979 LP  0  0  0  0  0  0  0  0  0  0  0  0  # atno 17343 bound_to 10162
  156.2588  130.3708  149.8153 LP  0  0  0  0  0  0  0  0  0  0  0  0  # atno 17370 bound_to 10713
  156.5904  130.8504  151.3406 LP  0  0  0  0  0  0  0  0  0  0  0  0  # atno 17371 bound_to 10713
  140.9272  133.7604  155.9980 LP  0  0  0  0  0  0  0  0  0  0  0  0  # atno 17394 bound_to 11000
  140.8372  134.3109  157.5327 LP  0  0  0  0  0  0  0  0  0  0  0  0  # atno 17395 bound_to 11000

$$$$
