AV-unprocessed.smi:3331|AV-procd|sdf|12821|dock3
  -GOLD-   2272019193D 1   1.00000     0.00000
 Structure written by MMmdl.
 47 48  0  0  0  0  0  0  0  0  2 V2000
  155.4922  140.1482  160.6821 C   0  0  0  0  0  0  0  0  0  0  0  0
  154.3058  140.0784  159.7108 C   0  0  2  0  0  0  0  0  0  0  0  0
  153.6690  141.4690  159.4932 C   0  0  0  0  0  0  0  0  0  0  0  0
  152.3968  141.4039  158.6183 C   0  0  2  0  0  0  0  0  0  0  0  0
  151.7111  142.7735  158.5184 C   0  0  0  0  0  0  0  0  0  0  0  0
  151.4339  140.3228  159.1537 C   0  0  0  0  0  0  0  0  0  0  0  0
  152.1486  139.0407  159.2049 N   0  0  0  0  0  0  0  0  0  0  0  0
  151.8920  138.0297  158.3370 C   0  0  0  0  0  0  0  0  0  0  0  0
  152.5772  137.0054  158.3086 O   0  0  0  0  0  0  0  0  0  0  0  0
  150.7133  138.1401  157.3454 C   0  0  1  0  0  0  0  0  0  0  0  0
  151.2244  138.0267  155.8993 C   0  0  0  0  0  0  0  0  0  0  0  0
  149.6915  137.0934  157.5847 N   0  3  0  0  0  0  0  0  0  0  0  0
  148.9164  137.2431  158.8354 C   0  0  0  0  0  0  0  0  0  0  0  0
  148.3366  135.8946  159.2830 C   0  0  0  0  0  0  0  0  0  0  0  0
  147.6609  135.9989  160.5612 N   0  0  0  0  0  0  0  0  0  0  0  0
  147.1970  134.9850  161.3725 C   0  0  0  0  0  0  0  0  0  0  0  0
  146.6293  135.5698  162.4679 C   0  0  0  0  0  0  0  0  0  0  0  0
  146.7961  136.9631  162.2323 C   0  0  0  0  0  0  0  0  0  0  0  0
  147.4149  137.2166  161.0902 N   0  0  0  0  0  0  0  0  0  0  0  0
  153.2337  139.0811  160.1936 C   0  0  0  0  0  0  0  0  0  0  0  0
  155.1777  140.4883  161.6692 H   0  0  0  0  0  0  0  0  0  0  0  0
  156.2550  140.8382  160.3202 H   0  0  0  0  0  0  0  0  0  0  0  0
  155.9613  139.1711  160.8005 H   0  0  0  0  0  0  0  0  0  0  0  0
  154.6866  139.7266  158.7505 H   0  0  0  0  0  0  0  0  0  0  0  0
  153.4127  141.8995  160.4624 H   0  0  0  0  0  0  0  0  0  0  0  0
  154.3967  142.1447  159.0419 H   0  0  0  0  0  0  0  0  0  0  0  0
  152.6985  141.1148  157.6103 H   0  0  0  0  0  0  0  0  0  0  0  0
  151.3746  143.1211  159.4957 H   0  0  0  0  0  0  0  0  0  0  0  0
  150.8410  142.7300  157.8627 H   0  0  0  0  0  0  0  0  0  0  0  0
  152.3907  143.5238  158.1135 H   0  0  0  0  0  0  0  0  0  0  0  0
  151.0856  140.5860  160.1536 H   0  0  0  0  0  0  0  0  0  0  0  0
  150.5375  140.2819  158.5333 H   0  0  0  0  0  0  0  0  0  0  0  0
  150.2030  139.0951  157.4679 H   0  0  0  0  0  0  0  0  0  0  0  0
  151.9702  138.7888  155.6716 H   0  0  0  0  0  0  0  0  0  0  0  0
  150.4085  138.1498  155.1864 H   0  0  0  0  0  0  0  0  0  0  0  0
  151.6813  137.0538  155.7128 H   0  0  0  0  0  0  0  0  0  0  0  0
  149.0358  137.1172  156.8170 H   0  0  0  0  0  0  0  0  0  0  0  0
  149.5550  137.6460  159.6223 H   0  0  0  0  0  0  0  0  0  0  0  0
  148.1124  137.9628  158.6746 H   0  0  0  0  0  0  0  0  0  0  0  0
  147.6273  135.5169  158.5449 H   0  0  0  0  0  0  0  0  0  0  0  0
  149.1301  135.1511  159.3707 H   0  0  0  0  0  0  0  0  0  0  0  0
  147.3076  133.9441  161.1068 H   0  0  0  0  0  0  0  0  0  0  0  0
  146.1640  135.0773  163.3089 H   0  0  0  0  0  0  0  0  0  0  0  0
  146.4879  137.7914  162.8532 H   0  0  0  0  0  0  0  0  0  0  0  0
  153.6780  138.1091  160.3979 H   0  0  0  0  0  0  0  0  0  0  0  0
  152.8280  139.4072  161.1527 H   0  0  0  0  0  0  0  0  0  0  0  0
  150.1524  136.1944  157.5877 H   0  0  0  0  0  0  0  0  0  0  0  0
  1  2  1  0  0  0  0
  1 21  1  0  0  0  0
  1 22  1  0  0  0  0
  1 23  1  0  0  0  0
  2 20  1  0  0  0  0
  2  3  1  0  0  0  0
  2 24  1  0  0  0  0
  3  4  1  0  0  0  0
  3 25  1  0  0  0  0
  3 26  1  0  0  0  0
  4  5  1  0  0  0  0
  4  6  1  0  0  0  0
  4 27  1  0  0  0  0
  5 28  1  0  0  0  0
  5 29  1  0  0  0  0
  5 30  1  0  0  0  0
  6  7  1  0  0  0  0
  6 31  1  0  0  0  0
  6 32  1  0  0  0  0
  7  8  1  0  0  0  0
  7 20  1  0  0  0  0
  8  9  2  0  0  0  0
  8 10  1  0  0  0  0
 10 11  1  0  0  0  0
 10 12  1  0  0  0  0
 10 33  1  0  0  0  0
 11 34  1  0  0  0  0
 11 35  1  0  0  0  0
 11 36  1  0  0  0  0
 12 13  1  0  0  0  0
 12 37  1  0  0  0  0
 12 47  1  0  0  0  0
 13 14  1  0  0  0  0
 13 38  1  0  0  0  0
 13 39  1  0  0  0  0
 14 15  1  0  0  0  0
 14 40  1  0  0  0  0
 14 41  1  0  0  0  0
 15 19  1  0  0  0  0
 15 16  1  0  0  0  0
 16 17  2  0  0  0  0
 16 42  1  0  0  0  0
 17 18  1  0  0  0  0
 17 43  1  0  0  0  0
 18 19  2  0  0  0  0
 18 44  1  0  0  0  0
 20 45  1  0  0  0  0
 20 46  1  0  0  0  0
M  CHG  1  12   1
M  END
> <s_m_source_file>
AV-unprocessed.smi

> <i_m_source_file_index>
3331

> <i_lp_mmshare_version>
43012

> <i_f3d_flags>
0

> <s_epik_input>
W0NIM11bQ0BASF0xW0NIMl1bQ0BASF0oW0NIM10pW0NIMl1OKFtDSDJdMSlDKD1PKVtDQEhdKFtDSDNdKVtOSF1bQ0gyXVtDSDJdbjJbY0hdW2NIXVtjSF1uMg==

> <s_epik_cmdline>
J2VwaWtfcHl0aG9uJywgJy1waCcsICc3LjAnLCAnLXRuJywgJzgnLCAnLW1hJywgJzIwMCcsICctbWV0YWxfYmluZGluZycsICctaW1hZScsICc8aW5maWxlLm1hZT4nLCAnLW9tYWUnLCAnPG91dGZpbGUubWFlPic=

> <r_lp_tautomer_probability>
1

> <r_epik_Ionization_Penalty>
0.189706

> <r_epik_Ionization_Penalty_Charging>
0.189703

> <r_epik_Ionization_Penalty_Neutral>
2.45875e-06

> <r_epik_State_Penalty>
0.179341

> <r_epik_Charging_Adjusted_Penalty>
0.369044

> <i_epik_Tot_Q>
1

> <i_epik_Tot_abs_Q>
1

> <r_epik_Metal_State_Penalty>
0.179578

> <b_epik_Metal_Only>
0

> <s_lp_Force_Field>
OPLS_2005

> <r_lp_Energy>
26.0913

> <b_lp_Chiralities_Consistent>
1

> <s_lp_Variant>
AV-unprocessed.smi:3331-5

> <Gold.Version>
5.8.1

> <Gold.Id.Protein>
6NUR|6NUR_protein|mol2

> <Gold.PLP.Fitness>
40.4641

> <Gold.PLP.PLP>
-35.5029

> <Gold.PLP.part.hbond>
-2.0000

> <Gold.PLP.part.metal>
0.0000

> <Gold.PLP.part.buried>
-5.0232

> <Gold.PLP.part.nonpolar>
-28.4610

> <Gold.PLP.part.repulsive>
0.0649

> <Gold.PLP.ligand.clash>
0.0000

> <Gold.PLP.ligand.torsion>
0.3092

> <Gold.PLP.Chemscore.Hbond>
1.8480

> <Gold.PLP.Chemscore.CHOScore>
0.0000

> <Gold.PLP.Chemscore.Metal>
0.0000

> <Gold.Chemscore.Hbonds>
donor molecule, donor type, donor heavy atom, donor atom, acceptor molecule, acceptor atom, score
      P1  H  6931  6943       L1    19  0.63
      P1  H  6934  6947       L1    19  1.00

> <Gold.PLP.Chemscore.Internal.Correction>
0.0357

> <Gold.Rescore>
     Score         DG    S(hbond)    S(metal)    S(lipo)     H(rot)  DE(clash)    DE(int)     intcor
     18.41     -18.83       1.90        0.00      97.72       1.73       0.10       0.32       ----

> <Gold.Chemscore.Fitness>
18.4096

> <Gold.Chemscore.DG>
-18.8336

> <Gold.Chemscore.ZeroCoef>
-5.4800

> <Gold.Chemscore.Hbond>
1.8976

> <Gold.Chemscore.Metal>
0.0000

> <Gold.Chemscore.Lipo>
97.7160

> <Gold.Chemscore.Internal_Hbond>
0.0000

> <Gold.Chemscore.DEClash>
0.1015

> <Gold.Chemscore.DEInternal>
0.3225

> <Gold.Chemscore.Rot>
1.7254

> <Gold.Chemscore.Internal.Correction>
   9.000000E+99

> <Gold.Chemscore.Hbonds>
donor molecule, donor type, donor heavy atom, donor atom, acceptor molecule, acceptor atom, score
      P1  H  6931  6943       L1    19  0.10
      P1  H  6934  6947       L1    19  0.33

> <Gold.Chemscore.Hbond.Weighted>
-6.3379

> <Gold.Chemscore.Metal.Weighted>
-0.0000

> <Gold.Chemscore.Lipo.Weighted>
-11.4328

> <Gold.Chemscore.Internal_Hbond.Weighted>
0.0000

> <Gold.Chemscore.DEClash.Weighted>
0.1015

> <Gold.Chemscore.DEInternal.Weighted>
0.3225

> <Gold.Chemscore.Rot.Weighted>
4.4170

> <Gold.Chemscore.Internal.Correction.Weighted>
   9.000000E+99

> <Gold.Protein.RotatedTorsions>
[ 6907 6896 6895 6894 ] final  -85.06 input  -60.11 | X-H torsion
[ 7974 7965 7964 7962 ] final  166.90 input  175.53 | X-H torsion
[ 8008 7997 7996 7995 ] final  -84.77 input   59.86 | X-H torsion
[ 10167 10162 10161 10158 ] final   71.92 input  -65.29 | X-H torsion
[ 10718 10713 10712 10709 ] final   80.77 input   66.30 | X-H torsion
[ 10763 10752 10751 10750 ] final -107.63 input  -60.55 | X-H torsion
[ 11005 11000 10999 10996 ] final  -48.99 input  -57.11 | X-H torsion

> <Gold.Protein.ActiveResidues>
 VAL166  LYS551  ARG553  GLY616  TRP617  ASP618  TYR619  PRO620  LYS621  CYS622 
 ASP623  PHE694  ASN695  SER759  ASP760  ASP761  ALA762  ILE779  LEU786  VAL792 
 PHE793  MET794  SER795  GLU796  ALA797  LYS798  CYS799  TRP800  GLU811  SER814 

> <Gold.Protein.RotatedAtoms>
  150.6872  134.3263  159.4807 H   0  0  0  0  0  0  0  0  0  0  0  0  # atno 6907 bound_to 6896
  152.1133  134.9256  160.0575 H   0  0  0  0  0  0  0  0  0  0  0  0  # atno 6908 bound_to 6896
  152.0490  133.3976  159.4406 H   0  0  0  0  0  0  0  0  0  0  0  0  # atno 6909 bound_to 6896
  144.7445  139.8682  143.6386 H   0  0  0  0  0  0  0  0  0  0  0  0  # atno 7974 bound_to 7965
  154.6334  140.0600  156.9760 H   0  0  0  0  0  0  0  0  0  0  0  0  # atno 8008 bound_to 7997
  155.1629  140.3284  155.4389 H   0  0  0  0  0  0  0  0  0  0  0  0  # atno 8009 bound_to 7997
  156.2495  140.1927  156.6735 H   0  0  0  0  0  0  0  0  0  0  0  0  # atno 8010 bound_to 7997
  140.0409  144.5390  150.7435 H   0  0  0  0  0  0  0  0  0  0  0  0  # atno 10167 bound_to 10162
  157.6815  130.9974  150.2128 H   0  0  0  0  0  0  0  0  0  0  0  0  # atno 10718 bound_to 10713
  154.8087  135.4668  154.0458 H   0  0  0  0  0  0  0  0  0  0  0  0  # atno 10763 bound_to 10752
  153.1907  135.6854  153.8363 H   0  0  0  0  0  0  0  0  0  0  0  0  # atno 10764 bound_to 10752
  153.7882  135.3247  155.3352 H   0  0  0  0  0  0  0  0  0  0  0  0  # atno 10765 bound_to 10752
  141.0733  133.6673  156.3520 H   0  0  0  0  0  0  0  0  0  0  0  0  # atno 11005 bound_to 11000
  146.1299  139.4333  143.0175 LP  0  0  0  0  0  0  0  0  0  0  0  0  # atno 17320 bound_to 7965
  145.7178  141.0085  143.1418 LP  0  0  0  0  0  0  0  0  0  0  0  0  # atno 17321 bound_to 7965
  140.7260  143.2637  151.4117 LP  0  0  0  0  0  0  0  0  0  0  0  0  # atno 17342 bound_to 10162
  139.6014  144.1287  152.2202 LP  0  0  0  0  0  0  0  0  0  0  0  0  # atno 17343 bound_to 10162
  156.2796  130.3731  149.7949 LP  0  0  0  0  0  0  0  0  0  0  0  0  # atno 17370 bound_to 10713
  156.5641  130.8396  151.3337 LP  0  0  0  0  0  0  0  0  0  0  0  0  # atno 17371 bound_to 10713
  140.5627  134.5918  157.5438 LP  0  0  0  0  0  0  0  0  0  0  0  0  # atno 17394 bound_to 11000
  139.9545  134.7558  156.0372 LP  0  0  0  0  0  0  0  0  0  0  0  0  # atno 17395 bound_to 11000

$$$$
