AV-unprocessed.smi:809|AV-procd|sdf|3807|dock8
  -GOLD-   22720 1243D 1   1.00000     0.00000
 Structure written by MMmdl.
 39 40  0  0  0  0  0  0  0  0  3 V2000
  152.6101  144.5019  158.2580 C   0  0  0  0  0  0  0  0  0  0  0  0
  151.8936  143.2037  158.4599 C   0  0  0  0  0  0  0  0  0  0  0  0
  152.2359  142.2050  159.3338 C   0  0  0  0  0  0  0  0  0  0  0  0
  151.1266  140.8668  159.2473 S   0  0  0  0  0  0  0  0  0  0  0  0
  150.2167  141.7163  157.9959 C   0  0  0  0  0  0  0  0  0  0  0  0
  149.1108  141.2485  157.3949 N   0  5  0  0  0  0  0  0  0  0  0  0
  149.1888  140.7205  156.1525 C   0  0  0  0  0  0  0  0  0  0  0  0
  150.1998  140.2677  155.6116 O   0  0  0  0  0  0  0  0  0  0  0  0
  148.0214  140.7269  155.4948 N   0  0  0  0  0  0  0  0  0  0  0  0
  147.8029  140.2763  154.1226 C   0  0  0  0  0  0  0  0  0  0  0  0
  146.9525  138.9810  154.0167 C   0  0  1  0  0  0  0  0  0  0  0  0
  147.6992  137.9407  154.6226 O   0  0  0  0  0  0  0  0  0  0  0  0
  145.6527  139.1383  154.8381 C   0  0  0  0  0  0  0  0  0  0  0  0
  144.7084  137.9301  154.7026 C   0  0  0  0  0  0  0  0  0  0  0  0
  144.3976  137.6543  153.2794 N   0  3  2  0  0  0  0  0  0  0  0  0
  143.3892  136.5845  153.1204 C   0  0  0  0  0  0  0  0  0  0  0  0
  145.6244  137.3959  152.4883 C   0  0  0  0  0  0  0  0  0  0  0  0
  146.5950  138.5879  152.5622 C   0  0  0  0  0  0  0  0  0  0  0  0
  150.7471  142.9123  157.7162 N   0  0  0  0  0  0  0  0  0  0  0  0
  152.6086  145.0958  159.1719 H   0  0  0  0  0  0  0  0  0  0  0  0
  152.1458  145.1021  157.4747 H   0  0  0  0  0  0  0  0  0  0  0  0
  153.6489  144.3356  157.9727 H   0  0  0  0  0  0  0  0  0  0  0  0
  153.0678  142.1748  160.0209 H   0  0  0  0  0  0  0  0  0  0  0  0
  147.2215  141.0994  155.9848 H   0  0  0  0  0  0  0  0  0  0  0  0
  147.3913  141.0778  153.5061 H   0  0  0  0  0  0  0  0  0  0  0  0
  148.7996  140.0851  153.7243 H   0  0  0  0  0  0  0  0  0  0  0  0
  147.9572  137.3194  153.9601 H   0  0  0  0  0  0  0  0  0  0  0  0
  145.8872  139.3080  155.8901 H   0  0  0  0  0  0  0  0  0  0  0  0
  145.1193  140.0289  154.5025 H   0  0  0  0  0  0  0  0  0  0  0  0
  145.1524  137.0447  155.1604 H   0  0  0  0  0  0  0  0  0  0  0  0
  143.7835  138.1330  155.2440 H   0  0  0  0  0  0  0  0  0  0  0  0
  143.7600  135.6360  153.5110 H   0  0  0  0  0  0  0  0  0  0  0  0
  143.1364  136.4464  152.0688 H   0  0  0  0  0  0  0  0  0  0  0  0
  142.4714  136.8384  153.6517 H   0  0  0  0  0  0  0  0  0  0  0  0
  146.1097  136.4879  152.8495 H   0  0  0  0  0  0  0  0  0  0  0  0
  145.3551  137.2151  151.4469 H   0  0  0  0  0  0  0  0  0  0  0  0
  146.1424  139.4437  152.0596 H   0  0  0  0  0  0  0  0  0  0  0  0
  147.4948  138.3434  151.9960 H   0  0  0  0  0  0  0  0  0  0  0  0
  143.9848  138.4961  152.9035 H   0  0  0  0  0  0  0  0  0  0  0  0
  1  2  1  0  0  0  0
  1 20  1  0  0  0  0
  1 21  1  0  0  0  0
  1 22  1  0  0  0  0
  2 19  1  0  0  0  0
  2  3  2  0  0  0  0
  3  4  1  0  0  0  0
  3 23  1  0  0  0  0
  4  5  1  0  0  0  0
  5  6  1  0  0  0  0
  5 19  2  0  0  0  0
  6  7  1  0  0  0  0
  7  8  2  0  0  0  0
  7  9  1  0  0  0  0
  9 10  1  0  0  0  0
  9 24  1  0  0  0  0
 10 11  1  0  0  0  0
 10 25  1  0  0  0  0
 10 26  1  0  0  0  0
 11 18  1  0  0  0  0
 11 12  1  0  0  0  0
 11 13  1  0  0  0  0
 12 27  1  0  0  0  0
 13 14  1  0  0  0  0
 13 28  1  0  0  0  0
 13 29  1  0  0  0  0
 14 15  1  0  0  0  0
 14 30  1  0  0  0  0
 14 31  1  0  0  0  0
 15 16  1  0  0  0  0
 15 17  1  0  0  0  0
 15 39  1  0  0  0  0
 16 32  1  0  0  0  0
 16 33  1  0  0  0  0
 16 34  1  0  0  0  0
 17 18  1  0  0  0  0
 17 35  1  0  0  0  0
 17 36  1  0  0  0  0
 18 37  1  0  0  0  0
 18 38  1  0  0  0  0
M  CHG  1   6  -1
M  CHG  1  15   1
M  END
> <s_m_source_file>
AV-unprocessed.smi

> <i_m_source_file_index>
809

> <i_lp_mmshare_version>
43012

> <i_f3d_flags>
0

> <s_epik_input>
W0NIM11jMVtjSF1zYyhuMSlbTkhdQyg9TylbTkhdW0NIMl1DMihbT0hdKVtDSDJdW0NIMl1OKFtDSDNdKVtDSDJdW0NIMl0y

> <s_epik_cmdline>
J2VwaWtfcHl0aG9uJywgJy1waCcsICc3LjAnLCAnLXRuJywgJzgnLCAnLW1hJywgJzIwMCcsICctbWV0YWxfYmluZGluZycsICctaW1hZScsICc8aW5maWxlLm1hZT4nLCAnLW9tYWUnLCAnPG91dGZpbGUubWFlPic=

> <r_lp_tautomer_probability>
0.999

> <r_epik_Ionization_Penalty>
8.50704

> <r_epik_Ionization_Penalty_Charging>
6.65046

> <r_epik_Ionization_Penalty_Neutral>
1.85657

> <r_epik_State_Penalty>
6.64992

> <r_epik_Charging_Adjusted_Penalty>
13.3004

> <i_epik_Tot_Q>
0

> <i_epik_Tot_abs_Q>
2

> <r_epik_Metal_State_Penalty>
2.57297

> <b_epik_Metal_Only>
1

> <s_lp_Force_Field>
OPLS_2005

> <r_lp_Energy>
10.5193

> <b_lp_Chiralities_Consistent>
1

> <s_lp_Variant>
AV-unprocessed.smi:809-3

> <Gold.Version>
5.8.1

> <Gold.Id.Protein>
6NUR|6NUR_protein|mol2

> <Gold.PLP.Fitness>
43.6114

> <Gold.PLP.PLP>
-33.8464

> <Gold.PLP.part.hbond>
-3.7927

> <Gold.PLP.part.metal>
0.0000

> <Gold.PLP.part.buried>
0.1234

> <Gold.PLP.part.nonpolar>
-30.7309

> <Gold.PLP.part.repulsive>
0.3377

> <Gold.PLP.ligand.clash>
0.0000

> <Gold.PLP.ligand.torsion>
0.8962

> <Gold.PLP.Chemscore.Hbond>
3.8480

> <Gold.PLP.Chemscore.CHOScore>
0.0000

> <Gold.PLP.Chemscore.Metal>
0.0000

> <Gold.Chemscore.Hbonds>
donor molecule, donor type, donor heavy atom, donor atom, acceptor molecule, acceptor atom, score
      L1  H    15    39       P1 10175  2.00

> <Gold.PLP.Chemscore.Internal.Correction>
0.0134

> <Gold.Rescore>
     Score         DG    S(hbond)    S(metal)    S(lipo)     H(rot)  DE(clash)    DE(int)     intcor
     17.61     -19.97       2.72        0.00      85.88       1.82       1.55       0.81       ----

> <Gold.Chemscore.Fitness>
17.6121

> <Gold.Chemscore.DG>
-19.9711

> <Gold.Chemscore.ZeroCoef>
-5.4800

> <Gold.Chemscore.Hbond>
2.7241

> <Gold.Chemscore.Metal>
0.0000

> <Gold.Chemscore.Lipo>
85.8834

> <Gold.Chemscore.Internal_Hbond>
0.0000

> <Gold.Chemscore.DEClash>
1.5481

> <Gold.Chemscore.DEInternal>
0.8109

> <Gold.Chemscore.Rot>
1.8186

> <Gold.Chemscore.Internal.Correction>
   9.000000E+99

> <Gold.Chemscore.Hbonds>
donor molecule, donor type, donor heavy atom, donor atom, acceptor molecule, acceptor atom, score
      L1  H    15    39       P1 10175  0.94

> <Gold.Chemscore.Hbond.Weighted>
-9.0984

> <Gold.Chemscore.Metal.Weighted>
-0.0000

> <Gold.Chemscore.Lipo.Weighted>
-10.0484

> <Gold.Chemscore.Internal_Hbond.Weighted>
0.0000

> <Gold.Chemscore.DEClash.Weighted>
1.5481

> <Gold.Chemscore.DEInternal.Weighted>
0.8109

> <Gold.Chemscore.Rot.Weighted>
4.6557

> <Gold.Chemscore.Internal.Correction.Weighted>
   9.000000E+99

> <Gold.Protein.RotatedTorsions>
[ 6907 6896 6895 6894 ] final -136.20 input  -60.11 | X-H torsion
[ 7974 7965 7964 7962 ] final  -72.65 input  175.53 | X-H torsion
[ 8008 7997 7996 7995 ] final   26.79 input   59.86 | X-H torsion
[ 10167 10162 10161 10158 ] final  155.57 input  -65.29 | X-H torsion
[ 10718 10713 10712 10709 ] final    3.79 input   66.30 | X-H torsion
[ 10763 10752 10751 10750 ] final  118.89 input  -60.55 | X-H torsion
[ 11005 11000 10999 10996 ] final  -90.82 input  -57.11 | X-H torsion

> <Gold.Protein.ActiveResidues>
 VAL166  LYS551  ARG553  GLY616  TRP617  ASP618  TYR619  PRO620  LYS621  CYS622 
 ASP623  PHE694  ASN695  SER759  ASP760  ASP761  ALA762  ILE779  LEU786  VAL792 
 PHE793  MET794  SER795  GLU796  ALA797  LYS798  CYS799  TRP800  GLU811  SER814 

> <Gold.Protein.RotatedAtoms>
  151.0072  133.6000  159.2687 H   0  0  0  0  0  0  0  0  0  0  0  0  # atno 6907 bound_to 6896
  151.3165  135.0806  159.9300 H   0  0  0  0  0  0  0  0  0  0  0  0  # atno 6908 bound_to 6896
  152.5290  133.9727  159.7823 H   0  0  0  0  0  0  0  0  0  0  0  0  # atno 6909 bound_to 6896
  145.6624  140.9248  143.0927 H   0  0  0  0  0  0  0  0  0  0  0  0  # atno 7974 bound_to 7965
  155.0329  140.3160  155.4752 H   0  0  0  0  0  0  0  0  0  0  0  0  # atno 8008 bound_to 7997
  156.2870  140.2177  156.5393 H   0  0  0  0  0  0  0  0  0  0  0  0  # atno 8009 bound_to 7997
  154.7355  140.0478  157.0753 H   0  0  0  0  0  0  0  0  0  0  0  0  # atno 8010 bound_to 7997
  139.4821  144.5087  151.8058 H   0  0  0  0  0  0  0  0  0  0  0  0  # atno 10167 bound_to 10162
  156.8830  130.5660  149.5652 H   0  0  0  0  0  0  0  0  0  0  0  0  # atno 10718 bound_to 10713
  153.5745  135.3496  155.2851 H   0  0  0  0  0  0  0  0  0  0  0  0  # atno 10763 bound_to 10752
  154.8677  135.4167  154.2688 H   0  0  0  0  0  0  0  0  0  0  0  0  # atno 10764 bound_to 10752
  153.3461  135.7052  153.6897 H   0  0  0  0  0  0  0  0  0  0  0  0  # atno 10765 bound_to 10752
  141.1558  133.7716  156.9791 H   0  0  0  0  0  0  0  0  0  0  0  0  # atno 11005 bound_to 11000
  144.7084  139.8466  143.7422 LP  0  0  0  0  0  0  0  0  0  0  0  0  # atno 17320 bound_to 7965
  146.1114  139.4120  143.0285 LP  0  0  0  0  0  0  0  0  0  0  0  0  # atno 17321 bound_to 7965
  140.4588  144.1752  150.5904 LP  0  0  0  0  0  0  0  0  0  0  0  0  # atno 17342 bound_to 10162
  140.4507  143.2488  151.9351 LP  0  0  0  0  0  0  0  0  0  0  0  0  # atno 17343 bound_to 10162
  156.0667  130.5709  150.9303 LP  0  0  0  0  0  0  0  0  0  0  0  0  # atno 17370 bound_to 10713
  157.6129  131.0935  150.8763 LP  0  0  0  0  0  0  0  0  0  0  0  0  # atno 17371 bound_to 10713
  140.1078  134.9496  157.2019 LP  0  0  0  0  0  0  0  0  0  0  0  0  # atno 17394 bound_to 11000
  140.3234  134.2891  155.7242 LP  0  0  0  0  0  0  0  0  0  0  0  0  # atno 17395 bound_to 11000

$$$$
