AV-unprocessed.smi:2853|AV-procd|sdf|10974|dock1
  -GOLD-   2272015423D 1   1.00000     0.00000
 Structure written by MMmdl.
 43 44  0  0  0  0  0  0  0  0  1 V2000
  151.5187  139.6161  157.7274 C   0  0  0  0  0  0  0  0  0  0  0  0
  150.7709  140.8769  157.9942 C   0  0  0  0  0  0  0  0  0  0  0  0
  151.3560  142.0380  158.2836 N   0  0  0  0  0  0  0  0  0  0  0  0
  150.4371  143.0713  158.4892 C   0  0  0  0  0  0  0  0  0  0  0  0
  150.9534  144.4417  158.8320 C   0  0  0  0  0  0  0  0  0  0  0  0
  151.4706  144.5581  160.2810 C   0  0  0  0  0  0  0  0  0  0  0  0
  152.1052  145.9291  160.5723 C   0  0  0  0  0  0  0  0  0  0  0  0
  152.4567  143.4252  160.6013 C   0  0  0  0  0  0  0  0  0  0  0  0
  149.1191  142.6889  158.3619 C   0  0  0  0  0  0  0  0  0  0  0  0
  148.0565  143.5222  158.5201 N   0  0  0  0  0  0  0  0  0  0  0  0
  146.9478  143.3537  159.2607 C   0  0  0  0  0  0  0  0  0  0  0  0
  146.6965  142.3708  159.9573 O   0  0  0  0  0  0  0  0  0  0  0  0
  146.1399  144.4221  159.1536 N   0  0  0  0  0  0  0  0  0  0  0  0
  144.8471  144.6630  159.8090 C   0  0  2  0  0  0  0  0  0  0  0  0
  144.3912  146.0812  159.4193 C   0  0  0  0  0  0  0  0  0  0  0  0
  144.9148  144.5222  161.3399 C   0  0  0  0  0  0  0  0  0  0  0  0
  143.9760  143.3590  161.6541 C   0  0  0  0  0  0  0  0  0  0  0  0
  143.0395  143.3947  160.5914 O   0  0  0  0  0  0  0  0  0  0  0  0
  143.7790  143.6246  159.4027 C   0  0  0  0  0  0  0  0  0  0  0  0
  149.0205  140.9821  157.9570 S   0  0  0  0  0  0  0  0  0  0  0  0
  152.5832  139.7515  157.9221 H   0  0  0  0  0  0  0  0  0  0  0  0
  151.3875  139.3191  156.6868 H   0  0  0  0  0  0  0  0  0  0  0  0
  151.1451  138.8187  158.3698 H   0  0  0  0  0  0  0  0  0  0  0  0
  151.7612  144.6984  158.1452 H   0  0  0  0  0  0  0  0  0  0  0  0
  150.1824  145.1934  158.6594 H   0  0  0  0  0  0  0  0  0  0  0  0
  150.6186  144.4389  160.9517 H   0  0  0  0  0  0  0  0  0  0  0  0
  152.9430  146.1282  159.9033 H   0  0  0  0  0  0  0  0  0  0  0  0
  152.4783  145.9789  161.5954 H   0  0  0  0  0  0  0  0  0  0  0  0
  151.3843  146.7381  160.4536 H   0  0  0  0  0  0  0  0  0  0  0  0
  153.3388  143.4763  159.9626 H   0  0  0  0  0  0  0  0  0  0  0  0
  151.9954  142.4480  160.4554 H   0  0  0  0  0  0  0  0  0  0  0  0
  152.7925  143.4765  161.6374 H   0  0  0  0  0  0  0  0  0  0  0  0
  148.1301  144.4040  158.0347 H   0  0  0  0  0  0  0  0  0  0  0  0
  146.4589  145.1661  158.5510 H   0  0  0  0  0  0  0  0  0  0  0  0
  143.4197  146.3197  159.8542 H   0  0  0  0  0  0  0  0  0  0  0  0
  144.2986  146.1848  158.3376 H   0  0  0  0  0  0  0  0  0  0  0  0
  145.1009  146.8348  159.7629 H   0  0  0  0  0  0  0  0  0  0  0  0
  145.9186  144.3488  161.7294 H   0  0  0  0  0  0  0  0  0  0  0  0
  144.5424  145.4237  161.8281 H   0  0  0  0  0  0  0  0  0  0  0  0
  144.5105  142.4079  161.6392 H   0  0  0  0  0  0  0  0  0  0  0  0
  143.4886  143.4621  162.6237 H   0  0  0  0  0  0  0  0  0  0  0  0
  143.1283  143.9712  158.5992 H   0  0  0  0  0  0  0  0  0  0  0  0
  144.2116  142.6771  159.0801 H   0  0  0  0  0  0  0  0  0  0  0  0
  1  2  1  0  0  0  0
  1 21  1  0  0  0  0
  1 22  1  0  0  0  0
  1 23  1  0  0  0  0
  2 20  1  0  0  0  0
  2  3  2  0  0  0  0
  3  4  1  0  0  0  0
  4  5  1  0  0  0  0
  4  9  2  0  0  0  0
  5  6  1  0  0  0  0
  5 24  1  0  0  0  0
  5 25  1  0  0  0  0
  6  7  1  0  0  0  0
  6  8  1  0  0  0  0
  6 26  1  0  0  0  0
  7 27  1  0  0  0  0
  7 28  1  0  0  0  0
  7 29  1  0  0  0  0
  8 30  1  0  0  0  0
  8 31  1  0  0  0  0
  8 32  1  0  0  0  0
  9 10  1  0  0  0  0
  9 20  1  0  0  0  0
 10 11  1  0  0  0  0
 10 33  1  0  0  0  0
 11 12  2  0  0  0  0
 11 13  1  0  0  0  0
 13 14  1  0  0  0  0
 13 34  1  0  0  0  0
 14 19  1  0  0  0  0
 14 15  1  0  0  0  0
 14 16  1  0  0  0  0
 15 35  1  0  0  0  0
 15 36  1  0  0  0  0
 15 37  1  0  0  0  0
 16 17  1  0  0  0  0
 16 38  1  0  0  0  0
 16 39  1  0  0  0  0
 17 18  1  0  0  0  0
 17 40  1  0  0  0  0
 17 41  1  0  0  0  0
 18 19  1  0  0  0  0
 19 42  1  0  0  0  0
 19 43  1  0  0  0  0
M  END
> <s_m_source_file>
AV-unprocessed.smi

> <i_m_source_file_index>
2853

> <i_lp_mmshare_version>
43012

> <i_f3d_flags>
0

> <s_epik_input>
W0NIM11jMW5jKFtDSDJdW0NIXShbQ0gzXSlbQ0gzXSljKHMxKVtOSF1DKD1PKVtOSF1bQ0BAXTIoW0NIM10pW0NIMl1bQ0gyXU9bQ0gyXTI=

> <s_epik_cmdline>
J2VwaWtfcHl0aG9uJywgJy1waCcsICc3LjAnLCAnLXRuJywgJzgnLCAnLW1hJywgJzIwMCcsICctbWV0YWxfYmluZGluZycsICctaW1hZScsICc8aW5maWxlLm1hZT4nLCAnLW9tYWUnLCAnPG91dGZpbGUubWFlPic=

> <r_epik_Ionization_Penalty>
0.000723394

> <r_epik_Ionization_Penalty_Charging>
0

> <r_epik_Ionization_Penalty_Neutral>
0.000723394

> <r_epik_State_Penalty>
0.000446791

> <r_epik_Charging_Adjusted_Penalty>
0.000446791

> <i_epik_Tot_Q>
0

> <i_epik_Tot_abs_Q>
0

> <r_epik_Metal_State_Penalty>
-0

> <b_epik_Metal_Only>
0

> <s_lp_Force_Field>
OPLS_2005

> <r_lp_Energy>
15.0202

> <b_lp_Chiralities_Consistent>
1

> <s_lp_Variant>
AV-unprocessed.smi:2853-2

> <Gold.Version>
5.8.1

> <Gold.Id.Protein>
6NUR|6NUR_protein|mol2

> <Gold.PLP.Fitness>
38.5685

> <Gold.PLP.PLP>
-29.9440

> <Gold.PLP.part.hbond>
-4.7513

> <Gold.PLP.part.metal>
0.0000

> <Gold.PLP.part.buried>
-2.7509

> <Gold.PLP.part.nonpolar>
-23.4815

> <Gold.PLP.part.repulsive>
0.1782

> <Gold.PLP.ligand.clash>
0.0000

> <Gold.PLP.ligand.torsion>
0.6766

> <Gold.PLP.Chemscore.Hbond>
3.3165

> <Gold.PLP.Chemscore.CHOScore>
0.0000

> <Gold.PLP.Chemscore.Metal>
0.0000

> <Gold.Chemscore.Hbonds>
donor molecule, donor type, donor heavy atom, donor atom, acceptor molecule, acceptor atom, score
      L1  H    10    33       P1  8029  1.00
      L1  H    13    34       P1  8029  0.98
      P1  H  6933  6944       L1    12  0.17
      P1  H  6934  6946       L1    12  1.00

> <Gold.PLP.Chemscore.Internal.Correction>
0.0282

> <Gold.Rescore>
     Score         DG    S(hbond)    S(metal)    S(lipo)     H(rot)  DE(clash)    DE(int)     intcor
     18.09     -22.15       2.63        0.00      95.19       1.28       1.39       2.67       ----

> <Gold.Chemscore.Fitness>
18.0902

> <Gold.Chemscore.DG>
-22.1519

> <Gold.Chemscore.ZeroCoef>
-5.4800

> <Gold.Chemscore.Hbond>
2.6344

> <Gold.Chemscore.Metal>
0.0000

> <Gold.Chemscore.Lipo>
95.1930

> <Gold.Chemscore.Internal_Hbond>
0.0000

> <Gold.Chemscore.DEClash>
1.3946

> <Gold.Chemscore.DEInternal>
2.6671

> <Gold.Chemscore.Rot>
1.2753

> <Gold.Chemscore.Internal.Correction>
   9.000000E+99

> <Gold.Chemscore.Hbonds>
donor molecule, donor type, donor heavy atom, donor atom, acceptor molecule, acceptor atom, score
      L1  H    10    33       P1  8029  0.26
      L1  H    13    34       P1  8029  0.88
      P1  H  6933  6944       L1    12  0.07
      P1  H  6934  6946       L1    12  0.97

> <Gold.Chemscore.Hbond.Weighted>
-8.7989

> <Gold.Chemscore.Metal.Weighted>
-0.0000

> <Gold.Chemscore.Lipo.Weighted>
-11.1376

> <Gold.Chemscore.Internal_Hbond.Weighted>
0.0000

> <Gold.Chemscore.DEClash.Weighted>
1.3946

> <Gold.Chemscore.DEInternal.Weighted>
2.6671

> <Gold.Chemscore.Rot.Weighted>
3.2646

> <Gold.Chemscore.Internal.Correction.Weighted>
   9.000000E+99

> <Gold.Protein.RotatedTorsions>
[ 6907 6896 6895 6894 ] final   31.16 input  -60.11 | X-H torsion
[ 7974 7965 7964 7962 ] final    8.67 input  175.53 | X-H torsion
[ 8008 7997 7996 7995 ] final  -34.09 input   59.86 | X-H torsion
[ 10167 10162 10161 10158 ] final -139.14 input  -65.29 | X-H torsion
[ 10718 10713 10712 10709 ] final    6.52 input   66.30 | X-H torsion
[ 10763 10752 10751 10750 ] final   80.44 input  -60.55 | X-H torsion
[ 11005 11000 10999 10996 ] final -123.24 input  -57.11 | X-H torsion

> <Gold.Protein.ActiveResidues>
 VAL166  LYS551  ARG553  GLY616  TRP617  ASP618  TYR619  PRO620  LYS621  CYS622 
 ASP623  PHE694  ASN695  SER759  ASP760  ASP761  ALA762  ILE779  LEU786  VAL792 
 PHE793  MET794  SER795  GLU796  ALA797  LYS798  CYS799  TRP800  GLU811  SER814 

> <Gold.Protein.RotatedAtoms>
  152.0562  134.9622  160.0574 H   0  0  0  0  0  0  0  0  0  0  0  0  # atno 6907 bound_to 6896
  152.1004  133.4242  159.4592 H   0  0  0  0  0  0  0  0  0  0  0  0  # atno 6908 bound_to 6896
  150.6839  134.2687  159.4622 H   0  0  0  0  0  0  0  0  0  0  0  0  # atno 6909 bound_to 6896
  146.2413  139.9898  142.8427 H   0  0  0  0  0  0  0  0  0  0  0  0  # atno 7974 bound_to 7965
  154.4130  140.1693  156.1993 H   0  0  0  0  0  0  0  0  0  0  0  0  # atno 8008 bound_to 7997
  155.9537  140.3399  155.6407 H   0  0  0  0  0  0  0  0  0  0  0  0  # atno 8009 bound_to 7997
  155.6837  140.0725  157.2465 H   0  0  0  0  0  0  0  0  0  0  0  0  # atno 8010 bound_to 7997
  139.8409  143.7324  152.2663 H   0  0  0  0  0  0  0  0  0  0  0  0  # atno 10167 bound_to 10162
  156.9234  130.5799  149.5648 H   0  0  0  0  0  0  0  0  0  0  0  0  # atno 10718 bound_to 10713
  153.1033  135.4802  154.8906 H   0  0  0  0  0  0  0  0  0  0  0  0  # atno 10763 bound_to 10752
  154.7403  135.3081  154.8742 H   0  0  0  0  0  0  0  0  0  0  0  0  # atno 10764 bound_to 10752
  153.9352  135.6840  153.4798 H   0  0  0  0  0  0  0  0  0  0  0  0  # atno 10765 bound_to 10752
  140.9934  134.0506  157.3627 H   0  0  0  0  0  0  0  0  0  0  0  0  # atno 11005 bound_to 11000
  145.1514  140.9625  143.4431 LP  0  0  0  0  0  0  0  0  0  0  0  0  # atno 17320 bound_to 7965
  145.0202  139.3431  143.6076 LP  0  0  0  0  0  0  0  0  0  0  0  0  # atno 17321 bound_to 7965
  139.7560  144.7520  151.0434 LP  0  0  0  0  0  0  0  0  0  0  0  0  # atno 17342 bound_to 10162
  140.7798  143.4805  151.0025 LP  0  0  0  0  0  0  0  0  0  0  0  0  # atno 17343 bound_to 10162
  156.0480  130.5554  150.8926 LP  0  0  0  0  0  0  0  0  0  0  0  0  # atno 17370 bound_to 10713
  157.5893  131.0945  150.9144 LP  0  0  0  0  0  0  0  0  0  0  0  0  # atno 17371 bound_to 10713
  139.9003  135.0162  156.7235 LP  0  0  0  0  0  0  0  0  0  0  0  0  # atno 17394 bound_to 11000
  140.7004  133.9311  155.8021 LP  0  0  0  0  0  0  0  0  0  0  0  0  # atno 17395 bound_to 11000

$$$$
