AV-unprocessed.smi:3301|AV-procd|sdf|12652|dock4
  -GOLD-   2272018583D 1   1.00000     0.00000
 Structure written by MMmdl.
 37 38  0  0  0  0  0  0  0  0  2 V2000
  151.0322  140.4191  155.4713 C   0  0  0  0  0  0  0  0  0  0  0  0
  150.1419  141.5270  156.0496 C   0  0  2  0  0  0  0  0  0  0  0  0
  149.4191  142.3059  154.9284 C   0  0  0  0  0  0  0  0  0  0  0  0
  148.3804  141.5191  154.2543 N   0  0  0  0  0  0  0  0  0  0  0  0
  148.5398  140.3346  153.5821 C   0  0  0  0  0  0  0  0  0  0  0  0
  147.3024  139.9847  153.1071 C   0  0  0  0  0  0  0  0  0  0  0  0
  146.4389  140.9649  153.5170 N   0  3  0  0  0  0  0  0  0  0  0  0
  147.0950  141.8937  154.2202 C   0  0  0  0  0  0  0  0  0  0  0  0
  150.9649  142.4211  156.8638 N   0  0  0  0  0  0  0  0  0  0  0  0
  151.3384  142.2003  158.1344 C   0  0  0  0  0  0  0  0  0  0  0  0
  151.0396  141.1819  158.7598 O   0  0  0  0  0  0  0  0  0  0  0  0
  152.1818  143.2984  158.7931 C   0  0  0  0  0  0  0  0  0  0  0  0
  152.6961  142.9034  160.1053 N   0  0  0  0  0  0  0  0  0  0  0  0
  152.3631  143.6716  161.2937 C   0  0  0  0  0  0  0  0  0  0  0  0
  152.9724  142.8889  162.4666 C   0  0  0  0  0  0  0  0  0  0  0  0
  153.8491  141.7983  161.8410 C   0  0  0  0  0  0  0  0  0  0  0  0
  153.5114  141.8728  160.3623 C   0  0  0  0  0  0  0  0  0  0  0  0
  153.9543  141.0756  159.5362 O   0  0  0  0  0  0  0  0  0  0  0  0
  150.4462  139.7126  154.8829 H   0  0  0  0  0  0  0  0  0  0  0  0
  151.5245  139.8556  156.2646 H   0  0  0  0  0  0  0  0  0  0  0  0
  151.8078  140.8283  154.8228 H   0  0  0  0  0  0  0  0  0  0  0  0
  149.3950  141.0400  156.6792 H   0  0  0  0  0  0  0  0  0  0  0  0
  148.9552  143.2107  155.3242 H   0  0  0  0  0  0  0  0  0  0  0  0
  150.1313  142.6241  154.1658 H   0  0  0  0  0  0  0  0  0  0  0  0
  149.4986  139.8462  153.4828 H   0  0  0  0  0  0  0  0  0  0  0  0
  146.9815  139.1350  152.5224 H   0  0  0  0  0  0  0  0  0  0  0  0
  146.6723  142.7792  154.6606 H   0  0  0  0  0  0  0  0  0  0  0  0
  151.2656  143.2815  156.4286 H   0  0  0  0  0  0  0  0  0  0  0  0
  153.0131  143.5397  158.1297 H   0  0  0  0  0  0  0  0  0  0  0  0
  151.5928  144.2115  158.8978 H   0  0  0  0  0  0  0  0  0  0  0  0
  152.7997  144.6683  161.2162 H   0  0  0  0  0  0  0  0  0  0  0  0
  151.2831  143.7793  161.4019 H   0  0  0  0  0  0  0  0  0  0  0  0
  153.5489  143.5416  163.1233 H   0  0  0  0  0  0  0  0  0  0  0  0
  152.1834  142.4355  163.0680 H   0  0  0  0  0  0  0  0  0  0  0  0
  154.9097  142.0060  161.9854 H   0  0  0  0  0  0  0  0  0  0  0  0
  153.6266  140.8107  162.2464 H   0  0  0  0  0  0  0  0  0  0  0  0
  145.4469  140.9874  153.3163 H   0  0  0  0  0  0  0  0  0  0  0  0
  1  2  1  0  0  0  0
  1 19  1  0  0  0  0
  1 20  1  0  0  0  0
  1 21  1  0  0  0  0
  2  3  1  0  0  0  0
  2  9  1  0  0  0  0
  2 22  1  0  0  0  0
  3  4  1  0  0  0  0
  3 23  1  0  0  0  0
  3 24  1  0  0  0  0
  4  8  1  0  0  0  0
  4  5  1  0  0  0  0
  5  6  2  0  0  0  0
  5 25  1  0  0  0  0
  6  7  1  0  0  0  0
  6 26  1  0  0  0  0
  7  8  2  0  0  0  0
  7 37  1  0  0  0  0
  8 27  1  0  0  0  0
  9 10  1  0  0  0  0
  9 28  1  0  0  0  0
 10 11  2  0  0  0  0
 10 12  1  0  0  0  0
 12 13  1  0  0  0  0
 12 29  1  0  0  0  0
 12 30  1  0  0  0  0
 13 17  1  0  0  0  0
 13 14  1  0  0  0  0
 14 15  1  0  0  0  0
 14 31  1  0  0  0  0
 14 32  1  0  0  0  0
 15 16  1  0  0  0  0
 15 33  1  0  0  0  0
 15 34  1  0  0  0  0
 16 17  1  0  0  0  0
 16 35  1  0  0  0  0
 16 36  1  0  0  0  0
 17 18  2  0  0  0  0
M  CHG  1   7   1
M  END
> <s_m_source_file>
AV-unprocessed.smi

> <i_m_source_file_index>
3301

> <i_lp_mmshare_version>
43012

> <i_f3d_flags>
0

> <s_epik_input>
W2NIXTFuW2NIXVtjSF1uMVtDSDJdW0NAQEhdKFtDSDNdKVtOSF1DKD1PKVtDSDJdTjJbQ0gyXVtDSDJdW0NIMl1DMj1P

> <s_epik_cmdline>
J2VwaWtfcHl0aG9uJywgJy1waCcsICc3LjAnLCAnLXRuJywgJzgnLCAnLW1hJywgJzIwMCcsICctbWV0YWxfYmluZGluZycsICctaW1hZScsICc8aW5maWxlLm1hZT4nLCAnLW9tYWUnLCAnPG91dGZpbGUubWFlPic=

> <r_lp_tautomer_probability>
1

> <r_epik_Ionization_Penalty>
0.254232

> <r_epik_Ionization_Penalty_Charging>
0

> <r_epik_Ionization_Penalty_Neutral>
0.254232

> <r_epik_State_Penalty>
0.245698

> <r_epik_Charging_Adjusted_Penalty>
0.245698

> <i_epik_Tot_Q>
1

> <i_epik_Tot_abs_Q>
1

> <r_epik_Metal_State_Penalty>
0.5358

> <b_epik_Metal_Only>
0

> <s_lp_Force_Field>
OPLS_2005

> <r_lp_Energy>
13.6599

> <b_lp_Chiralities_Consistent>
1

> <s_lp_Variant>
AV-unprocessed.smi:3301-1

> <Gold.Version>
5.8.1

> <Gold.Id.Protein>
6NUR|6NUR_protein|mol2

> <Gold.PLP.Fitness>
49.2639

> <Gold.PLP.PLP>
-43.0411

> <Gold.PLP.part.hbond>
-1.2957

> <Gold.PLP.part.metal>
0.0000

> <Gold.PLP.part.buried>
2.0106

> <Gold.PLP.part.nonpolar>
-43.0268

> <Gold.PLP.part.repulsive>
0.0531

> <Gold.PLP.ligand.clash>
0.0000

> <Gold.PLP.ligand.torsion>
0.4402

> <Gold.PLP.Chemscore.Hbond>
2.0000

> <Gold.PLP.Chemscore.CHOScore>
0.3554

> <Gold.PLP.Chemscore.Metal>
0.0000

> <Gold.Chemscore.Hbonds>
donor molecule, donor type, donor heavy atom, donor atom, acceptor molecule, acceptor atom, score
      L1  H     7    37       P1 10175  2.00
      L1  C     5    25       P1  7957  0.32

> <Gold.PLP.Chemscore.Internal.Correction>
0.0370

> <Gold.Rescore>
     Score         DG    S(hbond)    S(metal)    S(lipo)     H(rot)  DE(clash)    DE(int)     intcor
     12.33     -13.21       1.55        0.00      73.25       2.35       0.28       0.60       ----

> <Gold.Chemscore.Fitness>
12.3301

> <Gold.Chemscore.DG>
-13.2097

> <Gold.Chemscore.ZeroCoef>
-5.4800

> <Gold.Chemscore.Hbond>
1.5472

> <Gold.Chemscore.Metal>
0.0000

> <Gold.Chemscore.Lipo>
73.2517

> <Gold.Chemscore.Internal_Hbond>
0.0000

> <Gold.Chemscore.DEClash>
0.2752

> <Gold.Chemscore.DEInternal>
0.6044

> <Gold.Chemscore.Rot>
2.3470

> <Gold.Chemscore.Internal.Correction>
   9.000000E+99

> <Gold.Chemscore.Hbonds>
donor molecule, donor type, donor heavy atom, donor atom, acceptor molecule, acceptor atom, score
      L1  H     7    37       P1 10175  0.52

> <Gold.Chemscore.Hbond.Weighted>
-5.1675

> <Gold.Chemscore.Metal.Weighted>
-0.0000

> <Gold.Chemscore.Lipo.Weighted>
-8.5705

> <Gold.Chemscore.Internal_Hbond.Weighted>
0.0000

> <Gold.Chemscore.DEClash.Weighted>
0.2752

> <Gold.Chemscore.DEInternal.Weighted>
0.6044

> <Gold.Chemscore.Rot.Weighted>
6.0083

> <Gold.Chemscore.Internal.Correction.Weighted>
   9.000000E+99

> <Gold.Protein.RotatedTorsions>
[ 6907 6896 6895 6894 ] final  -51.19 input  -60.11 | X-H torsion
[ 7974 7965 7964 7962 ] final  108.17 input  175.53 | X-H torsion
[ 8008 7997 7996 7995 ] final  152.86 input   59.86 | X-H torsion
[ 10167 10162 10161 10158 ] final  -81.24 input  -65.29 | X-H torsion
[ 10718 10713 10712 10709 ] final  -30.16 input   66.30 | X-H torsion
[ 10763 10752 10751 10750 ] final  139.13 input  -60.55 | X-H torsion
[ 11005 11000 10999 10996 ] final   26.07 input  -57.11 | X-H torsion

> <Gold.Protein.ActiveResidues>
 VAL166  LYS551  ARG553  GLY616  TRP617  ASP618  TYR619  PRO620  LYS621  CYS622 
 ASP623  PHE694  ASN695  SER759  ASP760  ASP761  ALA762  ILE779  LEU786  VAL792 
 PHE793  MET794  SER795  GLU796  ALA797  LYS798  CYS799  TRP800  GLU811  SER814 

> <Gold.Protein.RotatedAtoms>
  150.8635  134.7992  159.7100 H   0  0  0  0  0  0  0  0  0  0  0  0  # atno 6907 bound_to 6896
  152.4664  134.5062  159.9750 H   0  0  0  0  0  0  0  0  0  0  0  0  # atno 6908 bound_to 6896
  151.5162  133.3437  159.2929 H   0  0  0  0  0  0  0  0  0  0  0  0  # atno 6909 bound_to 6896
  145.2841  139.2622  143.3900 H   0  0  0  0  0  0  0  0  0  0  0  0  # atno 7974 bound_to 7965
  156.2609  140.2009  156.6399 H   0  0  0  0  0  0  0  0  0  0  0  0  # atno 8008 bound_to 7997
  154.6617  140.0560  157.0094 H   0  0  0  0  0  0  0  0  0  0  0  0  # atno 8009 bound_to 7997
  155.1266  140.3230  155.4487 H   0  0  0  0  0  0  0  0  0  0  0  0  # atno 8010 bound_to 7997
  140.4430  143.2508  151.8598 H   0  0  0  0  0  0  0  0  0  0  0  0  # atno 10167 bound_to 10162
  156.4033  130.4394  149.7306 H   0  0  0  0  0  0  0  0  0  0  0  0  # atno 10718 bound_to 10713
  153.9010  135.3022  155.3448 H   0  0  0  0  0  0  0  0  0  0  0  0  # atno 10763 bound_to 10752
  154.7670  135.4905  153.9577 H   0  0  0  0  0  0  0  0  0  0  0  0  # atno 10764 bound_to 10752
  153.1245  135.6790  153.9380 H   0  0  0  0  0  0  0  0  0  0  0  0  # atno 10765 bound_to 10752
  140.3409  134.2333  155.7690 H   0  0  0  0  0  0  0  0  0  0  0  0  # atno 11005 bound_to 11000
  146.3206  140.3316  142.8641 LP  0  0  0  0  0  0  0  0  0  0  0  0  # atno 17320 bound_to 7965
  144.9228  140.7887  143.5738 LP  0  0  0  0  0  0  0  0  0  0  0  0  # atno 17321 bound_to 7965
  139.4791  144.5207  151.8805 LP  0  0  0  0  0  0  0  0  0  0  0  0  # atno 17342 bound_to 10162
  140.4296  144.2134  150.5888 LP  0  0  0  0  0  0  0  0  0  0  0  0  # atno 17343 bound_to 10162
  156.4314  130.7817  151.2836 LP  0  0  0  0  0  0  0  0  0  0  0  0  # atno 17370 bound_to 10713
  157.7504  131.0153  150.3498 LP  0  0  0  0  0  0  0  0  0  0  0  0  # atno 17371 bound_to 10713
  141.2038  133.7901  157.0318 LP  0  0  0  0  0  0  0  0  0  0  0  0  # atno 17394 bound_to 11000
  140.0781  134.9664  157.1580 LP  0  0  0  0  0  0  0  0  0  0  0  0  # atno 17395 bound_to 11000

$$$$
