AV-unprocessed.smi:3331|AV-procd|sdf|12823|dock2
  -GOLD-   2272019193D 1   1.00000     0.00000
 Structure written by MMmdl.
 46 47  0  0  0  0  0  0  0  0  1 V2000
  148.4648  140.7234  154.6947 C   0  0  0  0  0  0  0  0  0  0  0  0
  149.5761  139.7415  155.0909 C   0  0  2  0  0  0  0  0  0  0  0  0
  150.9449  140.4523  155.2069 C   0  0  0  0  0  0  0  0  0  0  0  0
  152.1144  139.4743  155.4641 C   0  0  1  0  0  0  0  0  0  0  0  0
  152.1655  139.0041  156.9286 C   0  0  0  0  0  0  0  0  0  0  0  0
  152.0484  138.3033  154.4590 C   0  0  0  0  0  0  0  0  0  0  0  0
  150.7344  137.6505  154.5469 N   0  0  0  0  0  0  0  0  0  0  0  0
  150.4760  136.4152  155.0473 C   0  0  0  0  0  0  0  0  0  0  0  0
  151.3668  135.7081  155.5234 O   0  0  0  0  0  0  0  0  0  0  0  0
  149.0371  135.8464  155.0277 C   0  0  2  0  0  0  0  0  0  0  0  0
  148.6228  135.4191  156.4443 C   0  0  0  0  0  0  0  0  0  0  0  0
  148.8715  134.7107  154.1012 N   0  0  0  0  0  0  0  0  0  0  0  0
  147.5283  134.1403  154.1134 C   0  0  0  0  0  0  0  0  0  0  0  0
  147.3914  133.1312  152.9657 C   0  0  0  0  0  0  0  0  0  0  0  0
  146.1349  133.2968  152.2619 N   0  0  0  0  0  0  0  0  0  0  0  0
  144.8573  133.0637  152.7249 C   0  0  0  0  0  0  0  0  0  0  0  0
  143.9969  133.3507  151.7042 C   0  0  0  0  0  0  0  0  0  0  0  0
  144.8547  133.7551  150.6431 C   0  0  0  0  0  0  0  0  0  0  0  0
  146.1342  133.7207  150.9797 N   0  0  0  0  0  0  0  0  0  0  0  0
  149.6674  138.5584  154.1038 C   0  0  0  0  0  0  0  0  0  0  0  0
  148.6511  141.1589  153.7125 H   0  0  0  0  0  0  0  0  0  0  0  0
  148.3891  141.5404  155.4128 H   0  0  0  0  0  0  0  0  0  0  0  0
  147.4953  140.2258  154.6592 H   0  0  0  0  0  0  0  0  0  0  0  0
  149.3177  139.3396  156.0717 H   0  0  0  0  0  0  0  0  0  0  0  0
  151.1411  140.9849  154.2752 H   0  0  0  0  0  0  0  0  0  0  0  0
  150.9120  141.2154  155.9854 H   0  0  0  0  0  0  0  0  0  0  0  0
  153.0427  140.0160  155.2787 H   0  0  0  0  0  0  0  0  0  0  0  0
  151.2641  138.4629  157.2152 H   0  0  0  0  0  0  0  0  0  0  0  0
  152.2693  139.8506  157.6073 H   0  0  0  0  0  0  0  0  0  0  0  0
  153.0163  138.3440  157.0984 H   0  0  0  0  0  0  0  0  0  0  0  0
  152.1717  138.6924  153.4472 H   0  0  0  0  0  0  0  0  0  0  0  0
  152.8922  137.6287  154.5886 H   0  0  0  0  0  0  0  0  0  0  0  0
  148.3389  136.6086  154.6884 H   0  0  0  0  0  0  0  0  0  0  0  0
  148.6871  136.2507  157.1470 H   0  0  0  0  0  0  0  0  0  0  0  0
  149.2569  134.6157  156.8215 H   0  0  0  0  0  0  0  0  0  0  0  0
  147.5927  135.0616  156.4587 H   0  0  0  0  0  0  0  0  0  0  0  0
  149.1324  134.9618  153.1582 H   0  0  0  0  0  0  0  0  0  0  0  0
  147.3490  133.6451  155.0689 H   0  0  0  0  0  0  0  0  0  0  0  0
  146.7723  134.9182  154.0025 H   0  0  0  0  0  0  0  0  0  0  0  0
  148.2052  133.2550  152.2494 H   0  0  0  0  0  0  0  0  0  0  0  0
  147.4515  132.1083  153.3412 H   0  0  0  0  0  0  0  0  0  0  0  0
  144.6695  132.7154  153.7298 H   0  0  0  0  0  0  0  0  0  0  0  0
  142.9195  133.2811  151.7135 H   0  0  0  0  0  0  0  0  0  0  0  0
  144.5876  134.0698  149.6451 H   0  0  0  0  0  0  0  0  0  0  0  0
  148.6973  138.0653  154.0269 H   0  0  0  0  0  0  0  0  0  0  0  0
  149.8915  138.9193  153.0989 H   0  0  0  0  0  0  0  0  0  0  0  0
  1  2  1  0  0  0  0
  1 21  1  0  0  0  0
  1 22  1  0  0  0  0
  1 23  1  0  0  0  0
  2 20  1  0  0  0  0
  2  3  1  0  0  0  0
  2 24  1  0  0  0  0
  3  4  1  0  0  0  0
  3 25  1  0  0  0  0
  3 26  1  0  0  0  0
  4  5  1  0  0  0  0
  4  6  1  0  0  0  0
  4 27  1  0  0  0  0
  5 28  1  0  0  0  0
  5 29  1  0  0  0  0
  5 30  1  0  0  0  0
  6  7  1  0  0  0  0
  6 31  1  0  0  0  0
  6 32  1  0  0  0  0
  7  8  1  0  0  0  0
  7 20  1  0  0  0  0
  8  9  2  0  0  0  0
  8 10  1  0  0  0  0
 10 11  1  0  0  0  0
 10 12  1  0  0  0  0
 10 33  1  0  0  0  0
 11 34  1  0  0  0  0
 11 35  1  0  0  0  0
 11 36  1  0  0  0  0
 12 13  1  0  0  0  0
 12 37  1  0  0  0  0
 13 14  1  0  0  0  0
 13 38  1  0  0  0  0
 13 39  1  0  0  0  0
 14 15  1  0  0  0  0
 14 40  1  0  0  0  0
 14 41  1  0  0  0  0
 15 19  1  0  0  0  0
 15 16  1  0  0  0  0
 16 17  2  0  0  0  0
 16 42  1  0  0  0  0
 17 18  1  0  0  0  0
 17 43  1  0  0  0  0
 18 19  2  0  0  0  0
 18 44  1  0  0  0  0
 20 45  1  0  0  0  0
 20 46  1  0  0  0  0
M  END
> <s_m_source_file>
AV-unprocessed.smi

> <i_m_source_file_index>
3331

> <i_lp_mmshare_version>
43012

> <i_f3d_flags>
0

> <s_epik_input>
W0NIM11bQ0BASF0xW0NIMl1bQ0BASF0oW0NIM10pW0NIMl1OKFtDSDJdMSlDKD1PKVtDQEhdKFtDSDNdKVtOSF1bQ0gyXVtDSDJdbjJbY0hdW2NIXVtjSF1uMg==

> <s_epik_cmdline>
J2VwaWtfcHl0aG9uJywgJy1waCcsICc3LjAnLCAnLXRuJywgJzgnLCAnLW1hJywgJzIwMCcsICctbWV0YWxfYmluZGluZycsICctaW1hZScsICc8aW5maWxlLm1hZT4nLCAnLW9tYWUnLCAnPG91dGZpbGUubWFlPic=

> <r_lp_tautomer_probability>
1

> <r_epik_Ionization_Penalty>
0.767994

> <r_epik_Ionization_Penalty_Charging>
0

> <r_epik_Ionization_Penalty_Neutral>
0.767994

> <r_epik_State_Penalty>
0.795453

> <r_epik_Charging_Adjusted_Penalty>
0.795453

> <i_epik_Tot_Q>
0

> <i_epik_Tot_abs_Q>
0

> <r_epik_Metal_State_Penalty>
0.794784

> <b_epik_Metal_Only>
0

> <s_lp_Force_Field>
OPLS_2005

> <r_lp_Energy>
29.1229

> <b_lp_Chiralities_Consistent>
1

> <s_lp_Variant>
AV-unprocessed.smi:3331-7

> <Gold.Version>
5.8.1

> <Gold.Id.Protein>
6NUR|6NUR_protein|mol2

> <Gold.PLP.Fitness>
42.7795

> <Gold.PLP.PLP>
-32.2677

> <Gold.PLP.part.hbond>
-2.0000

> <Gold.PLP.part.metal>
0.0000

> <Gold.PLP.part.buried>
-1.2410

> <Gold.PLP.part.nonpolar>
-29.3622

> <Gold.PLP.part.repulsive>
0.2692

> <Gold.PLP.ligand.clash>
0.0000

> <Gold.PLP.ligand.torsion>
0.4981

> <Gold.PLP.Chemscore.Hbond>
1.8160

> <Gold.PLP.Chemscore.CHOScore>
1.9993

> <Gold.PLP.Chemscore.Metal>
0.0000

> <Gold.Chemscore.Hbonds>
donor molecule, donor type, donor heavy atom, donor atom, acceptor molecule, acceptor atom, score
      L1  H    12    37       P1  7948  0.65
      P1  H 10752 10763       L1     9  1.00
      L1  C    16    42       P1 10957  1.00
      L1  C    18    44       P1  7921  0.72

> <Gold.PLP.Chemscore.Internal.Correction>
0.0622

> <Gold.Rescore>
     Score         DG    S(hbond)    S(metal)    S(lipo)     H(rot)  DE(clash)    DE(int)     intcor
     13.99     -14.44       1.28        0.00      76.55       1.66       0.04       0.41       ----

> <Gold.Chemscore.Fitness>
13.9894

> <Gold.Chemscore.DG>
-14.4370

> <Gold.Chemscore.ZeroCoef>
-5.4800

> <Gold.Chemscore.Hbond>
1.2761

> <Gold.Chemscore.Metal>
0.0000

> <Gold.Chemscore.Lipo>
76.5543

> <Gold.Chemscore.Internal_Hbond>
0.0000

> <Gold.Chemscore.DEClash>
0.0372

> <Gold.Chemscore.DEInternal>
0.4104

> <Gold.Chemscore.Rot>
1.6649

> <Gold.Chemscore.Internal.Correction>
   9.000000E+99

> <Gold.Chemscore.Hbonds>
donor molecule, donor type, donor heavy atom, donor atom, acceptor molecule, acceptor atom, score
      L1  H    12    37       P1  7948  0.07
      P1  H 10752 10763       L1     9  0.99

> <Gold.Chemscore.Hbond.Weighted>
-4.2622

> <Gold.Chemscore.Metal.Weighted>
-0.0000

> <Gold.Chemscore.Lipo.Weighted>
-8.9568

> <Gold.Chemscore.Internal_Hbond.Weighted>
0.0000

> <Gold.Chemscore.DEClash.Weighted>
0.0372

> <Gold.Chemscore.DEInternal.Weighted>
0.4104

> <Gold.Chemscore.Rot.Weighted>
4.2621

> <Gold.Chemscore.Internal.Correction.Weighted>
   9.000000E+99

> <Gold.Protein.RotatedTorsions>
[ 6907 6896 6895 6894 ] final    9.82 input  -60.11 | X-H torsion
[ 7974 7965 7964 7962 ] final  117.10 input  175.53 | X-H torsion
[ 8008 7997 7996 7995 ] final   44.95 input   59.86 | X-H torsion
[ 10167 10162 10161 10158 ] final -112.28 input  -65.29 | X-H torsion
[ 10718 10713 10712 10709 ] final  -86.65 input   66.30 | X-H torsion
[ 10763 10752 10751 10750 ] final   69.05 input  -60.55 | X-H torsion
[ 11005 11000 10999 10996 ] final  145.63 input  -57.11 | X-H torsion

> <Gold.Protein.ActiveResidues>
 VAL166  LYS551  ARG553  GLY616  TRP617  ASP618  TYR619  PRO620  LYS621  CYS622 
 ASP623  PHE694  ASN695  SER759  ASP760  ASP761  ALA762  ILE779  LEU786  VAL792 
 PHE793  MET794  SER795  GLU796  ALA797  LYS798  CYS799  TRP800  GLU811  SER814 

> <Gold.Protein.RotatedAtoms>
  151.7284  135.0880  160.0295 H   0  0  0  0  0  0  0  0  0  0  0  0  # atno 6907 bound_to 6896
  152.3557  133.6230  159.5986 H   0  0  0  0  0  0  0  0  0  0  0  0  # atno 6908 bound_to 6896
  150.7570  133.9420  159.3500 H   0  0  0  0  0  0  0  0  0  0  0  0  # atno 6909 bound_to 6896
  145.1715  139.3099  143.4465 H   0  0  0  0  0  0  0  0  0  0  0  0  # atno 7974 bound_to 7965
  155.3278  140.3401  155.4240 H   0  0  0  0  0  0  0  0  0  0  0  0  # atno 8008 bound_to 7997
  156.1877  140.1686  156.8191 H   0  0  0  0  0  0  0  0  0  0  0  0  # atno 8009 bound_to 7997
  154.5405  140.0726  156.8485 H   0  0  0  0  0  0  0  0  0  0  0  0  # atno 8010 bound_to 7997
  140.1245  143.4414  152.1669 H   0  0  0  0  0  0  0  0  0  0  0  0  # atno 10167 bound_to 10162
  155.9989  130.4772  150.4748 H   0  0  0  0  0  0  0  0  0  0  0  0  # atno 10718 bound_to 10713
  153.0266  135.5225  154.7228 H   0  0  0  0  0  0  0  0  0  0  0  0  # atno 10763 bound_to 10752
  154.6278  135.2896  155.0254 H   0  0  0  0  0  0  0  0  0  0  0  0  # atno 10764 bound_to 10752
  154.1216  135.6606  153.4957 H   0  0  0  0  0  0  0  0  0  0  0  0  # atno 10765 bound_to 10752
  140.0728  134.9142  157.1372 H   0  0  0  0  0  0  0  0  0  0  0  0  # atno 11005 bound_to 11000
  146.3468  140.1862  142.8589 LP  0  0  0  0  0  0  0  0  0  0  0  0  # atno 17320 bound_to 7965
  145.0228  140.8807  143.5156 LP  0  0  0  0  0  0  0  0  0  0  0  0  # atno 17321 bound_to 7965
  139.5551  144.7367  151.4317 LP  0  0  0  0  0  0  0  0  0  0  0  0  # atno 17342 bound_to 10162
  140.6853  143.7988  150.7177 LP  0  0  0  0  0  0  0  0  0  0  0  0  # atno 17343 bound_to 10162
  157.2759  131.0597  151.2229 LP  0  0  0  0  0  0  0  0  0  0  0  0  # atno 17370 bound_to 10713
  157.3293  130.6977  149.6315 LP  0  0  0  0  0  0  0  0  0  0  0  0  # atno 17371 bound_to 10713
  140.3602  134.2502  155.7188 LP  0  0  0  0  0  0  0  0  0  0  0  0  # atno 17394 bound_to 11000
  141.2018  133.7953  157.0422 LP  0  0  0  0  0  0  0  0  0  0  0  0  # atno 17395 bound_to 11000

$$$$
