AV-unprocessed.smi:2557|AV-procd|sdf|10029|dock2
  -GOLD-   2272014 73D 1   1.00000     0.00000
 Structure written by MMmdl.
 39 41  0  0  0  0  0  0  0  0  3 V2000
  151.0372  139.2200  153.8411 O   0  5  0  0  0  0  0  0  0  0  0  0
  150.4106  140.1828  154.3427 C   0  0  0  0  0  0  0  0  0  0  0  0
  150.5771  140.9071  155.5259 C   0  0  0  0  0  0  0  0  0  0  0  0
  151.6890  140.6048  156.4651 C   0  0  0  0  0  0  0  0  0  0  0  0
  152.4913  139.6938  156.2637 O   0  0  0  0  0  0  0  0  0  0  0  0
  151.8193  141.3925  157.6190 N   0  0  0  0  0  0  0  0  0  0  0  0
  150.9753  142.3525  157.8484 C   0  0  0  0  0  0  0  0  0  0  0  0
  151.0776  143.2316  159.0981 C   0  0  0  0  0  0  0  0  0  0  0  0
  151.4050  144.7132  158.7908 C   0  0  0  0  0  0  0  0  0  0  0  0
  151.4535  145.5590  160.0735 C   0  0  0  0  0  0  0  0  0  0  0  0
  152.4619  144.9839  161.0788 C   0  0  0  0  0  0  0  0  0  0  0  0
  152.1470  143.5148  161.3980 C   0  0  0  0  0  0  0  0  0  0  0  0
  152.0891  142.6622  160.1192 C   0  0  0  0  0  0  0  0  0  0  0  0
  149.9065  142.6810  157.0344 N   0  0  0  0  0  0  0  0  0  0  0  0
  149.7179  141.9514  155.8664 N   0  0  0  0  0  0  0  0  0  0  0  0
  149.2678  140.5052  153.4691 C   0  0  0  0  0  0  0  0  0  0  0  0
  149.1146  141.8039  152.9314 C   0  0  0  0  0  0  0  0  0  0  0  0
  148.0034  142.0890  152.1125 C   0  0  0  0  0  0  0  0  0  0  0  0
  147.0956  141.1233  151.8515 N   0  3  0  0  0  0  0  0  0  0  0  0
  147.1977  139.8708  152.3469 C   0  0  0  0  0  0  0  0  0  0  0  0
  148.2879  139.5298  153.1723 C   0  0  0  0  0  0  0  0  0  0  0  0
  150.0937  143.2185  159.5702 H   0  0  0  0  0  0  0  0  0  0  0  0
  152.3666  144.7883  158.2805 H   0  0  0  0  0  0  0  0  0  0  0  0
  150.6598  145.1315  158.1126 H   0  0  0  0  0  0  0  0  0  0  0  0
  151.7180  146.5882  159.8296 H   0  0  0  0  0  0  0  0  0  0  0  0
  150.4622  145.5937  160.5268 H   0  0  0  0  0  0  0  0  0  0  0  0
  153.4703  145.0617  160.6706 H   0  0  0  0  0  0  0  0  0  0  0  0
  152.4521  145.5744  161.9952 H   0  0  0  0  0  0  0  0  0  0  0  0
  152.8995  143.1138  162.0775 H   0  0  0  0  0  0  0  0  0  0  0  0
  151.1926  143.4519  161.9222 H   0  0  0  0  0  0  0  0  0  0  0  0
  151.8287  141.6378  160.3884 H   0  0  0  0  0  0  0  0  0  0  0  0
  153.0820  142.6186  159.6687 H   0  0  0  0  0  0  0  0  0  0  0  0
  149.2546  143.4279  157.2267 H   0  0  0  0  0  0  0  0  0  0  0  0
  148.9594  142.2174  155.2557 H   0  0  0  0  0  0  0  0  0  0  0  0
  149.8433  142.5710  153.1496 H   0  0  0  0  0  0  0  0  0  0  0  0
  147.8140  143.0535  151.6648 H   0  0  0  0  0  0  0  0  0  0  0  0
  146.4095  139.1849  152.0730 H   0  0  0  0  0  0  0  0  0  0  0  0
  148.3759  138.5315  153.5761 H   0  0  0  0  0  0  0  0  0  0  0  0
  146.2975  141.3503  151.2577 H   0  0  0  0  0  0  0  0  0  0  0  0
  1  2  1  0  0  0  0
  2  3  2  0  0  0  0
  2 16  1  0  0  0  0
  3 15  1  0  0  0  0
  3  4  1  0  0  0  0
  4  5  2  0  0  0  0
  4  6  1  0  0  0  0
  6  7  2  0  0  0  0
  7  8  1  0  0  0  0
  7 14  1  0  0  0  0
  8 13  1  0  0  0  0
  8  9  1  0  0  0  0
  8 22  1  0  0  0  0
  9 10  1  0  0  0  0
  9 23  1  0  0  0  0
  9 24  1  0  0  0  0
 10 11  1  0  0  0  0
 10 25  1  0  0  0  0
 10 26  1  0  0  0  0
 11 12  1  0  0  0  0
 11 27  1  0  0  0  0
 11 28  1  0  0  0  0
 12 13  1  0  0  0  0
 12 29  1  0  0  0  0
 12 30  1  0  0  0  0
 13 31  1  0  0  0  0
 13 32  1  0  0  0  0
 14 15  1  0  0  0  0
 14 33  1  0  0  0  0
 15 34  1  0  0  0  0
 16 21  1  0  0  0  0
 16 17  2  0  0  0  0
 17 18  1  0  0  0  0
 17 35  1  0  0  0  0
 18 19  2  0  0  0  0
 18 36  1  0  0  0  0
 19 20  1  0  0  0  0
 19 39  1  0  0  0  0
 20 21  2  0  0  0  0
 20 37  1  0  0  0  0
 21 38  1  0  0  0  0
M  CHG  1   1  -1
M  CHG  1  19   1
M  END
> <s_m_source_file>
AV-unprocessed.smi

> <i_m_source_file_index>
2557

> <i_lp_mmshare_version>
43012

> <i_f3d_flags>
0

> <s_epik_input>
W2NIXTFbY0hdbltjSF1bY0hdYzFDKD1PKUMyPUMoW09IXSlOPUMoW05IXVtOSF0yKVtDSF0zW0NIMl1bQ0gyXVtDSDJdW0NIMl1bQ0gyXTM=

> <s_epik_cmdline>
J2VwaWtfcHl0aG9uJywgJy1waCcsICc3LjAnLCAnLXRuJywgJzgnLCAnLW1hJywgJzIwMCcsICctbWV0YWxfYmluZGluZycsICctaW1hZScsICc8aW5maWxlLm1hZT4nLCAnLW9tYWUnLCAnPG91dGZpbGUubWFlPic=

> <r_epik_Ionization_Penalty>
0.514573

> <r_epik_Ionization_Penalty_Charging>
0.470311

> <r_epik_Ionization_Penalty_Neutral>
0.0442626

> <r_epik_State_Penalty>
1.93511

> <r_epik_Charging_Adjusted_Penalty>
2.40542

> <i_epik_Tot_Q>
0

> <i_epik_Tot_abs_Q>
2

> <r_epik_Metal_State_Penalty>
5.62711

> <b_epik_Metal_Only>
0

> <s_epik_Chemistry_Notes>
This compound has an imine and may undergo hydrolysis.

> <s_lp_Force_Field>
OPLS_2005

> <r_lp_Energy>
35.5882

> <b_lp_Chiralities_Consistent>
1

> <s_lp_Variant>
AV-unprocessed.smi:2557-3

> <Gold.Version>
5.8.1

> <Gold.Id.Protein>
6NUR|6NUR_protein|mol2

> <Gold.PLP.Fitness>
45.6235

> <Gold.PLP.PLP>
-36.9603

> <Gold.PLP.part.hbond>
-2.9840

> <Gold.PLP.part.metal>
0.0000

> <Gold.PLP.part.buried>
-1.6109

> <Gold.PLP.part.nonpolar>
-29.3851

> <Gold.PLP.part.repulsive>
0.2852

> <Gold.PLP.ligand.clash>
0.0006

> <Gold.PLP.ligand.torsion>
1.2473

> <Gold.PLP.Chemscore.Hbond>
3.0000

> <Gold.PLP.Chemscore.CHOScore>
0.0000

> <Gold.PLP.Chemscore.Metal>
0.0000

> <Gold.Chemscore.Hbonds>
donor molecule, donor type, donor heavy atom, donor atom, acceptor molecule, acceptor atom, score
      L1  H    14    33       P1  8028  0.32
      P1  H  7997  8008       L1     5  1.00

> <Gold.PLP.Chemscore.Internal.Correction>
2.1584

> <Gold.Rescore>
     Score         DG    S(hbond)    S(metal)    S(lipo)     H(rot)  DE(clash)    DE(int)     intcor
     17.38     -22.66       1.99        0.00     111.80       1.00       2.69       2.59       ----

> <Gold.Chemscore.Fitness>
17.3835

> <Gold.Chemscore.DG>
-22.6632

> <Gold.Chemscore.ZeroCoef>
-5.4800

> <Gold.Chemscore.Hbond>
1.9946

> <Gold.Chemscore.Metal>
0.0000

> <Gold.Chemscore.Lipo>
111.8046

> <Gold.Chemscore.Internal_Hbond>
0.0000

> <Gold.Chemscore.DEClash>
2.6880

> <Gold.Chemscore.DEInternal>
2.5917

> <Gold.Chemscore.Rot>
1.0000

> <Gold.Chemscore.Internal.Correction>
   9.000000E+99

> <Gold.Chemscore.Hbonds>
donor molecule, donor type, donor heavy atom, donor atom, acceptor molecule, acceptor atom, score
      L1  H    14    33       P1  8028  0.23
      P1  H  7997  8008       L1     5  0.93

> <Gold.Chemscore.Hbond.Weighted>
-6.6621

> <Gold.Chemscore.Metal.Weighted>
-0.0000

> <Gold.Chemscore.Lipo.Weighted>
-13.0811

> <Gold.Chemscore.Internal_Hbond.Weighted>
0.0000

> <Gold.Chemscore.DEClash.Weighted>
2.6880

> <Gold.Chemscore.DEInternal.Weighted>
2.5917

> <Gold.Chemscore.Rot.Weighted>
2.5600

> <Gold.Chemscore.Internal.Correction.Weighted>
   9.000000E+99

> <Gold.Protein.RotatedTorsions>
[ 6907 6896 6895 6894 ] final -144.71 input  -60.11 | X-H torsion
[ 7974 7965 7964 7962 ] final   75.70 input  175.53 | X-H torsion
[ 8008 7997 7996 7995 ] final  -26.97 input   59.86 | X-H torsion
[ 10167 10162 10161 10158 ] final  -16.47 input  -65.29 | X-H torsion
[ 10718 10713 10712 10709 ] final   23.34 input   66.30 | X-H torsion
[ 10763 10752 10751 10750 ] final  169.97 input  -60.55 | X-H torsion
[ 11005 11000 10999 10996 ] final   60.84 input  -57.11 | X-H torsion

> <Gold.Protein.ActiveResidues>
 VAL166  LYS551  ARG553  GLY616  TRP617  ASP618  TYR619  PRO620  LYS621  CYS622 
 ASP623  PHE694  ASN695  SER759  ASP760  ASP761  ALA762  ILE779  LEU786  VAL792 
 PHE793  MET794  SER795  GLU796  ALA797  LYS798  CYS799  TRP800  GLU811  SER814 

> <Gold.Protein.RotatedAtoms>
  151.1178  133.5126  159.2602 H   0  0  0  0  0  0  0  0  0  0  0  0  # atno 6907 bound_to 6896
  151.1895  135.0396  159.8836 H   0  0  0  0  0  0  0  0  0  0  0  0  # atno 6908 bound_to 6896
  152.5454  134.1020  159.8375 H   0  0  0  0  0  0  0  0  0  0  0  0  # atno 6909 bound_to 6896
  145.7123  139.2619  143.1643 H   0  0  0  0  0  0  0  0  0  0  0  0  # atno 7974 bound_to 7965
  154.4399  140.1885  156.0859 H   0  0  0  0  0  0  0  0  0  0  0  0  # atno 8008 bound_to 7997
  156.0403  140.3320  155.7210 H   0  0  0  0  0  0  0  0  0  0  0  0  # atno 8009 bound_to 7997
  155.5709  140.0612  157.2797 H   0  0  0  0  0  0  0  0  0  0  0  0  # atno 8010 bound_to 7997
  140.7234  143.5113  150.9746 H   0  0  0  0  0  0  0  0  0  0  0  0  # atno 10167 bound_to 10162
  157.1647  130.6733  149.6056 H   0  0  0  0  0  0  0  0  0  0  0  0  # atno 10718 bound_to 10713
  154.3908  135.2754  155.2156 H   0  0  0  0  0  0  0  0  0  0  0  0  # atno 10763 bound_to 10752
  154.4222  135.5997  153.6021 H   0  0  0  0  0  0  0  0  0  0  0  0  # atno 10764 bound_to 10752
  152.9832  135.5975  154.4163 H   0  0  0  0  0  0  0  0  0  0  0  0  # atno 10765 bound_to 10752
  140.0203  134.6163  155.9649 H   0  0  0  0  0  0  0  0  0  0  0  0  # atno 11005 bound_to 11000
  146.0701  140.7878  142.9692 LP  0  0  0  0  0  0  0  0  0  0  0  0  # atno 17320 bound_to 7965
  144.6938  140.3329  143.7213 LP  0  0  0  0  0  0  0  0  0  0  0  0  # atno 17321 bound_to 7965
  139.8827  143.7052  152.3155 LP  0  0  0  0  0  0  0  0  0  0  0  0  # atno 17342 bound_to 10162
  139.7340  144.7576  151.0757 LP  0  0  0  0  0  0  0  0  0  0  0  0  # atno 17343 bound_to 10162
  155.9748  130.4699  150.6412 LP  0  0  0  0  0  0  0  0  0  0  0  0  # atno 17370 bound_to 10713
  157.4099  131.0822  151.1230 LP  0  0  0  0  0  0  0  0  0  0  0  0  # atno 17371 bound_to 10713
  141.1769  133.6541  156.4865 LP  0  0  0  0  0  0  0  0  0  0  0  0  # atno 17394 bound_to 11000
  140.4399  134.7025  157.4986 LP  0  0  0  0  0  0  0  0  0  0  0  0  # atno 17395 bound_to 11000

$$$$
