AV-unprocessed.smi:2089|AV-procd|sdf|8531|dock2
  -GOLD-   2272011253D 1   1.00000     0.00000
 Structure written by MMmdl.
 40 41  0  0  0  0  0  0  0  0  2 V2000
  147.8155  137.6052  156.9945 C   0  0  0  0  0  0  0  0  0  0  0  0
  148.9298  138.8648  157.7393 S   0  0  0  0  0  0  0  0  0  0  0  0
  148.1348  139.7934  158.5571 O   0  0  0  0  0  0  0  0  0  0  0  0
  150.0783  138.1640  158.3342 O   0  0  0  0  0  0  0  0  0  0  0  0
  149.5000  139.7363  156.3547 N   0  0  0  0  0  0  0  0  0  0  0  0
  149.1069  139.2617  155.0205 C   0  0  0  0  0  0  0  0  0  0  0  0
  148.4728  140.4631  154.3262 C   0  0  0  0  0  0  0  0  0  0  0  0
  149.2175  141.6422  154.9326 C   0  0  0  0  0  0  0  0  0  0  0  0
  149.4494  141.2083  156.3890 C   0  0  2  0  0  0  0  0  0  0  0  0
  150.6951  141.8498  157.0121 C   0  0  0  0  0  0  0  0  0  0  0  0
  151.5358  141.1540  157.5824 O   0  0  0  0  0  0  0  0  0  0  0  0
  150.7899  143.1841  156.9216 N   0  0  0  0  0  0  0  0  0  0  0  0
  151.8699  143.9694  157.5011 C   0  0  0  0  0  0  0  0  0  0  0  0
  151.5325  144.3795  158.9407 C   0  0  0  0  0  0  0  0  0  0  0  0
  152.2813  143.5457  159.9625 C   0  0  0  0  0  0  0  0  0  0  0  0
  153.0956  142.4534  159.5916 C   0  0  0  0  0  0  0  0  0  0  0  0
  153.7564  141.7149  160.5954 C   0  0  0  0  0  0  0  0  0  0  0  0
  153.5878  142.0817  161.9467 C   0  0  0  0  0  0  0  0  0  0  0  0
  152.7615  143.1798  162.2608 C   0  0  0  0  0  0  0  0  0  0  0  0
  152.1458  143.8629  161.2707 N   0  3  0  0  0  0  0  0  0  0  0  0
  147.4080  136.9716  157.7818 H   0  0  0  0  0  0  0  0  0  0  0  0
  148.3794  136.9914  156.2925 H   0  0  0  0  0  0  0  0  0  0  0  0
  146.9977  138.0981  156.4700 H   0  0  0  0  0  0  0  0  0  0  0  0
  150.0016  138.9361  154.4889 H   0  0  0  0  0  0  0  0  0  0  0  0
  148.4197  138.4171  155.0760 H   0  0  0  0  0  0  0  0  0  0  0  0
  148.5584  140.4194  153.2403 H   0  0  0  0  0  0  0  0  0  0  0  0
  147.4134  140.5223  154.5802 H   0  0  0  0  0  0  0  0  0  0  0  0
  150.1586  141.7914  154.4006 H   0  0  0  0  0  0  0  0  0  0  0  0
  148.6447  142.5673  154.8615 H   0  0  0  0  0  0  0  0  0  0  0  0
  148.5679  141.4948  156.9662 H   0  0  0  0  0  0  0  0  0  0  0  0
  150.0528  143.6852  156.4468 H   0  0  0  0  0  0  0  0  0  0  0  0
  152.7877  143.3797  157.4832 H   0  0  0  0  0  0  0  0  0  0  0  0
  152.0434  144.8569  156.8901 H   0  0  0  0  0  0  0  0  0  0  0  0
  151.7706  145.4330  159.0949 H   0  0  0  0  0  0  0  0  0  0  0  0
  150.4609  144.2761  159.1190 H   0  0  0  0  0  0  0  0  0  0  0  0
  153.2124  142.1816  158.5524 H   0  0  0  0  0  0  0  0  0  0  0  0
  154.3843  140.8763  160.3322 H   0  0  0  0  0  0  0  0  0  0  0  0
  154.0843  141.5282  162.7304 H   0  0  0  0  0  0  0  0  0  0  0  0
  152.5754  143.5293  163.2661 H   0  0  0  0  0  0  0  0  0  0  0  0
  151.5512  144.6536  161.5209 H   0  0  0  0  0  0  0  0  0  0  0  0
  1  2  1  0  0  0  0
  1 21  1  0  0  0  0
  1 22  1  0  0  0  0
  1 23  1  0  0  0  0
  2  3  2  0  0  0  0
  2  4  2  0  0  0  0
  2  5  1  0  0  0  0
  5  9  1  0  0  0  0
  5  6  1  0  0  0  0
  6  7  1  0  0  0  0
  6 24  1  0  0  0  0
  6 25  1  0  0  0  0
  7  8  1  0  0  0  0
  7 26  1  0  0  0  0
  7 27  1  0  0  0  0
  8  9  1  0  0  0  0
  8 28  1  0  0  0  0
  8 29  1  0  0  0  0
  9 10  1  0  0  0  0
  9 30  1  0  0  0  0
 10 11  2  0  0  0  0
 10 12  1  0  0  0  0
 12 13  1  0  0  0  0
 12 31  1  0  0  0  0
 13 14  1  0  0  0  0
 13 32  1  0  0  0  0
 13 33  1  0  0  0  0
 14 15  1  0  0  0  0
 14 34  1  0  0  0  0
 14 35  1  0  0  0  0
 15 20  1  0  0  0  0
 15 16  2  0  0  0  0
 16 17  1  0  0  0  0
 16 36  1  0  0  0  0
 17 18  2  0  0  0  0
 17 37  1  0  0  0  0
 18 19  1  0  0  0  0
 18 38  1  0  0  0  0
 19 20  2  0  0  0  0
 19 39  1  0  0  0  0
 20 40  1  0  0  0  0
M  CHG  1  20   1
M  END
> <s_m_source_file>
AV-unprocessed.smi

> <i_m_source_file_index>
2089

> <i_lp_mmshare_version>
43012

> <i_f3d_flags>
0

> <s_epik_input>
W0NIM11TKD1PKSg9TylOMVtDSDJdW0NIMl1bQ0gyXVtDQEhdMUMoPU8pW05IXVtDSDJdW0NIMl1jMltjSF1bY0hdW2NIXVtjSF1uMg==

> <s_epik_cmdline>
J2VwaWtfcHl0aG9uJywgJy1waCcsICc3LjAnLCAnLXRuJywgJzgnLCAnLW1hJywgJzIwMCcsICctbWV0YWxfYmluZGluZycsICctaW1hZScsICc8aW5maWxlLm1hZT4nLCAnLW9tYWUnLCAnPG91dGZpbGUubWFlPic=

> <r_epik_Ionization_Penalty>
1.90116

> <r_epik_Ionization_Penalty_Charging>
1.90116

> <r_epik_Ionization_Penalty_Neutral>
1.4017e-07

> <r_epik_State_Penalty>
2.02245

> <r_epik_Charging_Adjusted_Penalty>
3.9236

> <i_epik_Tot_Q>
1

> <i_epik_Tot_abs_Q>
1

> <r_epik_Metal_State_Penalty>
2.04621

> <b_epik_Metal_Only>
0

> <s_lp_Force_Field>
OPLS_2005

> <r_lp_Energy>
13.4041

> <b_lp_Chiralities_Consistent>
1

> <s_lp_Variant>
AV-unprocessed.smi:2089-4

> <Gold.Version>
5.8.1

> <Gold.Id.Protein>
6NUR|6NUR_protein|mol2

> <Gold.PLP.Fitness>
45.0425

> <Gold.PLP.PLP>
-43.3722

> <Gold.PLP.part.hbond>
-2.0000

> <Gold.PLP.part.metal>
0.0000

> <Gold.PLP.part.buried>
-3.0921

> <Gold.PLP.part.nonpolar>
-37.0320

> <Gold.PLP.part.repulsive>
0.1030

> <Gold.PLP.ligand.clash>
0.0000

> <Gold.PLP.ligand.torsion>
0.9096

> <Gold.PLP.Chemscore.Hbond>
1.0000

> <Gold.PLP.Chemscore.CHOScore>
0.0000

> <Gold.PLP.Chemscore.Metal>
0.0000

> <Gold.Chemscore.Hbonds>
donor molecule, donor type, donor heavy atom, donor atom, acceptor molecule, acceptor atom, score
      L1  H    12    31       P1  8028  1.00

> <Gold.PLP.Chemscore.Internal.Correction>
0.4894

> <Gold.Rescore>
     Score         DG    S(hbond)    S(metal)    S(lipo)     H(rot)  DE(clash)    DE(int)     intcor
     15.78     -16.66       1.00        0.00     110.83       2.00       0.05       0.82       ----

> <Gold.Chemscore.Fitness>
15.7807

> <Gold.Chemscore.DG>
-16.6557

> <Gold.Chemscore.ZeroCoef>
-5.4800

> <Gold.Chemscore.Hbond>
0.9999

> <Gold.Chemscore.Metal>
0.0000

> <Gold.Chemscore.Lipo>
110.8270

> <Gold.Chemscore.Internal_Hbond>
0.0000

> <Gold.Chemscore.DEClash>
0.0526

> <Gold.Chemscore.DEInternal>
0.8224

> <Gold.Chemscore.Rot>
2.0043

> <Gold.Chemscore.Internal.Correction>
   9.000000E+99

> <Gold.Chemscore.Hbonds>
donor molecule, donor type, donor heavy atom, donor atom, acceptor molecule, acceptor atom, score
      L1  H    12    31       P1  8028  1.00

> <Gold.Chemscore.Hbond.Weighted>
-3.3398

> <Gold.Chemscore.Metal.Weighted>
-0.0000

> <Gold.Chemscore.Lipo.Weighted>
-12.9668

> <Gold.Chemscore.Internal_Hbond.Weighted>
0.0000

> <Gold.Chemscore.DEClash.Weighted>
0.0526

> <Gold.Chemscore.DEInternal.Weighted>
0.8224

> <Gold.Chemscore.Rot.Weighted>
5.1309

> <Gold.Chemscore.Internal.Correction.Weighted>
   9.000000E+99

> <Gold.Protein.RotatedTorsions>
[ 6907 6896 6895 6894 ] final -130.90 input  -60.11 | X-H torsion
[ 7974 7965 7964 7962 ] final   42.81 input  175.53 | X-H torsion
[ 8008 7997 7996 7995 ] final  160.21 input   59.86 | X-H torsion
[ 10167 10162 10161 10158 ] final  -18.84 input  -65.29 | X-H torsion
[ 10718 10713 10712 10709 ] final  141.30 input   66.30 | X-H torsion
[ 10763 10752 10751 10750 ] final -139.03 input  -60.55 | X-H torsion
[ 11005 11000 10999 10996 ] final -127.82 input  -57.11 | X-H torsion

> <Gold.Protein.ActiveResidues>
 VAL166  LYS551  ARG553  GLY616  TRP617  ASP618  TYR619  PRO620  LYS621  CYS622 
 ASP623  PHE694  ASN695  SER759  ASP760  ASP761  ALA762  ILE779  LEU786  VAL792 
 PHE793  MET794  SER795  GLU796  ALA797  LYS798  CYS799  TRP800  GLU811  SER814 

> <Gold.Protein.RotatedAtoms>
  150.9449  133.6614  159.2783 H   0  0  0  0  0  0  0  0  0  0  0  0  # atno 6907 bound_to 6896
  151.3991  135.0967  159.9560 H   0  0  0  0  0  0  0  0  0  0  0  0  # atno 6908 bound_to 6896
  152.5085  133.8947  159.7466 H   0  0  0  0  0  0  0  0  0  0  0  0  # atno 6909 bound_to 6896
  146.0709  139.5258  142.9598 H   0  0  0  0  0  0  0  0  0  0  0  0  # atno 7974 bound_to 7965
  156.2188  140.1810  156.7527 H   0  0  0  0  0  0  0  0  0  0  0  0  # atno 8008 bound_to 7997
  154.5832  140.0663  156.9163 H   0  0  0  0  0  0  0  0  0  0  0  0  # atno 8009 bound_to 7997
  155.2465  140.3326  155.4289 H   0  0  0  0  0  0  0  0  0  0  0  0  # atno 8010 bound_to 7997
  140.7263  143.4876  151.0034 H   0  0  0  0  0  0  0  0  0  0  0  0  # atno 10167 bound_to 10162
  157.3935  131.1008  151.0622 H   0  0  0  0  0  0  0  0  0  0  0  0  # atno 10718 bound_to 10713
  154.8621  135.3594  154.5480 H   0  0  0  0  0  0  0  0  0  0  0  0  # atno 10763 bound_to 10752
  153.6099  135.7010  153.5355 H   0  0  0  0  0  0  0  0  0  0  0  0  # atno 10764 bound_to 10752
  153.3218  135.4149  155.1384 H   0  0  0  0  0  0  0  0  0  0  0  0  # atno 10765 bound_to 10752
  140.9567  134.0991  157.4009 H   0  0  0  0  0  0  0  0  0  0  0  0  # atno 11005 bound_to 11000
  145.6393  141.0288  143.1820 LP  0  0  0  0  0  0  0  0  0  0  0  0  # atno 17320 bound_to 7965
  144.7231  139.7964  143.7375 LP  0  0  0  0  0  0  0  0  0  0  0  0  # atno 17321 bound_to 7965
  139.8579  143.7353  152.3175 LP  0  0  0  0  0  0  0  0  0  0  0  0  # atno 17342 bound_to 10162
  139.7558  144.7521  151.0438 LP  0  0  0  0  0  0  0  0  0  0  0  0  # atno 17343 bound_to 10162
  157.1647  130.6241  149.5622 LP  0  0  0  0  0  0  0  0  0  0  0  0  # atno 17370 bound_to 10713
  155.9804  130.4805  150.6773 LP  0  0  0  0  0  0  0  0  0  0  0  0  # atno 17371 bound_to 10713
  139.8865  135.0081  156.6500 LP  0  0  0  0  0  0  0  0  0  0  0  0  # atno 17394 bound_to 11000
  140.7525  133.8885  155.8357 LP  0  0  0  0  0  0  0  0  0  0  0  0  # atno 17395 bound_to 11000

$$$$
