AV-unprocessed.smi:2091|AV-procd|sdf|8539|dock1
  -GOLD-   2272011263D 1   1.00000     0.00000
 Structure written by MMmdl.
 36 37  0  0  0  0  0  0  0  0  1 V2000
  147.8354  131.9106  154.1722 O   0  0  0  0  0  0  0  0  0  0  0  0
  148.3906  132.9823  153.9265 C   0  0  0  0  0  0  0  0  0  0  0  0
  149.7803  133.2936  154.4991 C   0  0  0  0  0  0  0  0  0  0  0  0
  150.3511  132.1665  155.2505 N   0  0  0  0  0  0  0  0  0  0  0  0
  150.7490  131.0128  154.5901 C   0  0  0  0  0  0  0  0  0  0  0  0
  151.2928  129.9441  155.2190 C   0  0  0  0  0  0  0  0  0  0  0  0
  151.4907  129.9593  156.6644 C   0  0  0  0  0  0  0  0  0  0  0  0
  151.9728  129.0411  157.3238 O   0  0  0  0  0  0  0  0  0  0  0  0
  151.0803  131.1381  157.2923 N   0  0  0  0  0  0  0  0  0  0  0  0
  150.5208  132.2437  156.6502 C   0  0  0  0  0  0  0  0  0  0  0  0
  150.1960  133.2371  157.2995 O   0  0  0  0  0  0  0  0  0  0  0  0
  147.8317  133.9435  153.1736 N   0  0  0  0  0  0  0  0  0  0  0  0
  146.5311  133.8515  152.5066 C   0  0  1  0  0  0  0  0  0  0  0  0
  146.6195  132.7138  151.4637 C   0  0  0  0  0  0  0  0  0  0  0  0
  145.5775  132.8226  150.3366 C   0  0  0  0  0  0  0  0  0  0  0  0
  144.1155  132.6749  150.7857 C   0  0  0  0  0  0  0  0  0  0  0  0
  143.6550  133.7698  151.7631 C   0  0  0  0  0  0  0  0  0  0  0  0
  144.1376  133.5328  153.1172 N   0  0  0  0  0  0  0  0  0  0  0  0
  145.4154  133.5212  153.5264 C   0  0  0  0  0  0  0  0  0  0  0  0
  145.6912  133.2462  154.6940 O   0  0  0  0  0  0  0  0  0  0  0  0
  151.2009  131.1965  158.2929 H   0  0  0  0  0  0  0  0  0  0  0  0
  150.4585  133.5883  153.6955 H   0  0  0  0  0  0  0  0  0  0  0  0
  149.6929  134.1726  155.1390 H   0  0  0  0  0  0  0  0  0  0  0  0
  150.6256  130.9587  153.5178 H   0  0  0  0  0  0  0  0  0  0  0  0
  151.5842  129.0736  154.6494 H   0  0  0  0  0  0  0  0  0  0  0  0
  148.3596  134.7904  153.0220 H   0  0  0  0  0  0  0  0  0  0  0  0
  146.3177  134.8002  152.0107 H   0  0  0  0  0  0  0  0  0  0  0  0
  147.6027  132.7411  150.9911 H   0  0  0  0  0  0  0  0  0  0  0  0
  146.5556  131.7359  151.9446 H   0  0  0  0  0  0  0  0  0  0  0  0
  145.7026  133.7748  149.8197 H   0  0  0  0  0  0  0  0  0  0  0  0
  145.7894  132.0532  149.5935 H   0  0  0  0  0  0  0  0  0  0  0  0
  143.4837  132.7172  149.8981 H   0  0  0  0  0  0  0  0  0  0  0  0
  143.9518  131.6879  151.2211 H   0  0  0  0  0  0  0  0  0  0  0  0
  143.9527  134.7607  151.4173 H   0  0  0  0  0  0  0  0  0  0  0  0
  142.5657  133.7757  151.8076 H   0  0  0  0  0  0  0  0  0  0  0  0
  143.4336  133.3234  153.8101 H   0  0  0  0  0  0  0  0  0  0  0  0
  1  2  2  0  0  0  0
  2  3  1  0  0  0  0
  2 12  1  0  0  0  0
  3  4  1  0  0  0  0
  3 22  1  0  0  0  0
  3 23  1  0  0  0  0
  4 10  1  0  0  0  0
  4  5  1  0  0  0  0
  5  6  2  0  0  0  0
  5 24  1  0  0  0  0
  6  7  1  0  0  0  0
  6 25  1  0  0  0  0
  7  8  2  0  0  0  0
  7  9  1  0  0  0  0
  9 21  1  0  0  0  0
  9 10  1  0  0  0  0
 10 11  2  0  0  0  0
 12 13  1  0  0  0  0
 12 26  1  0  0  0  0
 13 19  1  0  0  0  0
 13 14  1  0  0  0  0
 13 27  1  0  0  0  0
 14 15  1  0  0  0  0
 14 28  1  0  0  0  0
 14 29  1  0  0  0  0
 15 16  1  0  0  0  0
 15 30  1  0  0  0  0
 15 31  1  0  0  0  0
 16 17  1  0  0  0  0
 16 32  1  0  0  0  0
 16 33  1  0  0  0  0
 17 18  1  0  0  0  0
 17 34  1  0  0  0  0
 17 35  1  0  0  0  0
 18 19  1  0  0  0  0
 18 36  1  0  0  0  0
 19 20  2  0  0  0  0
M  END
> <s_m_source_file>
AV-unprocessed.smi

> <i_m_source_file_index>
2091

> <i_lp_mmshare_version>
43012

> <i_f3d_flags>
0

> <s_epik_input>
Tz1jMVtuSF1jKD1PKVtjSF1bY0hdbjFbQ0gyXUMoPU8pW05IXVtDQEBIXTJbQ0gyXVtDSDJdW0NIMl1bQ0gyXVtOSF1DMj1P

> <s_epik_cmdline>
J2VwaWtfcHl0aG9uJywgJy1waCcsICc3LjAnLCAnLXRuJywgJzgnLCAnLW1hJywgJzIwMCcsICctbWV0YWxfYmluZGluZycsICctaW1hZScsICc8aW5maWxlLm1hZT4nLCAnLW9tYWUnLCAnPG91dGZpbGUubWFlPic=

> <r_lp_tautomer_probability>
0.999537

> <r_epik_Ionization_Penalty>
0.00356328

> <r_epik_Ionization_Penalty_Charging>
0.00356323

> <r_epik_Ionization_Penalty_Neutral>
5.33217e-08

> <r_epik_State_Penalty>
0.00253125

> <r_epik_Charging_Adjusted_Penalty>
0.00609448

> <i_epik_Tot_Q>
0

> <i_epik_Tot_abs_Q>
0

> <r_epik_Metal_State_Penalty>
0.368636

> <b_epik_Metal_Only>
0

> <s_lp_Force_Field>
OPLS_2005

> <r_lp_Energy>
10.1396

> <b_lp_Chiralities_Consistent>
1

> <s_lp_Variant>
AV-unprocessed.smi:2091-2

> <Gold.Version>
5.8.1

> <Gold.Id.Protein>
6NUR|6NUR_protein|mol2

> <Gold.PLP.Fitness>
36.0013

> <Gold.PLP.PLP>
-27.9901

> <Gold.PLP.part.hbond>
-3.0000

> <Gold.PLP.part.metal>
0.0000

> <Gold.PLP.part.buried>
-4.7296

> <Gold.PLP.part.nonpolar>
-20.9598

> <Gold.PLP.part.repulsive>
0.2174

> <Gold.PLP.ligand.clash>
0.0000

> <Gold.PLP.ligand.torsion>
0.1004

> <Gold.PLP.Chemscore.Hbond>
2.7367

> <Gold.PLP.Chemscore.CHOScore>
0.0000

> <Gold.PLP.Chemscore.Metal>
0.0000

> <Gold.Chemscore.Hbonds>
donor molecule, donor type, donor heavy atom, donor atom, acceptor molecule, acceptor atom, score
      L1  H    12    26       P1  7948  0.99
      L1  H    18    36       P1 10957  0.80
      P1  H  6896  6907       L1    11  0.84

> <Gold.PLP.Chemscore.Internal.Correction>
0.0021

> <Gold.Rescore>
     Score         DG    S(hbond)    S(metal)    S(lipo)     H(rot)  DE(clash)    DE(int)     intcor
      9.77     -14.94       2.51        0.00      50.47       1.88       0.24       4.93       ----

> <Gold.Chemscore.Fitness>
9.7744

> <Gold.Chemscore.DG>
-14.9439

> <Gold.Chemscore.ZeroCoef>
-5.4800

> <Gold.Chemscore.Hbond>
2.5098

> <Gold.Chemscore.Metal>
0.0000

> <Gold.Chemscore.Lipo>
50.4740

> <Gold.Chemscore.Internal_Hbond>
0.0000

> <Gold.Chemscore.DEClash>
0.2434

> <Gold.Chemscore.DEInternal>
4.9261

> <Gold.Chemscore.Rot>
1.8844

> <Gold.Chemscore.Internal.Correction>
   9.000000E+99

> <Gold.Chemscore.Hbonds>
donor molecule, donor type, donor heavy atom, donor atom, acceptor molecule, acceptor atom, score
      L1  H    12    26       P1  7948  0.62
      L1  H    18    36       P1 10957  0.77
      P1  H  6896  6907       L1    11  0.80

> <Gold.Chemscore.Hbond.Weighted>
-8.3826

> <Gold.Chemscore.Metal.Weighted>
-0.0000

> <Gold.Chemscore.Lipo.Weighted>
-5.9055

> <Gold.Chemscore.Internal_Hbond.Weighted>
0.0000

> <Gold.Chemscore.DEClash.Weighted>
0.2434

> <Gold.Chemscore.DEInternal.Weighted>
4.9261

> <Gold.Chemscore.Rot.Weighted>
4.8242

> <Gold.Chemscore.Internal.Correction.Weighted>
   9.000000E+99

> <Gold.Protein.RotatedTorsions>
[ 6907 6896 6895 6894 ] final -126.93 input  -60.11 | X-H torsion
[ 7974 7965 7964 7962 ] final  -97.37 input  175.53 | X-H torsion
[ 8008 7997 7996 7995 ] final   44.28 input   59.86 | X-H torsion
[ 10167 10162 10161 10158 ] final   61.05 input  -65.29 | X-H torsion
[ 10718 10713 10712 10709 ] final -148.85 input   66.30 | X-H torsion
[ 10763 10752 10751 10750 ] final   98.33 input  -60.55 | X-H torsion
[ 11005 11000 10999 10996 ] final  127.11 input  -57.11 | X-H torsion

> <Gold.Protein.ActiveResidues>
 VAL166  LYS551  ARG553  GLY616  TRP617  ASP618  TYR619  PRO620  LYS621  CYS622 
 ASP623  PHE694  ASN695  SER759  ASP760  ASP761  ALA762  ILE779  LEU786  VAL792 
 PHE793  MET794  SER795  GLU796  ALA797  LYS798  CYS799  TRP800  GLU811  SER814 

> <Gold.Protein.RotatedAtoms>
  150.9020  133.7107  159.2876 H   0  0  0  0  0  0  0  0  0  0  0  0  # atno 6907 bound_to 6896
  151.4622  135.1038  159.9737 H   0  0  0  0  0  0  0  0  0  0  0  0  # atno 6908 bound_to 6896
  152.4882  133.8380  159.7193 H   0  0  0  0  0  0  0  0  0  0  0  0  # atno 6909 bound_to 6896
  145.3346  140.9448  143.2642 H   0  0  0  0  0  0  0  0  0  0  0  0  # atno 7974 bound_to 7965
  155.3167  140.3394  155.4242 H   0  0  0  0  0  0  0  0  0  0  0  0  # atno 8008 bound_to 7997
  156.1929  140.1704  156.8094 H   0  0  0  0  0  0  0  0  0  0  0  0  # atno 8009 bound_to 7997
  154.5463  140.0714  156.8578 H   0  0  0  0  0  0  0  0  0  0  0  0  # atno 8010 bound_to 7997
  140.1590  144.4389  150.6719 H   0  0  0  0  0  0  0  0  0  0  0  0  # atno 10167 bound_to 10162
  156.4256  130.8050  151.2275 H   0  0  0  0  0  0  0  0  0  0  0  0  # atno 10718 bound_to 10713
  153.2878  135.4152  155.1139 H   0  0  0  0  0  0  0  0  0  0  0  0  # atno 10763 bound_to 10752
  154.8510  135.3511  154.6023 H   0  0  0  0  0  0  0  0  0  0  0  0  # atno 10764 bound_to 10752
  153.6445  135.7055  153.5288 H   0  0  0  0  0  0  0  0  0  0  0  0  # atno 10765 bound_to 10752
  139.9491  134.9625  156.8807 H   0  0  0  0  0  0  0  0  0  0  0  0  # atno 11005 bound_to 11000
  144.8837  139.4868  143.6710 LP  0  0  0  0  0  0  0  0  0  0  0  0  # atno 17320 bound_to 7965
  146.3032  139.7493  142.9076 LP  0  0  0  0  0  0  0  0  0  0  0  0  # atno 17321 bound_to 7965
  140.6655  143.2266  151.5754 LP  0  0  0  0  0  0  0  0  0  0  0  0  # atno 17342 bound_to 10162
  139.5390  144.2701  152.1311 LP  0  0  0  0  0  0  0  0  0  0  0  0  # atno 17343 bound_to 10162
  157.7508  131.0214  150.3750 LP  0  0  0  0  0  0  0  0  0  0  0  0  # atno 17370 bound_to 10713
  156.4076  130.3928  149.6914 LP  0  0  0  0  0  0  0  0  0  0  0  0  # atno 17371 bound_to 10713
  140.5763  134.0395  155.7448 LP  0  0  0  0  0  0  0  0  0  0  0  0  # atno 17394 bound_to 11000
  141.1149  133.9557  157.2841 LP  0  0  0  0  0  0  0  0  0  0  0  0  # atno 17395 bound_to 11000

$$$$
