#       Name:                AV-unprocessed.smi:1704
#       Creating user name   scv26
#       Creation time:       Fri Mar 27 08:08:47 2020


#       File generated by GOLD software.
#

@<TRIPOS>MOLECULE
AV-unprocessed.smi:1704
    48    50     1
SMALL
NO_CHARGES


@<TRIPOS>ATOM
      1 ****        -1.9505   4.1162  -1.1706 C.3            1 S1                 0.0000
      2 ****        -2.0953   2.6483  -1.1931 N.am           1 S1                 0.0000
      3 ****        -0.9574   1.8848  -1.1809 C.2            1 S1                 0.0000
      4 ****         0.1895   2.3332  -1.1768 O.2            1 S1                 0.0000
      5 ****        -1.2118   0.4400  -1.1748 C.2            1 S1                 0.0000
      6 ****        -2.4596  -0.0868  -1.2202 C.2            1 S1                 0.0000
      7 ****        -2.4251  -1.4762  -1.2204 N.2            1 S1                 0.0000
      8 ****        -1.1153  -1.7197  -1.1690 C.2            1 S1                 0.0000
      9 ****        -0.3190  -0.6312  -1.1255 N.pl3          1 S1                 0.0000
     10 ****         1.1380  -0.6341  -1.0585 C.3            1 S1                 0.0000
     11 ****         1.7158  -0.6586   0.3813 C.3            1 S1                 0.0000
     12 ****         1.2852   0.5143   1.0478 O.3            1 S1                 0.0000
     13 ****         1.2196  -1.8794   1.1970 C.3            1 S1                 0.0000
     14 ****         1.9007  -2.0052   2.5721 C.3            1 S1                 0.0000
     15 ****         3.4300  -2.0151   2.4446 C.3            1 S1                 0.0000
     16 ****         3.9253  -0.7666   1.7027 C.3            1 S1                 0.0000
     17 ****         3.2615  -0.6371   0.3202 C.3            1 S1                 0.0000
     18 ****        -3.5695   0.7931  -1.2601 N.am           1 S1                 0.0000
     19 ****        -4.9027   0.1862  -1.3192 C.3            1 S1                 0.0000
     20 ****        -3.3888   2.1547  -1.2264 C.2            1 S1                 0.0000
     21 ****        -4.3581   2.9185  -1.2273 O.2            1 S1                 0.0000
     22 ****        -0.9215   4.4772  -1.1559 H              1 S1                 0.0000
     23 ****        -2.4359   4.5314  -0.2860 H              1 S1                 0.0000
     24 ****        -2.4202   4.5594  -2.0502 H              1 S1                 0.0000
     25 ****        -0.7202  -2.7248  -1.1534 H              1 S1                 0.0000
     26 ****         1.4906  -1.5107  -1.6038 H              1 S1                 0.0000
     27 ****         1.5198   0.2221  -1.6137 H              1 S1                 0.0000
     28 ****         1.6627   0.5219   1.9140 H              1 S1                 0.0000
     29 ****         0.1398  -1.8326   1.3418 H              1 S1                 0.0000
     30 ****         1.4102  -2.7904   0.6283 H              1 S1                 0.0000
     31 ****         1.5929  -1.1791   3.2141 H              1 S1                 0.0000
     32 ****         1.5655  -2.9169   3.0673 H              1 S1                 0.0000
     33 ****         3.8856  -2.0653   3.4340 H              1 S1                 0.0000
     34 ****         3.7485  -2.9111   1.9106 H              1 S1                 0.0000
     35 ****         3.7167   0.1219   2.2996 H              1 S1                 0.0000
     36 ****         5.0088  -0.8104   1.5885 H              1 S1                 0.0000
     37 ****         3.6071  -1.4603  -0.3069 H              1 S1                 0.0000
     38 ****         3.6060   0.2762  -0.1668 H              1 S1                 0.0000
     39 ****        -5.7199   0.9018  -1.4144 H              1 S1                 0.0000
     40 ****        -5.0840  -0.3999  -0.4176 H              1 S1                 0.0000
     41 ****        -4.9669  -0.4880  -2.1740 H              1 S1                 0.0000
     42 ****         0.3399   3.3218  -1.1825 LP             1 S1                 0.0000
     43 ****         0.9705   1.7087  -1.1677 LP             1 S1                 0.0000
     44 ****        -3.1854  -2.1250  -1.2511 LP             1 S1                 0.0000
     45 ****         0.2875   0.5175   1.1145 LP             1 S1                 0.0000
     46 ****         1.5881   1.3211   0.5406 LP             1 S1                 0.0000
     47 ****        -4.2150   3.9079  -1.2037 LP             1 S1                 0.0000
     48 ****        -5.2866   2.5480  -1.2515 LP             1 S1                 0.0000
@<TRIPOS>BOND
    1    1    2 1     
    2    1   22 1     
    3    1   23 1     
    4    1   24 1     
    5    2   20 am    
    6    2    3 am    
    7    3    4 2     
    8    3    5 1     
    9    5    9 1     
   10    5    6 2     
   11    6    7 1     
   12    6   18 1     
   13    7    8 2     
   14    8    9 1     
   15    8   25 1     
   16    9   10 1     
   17   10   11 1     
   18   10   26 1     
   19   10   27 1     
   20   11   17 1     
   21   11   12 1     
   22   11   13 1     
   23   12   28 1     
   24   13   14 1     
   25   13   29 1     
   26   13   30 1     
   27   14   15 1     
   28   14   31 1     
   29   14   32 1     
   30   15   16 1     
   31   15   33 1     
   32   15   34 1     
   33   16   17 1     
   34   16   35 1     
   35   16   36 1     
   36   17   37 1     
   37   17   38 1     
   38   18   19 1     
   39   18   20 am    
   40   19   39 1     
   41   19   40 1     
   42   19   41 1     
   43   20   21 2     
   44    4   42 1     
   45    4   43 1     
   46    7   44 1     
   47   12   45 1     
   48   12   46 1     
   49   21   47 1     
   50   21   48 1     
@<TRIPOS>SUBSTRUCTURE
      1 S1             1
@<TRIPOS>SET
LONE_PAIRS      STATIC     ATOMS    <user>   **** ""
7 42 43 44 45 46 47 48
DONOR_HYDROGENS      STATIC     ATOMS    <user>   **** ""
1 28
ATOM$BLUE        STATIC     ATOMS    COLORGROUP SYSTEM
7 42 43 44 45 46 47 48
ATOM$RED        STATIC     ATOMS    COLORGROUP SYSTEM
1 28
