AV-unprocessed.smi:1078|AV-procd|sdf|4702|dock2
  -GOLD-   22720 3223D 1   1.00000     0.00000
 Structure written by MMmdl.
 40 41  0  0  0  0  0  0  0  0  2 V2000
  149.8540  139.9832  154.3585 C   0  0  0  0  0  0  0  0  0  0  0  0
  148.9121  141.0659  154.9126 C   0  0  2  0  0  0  0  0  0  0  0  0
  148.0579  141.7326  153.8081 C   0  0  0  0  0  0  0  0  0  0  0  0
  146.8613  142.3764  154.3208 N   0  0  0  0  0  0  0  0  0  0  0  0
  145.9142  143.1037  153.6302 C   0  0  0  0  0  0  0  0  0  0  0  0
  144.9809  143.5184  154.5364 C   0  0  0  0  0  0  0  0  0  0  0  0
  145.4539  142.9960  155.7727 C   0  0  0  0  0  0  0  0  0  0  0  0
  146.5823  142.3171  155.6410 N   0  0  0  0  0  0  0  0  0  0  0  0
  149.7094  142.0692  155.6533 N   0  3  0  0  0  0  0  0  0  0  0  0
  149.8698  141.8157  157.1014 C   0  0  0  0  0  0  0  0  0  0  0  0
  151.2241  142.3371  157.6168 C   0  0  0  0  0  0  0  0  0  0  0  0
  151.6120  141.7030  158.9713 C   0  0  0  0  0  0  0  0  0  0  0  0
  152.9567  142.2407  159.4878 C   0  0  0  0  0  0  0  0  0  0  0  0
  152.9400  143.7729  159.5948 C   0  0  0  0  0  0  0  0  0  0  0  0
  152.5570  144.4153  158.2534 C   0  0  0  0  0  0  0  0  0  0  0  0
  151.2122  143.8746  157.7407 C   0  0  0  0  0  0  0  0  0  0  0  0
  149.3005  139.1642  153.8984 H   0  0  0  0  0  0  0  0  0  0  0  0
  150.4634  139.5501  155.1523 H   0  0  0  0  0  0  0  0  0  0  0  0
  150.5292  140.3927  153.6064 H   0  0  0  0  0  0  0  0  0  0  0  0
  148.2466  140.5792  155.6275 H   0  0  0  0  0  0  0  0  0  0  0  0
  148.6338  142.4873  153.2720 H   0  0  0  0  0  0  0  0  0  0  0  0
  147.7546  140.9892  153.0694 H   0  0  0  0  0  0  0  0  0  0  0  0
  145.9798  143.2626  152.5638 H   0  0  0  0  0  0  0  0  0  0  0  0
  144.0963  144.1079  154.3458 H   0  0  0  0  0  0  0  0  0  0  0  0
  145.0148  143.0912  156.7549 H   0  0  0  0  0  0  0  0  0  0  0  0
  150.6353  142.0754  155.2498 H   0  0  0  0  0  0  0  0  0  0  0  0
  149.0624  142.3136  157.6381 H   0  0  0  0  0  0  0  0  0  0  0  0
  149.7772  140.7478  157.3045 H   0  0  0  0  0  0  0  0  0  0  0  0
  151.9885  142.0734  156.8835 H   0  0  0  0  0  0  0  0  0  0  0  0
  150.8348  141.9054  159.7097 H   0  0  0  0  0  0  0  0  0  0  0  0
  151.6735  140.6182  158.8800 H   0  0  0  0  0  0  0  0  0  0  0  0
  153.1825  141.8038  160.4611 H   0  0  0  0  0  0  0  0  0  0  0  0
  153.7578  141.9292  158.8165 H   0  0  0  0  0  0  0  0  0  0  0  0
  152.2285  144.0783  160.3631 H   0  0  0  0  0  0  0  0  0  0  0  0
  153.9170  144.1352  159.9161 H   0  0  0  0  0  0  0  0  0  0  0  0
  152.5045  145.4991  158.3629 H   0  0  0  0  0  0  0  0  0  0  0  0
  153.3365  144.2162  157.5168 H   0  0  0  0  0  0  0  0  0  0  0  0
  150.9865  144.3264  156.7740 H   0  0  0  0  0  0  0  0  0  0  0  0
  150.4153  144.1842  158.4183 H   0  0  0  0  0  0  0  0  0  0  0  0
  149.2976  142.9816  155.5192 H   0  0  0  0  0  0  0  0  0  0  0  0
  1  2  1  0  0  0  0
  1 17  1  0  0  0  0
  1 18  1  0  0  0  0
  1 19  1  0  0  0  0
  2  3  1  0  0  0  0
  2  9  1  0  0  0  0
  2 20  1  0  0  0  0
  3  4  1  0  0  0  0
  3 21  1  0  0  0  0
  3 22  1  0  0  0  0
  4  8  1  0  0  0  0
  4  5  1  0  0  0  0
  5  6  2  0  0  0  0
  5 23  1  0  0  0  0
  6  7  1  0  0  0  0
  6 24  1  0  0  0  0
  7  8  2  0  0  0  0
  7 25  1  0  0  0  0
  9 10  1  0  0  0  0
  9 26  1  0  0  0  0
  9 40  1  0  0  0  0
 10 11  1  0  0  0  0
 10 27  1  0  0  0  0
 10 28  1  0  0  0  0
 11 16  1  0  0  0  0
 11 12  1  0  0  0  0
 11 29  1  0  0  0  0
 12 13  1  0  0  0  0
 12 30  1  0  0  0  0
 12 31  1  0  0  0  0
 13 14  1  0  0  0  0
 13 32  1  0  0  0  0
 13 33  1  0  0  0  0
 14 15  1  0  0  0  0
 14 34  1  0  0  0  0
 14 35  1  0  0  0  0
 15 16  1  0  0  0  0
 15 36  1  0  0  0  0
 15 37  1  0  0  0  0
 16 38  1  0  0  0  0
 16 39  1  0  0  0  0
M  CHG  1   9   1
M  END
> <s_m_source_file>
AV-unprocessed.smi

> <i_m_source_file_index>
1078

> <i_lp_mmshare_version>
43012

> <i_f3d_flags>
0

> <s_epik_input>
bjFbY0hdW2NIXVtjSF1uMVtDSDJdW0NAQEhdKFtDSDNdKVtOSF1bQ0gyXVtDSF0yW0NIMl1bQ0gyXVtDSDJdW0NIMl1bQ0gyXTI=

> <s_epik_cmdline>
J2VwaWtfcHl0aG9uJywgJy1waCcsICc3LjAnLCAnLXRuJywgJzgnLCAnLW1hJywgJzIwMCcsICctbWV0YWxfYmluZGluZycsICctaW1hZScsICc8aW5maWxlLm1hZT4nLCAnLW9tYWUnLCAnPG91dGZpbGUubWFlPic=

> <r_lp_tautomer_probability>
1

> <r_epik_Ionization_Penalty>
0.00174474

> <r_epik_Ionization_Penalty_Charging>
0.00174052

> <r_epik_Ionization_Penalty_Neutral>
4.21324e-06

> <r_epik_State_Penalty>
0.00117783

> <r_epik_Charging_Adjusted_Penalty>
0.00291835

> <i_epik_Tot_Q>
1

> <i_epik_Tot_abs_Q>
1

> <r_epik_Metal_State_Penalty>
-0

> <b_epik_Metal_Only>
0

> <s_lp_Force_Field>
OPLS_2005

> <r_lp_Energy>
15.4187

> <b_lp_Chiralities_Consistent>
1

> <s_lp_Variant>
AV-unprocessed.smi:1078-1

> <Gold.Version>
5.8.1

> <Gold.Id.Protein>
6NUR|6NUR_protein|mol2

> <Gold.PLP.Fitness>
46.1613

> <Gold.PLP.PLP>
-42.0942

> <Gold.PLP.part.hbond>
-1.0000

> <Gold.PLP.part.metal>
0.0000

> <Gold.PLP.part.buried>
-3.3625

> <Gold.PLP.part.nonpolar>
-37.5050

> <Gold.PLP.part.repulsive>
0.3086

> <Gold.PLP.ligand.clash>
0.0000

> <Gold.PLP.ligand.torsion>
0.9805

> <Gold.PLP.Chemscore.Hbond>
2.0000

> <Gold.PLP.Chemscore.CHOScore>
0.0000

> <Gold.PLP.Chemscore.Metal>
0.0000

> <Gold.Chemscore.Hbonds>
donor molecule, donor type, donor heavy atom, donor atom, acceptor molecule, acceptor atom, score
      L1  H     9    40       P1  8028  2.00

> <Gold.PLP.Chemscore.Internal.Correction>
0.0279

> <Gold.Rescore>
     Score         DG    S(hbond)    S(metal)    S(lipo)     H(rot)  DE(clash)    DE(int)     intcor
     16.80     -17.88       1.00        0.00     111.11       1.54       0.07       1.02       ----

> <Gold.Chemscore.Fitness>
16.7967

> <Gold.Chemscore.DG>
-17.8805

> <Gold.Chemscore.ZeroCoef>
-5.4800

> <Gold.Chemscore.Hbond>
0.9991

> <Gold.Chemscore.Metal>
0.0000

> <Gold.Chemscore.Lipo>
111.1136

> <Gold.Chemscore.Internal_Hbond>
0.0000

> <Gold.Chemscore.DEClash>
0.0663

> <Gold.Chemscore.DEInternal>
1.0174

> <Gold.Chemscore.Rot>
1.5378

> <Gold.Chemscore.Internal.Correction>
   9.000000E+99

> <Gold.Chemscore.Hbonds>
donor molecule, donor type, donor heavy atom, donor atom, acceptor molecule, acceptor atom, score
      L1  H     9    40       P1  8028  1.00

> <Gold.Chemscore.Hbond.Weighted>
-3.3369

> <Gold.Chemscore.Metal.Weighted>
-0.0000

> <Gold.Chemscore.Lipo.Weighted>
-13.0003

> <Gold.Chemscore.Internal_Hbond.Weighted>
0.0000

> <Gold.Chemscore.DEClash.Weighted>
0.0663

> <Gold.Chemscore.DEInternal.Weighted>
1.0174

> <Gold.Chemscore.Rot.Weighted>
3.9368

> <Gold.Chemscore.Internal.Correction.Weighted>
   9.000000E+99

> <Gold.Protein.RotatedTorsions>
[ 6907 6896 6895 6894 ] final  134.09 input  -60.11 | X-H torsion
[ 7974 7965 7964 7962 ] final  -10.98 input  175.53 | X-H torsion
[ 8008 7997 7996 7995 ] final   28.31 input   59.86 | X-H torsion
[ 10167 10162 10161 10158 ] final  113.41 input  -65.29 | X-H torsion
[ 10718 10713 10712 10709 ] final  -83.89 input   66.30 | X-H torsion
[ 10763 10752 10751 10750 ] final    9.93 input  -60.55 | X-H torsion
[ 11005 11000 10999 10996 ] final    3.75 input  -57.11 | X-H torsion

> <Gold.Protein.ActiveResidues>
 VAL166  LYS551  ARG553  GLY616  TRP617  ASP618  TYR619  PRO620  LYS621  CYS622 
 ASP623  PHE694  ASN695  SER759  ASP760  ASP761  ALA762  ILE779  LEU786  VAL792 
 PHE793  MET794  SER795  GLU796  ALA797  LYS798  CYS799  TRP800  GLU811  SER814 

> <Gold.Protein.RotatedAtoms>
  152.3151  133.5793  159.5706 H   0  0  0  0  0  0  0  0  0  0  0  0  # atno 6907 bound_to 6896
  150.7342  134.0095  159.3674 H   0  0  0  0  0  0  0  0  0  0  0  0  # atno 6908 bound_to 6896
  151.7985  135.0716  160.0448 H   0  0  0  0  0  0  0  0  0  0  0  0  # atno 6909 bound_to 6896
  146.2203  140.2844  142.8364 H   0  0  0  0  0  0  0  0  0  0  0  0  # atno 7974 bound_to 7965
  155.0566  140.3185  155.4674 H   0  0  0  0  0  0  0  0  0  0  0  0  # atno 8008 bound_to 7997
  156.2822  140.2136  156.5637 H   0  0  0  0  0  0  0  0  0  0  0  0  # atno 8009 bound_to 7997
  154.7166  140.0493  157.0588 H   0  0  0  0  0  0  0  0  0  0  0  0  # atno 8010 bound_to 7997
  139.6463  144.7126  151.2136 H   0  0  0  0  0  0  0  0  0  0  0  0  # atno 10167 bound_to 10162
  156.0012  130.4680  150.4326 H   0  0  0  0  0  0  0  0  0  0  0  0  # atno 10718 bound_to 10713
  153.2087  135.6866  153.8140 H   0  0  0  0  0  0  0  0  0  0  0  0  # atno 10763 bound_to 10752
  153.7381  135.3242  155.3300 H   0  0  0  0  0  0  0  0  0  0  0  0  # atno 10764 bound_to 10752
  154.8210  135.4652  154.0885 H   0  0  0  0  0  0  0  0  0  0  0  0  # atno 10765 bound_to 10752
  140.5896  133.9936  155.8083 H   0  0  0  0  0  0  0  0  0  0  0  0  # atno 11005 bound_to 11000
  144.9173  140.7827  143.5770 LP  0  0  0  0  0  0  0  0  0  0  0  0  # atno 17320 bound_to 7965
  145.2778  139.1930  143.4807 LP  0  0  0  0  0  0  0  0  0  0  0  0  # atno 17321 bound_to 7965
  140.7516  143.6225  150.8500 LP  0  0  0  0  0  0  0  0  0  0  0  0  # atno 17342 bound_to 10162
  139.9868  143.5890  152.2924 LP  0  0  0  0  0  0  0  0  0  0  0  0  # atno 17343 bound_to 10162
  157.2374  131.0518  151.2457 LP  0  0  0  0  0  0  0  0  0  0  0  0  # atno 17370 bound_to 10713
  157.3653  130.7153  149.6529 LP  0  0  0  0  0  0  0  0  0  0  0  0  # atno 17371 bound_to 10713
  141.0943  133.9868  157.3186 LP  0  0  0  0  0  0  0  0  0  0  0  0  # atno 17394 bound_to 11000
  139.9280  135.0201  156.8301 LP  0  0  0  0  0  0  0  0  0  0  0  0  # atno 17395 bound_to 11000

$$$$
