AV-unprocessed.smi:2971|AV-procd|sdf|11332|dock4
  -GOLD-   2272016243D 1   1.00000     0.00000
 Structure written by MMmdl.
 36 38  0  0  0  0  0  0  0  0  1 V2000
  151.1678  140.4673  155.3117 O   0  0  0  0  0  0  0  0  0  0  0  0
  150.1500  141.3473  155.7484 C   0  0  2  0  0  0  0  0  0  0  0  0
  150.8120  142.5983  156.3473 C   0  0  0  0  0  0  0  0  0  0  0  0
  151.4033  142.2546  157.5936 O   0  0  0  0  0  0  0  0  0  0  0  0
  151.5649  143.2467  158.5379 C   0  0  0  0  0  0  0  0  0  0  0  0
  151.1140  144.5816  158.3737 C   0  0  0  0  0  0  0  0  0  0  0  0
  151.3199  145.5347  159.3903 C   0  0  0  0  0  0  0  0  0  0  0  0
  151.9771  145.1696  160.5794 C   0  0  0  0  0  0  0  0  0  0  0  0
  152.4290  143.8483  160.7511 C   0  0  0  0  0  0  0  0  0  0  0  0
  152.2225  142.8938  159.7360 C   0  0  0  0  0  0  0  0  0  0  0  0
  152.6610  141.6248  159.9151 F   0  0  0  0  0  0  0  0  0  0  0  0
  149.2656  140.6178  156.7784 C   0  0  0  0  0  0  0  0  0  0  0  0
  147.9892  141.2790  156.9866 N   0  0  0  0  0  0  0  0  0  0  0  0
  147.4404  141.6233  158.1673 C   0  0  0  0  0  0  0  0  0  0  0  0
  146.2525  142.2204  158.1370 N   0  0  0  0  0  0  0  0  0  0  0  0
  146.0004  142.2707  156.7765 C   0  0  0  0  0  0  0  0  0  0  0  0
  144.8921  142.7874  156.0679 C   0  0  0  0  0  0  0  0  0  0  0  0
  144.8537  142.7277  154.6591 C   0  0  0  0  0  0  0  0  0  0  0  0
  145.9211  142.1534  153.9384 C   0  0  0  0  0  0  0  0  0  0  0  0
  147.0359  141.6318  154.6225 C   0  0  0  0  0  0  0  0  0  0  0  0
  147.0692  141.6908  156.0281 C   0  0  0  0  0  0  0  0  0  0  0  0
  151.8804  140.5042  155.9317 H   0  0  0  0  0  0  0  0  0  0  0  0
  149.5362  141.6321  154.8926 H   0  0  0  0  0  0  0  0  0  0  0  0
  151.6015  142.9431  155.6774 H   0  0  0  0  0  0  0  0  0  0  0  0
  150.0867  143.4075  156.4525 H   0  0  0  0  0  0  0  0  0  0  0  0
  150.6069  144.9014  157.4765 H   0  0  0  0  0  0  0  0  0  0  0  0
  150.9722  146.5486  159.2562 H   0  0  0  0  0  0  0  0  0  0  0  0
  152.1346  145.9014  161.3581 H   0  0  0  0  0  0  0  0  0  0  0  0
  152.9346  143.5655  161.6626 H   0  0  0  0  0  0  0  0  0  0  0  0
  149.0818  139.5888  156.4659 H   0  0  0  0  0  0  0  0  0  0  0  0
  149.7764  140.5623  157.7405 H   0  0  0  0  0  0  0  0  0  0  0  0
  147.9420  141.4228  159.1028 H   0  0  0  0  0  0  0  0  0  0  0  0
  144.0697  143.2309  156.6095 H   0  0  0  0  0  0  0  0  0  0  0  0
  144.0013  143.1254  154.1285 H   0  0  0  0  0  0  0  0  0  0  0  0
  145.8838  142.1144  152.8595 H   0  0  0  0  0  0  0  0  0  0  0  0
  147.8570  141.1943  154.0743 H   0  0  0  0  0  0  0  0  0  0  0  0
  1  2  1  0  0  0  0
  1 22  1  0  0  0  0
  2  3  1  0  0  0  0
  2 12  1  0  0  0  0
  2 23  1  0  0  0  0
  3  4  1  0  0  0  0
  3 24  1  0  0  0  0
  3 25  1  0  0  0  0
  4  5  1  0  0  0  0
  5 10  1  0  0  0  0
  5  6  2  0  0  0  0
  6  7  1  0  0  0  0
  6 26  1  0  0  0  0
  7  8  2  0  0  0  0
  7 27  1  0  0  0  0
  8  9  1  0  0  0  0
  8 28  1  0  0  0  0
  9 10  2  0  0  0  0
  9 29  1  0  0  0  0
 10 11  1  0  0  0  0
 12 13  1  0  0  0  0
 12 30  1  0  0  0  0
 12 31  1  0  0  0  0
 13 21  1  0  0  0  0
 13 14  1  0  0  0  0
 14 15  2  0  0  0  0
 14 32  1  0  0  0  0
 15 16  1  0  0  0  0
 16 21  2  0  0  0  0
 16 17  1  0  0  0  0
 17 18  2  0  0  0  0
 17 33  1  0  0  0  0
 18 19  1  0  0  0  0
 18 34  1  0  0  0  0
 19 20  2  0  0  0  0
 19 35  1  0  0  0  0
 20 21  1  0  0  0  0
 20 36  1  0  0  0  0
M  END
> <s_m_source_file>
AV-unprocessed.smi

> <i_m_source_file_index>
2971

> <i_lp_mmshare_version>
43012

> <i_f3d_flags>
0

> <s_epik_input>
W2NIXTFbY0hdW2NIXVtjSF1jKGMxMiluKFtjSF1uMilbQ0gyXVtDQEhdKFtPSF0pW0NIMl1PYzNbY0hdW2NIXVtjSF1bY0hdYzNG

> <s_epik_cmdline>
J2VwaWtfcHl0aG9uJywgJy1waCcsICc3LjAnLCAnLXRuJywgJzgnLCAnLW1hJywgJzIwMCcsICctbWV0YWxfYmluZGluZycsICctaW1hZScsICc8aW5maWxlLm1hZT4nLCAnLW9tYWUnLCAnPG91dGZpbGUubWFlPic=

> <r_lp_tautomer_probability>
1

> <r_epik_Ionization_Penalty>
0.0600913

> <r_epik_Ionization_Penalty_Charging>
0

> <r_epik_Ionization_Penalty_Neutral>
0.0600913

> <r_epik_State_Penalty>
0.0520726

> <r_epik_Charging_Adjusted_Penalty>
0.0520726

> <i_epik_Tot_Q>
0

> <i_epik_Tot_abs_Q>
0

> <r_epik_Metal_State_Penalty>
5.44269e-05

> <b_epik_Metal_Only>
0

> <s_lp_Force_Field>
OPLS_2005

> <r_lp_Energy>
16.3694

> <b_lp_Chiralities_Consistent>
1

> <s_lp_Variant>
AV-unprocessed.smi:2971-1

> <Gold.Version>
5.8.1

> <Gold.Id.Protein>
6NUR|6NUR_protein|mol2

> <Gold.PLP.Fitness>
48.1665

> <Gold.PLP.PLP>
-45.9989

> <Gold.PLP.part.hbond>
-1.0000

> <Gold.PLP.part.metal>
0.0000

> <Gold.PLP.part.buried>
-6.6317

> <Gold.PLP.part.nonpolar>
-38.1981

> <Gold.PLP.part.repulsive>
0.1578

> <Gold.PLP.ligand.clash>
0.0000

> <Gold.PLP.ligand.torsion>
0.4468

> <Gold.PLP.Chemscore.Hbond>
0.9920

> <Gold.PLP.Chemscore.CHOScore>
0.0000

> <Gold.PLP.Chemscore.Metal>
0.0000

> <Gold.Chemscore.Hbonds>
donor molecule, donor type, donor heavy atom, donor atom, acceptor molecule, acceptor atom, score
      P1  H  7989  7998       L1     1  0.94

> <Gold.PLP.Chemscore.Internal.Correction>
0.0851

> <Gold.Rescore>
     Score         DG    S(hbond)    S(metal)    S(lipo)     H(rot)  DE(clash)    DE(int)     intcor
     14.37     -15.66       0.77        0.00     116.91       2.37       0.37       0.91       ----

> <Gold.Chemscore.Fitness>
14.3723

> <Gold.Chemscore.DG>
-15.6594

> <Gold.Chemscore.ZeroCoef>
-5.4800

> <Gold.Chemscore.Hbond>
0.7716

> <Gold.Chemscore.Metal>
0.0000

> <Gold.Chemscore.Lipo>
116.9106

> <Gold.Chemscore.Internal_Hbond>
0.0000

> <Gold.Chemscore.DEClash>
0.3726

> <Gold.Chemscore.DEInternal>
0.9145

> <Gold.Chemscore.Rot>
2.3735

> <Gold.Chemscore.Internal.Correction>
   9.000000E+99

> <Gold.Chemscore.Hbonds>
donor molecule, donor type, donor heavy atom, donor atom, acceptor molecule, acceptor atom, score
      P1  H  7989  7998       L1     1  0.62

> <Gold.Chemscore.Hbond.Weighted>
-2.5771

> <Gold.Chemscore.Metal.Weighted>
-0.0000

> <Gold.Chemscore.Lipo.Weighted>
-13.6785

> <Gold.Chemscore.Internal_Hbond.Weighted>
0.0000

> <Gold.Chemscore.DEClash.Weighted>
0.3726

> <Gold.Chemscore.DEInternal.Weighted>
0.9145

> <Gold.Chemscore.Rot.Weighted>
6.0762

> <Gold.Chemscore.Internal.Correction.Weighted>
   9.000000E+99

> <Gold.Protein.RotatedTorsions>
[ 6907 6896 6895 6894 ] final -173.37 input  -60.11 | X-H torsion
[ 7974 7965 7964 7962 ] final  150.75 input  175.53 | X-H torsion
[ 8008 7997 7996 7995 ] final   56.51 input   59.86 | X-H torsion
[ 10167 10162 10161 10158 ] final   -8.29 input  -65.29 | X-H torsion
[ 10718 10713 10712 10709 ] final -156.46 input   66.30 | X-H torsion
[ 10763 10752 10751 10750 ] final  131.67 input  -60.55 | X-H torsion
[ 11005 11000 10999 10996 ] final    9.51 input  -57.11 | X-H torsion

> <Gold.Protein.ActiveResidues>
 VAL166  LYS551  ARG553  GLY616  TRP617  ASP618  TYR619  PRO620  LYS621  CYS622 
 ASP623  PHE694  ASN695  SER759  ASP760  ASP761  ALA762  ILE779  LEU786  VAL792 
 PHE793  MET794  SER795  GLU796  ALA797  LYS798  CYS799  TRP800  GLU811  SER814 

> <Gold.Protein.RotatedAtoms>
  151.5551  133.3411  159.2960 H   0  0  0  0  0  0  0  0  0  0  0  0  # atno 6907 bound_to 6896
  150.8455  134.7766  159.6978 H   0  0  0  0  0  0  0  0  0  0  0  0  # atno 6908 bound_to 6896
  152.4514  134.5393  159.9886 H   0  0  0  0  0  0  0  0  0  0  0  0  # atno 6909 bound_to 6896
  144.8341  139.6449  143.6045 H   0  0  0  0  0  0  0  0  0  0  0  0  # atno 7974 bound_to 7965
  155.5186  140.3479  155.4402 H   0  0  0  0  0  0  0  0  0  0  0  0  # atno 8008 bound_to 7997
  156.0800  140.1384  156.9751 H   0  0  0  0  0  0  0  0  0  0  0  0  # atno 8009 bound_to 7997
  154.4574  140.0948  156.6773 H   0  0  0  0  0  0  0  0  0  0  0  0  # atno 8010 bound_to 7997
  140.7054  143.5985  150.8821 H   0  0  0  0  0  0  0  0  0  0  0  0  # atno 10167 bound_to 10162
  156.5269  130.8503  151.2702 H   0  0  0  0  0  0  0  0  0  0  0  0  # atno 10718 bound_to 10713
  153.7782  135.3172  155.3362 H   0  0  0  0  0  0  0  0  0  0  0  0  # atno 10763 bound_to 10752
  154.8171  135.4628  154.0677 H   0  0  0  0  0  0  0  0  0  0  0  0  # atno 10764 bound_to 10752
  153.1958  135.6915  153.8379 H   0  0  0  0  0  0  0  0  0  0  0  0  # atno 10765 bound_to 10752
  140.5249  134.0523  155.7855 H   0  0  0  0  0  0  0  0  0  0  0  0  # atno 11005 bound_to 11000
  146.2642  139.6480  142.9341 LP  0  0  0  0  0  0  0  0  0  0  0  0  # atno 17320 bound_to 7965
  145.4832  141.0438  143.2634 LP  0  0  0  0  0  0  0  0  0  0  0  0  # atno 17321 bound_to 7965
  139.9710  143.6057  152.2973 LP  0  0  0  0  0  0  0  0  0  0  0  0  # atno 17342 bound_to 10162
  139.6644  144.7662  151.1902 LP  0  0  0  0  0  0  0  0  0  0  0  0  # atno 17343 bound_to 10162
  157.7428  130.9898  150.2543 LP  0  0  0  0  0  0  0  0  0  0  0  0  # atno 17370 bound_to 10713
  156.3096  130.3770  149.7673 LP  0  0  0  0  0  0  0  0  0  0  0  0  # atno 17371 bound_to 10713
  141.1314  133.9296  157.2528 LP  0  0  0  0  0  0  0  0  0  0  0  0  # atno 17394 bound_to 11000
  139.9586  135.0160  156.9197 LP  0  0  0  0  0  0  0  0  0  0  0  0  # atno 17395 bound_to 11000

$$$$
