#       Name:                AV-unprocessed.smi:1929
#       Creating user name   scv26
#       Creation time:       Fri Mar 27 09:54:38 2020


#       File generated by GOLD software.
#

@<TRIPOS>MOLECULE
AV-unprocessed.smi:1929
    48    49     1
SMALL
NO_CHARGES


@<TRIPOS>ATOM
      1 ****        -5.7450   3.9929   0.1060 C.3            1 S1                 0.0000
      2 ****        -5.2476   2.6226   0.0959 N.pl3          1 S1                -1.0000
      3 ****        -4.6247   2.0421   1.1564 C.2            1 S1                 0.0000
      4 ****        -4.3579   2.4872   2.2777 O.2            1 S1                 0.0000
      5 ****        -4.1879   0.6107   0.8244 C.3            1 S1                 0.0000
      6 ****        -2.7102   0.5421   0.7019 N.4            1 S1                 1.0000
      7 ****        -2.2017   1.0663  -0.5949 C.3            1 S1                 0.0000
      8 ****        -0.6646   1.0966  -0.6178 C.3            1 S1                 0.0000
      9 ****        -0.0757  -0.2930  -0.3287 C.3            1 S1                 0.0000
     10 ****         1.3808  -0.2118  -0.2677 N.am           1 S1                 0.0000
     11 ****         2.2209  -1.2295  -0.5059 C.2            1 S1                 0.0000
     12 ****         1.8439  -2.3641  -0.7988 O.2            1 S1                 0.0000
     13 ****         3.5015  -0.8479  -0.3583 N.am           1 S1                 0.0000
     14 ****         4.6833  -1.6138  -0.5520 C.ar           1 S1                 0.0000
     15 ****         5.8691  -1.1595   0.0614 C.ar           1 S1                 0.0000
     16 ****         7.0577  -1.8913  -0.1329 C.ar           1 S1                 0.0000
     17 ****         7.1267  -3.0073  -0.8885 N.ar           1 S1                 0.0000
     18 ****         5.9940  -3.4327  -1.4868 C.ar           1 S1                 0.0000
     19 ****         4.7535  -2.7765  -1.3569 C.ar           1 S1                 0.0000
     20 ****        -0.6481  -0.8298   0.9954 C.3            1 S1                 0.0000
     21 ****        -2.1854  -0.8182   0.9823 C.3            1 S1                 0.0000
     22 ****        -6.2462   4.2483  -0.8272 H              1 S1                 0.0000
     23 ****        -4.9459   4.7231   0.2370 H              1 S1                 0.0000
     24 ****        -6.4676   4.1688   0.9034 H              1 S1                 0.0000
     25 ****        -4.5225  -0.0200   1.6492 H              1 S1                 0.0000
     26 ****        -4.6672   0.2181  -0.0754 H              1 S1                 0.0000
     27 ****        -2.5779   0.4475  -1.4110 H              1 S1                 0.0000
     28 ****        -2.5747   2.0756  -0.7692 H              1 S1                 0.0000
     29 ****        -0.3190   1.4551  -1.5881 H              1 S1                 0.0000
     30 ****        -0.3076   1.8142   0.1226 H              1 S1                 0.0000
     31 ****        -0.3661  -0.9628  -1.1409 H              1 S1                 0.0000
     32 ****         1.7771   0.6851  -0.0272 H              1 S1                 0.0000
     33 ****         3.6492   0.0928  -0.0238 H              1 S1                 0.0000
     34 ****         5.8726  -0.2700   0.6746 H              1 S1                 0.0000
     35 ****         7.9791  -1.5689   0.3293 H              1 S1                 0.0000
     36 ****         6.0794  -4.3209  -2.0950 H              1 S1                 0.0000
     37 ****         3.8959  -3.1669  -1.8826 H              1 S1                 0.0000
     38 ****        -0.2920  -1.8447   1.1768 H              1 S1                 0.0000
     39 ****        -0.2897  -0.2229   1.8283 H              1 S1                 0.0000
     40 ****        -2.5523  -1.1635   1.9496 H              1 S1                 0.0000
     41 ****        -2.5617  -1.5156   0.2322 H              1 S1                 0.0000
     42 ****        -2.3467   1.1445   1.4266 H              1 S1                 0.0000
     43 ****        -5.3710   2.0804  -0.7353 LP             1 S1                 0.0000
     44 ****        -4.6124   3.4241   2.5173 LP             1 S1                 0.0000
     45 ****        -3.8874   1.9105   2.9456 LP             1 S1                 0.0000
     46 ****         0.8666  -2.5637  -0.8693 LP             1 S1                 0.0000
     47 ****         2.5150  -3.0864  -0.9663 LP             1 S1                 0.0000
     48 ****         7.9881  -3.5026  -1.0014 LP             1 S1                 0.0000
@<TRIPOS>BOND
    1    1    2 1     
    2    1   22 1     
    3    1   23 1     
    4    1   24 1     
    5    2    3 1     
    6    3    4 2     
    7    3    5 1     
    8    5    6 1     
    9    5   25 1     
   10    5   26 1     
   11    6   21 1     
   12    6    7 1     
   13    6   42 1     
   14    7    8 1     
   15    7   27 1     
   16    7   28 1     
   17    8    9 1     
   18    8   29 1     
   19    8   30 1     
   20    9   10 1     
   21    9   20 1     
   22    9   31 1     
   23   10   11 am    
   24   10   32 1     
   25   11   12 2     
   26   11   13 am    
   27   13   14 1     
   28   13   33 1     
   29   14   19 ar    
   30   14   15 ar    
   31   15   16 ar    
   32   15   34 1     
   33   16   17 ar    
   34   16   35 1     
   35   17   18 ar    
   36   18   19 ar    
   37   18   36 1     
   38   19   37 1     
   39   20   21 1     
   40   20   38 1     
   41   20   39 1     
   42   21   40 1     
   43   21   41 1     
   44    2   43 1     
   45    4   44 1     
   46    4   45 1     
   47   12   46 1     
   48   12   47 1     
   49   17   48 1     
@<TRIPOS>SUBSTRUCTURE
      1 S1             1
@<TRIPOS>SET
LONE_PAIRS      STATIC     ATOMS    <user>   **** ""
6 43 44 45 46 47 48
DONOR_HYDROGENS      STATIC     ATOMS    <user>   **** ""
3 42 32 33
ATOM$BLUE        STATIC     ATOMS    COLORGROUP SYSTEM
6 43 44 45 46 47 48
ATOM$RED        STATIC     ATOMS    COLORGROUP SYSTEM
3 42 32 33
