AV-unprocessed.smi:249|AV-procd|sdf|1914|dock7
  -GOLD-   2262021 13D 1   1.00000     0.00000
 Structure written by MMmdl.
 64 67  0  0  0  0  0  0  0  0  2 V2000
  145.8210  130.0102  151.8157 C   0  0  0  0  0  0  0  0  0  0  0  0
  144.8358  130.9401  151.0943 C   0  0  0  0  0  0  0  0  0  0  0  0
  144.5474  132.1734  151.8719 N   0  3  2  0  0  0  0  0  0  0  0  0
  143.4966  133.0311  151.2594 C   0  0  0  0  0  0  0  0  0  0  0  0
  143.1019  134.1785  152.2018 C   0  0  0  0  0  0  0  0  0  0  0  0
  144.3296  135.0289  152.5828 C   0  0  1  0  0  0  0  0  0  0  0  0
  144.0103  136.1918  153.4211 N   0  0  0  0  0  0  0  0  0  0  0  0
  142.8897  137.0291  153.0092 C   0  0  0  0  0  0  0  0  0  0  0  0
  145.0419  136.8776  153.9687 C   0  0  0  0  0  0  0  0  0  0  0  0
  145.2879  136.6885  155.2893 N   0  0  0  0  0  0  0  0  0  0  0  0
  146.2855  137.3469  155.8868 C   0  0  0  0  0  0  0  0  0  0  0  0
  147.1402  138.2248  155.3584 N   0  0  0  0  0  0  0  0  0  0  0  0
  146.8941  138.4211  154.0316 C   0  0  0  0  0  0  0  0  0  0  0  0
  145.8723  137.7949  153.2630 C   0  0  0  0  0  0  0  0  0  0  0  0
  145.9324  138.2381  151.9467 N   0  0  0  0  0  0  0  0  0  0  0  0
  146.9282  139.0815  151.9389 C   0  0  0  0  0  0  0  0  0  0  0  0
  147.5658  139.2467  153.1470 N   0  0  0  0  0  0  0  0  0  0  0  0
  148.6971  140.1180  153.4147 C   0  0  0  0  0  0  0  0  0  0  0  0
  149.2392  139.9869  154.8598 C   0  0  2  0  0  0  0  0  0  0  0  0
  148.7781  141.1459  155.7771 C   0  0  0  0  0  0  0  0  0  0  0  0
  149.2533  142.3927  155.3126 O   0  0  0  0  0  0  0  0  0  0  0  0
  150.7779  139.8000  154.8789 C   0  0  2  0  0  0  0  0  0  0  0  0
  151.2628  138.4508  154.3775 C   0  0  0  0  0  0  0  0  0  0  0  0
  152.6788  138.3886  154.9388 C   0  0  0  0  0  0  0  0  0  0  0  0
  152.6339  139.0966  156.1721 O   0  0  0  0  0  0  0  0  0  0  0  0
  151.4107  139.8191  156.2745 C   0  0  0  0  0  0  0  0  0  0  0  0
  145.4058  134.1074  153.1965 C   0  0  0  0  0  0  0  0  0  0  0  0
  145.7712  132.9374  152.2587 C   0  0  2  0  0  0  0  0  0  0  0  0
  146.6170  133.3951  151.0502 C   0  0  0  0  0  0  0  0  0  0  0  0
  146.0687  129.1548  151.1868 H   0  0  0  0  0  0  0  0  0  0  0  0
  145.4107  129.6183  152.7458 H   0  0  0  0  0  0  0  0  0  0  0  0
  146.7517  130.5279  152.0493 H   0  0  0  0  0  0  0  0  0  0  0  0
  145.2800  131.2128  150.1360 H   0  0  0  0  0  0  0  0  0  0  0  0
  143.9088  130.4118  150.8680 H   0  0  0  0  0  0  0  0  0  0  0  0
  143.8412  133.4258  150.3032 H   0  0  0  0  0  0  0  0  0  0  0  0
  142.6079  132.4390  151.0445 H   0  0  0  0  0  0  0  0  0  0  0  0
  142.3475  134.8040  151.7231 H   0  0  0  0  0  0  0  0  0  0  0  0
  142.6376  133.7531  153.0922 H   0  0  0  0  0  0  0  0  0  0  0  0
  144.7312  135.4433  151.6575 H   0  0  0  0  0  0  0  0  0  0  0  0
  142.7070  137.8242  153.7336 H   0  0  0  0  0  0  0  0  0  0  0  0
  141.9814  136.4302  152.9399 H   0  0  0  0  0  0  0  0  0  0  0  0
  143.0668  137.4869  152.0363 H   0  0  0  0  0  0  0  0  0  0  0  0
  146.4171  137.1422  156.9392 H   0  0  0  0  0  0  0  0  0  0  0  0
  147.2302  139.6078  151.0449 H   0  0  0  0  0  0  0  0  0  0  0  0
  149.4738  139.8738  152.6901 H   0  0  0  0  0  0  0  0  0  0  0  0
  148.4027  141.1481  153.2112 H   0  0  0  0  0  0  0  0  0  0  0  0
  148.8030  139.0779  155.2767 H   0  0  0  0  0  0  0  0  0  0  0  0
  147.6909  141.1878  155.8415 H   0  0  0  0  0  0  0  0  0  0  0  0
  149.1318  140.9970  156.7971 H   0  0  0  0  0  0  0  0  0  0  0  0
  148.8296  143.0801  155.8034 H   0  0  0  0  0  0  0  0  0  0  0  0
  151.2485  140.5776  154.2746 H   0  0  0  0  0  0  0  0  0  0  0  0
  150.6580  137.6465  154.7988 H   0  0  0  0  0  0  0  0  0  0  0  0
  151.2438  138.3606  153.2911 H   0  0  0  0  0  0  0  0  0  0  0  0
  153.0294  137.3654  155.0772 H   0  0  0  0  0  0  0  0  0  0  0  0
  153.3747  138.8984  154.2714 H   0  0  0  0  0  0  0  0  0  0  0  0
  151.5856  140.8317  156.6390 H   0  0  0  0  0  0  0  0  0  0  0  0
  150.7729  139.3063  156.9962 H   0  0  0  0  0  0  0  0  0  0  0  0
  146.3049  134.6733  153.4418 H   0  0  0  0  0  0  0  0  0  0  0  0
  145.0406  133.6965  154.1385 H   0  0  0  0  0  0  0  0  0  0  0  0
  146.3963  132.2586  152.8407 H   0  0  0  0  0  0  0  0  0  0  0  0
  147.5040  133.9339  151.3846 H   0  0  0  0  0  0  0  0  0  0  0  0
  146.0674  134.0591  150.3840 H   0  0  0  0  0  0  0  0  0  0  0  0
  146.9665  132.5495  150.4583 H   0  0  0  0  0  0  0  0  0  0  0  0
  144.1592  131.8508  152.7468 H   0  0  0  0  0  0  0  0  0  0  0  0
  1  2  1  0  0  0  0
  1 30  1  0  0  0  0
  1 31  1  0  0  0  0
  1 32  1  0  0  0  0
  2  3  1  0  0  0  0
  2 33  1  0  0  0  0
  2 34  1  0  0  0  0
  3 28  1  0  0  0  0
  3  4  1  0  0  0  0
  3 64  1  0  0  0  0
  4  5  1  0  0  0  0
  4 35  1  0  0  0  0
  4 36  1  0  0  0  0
  5  6  1  0  0  0  0
  5 37  1  0  0  0  0
  5 38  1  0  0  0  0
  6  7  1  0  0  0  0
  6 27  1  0  0  0  0
  6 39  1  0  0  0  0
  7  8  1  0  0  0  0
  7  9  1  0  0  0  0
  8 40  1  0  0  0  0
  8 41  1  0  0  0  0
  8 42  1  0  0  0  0
  9 14  1  0  0  0  0
  9 10  2  0  0  0  0
 10 11  1  0  0  0  0
 11 12  2  0  0  0  0
 11 43  1  0  0  0  0
 12 13  1  0  0  0  0
 13 17  1  0  0  0  0
 13 14  2  0  0  0  0
 14 15  1  0  0  0  0
 15 16  2  0  0  0  0
 16 17  1  0  0  0  0
 16 44  1  0  0  0  0
 17 18  1  0  0  0  0
 18 19  1  0  0  0  0
 18 45  1  0  0  0  0
 18 46  1  0  0  0  0
 19 20  1  0  0  0  0
 19 22  1  0  0  0  0
 19 47  1  0  0  0  0
 20 21  1  0  0  0  0
 20 48  1  0  0  0  0
 20 49  1  0  0  0  0
 21 50  1  0  0  0  0
 22 26  1  0  0  0  0
 22 23  1  0  0  0  0
 22 51  1  0  0  0  0
 23 24  1  0  0  0  0
 23 52  1  0  0  0  0
 23 53  1  0  0  0  0
 24 25  1  0  0  0  0
 24 54  1  0  0  0  0
 24 55  1  0  0  0  0
 25 26  1  0  0  0  0
 26 56  1  0  0  0  0
 26 57  1  0  0  0  0
 27 28  1  0  0  0  0
 27 58  1  0  0  0  0
 27 59  1  0  0  0  0
 28 29  1  0  0  0  0
 28 60  1  0  0  0  0
 29 61  1  0  0  0  0
 29 62  1  0  0  0  0
 29 63  1  0  0  0  0
M  CHG  1   3   1
M  END
> <s_m_source_file>
AV-unprocessed.smi

> <i_m_source_file_index>
249

> <i_lp_mmshare_version>
43012

> <i_f3d_flags>
0

> <s_epik_input>
W0NIM11bQ0gyXU4xW0NIMl1bQ0gyXVtDQEhdKFtDSDJdW0NASF0xW0NIM10pTihbQ0gzXSljKG5bY0hdbjIpYyhjMjMpbltjSF1uM1tDSDJdW0NASF0oW0NIMl1bT0hdKVtDQEBIXTRbQ0gyXVtDSDJdT1tDSDJdNA==

> <s_epik_cmdline>
J2VwaWtfcHl0aG9uJywgJy1waCcsICc3LjAnLCAnLXRuJywgJzgnLCAnLW1hJywgJzIwMCcsICctbWV0YWxfYmluZGluZycsICctaW1hZScsICc8aW5maWxlLm1hZT4nLCAnLW9tYWUnLCAnPG91dGZpbGUubWFlPic=

> <r_lp_tautomer_probability>
1

> <r_epik_Ionization_Penalty>
0.00294688

> <r_epik_Ionization_Penalty_Charging>
0.00169971

> <r_epik_Ionization_Penalty_Neutral>
0.00124717

> <r_epik_State_Penalty>
-0

> <r_epik_Charging_Adjusted_Penalty>
0.00169971

> <i_epik_Tot_Q>
1

> <i_epik_Tot_abs_Q>
1

> <r_epik_Metal_State_Penalty>
-0

> <b_epik_Metal_Only>
0

> <s_lp_Force_Field>
OPLS_2005

> <r_lp_Energy>
54.2474

> <b_lp_Chiralities_Consistent>
1

> <s_lp_Variant>
AV-unprocessed.smi:249-17

> <Gold.Version>
5.8.1

> <Gold.Id.Protein>
6NUR|6NUR_protein|mol2

> <Gold.PLP.Fitness>
46.1623

> <Gold.PLP.PLP>
-41.0085

> <Gold.PLP.part.hbond>
-1.5660

> <Gold.PLP.part.metal>
0.0000

> <Gold.PLP.part.buried>
1.0162

> <Gold.PLP.part.nonpolar>
-41.7952

> <Gold.PLP.part.repulsive>
1.1302

> <Gold.PLP.ligand.clash>
0.0000

> <Gold.PLP.ligand.torsion>
1.2592

> <Gold.PLP.Chemscore.Hbond>
1.6240

> <Gold.PLP.Chemscore.CHOScore>
0.5885

> <Gold.PLP.Chemscore.Metal>
0.0000

> <Gold.Chemscore.Hbonds>
donor molecule, donor type, donor heavy atom, donor atom, acceptor molecule, acceptor atom, score
      L1  H    21    50       P1  8028  0.64
      P1  H  7997  8009       L1    25  1.00
      L1  C    16    44       P1  7957  0.60

> <Gold.PLP.Chemscore.Internal.Correction>
1.0347

> <Gold.Rescore>
     Score         DG    S(hbond)    S(metal)    S(lipo)     H(rot)  DE(clash)    DE(int)     intcor
      8.75     -15.65       1.43        0.00     109.53       2.90       4.23       2.67       ----

> <Gold.Chemscore.Fitness>
8.7534

> <Gold.Chemscore.DG>
-15.6497

> <Gold.Chemscore.ZeroCoef>
-5.4800

> <Gold.Chemscore.Hbond>
1.4314

> <Gold.Chemscore.Metal>
0.0000

> <Gold.Chemscore.Lipo>
109.5252

> <Gold.Chemscore.Internal_Hbond>
0.0000

> <Gold.Chemscore.DEClash>
4.2259

> <Gold.Chemscore.DEInternal>
2.6705

> <Gold.Chemscore.Rot>
2.9006

> <Gold.Chemscore.Internal.Correction>
   9.000000E+99

> <Gold.Chemscore.Hbonds>
donor molecule, donor type, donor heavy atom, donor atom, acceptor molecule, acceptor atom, score
      L1  H    21    50       P1  8028  0.64
      P1  H  7997  8009       L1    25  0.71

> <Gold.Chemscore.Hbond.Weighted>
-4.7809

> <Gold.Chemscore.Metal.Weighted>
-0.0000

> <Gold.Chemscore.Lipo.Weighted>
-12.8144

> <Gold.Chemscore.Internal_Hbond.Weighted>
0.0000

> <Gold.Chemscore.DEClash.Weighted>
4.2259

> <Gold.Chemscore.DEInternal.Weighted>
2.6705

> <Gold.Chemscore.Rot.Weighted>
7.4256

> <Gold.Chemscore.Internal.Correction.Weighted>
   9.000000E+99

> <Gold.Protein.RotatedTorsions>
[ 6907 6896 6895 6894 ] final  -53.57 input  -60.11 | X-H torsion
[ 7974 7965 7964 7962 ] final   79.58 input  175.53 | X-H torsion
[ 8008 7997 7996 7995 ] final -173.74 input   59.86 | X-H torsion
[ 10167 10162 10161 10158 ] final  107.25 input  -65.29 | X-H torsion
[ 10718 10713 10712 10709 ] final -144.47 input   66.30 | X-H torsion
[ 10763 10752 10751 10750 ] final -118.01 input  -60.55 | X-H torsion
[ 11005 11000 10999 10996 ] final -119.95 input  -57.11 | X-H torsion

> <Gold.Protein.ActiveResidues>
 VAL166  LYS551  ARG553  GLY616  TRP617  ASP618  TYR619  PRO620  LYS621  CYS622 
 ASP623  PHE694  ASN695  SER759  ASP760  ASP761  ALA762  ILE779  LEU786  VAL792 
 PHE793  MET794  SER795  GLU796  ALA797  LYS798  CYS799  TRP800  GLU811  SER814 

> <Gold.Protein.RotatedAtoms>
  150.8415  134.7709  159.6935 H   0  0  0  0  0  0  0  0  0  0  0  0  # atno 6907 bound_to 6896
  152.4501  134.5408  159.9848 H   0  0  0  0  0  0  0  0  0  0  0  0  # atno 6908 bound_to 6896
  151.5546  133.3374  159.2995 H   0  0  0  0  0  0  0  0  0  0  0  0  # atno 6909 bound_to 6896
  145.6623  139.2474  143.1915 H   0  0  0  0  0  0  0  0  0  0  0  0  # atno 7974 bound_to 7965
  155.9613  140.1145  157.0893 H   0  0  0  0  0  0  0  0  0  0  0  0  # atno 8008 bound_to 7997
  154.4133  140.1181  156.5250 H   0  0  0  0  0  0  0  0  0  0  0  0  # atno 8009 bound_to 7997
  155.6717  140.3473  155.4823 H   0  0  0  0  0  0  0  0  0  0  0  0  # atno 8010 bound_to 7997
  139.6942  144.7104  151.1296 H   0  0  0  0  0  0  0  0  0  0  0  0  # atno 10167 bound_to 10162
  156.3705  130.7785  151.1965 H   0  0  0  0  0  0  0  0  0  0  0  0  # atno 10718 bound_to 10713
  154.8574  135.4289  154.2071 H   0  0  0  0  0  0  0  0  0  0  0  0  # atno 10763 bound_to 10752
  153.3105  135.6975  153.7126 H   0  0  0  0  0  0  0  0  0  0  0  0  # atno 10764 bound_to 10752
  153.6221  135.3500  155.2988 H   0  0  0  0  0  0  0  0  0  0  0  0  # atno 10765 bound_to 10752
  141.0179  134.0168  157.3324 H   0  0  0  0  0  0  0  0  0  0  0  0  # atno 11005 bound_to 11000
  146.1115  140.7423  142.9501 LP  0  0  0  0  0  0  0  0  0  0  0  0  # atno 17320 bound_to 7965
  144.7085  140.3946  143.7099 LP  0  0  0  0  0  0  0  0  0  0  0  0  # atno 17321 bound_to 7965
  140.7691  143.5515  150.9199 LP  0  0  0  0  0  0  0  0  0  0  0  0  # atno 17342 bound_to 10162
  139.9194  143.6624  152.3100 LP  0  0  0  0  0  0  0  0  0  0  0  0  # atno 17343 bound_to 10162
  157.7483  131.0374  150.4453 LP  0  0  0  0  0  0  0  0  0  0  0  0  # atno 17370 bound_to 10713
  156.4679  130.4046  149.6536 LP  0  0  0  0  0  0  0  0  0  0  0  0  # atno 17371 bound_to 10713
  139.9128  135.0193  156.7760 LP  0  0  0  0  0  0  0  0  0  0  0  0  # atno 17394 bound_to 11000
  140.6624  133.9633  155.7812 LP  0  0  0  0  0  0  0  0  0  0  0  0  # atno 17395 bound_to 11000

$$$$
