#       Name:                AV-unprocessed.smi:170
#       Creating user name   scv26
#       Creation time:       Thu Mar 26 19:16:41 2020


#       File generated by GOLD software.
#

@<TRIPOS>MOLECULE
AV-unprocessed.smi:170
    67    71     1
SMALL
NO_CHARGES


@<TRIPOS>ATOM
      1 ****        -3.0886   2.6239   0.4283 O.3            1 S1                 0.0000
      2 ****        -3.4926   1.6359  -0.5011 C.3            1 S1                 0.0000
      3 ****        -2.9114   0.2605  -0.1209 C.3            1 S1                 0.0000
      4 ****        -1.4600   0.2629  -0.0873 N.pl3          1 S1                 0.0000
      5 ****        -0.6599   0.3828   1.0253 C.2            1 S1                 0.0000
      6 ****         0.6234   0.3572   0.7901 N.2            1 S1                 0.0000
      7 ****         0.7165   0.1999  -0.5884 C.ar           1 S1                 0.0000
      8 ****         1.7957   0.0845  -1.5132 C.ar           1 S1                 0.0000
      9 ****         3.1113   0.1019  -1.1922 N.3            1 S1                 0.0000
     10 ****         3.6262   1.4663  -1.2193 C.3            1 S1                 0.0000
     11 ****         5.1538   1.4639  -1.0747 C.3            1 S1                 0.0000
     12 ****         5.5040   0.7842   0.1229 O.3            1 S1                 0.0000
     13 ****         5.0873  -0.5763   0.1025 C.3            1 S1                 0.0000
     14 ****         3.5484  -0.6720  -0.0224 C.3            1 S1                 0.0000
     15 ****         3.0810  -2.1502  -0.0778 C.3            1 S1                 0.0000
     16 ****         3.3919  -2.9445   1.1889 C.3            1 S1                 0.0000
     17 ****         2.6755  -4.2789   1.4453 C.3            1 S1                 0.0000
     18 ****         2.6831  -3.9433   2.9394 C.3            1 S1                 0.0000
     19 ****         2.8337  -2.4732   2.5407 C.3            1 S1                 0.0000
     20 ****         1.4905  -0.0362  -2.8293 N.ar           1 S1                 0.0000
     21 ****         0.2135  -0.0652  -3.2222 C.ar           1 S1                 0.0000
     22 ****        -0.8917   0.0132  -2.4779 N.ar           1 S1                 0.0000
     23 ****        -0.5886   0.1486  -1.1551 C.ar           1 S1                 0.0000
     24 ****        -5.0288   1.6187  -0.6291 C.3            1 S1                 0.0000
     25 ****        -5.7024   2.9654  -0.9437 C.3            1 S1                 0.0000
     26 ****        -6.8182   3.0649   0.0849 C.3            1 S1                 0.0000
     27 ****        -6.9719   1.6312   0.5790 C.3            1 S1                 0.0000
     28 ****        -5.6400   1.1466   0.5661 O.3            1 S1                 0.0000
     29 ****        -3.4788   2.4213   1.2649 H              1 S1                 0.0000
     30 ****        -3.0799   1.9301  -1.4671 H              1 S1                 0.0000
     31 ****        -3.2804  -0.0581   0.8549 H              1 S1                 0.0000
     32 ****        -3.2341  -0.4957  -0.8376 H              1 S1                 0.0000
     33 ****        -1.0603   0.4948   2.0225 H              1 S1                 0.0000
     34 ****         3.3489   1.9588  -2.1524 H              1 S1                 0.0000
     35 ****         3.1759   2.0394  -0.4073 H              1 S1                 0.0000
     36 ****         5.6289   0.9877  -1.9339 H              1 S1                 0.0000
     37 ****         5.5290   2.4860  -1.0267 H              1 S1                 0.0000
     38 ****         5.5806  -1.1035  -0.7158 H              1 S1                 0.0000
     39 ****         5.4291  -1.0378   1.0284 H              1 S1                 0.0000
     40 ****         3.1262  -0.2025   0.8655 H              1 S1                 0.0000
     41 ****         2.0066  -2.2006  -0.2508 H              1 S1                 0.0000
     42 ****         3.5340  -2.6397  -0.9407 H              1 S1                 0.0000
     43 ****         4.4655  -3.1118   1.2931 H              1 S1                 0.0000
     44 ****         1.6680  -4.3097   1.0271 H              1 S1                 0.0000
     45 ****         3.2504  -5.1646   1.1733 H              1 S1                 0.0000
     46 ****         1.7593  -4.1819   3.4670 H              1 S1                 0.0000
     47 ****         3.5609  -4.3329   3.4576 H              1 S1                 0.0000
     48 ****         3.5354  -1.9023   3.1495 H              1 S1                 0.0000
     49 ****         1.8740  -1.9617   2.4471 H              1 S1                 0.0000
     50 ****         0.0542  -0.1667  -4.2857 H              1 S1                 0.0000
     51 ****        -5.3018   0.9133  -1.4161 H              1 S1                 0.0000
     52 ****        -5.0265   3.8177  -0.8706 H              1 S1                 0.0000
     53 ****        -6.1057   2.9551  -1.9569 H              1 S1                 0.0000
     54 ****        -6.5014   3.7041   0.9100 H              1 S1                 0.0000
     55 ****        -7.7425   3.4735  -0.3243 H              1 S1                 0.0000
     56 ****        -7.4145   1.5713   1.5733 H              1 S1                 0.0000
     57 ****        -7.5827   1.0436  -0.1084 H              1 S1                 0.0000
     58 ****        -3.3969   3.5240   0.1205 LP             1 S1                 0.0000
     59 ****        -2.0920   2.6232   0.5109 LP             1 S1                 0.0000
     60 ****         1.3701   0.4334   1.4509 LP             1 S1                 0.0000
     61 ****         3.5432  -0.4309  -1.9199 LP             1 S1                 0.0000
     62 ****         5.0669   1.2446   0.8956 LP             1 S1                 0.0000
     63 ****         6.4973   0.8164   0.2343 LP             1 S1                 0.0000
     64 ****         2.2227  -0.1036  -3.5071 LP             1 S1                 0.0000
     65 ****        -1.8219  -0.0227  -2.8431 LP             1 S1                 0.0000
     66 ****        -5.1432   1.4901   1.3631 LP             1 S1                 0.0000
     67 ****        -5.6396   0.1467   0.5786 LP             1 S1                 0.0000
@<TRIPOS>BOND
    1    1    2 1     
    2    1   29 1     
    3    2    3 1     
    4    2   24 1     
    5    2   30 1     
    6    3    4 1     
    7    3   31 1     
    8    3   32 1     
    9    4   23 1     
   10    4    5 1     
   11    5    6 2     
   12    5   33 1     
   13    6    7 1     
   14    7   23 ar    
   15    7    8 ar    
   16    8    9 1     
   17    8   20 ar    
   18    9   14 1     
   19    9   10 1     
   20   10   11 1     
   21   10   34 1     
   22   10   35 1     
   23   11   12 1     
   24   11   36 1     
   25   11   37 1     
   26   12   13 1     
   27   13   14 1     
   28   13   38 1     
   29   13   39 1     
   30   14   15 1     
   31   14   40 1     
   32   15   16 1     
   33   15   41 1     
   34   15   42 1     
   35   16   19 1     
   36   16   17 1     
   37   16   43 1     
   38   17   18 1     
   39   17   44 1     
   40   17   45 1     
   41   18   19 1     
   42   18   46 1     
   43   18   47 1     
   44   19   48 1     
   45   19   49 1     
   46   20   21 ar    
   47   21   22 ar    
   48   21   50 1     
   49   22   23 ar    
   50   24   28 1     
   51   24   25 1     
   52   24   51 1     
   53   25   26 1     
   54   25   52 1     
   55   25   53 1     
   56   26   27 1     
   57   26   54 1     
   58   26   55 1     
   59   27   28 1     
   60   27   56 1     
   61   27   57 1     
   62    1   58 1     
   63    1   59 1     
   64    6   60 1     
   65    9   61 1     
   66   12   62 1     
   67   12   63 1     
   68   20   64 1     
   69   22   65 1     
   70   28   66 1     
   71   28   67 1     
@<TRIPOS>SUBSTRUCTURE
      1 S1             1
@<TRIPOS>SET
LONE_PAIRS      STATIC     ATOMS    <user>   **** ""
10 58 59 60 61 62 63 64 65 66 67
DONOR_HYDROGENS      STATIC     ATOMS    <user>   **** ""
1 29
ATOM$BLUE        STATIC     ATOMS    COLORGROUP SYSTEM
10 58 59 60 61 62 63 64 65 66 67
ATOM$RED        STATIC     ATOMS    COLORGROUP SYSTEM
1 29
