AV-unprocessed.smi:2546|AV-procd|sdf|9997|dock5
  -GOLD-   2272014 43D 1   1.00000     0.00000
 Structure written by MMmdl.
 17 17  0  0  0  0  0  0  0  0  2 V2000
  147.8822  138.8331  152.6210 N   0  3  0  0  0  0  0  0  0  0  0  0
  148.0612  139.0085  154.0720 C   0  0  0  0  0  0  0  0  0  0  0  0
  149.2262  139.9582  154.3833 C   0  0  0  0  0  0  0  0  0  0  0  0
  150.5094  139.2212  154.5804 C   0  0  0  0  0  0  0  0  0  0  0  0
  150.5312  137.8924  154.6953 N   0  0  0  0  0  0  0  0  0  0  0  0
  151.8440  137.6485  154.9000 N   0  0  0  0  0  0  0  0  0  0  0  0
  152.4991  138.8083  154.9100 C   0  0  0  0  0  0  0  0  0  0  0  0
  151.7114  139.8590  154.7216 N   0  0  0  0  0  0  0  0  0  0  0  0
  148.2300  137.9252  152.3468 H   0  0  0  0  0  0  0  0  0  0  0  0
  148.3933  139.5510  152.1274 H   0  0  0  0  0  0  0  0  0  0  0  0
  147.1331  139.3961  154.4942 H   0  0  0  0  0  0  0  0  0  0  0  0
  148.2379  138.0317  154.5232 H   0  0  0  0  0  0  0  0  0  0  0  0
  149.3504  140.6803  153.5748 H   0  0  0  0  0  0  0  0  0  0  0  0
  149.0099  140.5356  155.2833 H   0  0  0  0  0  0  0  0  0  0  0  0
  153.5659  138.8857  155.0614 H   0  0  0  0  0  0  0  0  0  0  0  0
  146.9008  138.8995  152.3911 H   0  0  0  0  0  0  0  0  0  0  0  0
  152.2244  136.7211  155.0260 H   0  0  0  0  0  0  0  0  0  0  0  0
  1  2  1  0  0  0  0
  1  9  1  0  0  0  0
  1 10  1  0  0  0  0
  1 16  1  0  0  0  0
  2  3  1  0  0  0  0
  2 11  1  0  0  0  0
  2 12  1  0  0  0  0
  3 13  1  0  0  0  0
  3 14  1  0  0  0  0
  3  4  1  0  0  0  0
  4  8  1  0  0  0  0
  4  5  2  0  0  0  0
  5  6  1  0  0  0  0
  6  7  1  0  0  0  0
  6 17  1  0  0  0  0
  7  8  2  0  0  0  0
  7 15  1  0  0  0  0
M  CHG  1   1   1
M  END
> <s_m_source_file>
AV-unprocessed.smi

> <i_m_source_file_index>
2546

> <i_lp_mmshare_version>
43012

> <i_f3d_flags>
0

> <s_epik_input>
W05IMl1bQ0gyXVtDSDJdYzFubltjSF1bbkhdMQ==

> <s_epik_cmdline>
J2VwaWtfcHl0aG9uJywgJy1waCcsICc3LjAnLCAnLXRuJywgJzgnLCAnLW1hJywgJzIwMCcsICctbWV0YWxfYmluZGluZycsICctaW1hZScsICc8aW5maWxlLm1hZT4nLCAnLW9tYWUnLCAnPG91dGZpbGUubWFlPic=

> <r_lp_tautomer_probability>
0.948284

> <r_epik_Ionization_Penalty>
0.0140863

> <r_epik_Ionization_Penalty_Charging>
0.00364136

> <r_epik_Ionization_Penalty_Neutral>
0.0104449

> <r_epik_State_Penalty>
0.423825

> <r_epik_Charging_Adjusted_Penalty>
0.427466

> <i_epik_Tot_Q>
1

> <i_epik_Tot_abs_Q>
1

> <r_epik_Metal_State_Penalty>
0.652581

> <b_epik_Metal_Only>
0

> <s_lp_Force_Field>
OPLS_2005

> <r_lp_Energy>
-0.0945918

> <b_lp_Chiralities_Consistent>
1

> <s_lp_Variant>
AV-unprocessed.smi:2546-1

> <Gold.Version>
5.8.1

> <Gold.Id.Protein>
6NUR|6NUR_protein|mol2

> <Gold.PLP.Fitness>
26.8994

> <Gold.PLP.PLP>
-15.4820

> <Gold.PLP.part.hbond>
-2.8972

> <Gold.PLP.part.metal>
0.0000

> <Gold.PLP.part.buried>
-3.4806

> <Gold.PLP.part.nonpolar>
-9.9743

> <Gold.PLP.part.repulsive>
0.4438

> <Gold.PLP.ligand.clash>
0.0000

> <Gold.PLP.ligand.torsion>
0.2943

> <Gold.PLP.Chemscore.Hbond>
4.0000

> <Gold.PLP.Chemscore.CHOScore>
0.0000

> <Gold.PLP.Chemscore.Metal>
0.0000

> <Gold.Chemscore.Hbonds>
donor molecule, donor type, donor heavy atom, donor atom, acceptor molecule, acceptor atom, score
      L1  H     1     9       P1  7948  2.00
      L1  H     1    10       P1  7957  1.00
      P1  H  7989  7998       L1     8  1.00

> <Gold.PLP.Chemscore.Internal.Correction>
0.0060

> <Gold.Rescore>
     Score         DG    S(hbond)    S(metal)    S(lipo)     H(rot)  DE(clash)    DE(int)     intcor
     12.05     -12.41       2.95        0.00      11.47       1.67       0.04       0.32       ----

> <Gold.Chemscore.Fitness>
12.0464

> <Gold.Chemscore.DG>
-12.4052

> <Gold.Chemscore.ZeroCoef>
-5.4800

> <Gold.Chemscore.Hbond>
2.9500

> <Gold.Chemscore.Metal>
0.0000

> <Gold.Chemscore.Lipo>
11.4705

> <Gold.Chemscore.Internal_Hbond>
0.0000

> <Gold.Chemscore.DEClash>
0.0354

> <Gold.Chemscore.DEInternal>
0.3234

> <Gold.Chemscore.Rot>
1.6679

> <Gold.Chemscore.Internal.Correction>
   9.000000E+99

> <Gold.Chemscore.Hbonds>
donor molecule, donor type, donor heavy atom, donor atom, acceptor molecule, acceptor atom, score
      L1  H     1     9       P1  7948  1.00
      L1  H     1    10       P1  7957  0.94
      P1  H  7989  7998       L1     8  0.28

> <Gold.Chemscore.Hbond.Weighted>
-9.8529

> <Gold.Chemscore.Metal.Weighted>
-0.0000

> <Gold.Chemscore.Lipo.Weighted>
-1.3421

> <Gold.Chemscore.Internal_Hbond.Weighted>
0.0000

> <Gold.Chemscore.DEClash.Weighted>
0.0354

> <Gold.Chemscore.DEInternal.Weighted>
0.3234

> <Gold.Chemscore.Rot.Weighted>
4.2697

> <Gold.Chemscore.Internal.Correction.Weighted>
   9.000000E+99

> <Gold.Protein.RotatedTorsions>
[ 6907 6896 6895 6894 ] final -117.83 input  -60.11 | X-H torsion
[ 7974 7965 7964 7962 ] final -114.41 input  175.53 | X-H torsion
[ 8008 7997 7996 7995 ] final    3.47 input   59.86 | X-H torsion
[ 10167 10162 10161 10158 ] final   94.90 input  -65.29 | X-H torsion
[ 10718 10713 10712 10709 ] final  -77.31 input   66.30 | X-H torsion
[ 10763 10752 10751 10750 ] final   12.10 input  -60.55 | X-H torsion
[ 11005 11000 10999 10996 ] final  -47.71 input  -57.11 | X-H torsion

> <Gold.Protein.ActiveResidues>
 VAL166  LYS551  ARG553  GLY616  TRP617  ASP618  TYR619  PRO620  LYS621  CYS622 
 ASP623  PHE694  ASN695  SER759  ASP760  ASP761  ALA762  ILE779  LEU786  VAL792 
 PHE793  MET794  SER795  GLU796  ALA797  LYS798  CYS799  TRP800  GLU811  SER814 

> <Gold.Protein.RotatedAtoms>
  150.8169  133.8322  159.3156 H   0  0  0  0  0  0  0  0  0  0  0  0  # atno 6907 bound_to 6896
  151.6091  135.1040  160.0087 H   0  0  0  0  0  0  0  0  0  0  0  0  # atno 6908 bound_to 6896
  152.4260  133.7155  159.6560 H   0  0  0  0  0  0  0  0  0  0  0  0  # atno 6909 bound_to 6896
  145.1205  140.8666  143.3816 H   0  0  0  0  0  0  0  0  0  0  0  0  # atno 7974 bound_to 7965
  154.7040  140.2679  155.6692 H   0  0  0  0  0  0  0  0  0  0  0  0  # atno 8008 bound_to 7997
  156.2774  140.2766  156.1584 H   0  0  0  0  0  0  0  0  0  0  0  0  # atno 8009 bound_to 7997
  155.0725  140.0372  157.2603 H   0  0  0  0  0  0  0  0  0  0  0  0  # atno 8010 bound_to 7997
  139.8039  144.6802  150.9728 H   0  0  0  0  0  0  0  0  0  0  0  0  # atno 10167 bound_to 10162
  156.0149  130.4488  150.3326 H   0  0  0  0  0  0  0  0  0  0  0  0  # atno 10718 bound_to 10713
  153.1857  135.6834  153.8418 H   0  0  0  0  0  0  0  0  0  0  0  0  # atno 10763 bound_to 10752
  153.7735  135.3192  155.3356 H   0  0  0  0  0  0  0  0  0  0  0  0  # atno 10764 bound_to 10752
  154.8087  135.4731  154.0556 H   0  0  0  0  0  0  0  0  0  0  0  0  # atno 10765 bound_to 10752
  141.0657  133.6694  156.3336 H   0  0  0  0  0  0  0  0  0  0  0  0  # atno 11005 bound_to 11000
  145.0745  139.3006  143.5815 LP  0  0  0  0  0  0  0  0  0  0  0  0  # atno 17320 bound_to 7965
  146.3521  140.0231  142.8657 LP  0  0  0  0  0  0  0  0  0  0  0  0  # atno 17321 bound_to 7965
  140.7819  143.4253  151.0778 LP  0  0  0  0  0  0  0  0  0  0  0  0  # atno 17342 bound_to 10162
  139.7923  143.8201  152.3153 LP  0  0  0  0  0  0  0  0  0  0  0  0  # atno 17343 bound_to 10162
  157.1423  131.0300  151.2922 LP  0  0  0  0  0  0  0  0  0  0  0  0  # atno 17370 bound_to 10713
  157.4461  130.7572  149.7111 LP  0  0  0  0  0  0  0  0  0  0  0  0  # atno 17371 bound_to 10713
  140.5778  134.5776  157.5472 LP  0  0  0  0  0  0  0  0  0  0  0  0  # atno 17394 bound_to 11000
  139.9474  134.7678  156.0529 LP  0  0  0  0  0  0  0  0  0  0  0  0  # atno 17395 bound_to 11000

$$$$
