#       Name:                AV-unprocessed.smi:467
#       Creating user name   scv26
#       Creation time:       Thu Mar 26 23:05:57 2020


#       File generated by GOLD software.
#

@<TRIPOS>MOLECULE
AV-unprocessed.smi:467
    50    52     1
SMALL
NO_CHARGES


@<TRIPOS>ATOM
      1 ****        -3.2306   3.8284   3.7021 C.3            1 S1                 0.0000
      2 ****        -2.8122   2.9129   2.5640 C.ar           1 S1                 0.0000
      3 ****        -3.0226   3.3488   1.2363 C.ar           1 S1                 0.0000
      4 ****        -2.6260   2.4913   0.2169 C.ar           1 S1                 0.0000
      5 ****        -2.6915   2.6299  -1.1711 N.pl3          1 S1                 1.0000
      6 ****        -2.1734   1.5187  -1.7638 C.2            1 S1                 0.0000
      7 ****        -1.7816   0.6702  -0.7750 N.pl3          1 S1                 0.0000
      8 ****        -1.1685  -0.6626  -0.8717 C.3            1 S1                 0.0000
      9 ****         0.3671  -0.6127  -0.9945 C.3            1 S1                 0.0000
     10 ****         0.9154  -0.0066   0.1593 O.3            1 S1                 0.0000
     11 ****         0.9669  -2.0262  -1.1319 C.3            1 S1                 0.0000
     12 ****         2.4103  -2.0794  -1.3724 N.3            1 S1                 0.0000
     13 ****         2.7878  -1.5690  -2.6894 C.3            1 S1                 0.0000
     14 ****         4.3055  -1.6626  -2.9268 C.3            1 S1                 0.0000
     15 ****         4.7353  -3.0097  -2.7619 O.3            1 S1                 0.0000
     16 ****         4.4273  -3.5289  -1.4727 C.3            1 S1                 0.0000
     17 ****         2.9099  -3.4436  -1.2346 C.3            1 S1                 0.0000
     18 ****        -2.0427   1.2363   0.4790 C.ar           1 S1                 0.0000
     19 ****        -1.8296   0.7917   1.7818 C.ar           1 S1                 0.0000
     20 ****        -2.2202   1.6516   2.8330 C.ar           1 S1                 0.0000
     21 ****        -1.9883   1.1967   4.2638 C.3            1 S1                 0.0000
     22 ****        -3.7226   4.7278   3.3305 H              1 S1                 0.0000
     23 ****        -2.3605   4.1385   4.2813 H              1 S1                 0.0000
     24 ****        -3.9281   3.3209   4.3686 H              1 S1                 0.0000
     25 ****        -3.4701   4.3088   1.0237 H              1 S1                 0.0000
     26 ****        -2.0904   1.3416  -2.8265 H              1 S1                 0.0000
     27 ****        -1.4809  -1.2653  -0.0185 H              1 S1                 0.0000
     28 ****        -1.5923  -1.1434  -1.7542 H              1 S1                 0.0000
     29 ****         0.6206  -0.0002  -1.8588 H              1 S1                 0.0000
     30 ****         1.8573  -0.0112   0.0766 H              1 S1                 0.0000
     31 ****         0.7358  -2.5783  -0.2194 H              1 S1                 0.0000
     32 ****         0.4529  -2.5573  -1.9347 H              1 S1                 0.0000
     33 ****         2.2655  -2.1281  -3.4674 H              1 S1                 0.0000
     34 ****         2.4876  -0.5278  -2.7971 H              1 S1                 0.0000
     35 ****         4.5533  -1.3298  -3.9347 H              1 S1                 0.0000
     36 ****         4.8449  -1.0149  -2.2338 H              1 S1                 0.0000
     37 ****         4.7631  -4.5643  -1.4158 H              1 S1                 0.0000
     38 ****         4.9707  -2.9719  -0.7080 H              1 S1                 0.0000
     39 ****         2.6818  -3.8224  -0.2375 H              1 S1                 0.0000
     40 ****         2.3975  -4.0988  -1.9411 H              1 S1                 0.0000
     41 ****        -1.3746  -0.1660   1.9871 H              1 S1                 0.0000
     42 ****        -1.5002   0.2223   4.2985 H              1 S1                 0.0000
     43 ****        -2.9349   1.1143   4.7984 H              1 S1                 0.0000
     44 ****        -1.3515   1.9060   4.7929 H              1 S1                 0.0000
     45 ****        -3.0612   3.4235  -1.6787 H              1 S1                 0.0000
     46 ****         0.6446  -0.5210   0.9729 LP             1 S1                 0.0000
     47 ****         0.5869   0.9349   0.2355 LP             1 S1                 0.0000
     48 ****         2.8250  -1.4878  -0.6810 LP             1 S1                 0.0000
     49 ****         5.7257  -3.0483  -2.8945 LP             1 S1                 0.0000
     50 ****         4.2843  -3.5764  -3.4515 LP             1 S1                 0.0000
@<TRIPOS>BOND
    1    1    2 1     
    2    1   22 1     
    3    1   23 1     
    4    1   24 1     
    5    2   20 ar    
    6    2    3 ar    
    7    3    4 ar    
    8    3   25 1     
    9    4   18 ar    
   10    4    5 1     
   11    5    6 2     
   12    5   45 1     
   13    6    7 1     
   14    6   26 1     
   15    7    8 1     
   16    7   18 1     
   17    8    9 1     
   18    8   27 1     
   19    8   28 1     
   20    9   10 1     
   21    9   11 1     
   22    9   29 1     
   23   10   30 1     
   24   11   12 1     
   25   11   31 1     
   26   11   32 1     
   27   12   17 1     
   28   12   13 1     
   29   13   14 1     
   30   13   33 1     
   31   13   34 1     
   32   14   15 1     
   33   14   35 1     
   34   14   36 1     
   35   15   16 1     
   36   16   17 1     
   37   16   37 1     
   38   16   38 1     
   39   17   39 1     
   40   17   40 1     
   41   18   19 ar    
   42   19   20 ar    
   43   19   41 1     
   44   20   21 1     
   45   21   42 1     
   46   21   43 1     
   47   21   44 1     
   48   10   46 1     
   49   10   47 1     
   50   12   48 1     
   51   15   49 1     
   52   15   50 1     
@<TRIPOS>SUBSTRUCTURE
      1 S1             1
@<TRIPOS>SET
LONE_PAIRS      STATIC     ATOMS    <user>   **** ""
5 46 47 48 49 50
DONOR_HYDROGENS      STATIC     ATOMS    <user>   **** ""
2 45 30
ATOM$BLUE        STATIC     ATOMS    COLORGROUP SYSTEM
5 46 47 48 49 50
ATOM$RED        STATIC     ATOMS    COLORGROUP SYSTEM
2 45 30
