AV-unprocessed.smi:3284|AV-procd|sdf|12572|dock6
  -GOLD-   2272018493D 1   1.00000     0.00000
 Structure written by MMmdl.
 44 45  0  0  0  0  0  0  0  0  2 V2000
  151.0713  139.5862  154.8680 C   0  0  0  0  0  0  0  0  0  0  0  0
  149.5947  139.6949  154.5236 C   0  0  0  0  0  0  0  0  0  0  0  0
  148.9092  138.6225  154.0798 C   0  0  0  0  0  0  0  0  0  0  0  0
  147.4526  138.6413  153.6502 C   0  0  0  0  0  0  0  0  0  0  0  0
  146.7550  139.9826  153.9315 C   0  0  0  0  0  0  0  0  0  0  0  0
  147.7063  141.1719  153.7106 C   0  0  1  0  0  0  0  0  0  0  0  0
  146.9680  142.5206  153.7646 C   0  0  0  0  0  0  0  0  0  0  0  0
  148.9428  141.0785  154.6492 C   0  0  1  0  0  0  0  0  0  0  0  0
  148.6111  141.4438  156.1204 C   0  0  0  0  0  0  0  0  0  0  0  0
  149.6675  142.2438  156.7703 N   0  3  0  0  0  0  0  0  0  0  0  0
  149.8689  141.9290  158.1977 C   0  0  0  0  0  0  0  0  0  0  0  0
  151.3603  141.9183  158.5560 C   0  0  0  0  0  0  0  0  0  0  0  0
  151.7390  143.0623  159.4442 C   0  0  0  0  0  0  0  0  0  0  0  0
  151.7912  142.9753  160.7697 N   0  0  0  0  0  0  0  0  0  0  0  0
  152.2013  144.2354  161.1923 C   0  0  0  0  0  0  0  0  0  0  0  0
  152.3910  145.0435  160.0975 C   0  0  0  0  0  0  0  0  0  0  0  0
  152.0969  144.2749  158.9789 N   0  0  0  0  0  0  0  0  0  0  0  0
  152.1711  144.7163  157.5997 C   0  0  0  0  0  0  0  0  0  0  0  0
  151.6365  140.3842  154.3858 H   0  0  0  0  0  0  0  0  0  0  0  0
  151.4841  138.6369  154.5251 H   0  0  0  0  0  0  0  0  0  0  0  0
  151.2381  139.6400  155.9423 H   0  0  0  0  0  0  0  0  0  0  0  0
  149.4121  137.6714  153.9800 H   0  0  0  0  0  0  0  0  0  0  0  0
  147.4274  138.4337  152.5799 H   0  0  0  0  0  0  0  0  0  0  0  0
  146.9170  137.8283  154.1410 H   0  0  0  0  0  0  0  0  0  0  0  0
  145.8759  140.0719  153.2921 H   0  0  0  0  0  0  0  0  0  0  0  0
  146.3822  139.9939  154.9560 H   0  0  0  0  0  0  0  0  0  0  0  0
  148.0845  141.0863  152.6901 H   0  0  0  0  0  0  0  0  0  0  0  0
  146.4170  142.6479  154.6964 H   0  0  0  0  0  0  0  0  0  0  0  0
  146.2448  142.5969  152.9521 H   0  0  0  0  0  0  0  0  0  0  0  0
  147.6622  143.3552  153.6630 H   0  0  0  0  0  0  0  0  0  0  0  0
  149.6667  141.8071  154.2811 H   0  0  0  0  0  0  0  0  0  0  0  0
  147.6947  142.0303  156.1734 H   0  0  0  0  0  0  0  0  0  0  0  0
  148.4444  140.5390  156.7057 H   0  0  0  0  0  0  0  0  0  0  0  0
  150.5353  142.0806  156.2800 H   0  0  0  0  0  0  0  0  0  0  0  0
  149.3439  142.6684  158.8042 H   0  0  0  0  0  0  0  0  0  0  0  0
  149.4266  140.9566  158.4188 H   0  0  0  0  0  0  0  0  0  0  0  0
  151.6294  140.9768  159.0358 H   0  0  0  0  0  0  0  0  0  0  0  0
  151.9600  141.9778  157.6468 H   0  0  0  0  0  0  0  0  0  0  0  0
  152.3288  144.4607  162.2410 H   0  0  0  0  0  0  0  0  0  0  0  0
  152.7061  146.0742  160.0248 H   0  0  0  0  0  0  0  0  0  0  0  0
  152.6045  145.7157  157.5473 H   0  0  0  0  0  0  0  0  0  0  0  0
  151.1708  144.7433  157.1666 H   0  0  0  0  0  0  0  0  0  0  0  0
  152.7951  144.0330  157.0232 H   0  0  0  0  0  0  0  0  0  0  0  0
  149.4275  143.2215  156.6867 H   0  0  0  0  0  0  0  0  0  0  0  0
  1  2  1  0  0  0  0
  1 19  1  0  0  0  0
  1 20  1  0  0  0  0
  1 21  1  0  0  0  0
  2  8  1  0  0  0  0
  2  3  2  0  0  0  0
  3  4  1  0  0  0  0
  3 22  1  0  0  0  0
  4  5  1  0  0  0  0
  4 23  1  0  0  0  0
  4 24  1  0  0  0  0
  5  6  1  0  0  0  0
  5 25  1  0  0  0  0
  5 26  1  0  0  0  0
  6  7  1  0  0  0  0
  6  8  1  0  0  0  0
  6 27  1  0  0  0  0
  7 28  1  0  0  0  0
  7 29  1  0  0  0  0
  7 30  1  0  0  0  0
  8  9  1  0  0  0  0
  8 31  1  0  0  0  0
  9 10  1  0  0  0  0
  9 32  1  0  0  0  0
  9 33  1  0  0  0  0
 10 11  1  0  0  0  0
 10 34  1  0  0  0  0
 10 44  1  0  0  0  0
 11 12  1  0  0  0  0
 11 35  1  0  0  0  0
 11 36  1  0  0  0  0
 12 13  1  0  0  0  0
 12 37  1  0  0  0  0
 12 38  1  0  0  0  0
 13 17  1  0  0  0  0
 13 14  2  0  0  0  0
 14 15  1  0  0  0  0
 15 16  2  0  0  0  0
 15 39  1  0  0  0  0
 16 17  1  0  0  0  0
 16 40  1  0  0  0  0
 17 18  1  0  0  0  0
 18 41  1  0  0  0  0
 18 42  1  0  0  0  0
 18 43  1  0  0  0  0
M  CHG  1  10   1
M  END
> <s_m_source_file>
AV-unprocessed.smi

> <i_m_source_file_index>
3284

> <i_lp_mmshare_version>
43012

> <i_f3d_flags>
0

> <s_epik_input>
W0NIM11DMT1bQ0hdW0NIMl1bQ0gyXVtDQEBIXShbQ0gzXSlbQ0BIXTFbQ0gyXVtOSF1bQ0gyXVtDSDJdYzJuW2NIXVtjSF1uMltDSDNd

> <s_epik_cmdline>
J2VwaWtfcHl0aG9uJywgJy1waCcsICc3LjAnLCAnLXRuJywgJzgnLCAnLW1hJywgJzIwMCcsICctbWV0YWxfYmluZGluZycsICctaW1hZScsICc8aW5maWxlLm1hZT4nLCAnLW9tYWUnLCAnPG91dGZpbGUubWFlPic=

> <r_lp_tautomer_probability>
1

> <r_epik_Ionization_Penalty>
0.150779

> <r_epik_Ionization_Penalty_Charging>
0.150779

> <r_epik_Ionization_Penalty_Neutral>
1.39452e-13

> <r_epik_State_Penalty>
0.349447

> <r_epik_Charging_Adjusted_Penalty>
0.500226

> <i_epik_Tot_Q>
1

> <i_epik_Tot_abs_Q>
1

> <r_epik_Metal_State_Penalty>
0.000470967

> <b_epik_Metal_Only>
0

> <s_lp_Force_Field>
OPLS_2005

> <r_lp_Energy>
13.2562

> <b_lp_Chiralities_Consistent>
1

> <s_lp_Variant>
AV-unprocessed.smi:3284-1

> <Gold.Version>
5.8.1

> <Gold.Id.Protein>
6NUR|6NUR_protein|mol2

> <Gold.PLP.Fitness>
44.9265

> <Gold.PLP.PLP>
-42.3312

> <Gold.PLP.part.hbond>
-2.0000

> <Gold.PLP.part.metal>
0.0000

> <Gold.PLP.part.buried>
-4.5336

> <Gold.PLP.part.nonpolar>
-36.7048

> <Gold.PLP.part.repulsive>
0.1006

> <Gold.PLP.ligand.clash>
0.0000

> <Gold.PLP.ligand.torsion>
1.7626

> <Gold.PLP.Chemscore.Hbond>
2.0240

> <Gold.PLP.Chemscore.CHOScore>
0.0000

> <Gold.PLP.Chemscore.Metal>
0.0000

> <Gold.Chemscore.Hbonds>
donor molecule, donor type, donor heavy atom, donor atom, acceptor molecule, acceptor atom, score
      L1  H    10    44       P1  8028  2.00

> <Gold.PLP.Chemscore.Internal.Correction>
0.0485

> <Gold.Rescore>
     Score         DG    S(hbond)    S(metal)    S(lipo)     H(rot)  DE(clash)    DE(int)     intcor
     14.26     -16.78       0.97        0.00     104.15       1.61       1.00       1.52       ----

> <Gold.Chemscore.Fitness>
14.2604

> <Gold.Chemscore.DG>
-16.7828

> <Gold.Chemscore.ZeroCoef>
-5.4800

> <Gold.Chemscore.Hbond>
0.9703

> <Gold.Chemscore.Metal>
0.0000

> <Gold.Chemscore.Lipo>
104.1461

> <Gold.Chemscore.Internal_Hbond>
0.0000

> <Gold.Chemscore.DEClash>
0.9976

> <Gold.Chemscore.DEInternal>
1.5248

> <Gold.Chemscore.Rot>
1.6105

> <Gold.Chemscore.Internal.Correction>
   9.000000E+99

> <Gold.Chemscore.Hbonds>
donor molecule, donor type, donor heavy atom, donor atom, acceptor molecule, acceptor atom, score
      L1  H    10    44       P1  8028  0.96

> <Gold.Chemscore.Hbond.Weighted>
-3.2407

> <Gold.Chemscore.Metal.Weighted>
-0.0000

> <Gold.Chemscore.Lipo.Weighted>
-12.1851

> <Gold.Chemscore.Internal_Hbond.Weighted>
0.0000

> <Gold.Chemscore.DEClash.Weighted>
0.9976

> <Gold.Chemscore.DEInternal.Weighted>
1.5248

> <Gold.Chemscore.Rot.Weighted>
4.1230

> <Gold.Chemscore.Internal.Correction.Weighted>
   9.000000E+99

> <Gold.Protein.RotatedTorsions>
[ 6907 6896 6895 6894 ] final  -25.70 input  -60.11 | X-H torsion
[ 7974 7965 7964 7962 ] final  -79.97 input  175.53 | X-H torsion
[ 8008 7997 7996 7995 ] final  111.36 input   59.86 | X-H torsion
[ 10167 10162 10161 10158 ] final  168.82 input  -65.29 | X-H torsion
[ 10718 10713 10712 10709 ] final  -69.95 input   66.30 | X-H torsion
[ 10763 10752 10751 10750 ] final  -72.65 input  -60.55 | X-H torsion
[ 11005 11000 10999 10996 ] final  150.89 input  -57.11 | X-H torsion

> <Gold.Protein.ActiveResidues>
 VAL166  LYS551  ARG553  GLY616  TRP617  ASP618  TYR619  PRO620  LYS621  CYS622 
 ASP623  PHE694  ASN695  SER759  ASP760  ASP761  ALA762  ILE779  LEU786  VAL792 
 PHE793  MET794  SER795  GLU796  ALA797  LYS798  CYS799  TRP800  GLU811  SER814 

> <Gold.Protein.RotatedAtoms>
  151.1714  135.0319  159.8753 H   0  0  0  0  0  0  0  0  0  0  0  0  # atno 6907 bound_to 6896
  152.5448  134.1166  159.8391 H   0  0  0  0  0  0  0  0  0  0  0  0  # atno 6908 bound_to 6896
  151.1272  133.5015  159.2632 H   0  0  0  0  0  0  0  0  0  0  0  0  # atno 6909 bound_to 6896
  145.5662  140.9474  143.1420 H   0  0  0  0  0  0  0  0  0  0  0  0  # atno 7974 bound_to 7965
  156.2118  140.3021  155.9750 H   0  0  0  0  0  0  0  0  0  0  0  0  # atno 8008 bound_to 7997
  155.2704  140.0433  157.3023 H   0  0  0  0  0  0  0  0  0  0  0  0  # atno 8009 bound_to 7997
  154.5711  140.2348  155.8199 H   0  0  0  0  0  0  0  0  0  0  0  0  # atno 8010 bound_to 7997
  139.4977  144.3773  151.9661 H   0  0  0  0  0  0  0  0  0  0  0  0  # atno 10167 bound_to 10162
  156.0431  130.4322  150.2224 H   0  0  0  0  0  0  0  0  0  0  0  0  # atno 10718 bound_to 10713
  154.4486  135.5923  153.6176 H   0  0  0  0  0  0  0  0  0  0  0  0  # atno 10763 bound_to 10752
  152.9811  135.6015  154.3633 H   0  0  0  0  0  0  0  0  0  0  0  0  # atno 10764 bound_to 10752
  154.3492  135.2841  155.2360 H   0  0  0  0  0  0  0  0  0  0  0  0  # atno 10765 bound_to 10752
  140.1171  134.8887  157.2020 H   0  0  0  0  0  0  0  0  0  0  0  0  # atno 11005 bound_to 11000
  144.7459  139.7321  143.7292 LP  0  0  0  0  0  0  0  0  0  0  0  0  # atno 17320 bound_to 7965
  146.1817  139.5012  142.9862 LP  0  0  0  0  0  0  0  0  0  0  0  0  # atno 17321 bound_to 7965
  140.3209  144.3429  150.6010 LP  0  0  0  0  0  0  0  0  0  0  0  0  # atno 17342 bound_to 10162
  140.5723  143.2179  151.7576 LP  0  0  0  0  0  0  0  0  0  0  0  0  # atno 17343 bound_to 10162
  157.0317  131.0009  151.3310 LP  0  0  0  0  0  0  0  0  0  0  0  0  # atno 17370 bound_to 10713
  157.5273  130.8036  149.7876 LP  0  0  0  0  0  0  0  0  0  0  0  0  # atno 17371 bound_to 10713
  140.3014  134.3128  155.7289 LP  0  0  0  0  0  0  0  0  0  0  0  0  # atno 17394 bound_to 11000
  141.2143  133.7594  156.9646 LP  0  0  0  0  0  0  0  0  0  0  0  0  # atno 17395 bound_to 11000

$$$$
