AV-unprocessed.smi:1301|AV-procd|sdf|5421|dock5
  -GOLD-   22720 4583D 1   1.00000     0.00000
 Structure written by MMmdl.
 45 46  0  0  0  0  0  0  0  0  2 V2000
  146.8345  129.9877  152.9351 C   0  0  0  0  0  0  0  0  0  0  0  0
  147.7022  131.1000  153.4151 C   0  0  0  0  0  0  0  0  0  0  0  0
  147.7587  132.4321  153.1149 C   0  0  0  0  0  0  0  0  0  0  0  0
  148.8205  132.8995  153.9341 C   0  0  0  0  0  0  0  0  0  0  0  0
  149.2074  134.2639  153.9176 N   0  0  0  0  0  0  0  0  0  0  0  0
  150.0205  134.8937  154.7830 C   0  0  0  0  0  0  0  0  0  0  0  0
  150.5742  134.3642  155.7470 O   0  0  0  0  0  0  0  0  0  0  0  0
  150.1608  136.1894  154.4649 N   0  0  0  0  0  0  0  0  0  0  0  0
  150.9760  137.1598  155.1919 C   0  0  2  0  0  0  0  0  0  0  0  0
  150.4720  137.2979  156.6368 C   0  0  0  0  0  0  0  0  0  0  0  0
  151.2540  138.3840  157.3944 C   0  0  0  0  0  0  0  0  0  0  0  0
  151.1860  139.6899  156.6888 N   0  3  1  0  0  0  0  0  0  0  0  0
  151.8228  140.7832  157.4678 C   0  0  0  0  0  0  0  0  0  0  0  0
  151.0779  142.1292  157.3380 C   0  0  0  0  0  0  0  0  0  0  0  0
  151.8718  143.2527  158.0210 C   0  0  0  0  0  0  0  0  0  0  0  0
  149.6534  142.0528  157.9129 C   0  0  0  0  0  0  0  0  0  0  0  0
  151.6979  139.5863  155.2958 C   0  0  0  0  0  0  0  0  0  0  0  0
  150.9211  138.5280  154.4945 C   0  0  0  0  0  0  0  0  0  0  0  0
  149.3616  131.9400  154.6691 N   0  0  0  0  0  0  0  0  0  0  0  0
  148.6476  130.7817  154.3404 O   0  0  0  0  0  0  0  0  0  0  0  0
  146.1783  130.3246  152.1325 H   0  0  0  0  0  0  0  0  0  0  0  0
  146.2116  129.6070  153.7448 H   0  0  0  0  0  0  0  0  0  0  0  0
  147.4377  129.1633  152.5549 H   0  0  0  0  0  0  0  0  0  0  0  0
  147.1393  132.9792  152.4198 H   0  0  0  0  0  0  0  0  0  0  0  0
  148.8238  134.8179  153.1663 H   0  0  0  0  0  0  0  0  0  0  0  0
  149.6637  136.5314  153.6553 H   0  0  0  0  0  0  0  0  0  0  0  0
  152.0178  136.8354  155.2254 H   0  0  0  0  0  0  0  0  0  0  0  0
  149.4100  137.5482  156.6396 H   0  0  0  0  0  0  0  0  0  0  0  0
  150.5663  136.3448  157.1587 H   0  0  0  0  0  0  0  0  0  0  0  0
  150.8376  138.4853  158.3975 H   0  0  0  0  0  0  0  0  0  0  0  0
  152.2971  138.0859  157.5117 H   0  0  0  0  0  0  0  0  0  0  0  0
  151.8508  140.5128  158.5245 H   0  0  0  0  0  0  0  0  0  0  0  0
  152.8635  140.8856  157.1562 H   0  0  0  0  0  0  0  0  0  0  0  0
  150.9993  142.3969  156.2847 H   0  0  0  0  0  0  0  0  0  0  0  0
  151.9899  143.0641  159.0886 H   0  0  0  0  0  0  0  0  0  0  0  0
  151.3707  144.2145  157.9072 H   0  0  0  0  0  0  0  0  0  0  0  0
  152.8679  143.3504  157.5883 H   0  0  0  0  0  0  0  0  0  0  0  0
  149.6651  141.7814  158.9690 H   0  0  0  0  0  0  0  0  0  0  0  0
  149.0483  141.3146  157.3859 H   0  0  0  0  0  0  0  0  0  0  0  0
  149.1431  143.0123  157.8235 H   0  0  0  0  0  0  0  0  0  0  0  0
  151.6134  140.5454  154.7865 H   0  0  0  0  0  0  0  0  0  0  0  0
  152.7594  139.3335  155.3145 H   0  0  0  0  0  0  0  0  0  0  0  0
  151.3342  138.4518  153.4879 H   0  0  0  0  0  0  0  0  0  0  0  0
  149.8841  138.8481  154.3803 H   0  0  0  0  0  0  0  0  0  0  0  0
  150.2048  139.9221  156.6272 H   0  0  0  0  0  0  0  0  0  0  0  0
  1  2  1  0  0  0  0
  1 21  1  0  0  0  0
  1 22  1  0  0  0  0
  1 23  1  0  0  0  0
  2 20  1  0  0  0  0
  2  3  2  0  0  0  0
  3  4  1  0  0  0  0
  3 24  1  0  0  0  0
  4  5  1  0  0  0  0
  4 19  2  0  0  0  0
  5  6  1  0  0  0  0
  5 25  1  0  0  0  0
  6  7  2  0  0  0  0
  6  8  1  0  0  0  0
  8  9  1  0  0  0  0
  8 26  1  0  0  0  0
  9 18  1  0  0  0  0
  9 10  1  0  0  0  0
  9 27  1  0  0  0  0
 10 11  1  0  0  0  0
 10 28  1  0  0  0  0
 10 29  1  0  0  0  0
 11 12  1  0  0  0  0
 11 30  1  0  0  0  0
 11 31  1  0  0  0  0
 12 13  1  0  0  0  0
 12 17  1  0  0  0  0
 12 45  1  0  0  0  0
 13 14  1  0  0  0  0
 13 32  1  0  0  0  0
 13 33  1  0  0  0  0
 14 15  1  0  0  0  0
 14 16  1  0  0  0  0
 14 34  1  0  0  0  0
 15 35  1  0  0  0  0
 15 36  1  0  0  0  0
 15 37  1  0  0  0  0
 16 38  1  0  0  0  0
 16 39  1  0  0  0  0
 16 40  1  0  0  0  0
 17 18  1  0  0  0  0
 17 41  1  0  0  0  0
 17 42  1  0  0  0  0
 18 43  1  0  0  0  0
 18 44  1  0  0  0  0
 19 20  1  0  0  0  0
M  CHG  1  12   1
M  END
> <s_m_source_file>
AV-unprocessed.smi

> <i_m_source_file_index>
1301

> <i_lp_mmshare_version>
43012

> <i_f3d_flags>
0

> <s_epik_input>
W0NIM11jMVtjSF1jKG5vMSlbTkhdQyg9TylbTkhdW0NIXTJbQ0gyXVtDSDJdTihbQ0gyXVtDSDJdMilbQ0gyXVtDSF0oW0NIM10pW0NIM10=

> <s_epik_cmdline>
J2VwaWtfcHl0aG9uJywgJy1waCcsICc3LjAnLCAnLXRuJywgJzgnLCAnLW1hJywgJzIwMCcsICctbWV0YWxfYmluZGluZycsICctaW1hZScsICc8aW5maWxlLm1hZT4nLCAnLW9tYWUnLCAnPG91dGZpbGUubWFlPic=

> <r_epik_Ionization_Penalty>
0.0020743

> <r_epik_Ionization_Penalty_Charging>
0.0020412

> <r_epik_Ionization_Penalty_Neutral>
3.31029e-05

> <r_epik_State_Penalty>
0.00139626

> <r_epik_Charging_Adjusted_Penalty>
0.00343746

> <i_epik_Tot_Q>
1

> <i_epik_Tot_abs_Q>
1

> <r_epik_Metal_State_Penalty>
0.0141509

> <b_epik_Metal_Only>
0

> <s_lp_Force_Field>
OPLS_2005

> <r_lp_Energy>
17.3221

> <b_lp_Chiralities_Consistent>
1

> <s_lp_Variant>
AV-unprocessed.smi:1301-1

> <Gold.Version>
5.8.1

> <Gold.Id.Protein>
6NUR|6NUR_protein|mol2

> <Gold.PLP.Fitness>
36.6353

> <Gold.PLP.PLP>
-31.6516

> <Gold.PLP.part.hbond>
-2.6724

> <Gold.PLP.part.metal>
0.0000

> <Gold.PLP.part.buried>
-3.9753

> <Gold.PLP.part.nonpolar>
-25.2052

> <Gold.PLP.part.repulsive>
0.2664

> <Gold.PLP.ligand.clash>
0.0000

> <Gold.PLP.ligand.torsion>
0.4868

> <Gold.PLP.Chemscore.Hbond>
1.9760

> <Gold.PLP.Chemscore.CHOScore>
0.0000

> <Gold.PLP.Chemscore.Metal>
0.0000

> <Gold.Chemscore.Hbonds>
donor molecule, donor type, donor heavy atom, donor atom, acceptor molecule, acceptor atom, score
      L1  H     5    25       P1  7948  1.00
      L1  H     8    26       P1  7948  0.98

> <Gold.PLP.Chemscore.Internal.Correction>
0.0293

> <Gold.Rescore>
     Score         DG    S(hbond)    S(metal)    S(lipo)     H(rot)  DE(clash)    DE(int)     intcor
     12.69     -14.49       1.15        0.00      75.54       1.43       0.06       1.75       ----

> <Gold.Chemscore.Fitness>
12.6894

> <Gold.Chemscore.DG>
-14.4948

> <Gold.Chemscore.ZeroCoef>
-5.4800

> <Gold.Chemscore.Hbond>
1.1488

> <Gold.Chemscore.Metal>
0.0000

> <Gold.Chemscore.Lipo>
75.5390

> <Gold.Chemscore.Internal_Hbond>
0.0000

> <Gold.Chemscore.DEClash>
0.0560

> <Gold.Chemscore.DEInternal>
1.7494

> <Gold.Chemscore.Rot>
1.4298

> <Gold.Chemscore.Internal.Correction>
   9.000000E+99

> <Gold.Chemscore.Hbonds>
donor molecule, donor type, donor heavy atom, donor atom, acceptor molecule, acceptor atom, score
      L1  H     5    25       P1  7948  0.24
      L1  H     8    26       P1  7948  0.51

> <Gold.Chemscore.Hbond.Weighted>
-3.8372

> <Gold.Chemscore.Metal.Weighted>
-0.0000

> <Gold.Chemscore.Lipo.Weighted>
-8.8381

> <Gold.Chemscore.Internal_Hbond.Weighted>
0.0000

> <Gold.Chemscore.DEClash.Weighted>
0.0560

> <Gold.Chemscore.DEInternal.Weighted>
1.7494

> <Gold.Chemscore.Rot.Weighted>
3.6604

> <Gold.Chemscore.Internal.Correction.Weighted>
   9.000000E+99

> <Gold.Protein.RotatedTorsions>
[ 6907 6896 6895 6894 ] final   39.36 input  -60.11 | X-H torsion
[ 7974 7965 7964 7962 ] final  -17.84 input  175.53 | X-H torsion
[ 8008 7997 7996 7995 ] final   14.61 input   59.86 | X-H torsion
[ 10167 10162 10161 10158 ] final  -99.05 input  -65.29 | X-H torsion
[ 10718 10713 10712 10709 ] final -123.83 input   66.30 | X-H torsion
[ 10763 10752 10751 10750 ] final  -18.65 input  -60.55 | X-H torsion
[ 11005 11000 10999 10996 ] final  -24.59 input  -57.11 | X-H torsion

> <Gold.Protein.ActiveResidues>
 VAL166  LYS551  ARG553  GLY616  TRP617  ASP618  TYR619  PRO620  LYS621  CYS622 
 ASP623  PHE694  ASN695  SER759  ASP760  ASP761  ALA762  ILE779  LEU786  VAL792 
 PHE793  MET794  SER795  GLU796  ALA797  LYS798  CYS799  TRP800  GLU811  SER814 

> <Gold.Protein.RotatedAtoms>
  152.1685  134.8853  160.0535 H   0  0  0  0  0  0  0  0  0  0  0  0  # atno 6907 bound_to 6896
  151.9822  133.3757  159.4120 H   0  0  0  0  0  0  0  0  0  0  0  0  # atno 6908 bound_to 6896
  150.6898  134.3949  159.5137 H   0  0  0  0  0  0  0  0  0  0  0  0  # atno 6909 bound_to 6896
  146.1922  140.3836  142.8454 H   0  0  0  0  0  0  0  0  0  0  0  0  # atno 7974 bound_to 7965
  154.8509  140.2929  155.5599 H   0  0  0  0  0  0  0  0  0  0  0  0  # atno 8008 bound_to 7997
  156.3016  140.2496  156.3399 H   0  0  0  0  0  0  0  0  0  0  0  0  # atno 8009 bound_to 7997
  154.9023  140.0391  157.1889 H   0  0  0  0  0  0  0  0  0  0  0  0  # atno 8010 bound_to 7997
  140.2665  143.3372  152.0576 H   0  0  0  0  0  0  0  0  0  0  0  0  # atno 10167 bound_to 10162
  156.1535  130.6552  150.9948 H   0  0  0  0  0  0  0  0  0  0  0  0  # atno 10718 bound_to 10713
  153.5926  135.7002  153.5417 H   0  0  0  0  0  0  0  0  0  0  0  0  # atno 10763 bound_to 10752
  153.3165  135.4086  155.1380 H   0  0  0  0  0  0  0  0  0  0  0  0  # atno 10764 bound_to 10752
  154.8597  135.3685  154.5459 H   0  0  0  0  0  0  0  0  0  0  0  0  # atno 10765 bound_to 10752
  140.8860  133.7621  156.0360 H   0  0  0  0  0  0  0  0  0  0  0  0  # atno 11005 bound_to 11000
  144.8508  140.6998  143.6169 LP  0  0  0  0  0  0  0  0  0  0  0  0  # atno 17320 bound_to 7965
  145.3758  139.1648  143.4307 LP  0  0  0  0  0  0  0  0  0  0  0  0  # atno 17321 bound_to 7965
  139.5001  144.6685  151.6300 LP  0  0  0  0  0  0  0  0  0  0  0  0  # atno 17342 bound_to 10162
  140.5924  143.9756  150.6333 LP  0  0  0  0  0  0  0  0  0  0  0  0  # atno 17343 bound_to 10162
  157.6676  131.0868  150.7690 LP  0  0  0  0  0  0  0  0  0  0  0  0  # atno 17370 bound_to 10713
  156.7756  130.4843  149.5410 LP  0  0  0  0  0  0  0  0  0  0  0  0  # atno 17371 bound_to 10713
  140.8405  134.3072  157.5315 LP  0  0  0  0  0  0  0  0  0  0  0  0  # atno 17394 bound_to 11000
  139.8724  134.9413  156.3794 LP  0  0  0  0  0  0  0  0  0  0  0  0  # atno 17395 bound_to 11000

$$$$
