#       Name:                AV-unprocessed.smi:2823
#       Creating user name   scv26
#       Creation time:       Fri Mar 27 15:32:31 2020


#       File generated by GOLD software.
#

@<TRIPOS>MOLECULE
AV-unprocessed.smi:2823
    50    51     1
SMALL
NO_CHARGES


@<TRIPOS>ATOM
      1 ****        -3.7275   6.3462  -0.8664 C.3            1 S1                 0.0000
      2 ****        -2.9825   5.1003  -1.2034 C.2            1 S1                 0.0000
      3 ****        -2.2508   5.0187  -2.3090 N.2            1 S1                 0.0000
      4 ****        -1.7261   3.7188  -2.2564 O.3            1 S1                 0.0000
      5 ****        -2.2141   3.1775  -1.1132 C.2            1 S1                 0.0000
      6 ****        -1.9162   1.8606  -0.6878 N.am           1 S1                 0.0000
      7 ****        -1.1221   0.9739  -1.3084 C.2            1 S1                 0.0000
      8 ****        -0.5237   1.1798  -2.3645 O.2            1 S1                 0.0000
      9 ****        -1.0521  -0.1782  -0.6260 N.am           1 S1                 0.0000
     10 ****        -0.2515  -1.3456  -0.9988 C.3            1 S1                 0.0000
     11 ****         1.1030  -1.4361  -0.2304 C.3            1 S1                 0.0000
     12 ****         0.8965  -1.3353   1.3202 C.2            1 S1                 0.0000
     13 ****         1.2406  -0.2905   1.8786 O.2            1 S1                 0.0000
     14 ****         0.3539  -2.3428   2.0572 N.am           1 S1                 0.0000
     15 ****         0.2495  -2.1948   3.5129 C.3            1 S1                 0.0000
     16 ****        -0.1877  -3.6201   1.5845 C.3            1 S1                 0.0000
     17 ****         1.9725  -2.6537  -0.6379 C.3            1 S1                 0.0000
     18 ****         3.4331  -2.2679  -0.3696 C.3            1 S1                 0.0000
     19 ****         3.4778  -0.7393  -0.4246 C.3            1 S1                 0.0000
     20 ****         2.0420  -0.3055  -0.7375 C.3            1 S1                 0.0000
     21 ****        -3.0033   3.9887  -0.4161 N.2            1 S1                 0.0000
     22 ****        -4.4619   6.5680  -1.6411 H              1 S1                 0.0000
     23 ****        -3.0392   7.1882  -0.7878 H              1 S1                 0.0000
     24 ****        -4.2510   6.2389   0.0842 H              1 S1                 0.0000
     25 ****        -2.3455   1.5692   0.1777 H              1 S1                 0.0000
     26 ****        -1.5811  -0.2514   0.2307 H              1 S1                 0.0000
     27 ****        -0.8769  -2.2175  -0.8318 H              1 S1                 0.0000
     28 ****        -0.0716  -1.3477  -2.0752 H              1 S1                 0.0000
     29 ****         1.2194  -1.9540   3.9514 H              1 S1                 0.0000
     30 ****        -0.1024  -3.1054   4.0000 H              1 S1                 0.0000
     31 ****        -0.4488  -1.3961   3.7668 H              1 S1                 0.0000
     32 ****        -0.3222  -3.7033   0.5124 H              1 S1                 0.0000
     33 ****        -1.1674  -3.7998   2.0286 H              1 S1                 0.0000
     34 ****         0.4695  -4.4336   1.8934 H              1 S1                 0.0000
     35 ****         1.7380  -3.5898  -0.1391 H              1 S1                 0.0000
     36 ****         1.8485  -2.8417  -1.7054 H              1 S1                 0.0000
     37 ****         3.7387  -2.6107   0.6198 H              1 S1                 0.0000
     38 ****         4.1056  -2.7244  -1.0964 H              1 S1                 0.0000
     39 ****         3.7948  -0.3401   0.5396 H              1 S1                 0.0000
     40 ****         4.1778  -0.3746  -1.1770 H              1 S1                 0.0000
     41 ****         1.9469  -0.2100  -1.8203 H              1 S1                 0.0000
     42 ****         1.8162   0.6831  -0.3355 H              1 S1                 0.0000
     43 ****        -2.1081   5.7167  -3.0107 LP             1 S1                 0.0000
     44 ****        -0.7267   3.7459  -2.2314 LP             1 S1                 0.0000
     45 ****        -2.0254   3.1886  -3.0497 LP             1 S1                 0.0000
     46 ****        -0.6113   2.0632  -2.8248 LP             1 S1                 0.0000
     47 ****         0.0500   0.4636  -2.7619 LP             1 S1                 0.0000
     48 ****         1.6360   0.4558   1.3432 LP             1 S1                 0.0000
     49 ****         1.1242  -0.1899   2.8667 LP             1 S1                 0.0000
     50 ****        -3.4805   3.8275   0.4478 LP             1 S1                 0.0000
@<TRIPOS>BOND
    1    1    2 1     
    2    1   22 1     
    3    1   23 1     
    4    1   24 1     
    5    2   21 1     
    6    2    3 2     
    7    3    4 1     
    8    4    5 1     
    9    5    6 1     
   10    5   21 2     
   11    6    7 am    
   12    6   25 1     
   13    7    8 2     
   14    7    9 am    
   15    9   10 1     
   16    9   26 1     
   17   10   11 1     
   18   10   27 1     
   19   10   28 1     
   20   11   20 1     
   21   11   12 1     
   22   11   17 1     
   23   12   13 2     
   24   12   14 am    
   25   14   15 1     
   26   14   16 1     
   27   15   29 1     
   28   15   30 1     
   29   15   31 1     
   30   16   32 1     
   31   16   33 1     
   32   16   34 1     
   33   17   18 1     
   34   17   35 1     
   35   17   36 1     
   36   18   19 1     
   37   18   37 1     
   38   18   38 1     
   39   19   20 1     
   40   19   39 1     
   41   19   40 1     
   42   20   41 1     
   43   20   42 1     
   44    3   43 1     
   45    4   44 1     
   46    4   45 1     
   47    8   46 1     
   48    8   47 1     
   49   13   48 1     
   50   13   49 1     
   51   21   50 1     
@<TRIPOS>SUBSTRUCTURE
      1 S1             1
@<TRIPOS>SET
LONE_PAIRS      STATIC     ATOMS    <user>   **** ""
8 43 44 45 46 47 48 49 50
DONOR_HYDROGENS      STATIC     ATOMS    <user>   **** ""
2 25 26
ATOM$BLUE        STATIC     ATOMS    COLORGROUP SYSTEM
8 43 44 45 46 47 48 49 50
ATOM$RED        STATIC     ATOMS    COLORGROUP SYSTEM
2 25 26
