AV-unprocessed.smi:1665|AV-procd|sdf|6670|dock7
  -GOLD-   22720 7383D 1   1.00000     0.00000
 Structure written by MMmdl.
 37 38  0  0  0  0  0  0  0  0  1 V2000
  150.9264  140.2780  156.5172 C   0  0  0  0  0  0  0  0  0  0  0  0
  151.5335  140.0219  157.9063 C   0  0  1  0  0  0  0  0  0  0  0  0
  151.1941  141.1219  158.9352 C   0  0  0  0  0  0  0  0  0  0  0  0
  151.6562  142.4375  158.5312 N   0  0  0  0  0  0  0  0  0  0  0  0
  151.2173  143.2162  157.4808 C   0  0  0  0  0  0  0  0  0  0  0  0
  151.9432  144.3727  157.5017 C   0  0  0  0  0  0  0  0  0  0  0  0
  152.8092  144.2082  158.6188 C   0  0  0  0  0  0  0  0  0  0  0  0
  152.6325  143.0505  159.2349 N   0  0  0  0  0  0  0  0  0  0  0  0
  151.0772  138.7236  158.3917 N   0  0  0  0  0  0  0  0  0  0  0  0
  149.7950  138.3470  158.5139 C   0  0  0  0  0  0  0  0  0  0  0  0
  148.8430  139.0418  158.1598 O   0  0  0  0  0  0  0  0  0  0  0  0
  149.5462  136.9796  159.1535 C   0  0  0  0  0  0  0  0  0  0  0  0
  148.0983  136.7969  159.6579 C   0  0  0  0  0  0  0  0  0  0  0  0
  147.9233  135.5676  160.4358 N   0  0  0  0  0  0  0  0  0  0  0  0
  147.4864  135.6604  161.8213 C   0  0  0  0  0  0  0  0  0  0  0  0
  147.0288  134.2661  162.2538 C   0  0  0  0  0  0  0  0  0  0  0  0
  147.8809  133.0670  161.2085 S   0  0  0  0  0  0  0  0  0  0  0  0
  148.2638  134.3054  159.9653 C   0  0  0  0  0  0  0  0  0  0  0  0
  148.7474  134.0108  158.8738 O   0  0  0  0  0  0  0  0  0  0  0  0
  151.3104  141.1983  156.0765 H   0  0  0  0  0  0  0  0  0  0  0  0
  149.8402  140.3594  156.5675 H   0  0  0  0  0  0  0  0  0  0  0  0
  151.1684  139.4658  155.8302 H   0  0  0  0  0  0  0  0  0  0  0  0
  152.6174  139.9851  157.7802 H   0  0  0  0  0  0  0  0  0  0  0  0
  150.1154  141.1704  159.0919 H   0  0  0  0  0  0  0  0  0  0  0  0
  151.6385  140.8883  159.9040 H   0  0  0  0  0  0  0  0  0  0  0  0
  150.4354  142.8856  156.8129 H   0  0  0  0  0  0  0  0  0  0  0  0
  151.8663  145.2095  156.8235 H   0  0  0  0  0  0  0  0  0  0  0  0
  153.5545  144.8912  158.9992 H   0  0  0  0  0  0  0  0  0  0  0  0
  151.7898  138.0812  158.7060 H   0  0  0  0  0  0  0  0  0  0  0  0
  149.7636  136.2175  158.4044 H   0  0  0  0  0  0  0  0  0  0  0  0
  150.2529  136.8124  159.9680 H   0  0  0  0  0  0  0  0  0  0  0  0
  147.7900  137.6637  160.2454 H   0  0  0  0  0  0  0  0  0  0  0  0
  147.4216  136.7682  158.8028 H   0  0  0  0  0  0  0  0  0  0  0  0
  148.3321  135.9872  162.4280 H   0  0  0  0  0  0  0  0  0  0  0  0
  146.6887  136.3946  161.9407 H   0  0  0  0  0  0  0  0  0  0  0  0
  147.2201  134.0775  163.3105 H   0  0  0  0  0  0  0  0  0  0  0  0
  145.9571  134.1573  162.0840 H   0  0  0  0  0  0  0  0  0  0  0  0
  1  2  1  0  0  0  0
  1 20  1  0  0  0  0
  1 21  1  0  0  0  0
  1 22  1  0  0  0  0
  2  3  1  0  0  0  0
  2  9  1  0  0  0  0
  2 23  1  0  0  0  0
  3  4  1  0  0  0  0
  3 24  1  0  0  0  0
  3 25  1  0  0  0  0
  4  8  1  0  0  0  0
  4  5  1  0  0  0  0
  5  6  2  0  0  0  0
  5 26  1  0  0  0  0
  6  7  1  0  0  0  0
  6 27  1  0  0  0  0
  7  8  2  0  0  0  0
  7 28  1  0  0  0  0
  9 10  1  0  0  0  0
  9 29  1  0  0  0  0
 10 11  2  0  0  0  0
 10 12  1  0  0  0  0
 12 13  1  0  0  0  0
 12 30  1  0  0  0  0
 12 31  1  0  0  0  0
 13 14  1  0  0  0  0
 13 32  1  0  0  0  0
 13 33  1  0  0  0  0
 14 18  1  0  0  0  0
 14 15  1  0  0  0  0
 15 16  1  0  0  0  0
 15 34  1  0  0  0  0
 15 35  1  0  0  0  0
 16 17  1  0  0  0  0
 16 36  1  0  0  0  0
 16 37  1  0  0  0  0
 17 18  1  0  0  0  0
 18 19  2  0  0  0  0
M  END
> <s_m_source_file>
AV-unprocessed.smi

> <i_m_source_file_index>
1665

> <i_lp_mmshare_version>
43012

> <i_f3d_flags>
0

> <s_epik_input>
bjFbY0hdW2NIXVtjSF1uMVtDSDJdW0NAQEhdKFtDSDNdKVtOSF1DKD1PKVtDSDJdW0NIMl1OMltDSDJdW0NIMl1TQzI9Tw==

> <s_epik_cmdline>
J2VwaWtfcHl0aG9uJywgJy1waCcsICc3LjAnLCAnLXRuJywgJzgnLCAnLW1hJywgJzIwMCcsICctbWV0YWxfYmluZGluZycsICctaW1hZScsICc8aW5maWxlLm1hZT4nLCAnLW9tYWUnLCAnPG91dGZpbGUubWFlPic=

> <r_lp_tautomer_probability>
1

> <r_epik_Ionization_Penalty>
0.000300775

> <r_epik_Ionization_Penalty_Charging>
0

> <r_epik_Ionization_Penalty_Neutral>
0.000300775

> <r_epik_State_Penalty>
-0

> <r_epik_Charging_Adjusted_Penalty>
0

> <i_epik_Tot_Q>
0

> <i_epik_Tot_abs_Q>
0

> <r_epik_Metal_State_Penalty>
-0

> <b_epik_Metal_Only>
0

> <s_lp_Force_Field>
OPLS_2005

> <r_lp_Energy>
3.63181

> <b_lp_Chiralities_Consistent>
1

> <s_lp_Variant>
AV-unprocessed.smi:1665-2

> <Gold.Version>
5.8.1

> <Gold.Id.Protein>
6NUR|6NUR_protein|mol2

> <Gold.PLP.Fitness>
42.6460

> <Gold.PLP.PLP>
-38.3526

> <Gold.PLP.part.hbond>
-1.7144

> <Gold.PLP.part.metal>
0.0000

> <Gold.PLP.part.buried>
-4.6605

> <Gold.PLP.part.nonpolar>
-31.7465

> <Gold.PLP.part.repulsive>
0.0956

> <Gold.PLP.ligand.clash>
0.0000

> <Gold.PLP.ligand.torsion>
0.3664

> <Gold.PLP.Chemscore.Hbond>
0.9913

> <Gold.PLP.Chemscore.CHOScore>
0.6641

> <Gold.PLP.Chemscore.Metal>
0.0000

> <Gold.Chemscore.Hbonds>
donor molecule, donor type, donor heavy atom, donor atom, acceptor molecule, acceptor atom, score
      P1  H  6896  6908       L1    19  0.95
      L1  C     5    26       P1  8028  0.52

> <Gold.PLP.Chemscore.Internal.Correction>
0.0601

> <Gold.Rescore>
     Score         DG    S(hbond)    S(metal)    S(lipo)     H(rot)  DE(clash)    DE(int)     intcor
     12.21     -13.22       0.87        0.00      89.64       2.20       0.04       0.97       ----

> <Gold.Chemscore.Fitness>
12.2071

> <Gold.Chemscore.DG>
-13.2191

> <Gold.Chemscore.ZeroCoef>
-5.4800

> <Gold.Chemscore.Hbond>
0.8654

> <Gold.Chemscore.Metal>
0.0000

> <Gold.Chemscore.Lipo>
89.6362

> <Gold.Chemscore.Internal_Hbond>
0.0000

> <Gold.Chemscore.DEClash>
0.0426

> <Gold.Chemscore.DEInternal>
0.9694

> <Gold.Chemscore.Rot>
2.2026

> <Gold.Chemscore.Internal.Correction>
   9.000000E+99

> <Gold.Chemscore.Hbonds>
donor molecule, donor type, donor heavy atom, donor atom, acceptor molecule, acceptor atom, score
      P1  H  6896  6908       L1    19  0.21

> <Gold.Chemscore.Hbond.Weighted>
-2.8903

> <Gold.Chemscore.Metal.Weighted>
-0.0000

> <Gold.Chemscore.Lipo.Weighted>
-10.4874

> <Gold.Chemscore.Internal_Hbond.Weighted>
0.0000

> <Gold.Chemscore.DEClash.Weighted>
0.0426

> <Gold.Chemscore.DEInternal.Weighted>
0.9694

> <Gold.Chemscore.Rot.Weighted>
5.6387

> <Gold.Chemscore.Internal.Correction.Weighted>
   9.000000E+99

> <Gold.Protein.RotatedTorsions>
[ 6907 6896 6895 6894 ] final  136.16 input  -60.11 | X-H torsion
[ 7974 7965 7964 7962 ] final  128.59 input  175.53 | X-H torsion
[ 8008 7997 7996 7995 ] final -173.17 input   59.86 | X-H torsion
[ 10167 10162 10161 10158 ] final  132.21 input  -65.29 | X-H torsion
[ 10718 10713 10712 10709 ] final   68.11 input   66.30 | X-H torsion
[ 10763 10752 10751 10750 ] final -138.06 input  -60.55 | X-H torsion
[ 11005 11000 10999 10996 ] final  -30.31 input  -57.11 | X-H torsion

> <Gold.Protein.ActiveResidues>
 VAL166  LYS551  ARG553  GLY616  TRP617  ASP618  TYR619  PRO620  LYS621  CYS622 
 ASP623  PHE694  ASN695  SER759  ASP760  ASP761  ALA762  ILE779  LEU786  VAL792 
 PHE793  MET794  SER795  GLU796  ALA797  LYS798  CYS799  TRP800  GLU811  SER814 

> <Gold.Protein.RotatedAtoms>
  152.2924  133.5575  159.5565 H   0  0  0  0  0  0  0  0  0  0  0  0  # atno 6907 bound_to 6896
  150.7241  134.0409  159.3774 H   0  0  0  0  0  0  0  0  0  0  0  0  # atno 6908 bound_to 6896
  151.8314  135.0620  160.0488 H   0  0  0  0  0  0  0  0  0  0  0  0  # atno 6909 bound_to 6896
  145.0379  139.3988  143.5117 H   0  0  0  0  0  0  0  0  0  0  0  0  # atno 7974 bound_to 7965
  155.9540  140.1131  157.0953 H   0  0  0  0  0  0  0  0  0  0  0  0  # atno 8008 bound_to 7997
  154.4116  140.1195  156.5156 H   0  0  0  0  0  0  0  0  0  0  0  0  # atno 8009 bound_to 7997
  155.6806  140.3473  155.4856 H   0  0  0  0  0  0  0  0  0  0  0  0  # atno 8010 bound_to 7997
  139.5349  144.6672  151.4819 H   0  0  0  0  0  0  0  0  0  0  0  0  # atno 10167 bound_to 10162
  157.6270  130.9356  150.0333 H   0  0  0  0  0  0  0  0  0  0  0  0  # atno 10718 bound_to 10713
  154.8646  135.3623  154.5324 H   0  0  0  0  0  0  0  0  0  0  0  0  # atno 10763 bound_to 10752
  153.5949  135.7014  153.5412 H   0  0  0  0  0  0  0  0  0  0  0  0  # atno 10764 bound_to 10752
  153.3341  135.4116  155.1480 H   0  0  0  0  0  0  0  0  0  0  0  0  # atno 10765 bound_to 10752
  140.9372  133.7301  156.1022 H   0  0  0  0  0  0  0  0  0  0  0  0  # atno 11005 bound_to 11000
  146.3506  139.9964  142.8680 LP  0  0  0  0  0  0  0  0  0  0  0  0  # atno 17320 bound_to 7965
  145.1685  140.9709  143.4335 LP  0  0  0  0  0  0  0  0  0  0  0  0  # atno 17321 bound_to 7965
  140.6550  143.8618  150.6826 LP  0  0  0  0  0  0  0  0  0  0  0  0  # atno 17342 bound_to 10162
  140.1994  143.3971  152.1803 LP  0  0  0  0  0  0  0  0  0  0  0  0  # atno 17343 bound_to 10162
  156.1448  130.3642  149.9526 LP  0  0  0  0  0  0  0  0  0  0  0  0  # atno 17370 bound_to 10713
  156.7559  130.9133  151.3639 LP  0  0  0  0  0  0  0  0  0  0  0  0  # atno 17371 bound_to 10713
  140.7784  134.3754  157.5493 LP  0  0  0  0  0  0  0  0  0  0  0  0  # atno 17394 bound_to 11000
  139.8811  134.9066  156.2926 LP  0  0  0  0  0  0  0  0  0  0  0  0  # atno 17395 bound_to 11000

$$$$
