AV-unprocessed.smi:3115|AV-procd|sdf|11859|dock4
  -GOLD-   2272017243D 1   1.00000     0.00000
 Structure written by MMmdl.
 33 34  0  0  0  0  0  0  0  0  2 V2000
  152.3865  143.3179  161.3834 C   0  0  0  0  0  0  0  0  0  0  0  0
  152.5981  143.0419  159.8913 C   0  0  1  0  0  0  0  0  0  0  0  0
  151.8562  141.7741  159.4253 C   0  0  0  0  0  0  0  0  0  0  0  0
  152.0116  141.6018  157.9859 N   0  0  0  0  0  0  0  0  0  0  0  0
  151.4628  140.4052  157.5038 C   0  0  0  0  0  0  0  0  0  0  0  0
  151.7301  140.0172  156.1737 C   0  0  0  0  0  0  0  0  0  0  0  0
  151.1817  138.8093  155.6960 C   0  0  0  0  0  0  0  0  0  0  0  0
  151.4362  138.3524  154.2748 C   0  0  0  0  0  0  0  0  0  0  0  0
  150.1793  138.3086  153.5108 N   0  3  0  0  0  0  0  0  0  0  0  0
  150.3835  138.0385  156.5651 C   0  0  0  0  0  0  0  0  0  0  0  0
  150.1713  138.5105  157.8751 C   0  0  0  0  0  0  0  0  0  0  0  0
  150.6947  139.6650  158.3389 N   0  0  0  0  0  0  0  0  0  0  0  0
  151.5872  142.7782  157.2375 C   0  0  0  0  0  0  0  0  0  0  0  0
  152.3277  144.0240  157.7527 C   0  0  0  0  0  0  0  0  0  0  0  0
  152.1123  144.1620  159.1544 O   0  0  0  0  0  0  0  0  0  0  0  0
  152.7532  142.4906  161.9914 H   0  0  0  0  0  0  0  0  0  0  0  0
  151.3300  143.4594  161.6123 H   0  0  0  0  0  0  0  0  0  0  0  0
  152.9180  144.2183  161.6923 H   0  0  0  0  0  0  0  0  0  0  0  0
  153.6682  142.9304  159.7069 H   0  0  0  0  0  0  0  0  0  0  0  0
  152.2475  140.8977  159.9436 H   0  0  0  0  0  0  0  0  0  0  0  0
  150.7967  141.8508  159.6750 H   0  0  0  0  0  0  0  0  0  0  0  0
  152.3467  140.6345  155.5363 H   0  0  0  0  0  0  0  0  0  0  0  0
  152.1355  139.0291  153.7826 H   0  0  0  0  0  0  0  0  0  0  0  0
  151.8924  137.3618  154.2784 H   0  0  0  0  0  0  0  0  0  0  0  0
  150.2278  138.9600  152.7406 H   0  0  0  0  0  0  0  0  0  0  0  0
  149.4102  138.5571  154.1165 H   0  0  0  0  0  0  0  0  0  0  0  0
  149.9423  137.1074  156.2405 H   0  0  0  0  0  0  0  0  0  0  0  0
  149.5646  137.9464  158.5681 H   0  0  0  0  0  0  0  0  0  0  0  0
  151.7897  142.6341  156.1756 H   0  0  0  0  0  0  0  0  0  0  0  0
  150.5106  142.9173  157.3464 H   0  0  0  0  0  0  0  0  0  0  0  0
  153.3965  143.9574  157.5433 H   0  0  0  0  0  0  0  0  0  0  0  0
  151.9587  144.9163  157.2468 H   0  0  0  0  0  0  0  0  0  0  0  0
  150.0370  137.3742  153.1548 H   0  0  0  0  0  0  0  0  0  0  0  0
  1  2  1  0  0  0  0
  1 16  1  0  0  0  0
  1 17  1  0  0  0  0
  1 18  1  0  0  0  0
  2 15  1  0  0  0  0
  2  3  1  0  0  0  0
  2 19  1  0  0  0  0
  3  4  1  0  0  0  0
  3 20  1  0  0  0  0
  3 21  1  0  0  0  0
  4  5  1  0  0  0  0
  4 13  1  0  0  0  0
  5 12  1  0  0  0  0
  5  6  2  0  0  0  0
  6  7  1  0  0  0  0
  6 22  1  0  0  0  0
  7  8  1  0  0  0  0
  7 10  2  0  0  0  0
  8  9  1  0  0  0  0
  8 23  1  0  0  0  0
  8 24  1  0  0  0  0
  9 25  1  0  0  0  0
  9 26  1  0  0  0  0
  9 33  1  0  0  0  0
 10 11  1  0  0  0  0
 10 27  1  0  0  0  0
 11 12  2  0  0  0  0
 11 28  1  0  0  0  0
 13 14  1  0  0  0  0
 13 29  1  0  0  0  0
 13 30  1  0  0  0  0
 14 15  1  0  0  0  0
 14 31  1  0  0  0  0
 14 32  1  0  0  0  0
M  CHG  1   9   1
M  END
> <s_m_source_file>
AV-unprocessed.smi

> <i_m_source_file_index>
3115

> <i_lp_mmshare_version>
43012

> <i_f3d_flags>
0

> <s_epik_input>
W0NIM11bQ0BASF0xW0NIMl1OKFtDSDJdW0NIMl1PMSljMltjSF1jKFtDSDJdW05IMl0pW2NIXVtjSF1uMg==

> <s_epik_cmdline>
J2VwaWtfcHl0aG9uJywgJy1waCcsICc3LjAnLCAnLXRuJywgJzgnLCAnLW1hJywgJzIwMCcsICctbWV0YWxfYmluZGluZycsICctaW1hZScsICc8aW5maWxlLm1hZT4nLCAnLW9tYWUnLCAnPG91dGZpbGUubWFlPic=

> <r_lp_tautomer_probability>
1

> <r_epik_Ionization_Penalty>
0.0768907

> <r_epik_Ionization_Penalty_Charging>
0.0768864

> <r_epik_Ionization_Penalty_Neutral>
4.339e-06

> <r_epik_State_Penalty>
0.0093217

> <r_epik_Charging_Adjusted_Penalty>
0.0862081

> <i_epik_Tot_Q>
1

> <i_epik_Tot_abs_Q>
1

> <r_epik_Metal_State_Penalty>
0.0096683

> <b_epik_Metal_Only>
0

> <s_lp_Force_Field>
OPLS_2005

> <r_lp_Energy>
14.3897

> <b_lp_Chiralities_Consistent>
1

> <s_lp_Variant>
AV-unprocessed.smi:3115-2

> <Gold.Version>
5.8.1

> <Gold.Id.Protein>
6NUR|6NUR_protein|mol2

> <Gold.PLP.Fitness>
39.9603

> <Gold.PLP.PLP>
-31.0736

> <Gold.PLP.part.hbond>
-2.0000

> <Gold.PLP.part.metal>
0.0000

> <Gold.PLP.part.buried>
-5.4970

> <Gold.PLP.part.nonpolar>
-23.6885

> <Gold.PLP.part.repulsive>
0.1019

> <Gold.PLP.ligand.clash>
0.0000

> <Gold.PLP.ligand.torsion>
0.1058

> <Gold.PLP.Chemscore.Hbond>
3.0000

> <Gold.PLP.Chemscore.CHOScore>
0.0000

> <Gold.PLP.Chemscore.Metal>
0.0000

> <Gold.Chemscore.Hbonds>
donor molecule, donor type, donor heavy atom, donor atom, acceptor molecule, acceptor atom, score
      L1  H     9    25       P1  7957  1.00
      L1  H     9    33       P1  7948  1.73

> <Gold.PLP.Chemscore.Internal.Correction>
0.0983

> <Gold.Rescore>
     Score         DG    S(hbond)    S(metal)    S(lipo)     H(rot)  DE(clash)    DE(int)     intcor
     17.88     -18.17       1.96        0.00      81.14       1.30       0.00       0.29       ----

> <Gold.Chemscore.Fitness>
17.8833

> <Gold.Chemscore.DG>
-18.1684

> <Gold.Chemscore.ZeroCoef>
-5.4800

> <Gold.Chemscore.Hbond>
1.9565

> <Gold.Chemscore.Metal>
0.0000

> <Gold.Chemscore.Lipo>
81.1390

> <Gold.Chemscore.Internal_Hbond>
0.0000

> <Gold.Chemscore.DEClash>
0.0000

> <Gold.Chemscore.DEInternal>
0.2851

> <Gold.Chemscore.Rot>
1.3045

> <Gold.Chemscore.Internal.Correction>
   9.000000E+99

> <Gold.Chemscore.Hbonds>
donor molecule, donor type, donor heavy atom, donor atom, acceptor molecule, acceptor atom, score
      L1  H     9    25       P1  7957  0.53
      L1  H     9    33       P1  7948  0.18

> <Gold.Chemscore.Hbond.Weighted>
-6.5346

> <Gold.Chemscore.Metal.Weighted>
-0.0000

> <Gold.Chemscore.Lipo.Weighted>
-9.4933

> <Gold.Chemscore.Internal_Hbond.Weighted>
0.0000

> <Gold.Chemscore.DEClash.Weighted>
0.0000

> <Gold.Chemscore.DEInternal.Weighted>
0.2851

> <Gold.Chemscore.Rot.Weighted>
3.3395

> <Gold.Chemscore.Internal.Correction.Weighted>
   9.000000E+99

> <Gold.Protein.RotatedTorsions>
[ 6907 6896 6895 6894 ] final   51.44 input  -60.11 | X-H torsion
[ 7974 7965 7964 7962 ] final  -83.39 input  175.53 | X-H torsion
[ 8008 7997 7996 7995 ] final  163.93 input   59.86 | X-H torsion
[ 10167 10162 10161 10158 ] final -128.45 input  -65.29 | X-H torsion
[ 10718 10713 10712 10709 ] final   83.68 input   66.30 | X-H torsion
[ 10763 10752 10751 10750 ] final   16.45 input  -60.55 | X-H torsion
[ 11005 11000 10999 10996 ] final  -62.52 input  -57.11 | X-H torsion

> <Gold.Protein.ActiveResidues>
 VAL166  LYS551  ARG553  GLY616  TRP617  ASP618  TYR619  PRO620  LYS621  CYS622 
 ASP623  PHE694  ASN695  SER759  ASP760  ASP761  ALA762  ILE779  LEU786  VAL792 
 PHE793  MET794  SER795  GLU796  ALA797  LYS798  CYS799  TRP800  GLU811  SER814 

> <Gold.Protein.RotatedAtoms>
  152.3127  134.7478  160.0332 H   0  0  0  0  0  0  0  0  0  0  0  0  # atno 6907 bound_to 6896
  151.7953  133.3358  159.3519 H   0  0  0  0  0  0  0  0  0  0  0  0  # atno 6908 bound_to 6896
  150.7328  134.5734  159.5946 H   0  0  0  0  0  0  0  0  0  0  0  0  # atno 6909 bound_to 6896
  145.5206  140.9531  143.1657 H   0  0  0  0  0  0  0  0  0  0  0  0  # atno 7974 bound_to 7965
  156.1919  140.1710  156.8074 H   0  0  0  0  0  0  0  0  0  0  0  0  # atno 8008 bound_to 7997
  154.5482  140.0723  156.8656 H   0  0  0  0  0  0  0  0  0  0  0  0  # atno 8009 bound_to 7997
  155.3080  140.3366  155.4247 H   0  0  0  0  0  0  0  0  0  0  0  0  # atno 8010 bound_to 7997
  139.9502  143.6064  152.2478 H   0  0  0  0  0  0  0  0  0  0  0  0  # atno 10167 bound_to 10162
  157.6884  131.0101  150.2560 H   0  0  0  0  0  0  0  0  0  0  0  0  # atno 10718 bound_to 10713
  153.1429  135.6763  153.8999 H   0  0  0  0  0  0  0  0  0  0  0  0  # atno 10763 bound_to 10752
  153.8450  135.3100  155.3430 H   0  0  0  0  0  0  0  0  0  0  0  0  # atno 10764 bound_to 10752
  154.7802  135.4892  153.9913 H   0  0  0  0  0  0  0  0  0  0  0  0  # atno 10765 bound_to 10752
  141.1362  133.6641  156.5540 H   0  0  0  0  0  0  0  0  0  0  0  0  # atno 11005 bound_to 11000
  144.7678  139.6805  143.7207 LP  0  0  0  0  0  0  0  0  0  0  0  0  # atno 17320 bound_to 7965
  146.2108  139.5463  142.9682 LP  0  0  0  0  0  0  0  0  0  0  0  0  # atno 17321 bound_to 7965
  139.6635  144.7662  151.1918 LP  0  0  0  0  0  0  0  0  0  0  0  0  # atno 17342 bound_to 10162
  140.7585  143.5974  150.8734 LP  0  0  0  0  0  0  0  0  0  0  0  0  # atno 17343 bound_to 10162
  156.3148  130.3777  149.7629 LP  0  0  0  0  0  0  0  0  0  0  0  0  # atno 17370 bound_to 10713
  156.5218  130.8218  151.3206 LP  0  0  0  0  0  0  0  0  0  0  0  0  # atno 17371 bound_to 10713
  140.4041  134.7331  157.4797 LP  0  0  0  0  0  0  0  0  0  0  0  0  # atno 17394 bound_to 11000
  140.0475  134.6179  155.8903 LP  0  0  0  0  0  0  0  0  0  0  0  0  # atno 17395 bound_to 11000

$$$$
