AV-unprocessed.smi:21|AV-procd|sdf|145|dock7
  -GOLD-   2262015353D 1   1.00000     0.00000
 Structure written by MMmdl.
 62 65  0  0  0  0  0  0  0  0  2 V2000
  143.7727  132.7197  148.8281 C   0  0  0  0  0  0  0  0  0  0  0  0
  144.9810  132.9512  149.5347 O   0  0  0  0  0  0  0  0  0  0  0  0
  144.9003  132.6374  150.9171 C   0  0  1  0  0  0  0  0  0  0  0  0
  146.1927  132.9235  151.6739 C   0  0  0  0  0  0  0  0  0  0  0  0
  145.7317  133.0976  153.1279 C   0  0  1  0  0  0  0  0  0  0  0  0
  146.7013  133.9382  153.9953 C   0  0  0  0  0  0  0  0  0  0  0  0
  147.9537  133.2326  154.2806 N   0  0  0  0  0  0  0  0  0  0  0  0
  148.8016  132.8605  153.1547 C   0  0  0  0  0  0  0  0  0  0  0  0
  148.4575  133.2120  155.5481 C   0  0  0  0  0  0  0  0  0  0  0  0
  149.7733  132.9087  155.7098 N   0  0  0  0  0  0  0  0  0  0  0  0
  150.3246  132.8663  156.9248 C   0  0  0  0  0  0  0  0  0  0  0  0
  149.7517  133.0919  158.1062 N   0  0  0  0  0  0  0  0  0  0  0  0
  148.4323  133.4002  157.9627 C   0  0  0  0  0  0  0  0  0  0  0  0
  147.7085  133.4786  156.7364 C   0  0  0  0  0  0  0  0  0  0  0  0
  146.3803  133.7939  157.0080 N   0  0  0  0  0  0  0  0  0  0  0  0
  146.3266  133.9069  158.3061 C   0  0  0  0  0  0  0  0  0  0  0  0
  147.5204  133.7057  158.9581 N   0  0  0  0  0  0  0  0  0  0  0  0
  147.7463  133.7621  160.3918 C   0  0  0  0  0  0  0  0  0  0  0  0
  146.7817  134.7010  161.1641 C   0  0  2  0  0  0  0  0  0  0  0  0
  147.6079  135.7213  161.9808 C   0  0  0  0  0  0  0  0  0  0  0  0
  148.0629  136.7902  161.1757 O   0  0  0  0  0  0  0  0  0  0  0  0
  145.7197  133.9628  162.0310 C   0  0  1  0  0  0  0  0  0  0  0  0
  144.7101  134.8760  162.7095 C   0  0  0  0  0  0  0  0  0  0  0  0
  143.5903  133.9103  163.0676 C   0  0  0  0  0  0  0  0  0  0  0  0
  143.5290  133.0139  161.9688 O   0  0  0  0  0  0  0  0  0  0  0  0
  144.7717  133.0201  161.2716 C   0  0  0  0  0  0  0  0  0  0  0  0
  144.3272  133.5984  153.0456 N   0  3  1  0  0  0  0  0  0  0  0  0
  144.0119  134.8839  153.7121 C   0  0  0  0  0  0  0  0  0  0  0  0
  143.9147  133.5655  151.6232 C   0  0  0  0  0  0  0  0  0  0  0  0
  144.5930  131.6007  151.0673 H   0  0  0  0  0  0  0  0  0  0  0  0
  145.6504  132.1041  153.5716 H   0  0  0  0  0  0  0  0  0  0  0  0
  143.8991  133.0137  147.7863 H   0  0  0  0  0  0  0  0  0  0  0  0
  142.9530  133.3067  149.2444 H   0  0  0  0  0  0  0  0  0  0  0  0
  143.4928  131.6658  148.8443 H   0  0  0  0  0  0  0  0  0  0  0  0
  146.9357  132.1333  151.5611 H   0  0  0  0  0  0  0  0  0  0  0  0
  146.6305  133.8521  151.3047 H   0  0  0  0  0  0  0  0  0  0  0  0
  146.8831  134.9104  153.5378 H   0  0  0  0  0  0  0  0  0  0  0  0
  146.2356  134.1536  154.9570 H   0  0  0  0  0  0  0  0  0  0  0  0
  149.5328  133.6422  152.9475 H   0  0  0  0  0  0  0  0  0  0  0  0
  148.2061  132.7125  152.2537 H   0  0  0  0  0  0  0  0  0  0  0  0
  149.3279  131.9266  153.3548 H   0  0  0  0  0  0  0  0  0  0  0  0
  151.3750  132.6168  156.9544 H   0  0  0  0  0  0  0  0  0  0  0  0
  145.4111  134.1524  158.8246 H   0  0  0  0  0  0  0  0  0  0  0  0
  147.6826  132.7487  160.7902 H   0  0  0  0  0  0  0  0  0  0  0  0
  148.7773  134.0843  160.5410 H   0  0  0  0  0  0  0  0  0  0  0  0
  146.2379  135.2913  160.4260 H   0  0  0  0  0  0  0  0  0  0  0  0
  147.0088  136.1301  162.7950 H   0  0  0  0  0  0  0  0  0  0  0  0
  148.4681  135.2450  162.4510 H   0  0  0  0  0  0  0  0  0  0  0  0
  148.0497  136.5131  160.2724 H   0  0  0  0  0  0  0  0  0  0  0  0
  146.2265  133.3887  162.8084 H   0  0  0  0  0  0  0  0  0  0  0  0
  145.1114  135.3859  163.5856 H   0  0  0  0  0  0  0  0  0  0  0  0
  144.3434  135.6296  162.0108 H   0  0  0  0  0  0  0  0  0  0  0  0
  143.8425  133.3494  163.9685 H   0  0  0  0  0  0  0  0  0  0  0  0
  142.6361  134.4113  163.2313 H   0  0  0  0  0  0  0  0  0  0  0  0
  144.5854  133.3780  160.2585 H   0  0  0  0  0  0  0  0  0  0  0  0
  145.1655  132.0065  161.2057 H   0  0  0  0  0  0  0  0  0  0  0  0
  144.5951  135.7049  153.2935 H   0  0  0  0  0  0  0  0  0  0  0  0
  144.1981  134.8291  154.7847 H   0  0  0  0  0  0  0  0  0  0  0  0
  142.9561  135.1223  153.5801 H   0  0  0  0  0  0  0  0  0  0  0  0
  143.9962  134.5674  151.1971 H   0  0  0  0  0  0  0  0  0  0  0  0
  142.8797  133.2412  151.5112 H   0  0  0  0  0  0  0  0  0  0  0  0
  143.7695  132.8988  153.5145 H   0  0  0  0  0  0  0  0  0  0  0  0
  1  2  1  0  0  0  0
  1 32  1  0  0  0  0
  1 33  1  0  0  0  0
  1 34  1  0  0  0  0
  2  3  1  0  0  0  0
  3 30  1  0  0  0  0
  3 29  1  0  0  0  0
  3  4  1  0  0  0  0
  4  5  1  0  0  0  0
  4 35  1  0  0  0  0
  4 36  1  0  0  0  0
  5 31  1  0  0  0  0
  5  6  1  0  0  0  0
  5 27  1  0  0  0  0
  6  7  1  0  0  0  0
  6 37  1  0  0  0  0
  6 38  1  0  0  0  0
  7  8  1  0  0  0  0
  7  9  1  0  0  0  0
  8 39  1  0  0  0  0
  8 40  1  0  0  0  0
  8 41  1  0  0  0  0
  9 14  1  0  0  0  0
  9 10  2  0  0  0  0
 10 11  1  0  0  0  0
 11 12  2  0  0  0  0
 11 42  1  0  0  0  0
 12 13  1  0  0  0  0
 13 17  1  0  0  0  0
 13 14  2  0  0  0  0
 14 15  1  0  0  0  0
 15 16  2  0  0  0  0
 16 17  1  0  0  0  0
 16 43  1  0  0  0  0
 17 18  1  0  0  0  0
 18 19  1  0  0  0  0
 18 44  1  0  0  0  0
 18 45  1  0  0  0  0
 19 20  1  0  0  0  0
 19 22  1  0  0  0  0
 19 46  1  0  0  0  0
 20 21  1  0  0  0  0
 20 47  1  0  0  0  0
 20 48  1  0  0  0  0
 21 49  1  0  0  0  0
 22 26  1  0  0  0  0
 22 23  1  0  0  0  0
 22 50  1  0  0  0  0
 23 24  1  0  0  0  0
 23 51  1  0  0  0  0
 23 52  1  0  0  0  0
 24 25  1  0  0  0  0
 24 53  1  0  0  0  0
 24 54  1  0  0  0  0
 25 26  1  0  0  0  0
 26 55  1  0  0  0  0
 26 56  1  0  0  0  0
 27 28  1  0  0  0  0
 27 29  1  0  0  0  0
 27 62  1  0  0  0  0
 28 57  1  0  0  0  0
 28 58  1  0  0  0  0
 28 59  1  0  0  0  0
 29 60  1  0  0  0  0
 29 61  1  0  0  0  0
M  CHG  1  27   1
M  END
> <s_m_source_file>
AV-unprocessed.smi

> <i_m_source_file_index>
21

> <i_lp_mmshare_version>
43012

> <i_f3d_flags>
0

> <s_epik_input>
W0NIM11PW0NASF0xW0NIMl1bQ0BIXShOKFtDSDNdKVtDSDJdMSlbQ0gyXU4oW0NIM10pYyhuW2NIXW4yKWMoYzIzKW5bY0hdbjNbQ0gyXVtDQEhdKFtDSDJdW09IXSlbQ0BASF00W0NIMl1bQ0gyXU9bQ0gyXTQ=

> <s_epik_cmdline>
J2VwaWtfcHl0aG9uJywgJy1waCcsICc3LjAnLCAnLXRuJywgJzgnLCAnLW1hJywgJzIwMCcsICctbWV0YWxfYmluZGluZycsICctaW1hZScsICc8aW5maWxlLm1hZT4nLCAnLW9tYWUnLCAnPG91dGZpbGUubWFlPic=

> <r_lp_tautomer_probability>
1

> <r_epik_Ionization_Penalty>
0.0157465

> <r_epik_Ionization_Penalty_Charging>
0.015354

> <r_epik_Ionization_Penalty_Neutral>
0.000392529

> <r_epik_State_Penalty>
0.0120612

> <r_epik_Charging_Adjusted_Penalty>
0.0274152

> <i_epik_Tot_Q>
1

> <i_epik_Tot_abs_Q>
1

> <r_epik_Metal_State_Penalty>
0.0121253

> <b_epik_Metal_Only>
0

> <s_lp_Force_Field>
OPLS_2005

> <r_lp_Energy>
60.8003

> <b_lp_Chiralities_Consistent>
1

> <s_lp_Variant>
AV-unprocessed.smi:21-25

> <Gold.Version>
5.8.1

> <Gold.Id.Protein>
6NUR|6NUR_protein|mol2

> <Gold.PLP.Fitness>
51.2252

> <Gold.PLP.PLP>
-39.4916

> <Gold.PLP.part.hbond>
-4.0000

> <Gold.PLP.part.metal>
0.0000

> <Gold.PLP.part.buried>
-6.7379

> <Gold.PLP.part.nonpolar>
-30.8018

> <Gold.PLP.part.repulsive>
1.5689

> <Gold.PLP.ligand.clash>
0.0000

> <Gold.PLP.ligand.torsion>
1.5967

> <Gold.PLP.Chemscore.Hbond>
4.8080

> <Gold.PLP.Chemscore.CHOScore>
0.0000

> <Gold.PLP.Chemscore.Metal>
0.0000

> <Gold.Chemscore.Hbonds>
donor molecule, donor type, donor heavy atom, donor atom, acceptor molecule, acceptor atom, score
      L1  H    27    62       P1 10957  2.00
      P1  H  6896  6907       L1    12  1.00
      P1  H  6931  6943       L1    21  1.00
      P1  H  6934  6947       L1    21  0.05

> <Gold.PLP.Chemscore.Internal.Correction>
0.5030

> <Gold.Rescore>
     Score         DG    S(hbond)    S(metal)    S(lipo)     H(rot)  DE(clash)    DE(int)     intcor
     16.50     -19.04       3.14        0.00      93.65       3.08       0.05       2.49       ----

> <Gold.Chemscore.Fitness>
16.5020

> <Gold.Chemscore.DG>
-19.0361

> <Gold.Chemscore.ZeroCoef>
-5.4800

> <Gold.Chemscore.Hbond>
3.1357

> <Gold.Chemscore.Metal>
0.0000

> <Gold.Chemscore.Lipo>
93.6489

> <Gold.Chemscore.Internal_Hbond>
0.0000

> <Gold.Chemscore.DEClash>
0.0474

> <Gold.Chemscore.DEInternal>
2.4867

> <Gold.Chemscore.Rot>
3.0758

> <Gold.Chemscore.Internal.Correction>
   9.000000E+99

> <Gold.Chemscore.Hbonds>
donor molecule, donor type, donor heavy atom, donor atom, acceptor molecule, acceptor atom, score
      L1  H    27    62       P1 10957  0.74
      P1  H  6896  6907       L1    12  0.90
      P1  H  6931  6943       L1    21  0.98
      P1  H  6934  6947       L1    21  0.02

> <Gold.Chemscore.Hbond.Weighted>
-10.4733

> <Gold.Chemscore.Metal.Weighted>
-0.0000

> <Gold.Chemscore.Lipo.Weighted>
-10.9569

> <Gold.Chemscore.Internal_Hbond.Weighted>
0.0000

> <Gold.Chemscore.DEClash.Weighted>
0.0474

> <Gold.Chemscore.DEInternal.Weighted>
2.4867

> <Gold.Chemscore.Rot.Weighted>
7.8741

> <Gold.Chemscore.Internal.Correction.Weighted>
   9.000000E+99

> <Gold.Protein.RotatedTorsions>
[ 6907 6896 6895 6894 ] final -115.77 input  -60.11 | X-H torsion
[ 7974 7965 7964 7962 ] final  -19.04 input  175.53 | X-H torsion
[ 8008 7997 7996 7995 ] final   29.60 input   59.86 | X-H torsion
[ 10167 10162 10161 10158 ] final   17.58 input  -65.29 | X-H torsion
[ 10718 10713 10712 10709 ] final  -78.88 input   66.30 | X-H torsion
[ 10763 10752 10751 10750 ] final   28.58 input  -60.55 | X-H torsion
[ 11005 11000 10999 10996 ] final  146.86 input  -57.11 | X-H torsion

> <Gold.Protein.ActiveResidues>
 VAL166  LYS551  ARG553  GLY616  TRP617  ASP618  TYR619  PRO620  LYS621  CYS622 
 ASP623  PHE694  ASN695  SER759  ASP760  ASP761  ALA762  ILE779  LEU786  VAL792 
 PHE793  MET794  SER795  GLU796  ALA797  LYS798  CYS799  TRP800  GLU811  SER814 

> <Gold.Protein.RotatedAtoms>
  150.8003  133.8612  159.3232 H   0  0  0  0  0  0  0  0  0  0  0  0  # atno 6907 bound_to 6896
  151.6426  135.1009  160.0154 H   0  0  0  0  0  0  0  0  0  0  0  0  # atno 6908 bound_to 6896
  152.4090  133.6894  159.6416 H   0  0  0  0  0  0  0  0  0  0  0  0  # atno 6909 bound_to 6896
  146.1862  140.4006  142.8475 H   0  0  0  0  0  0  0  0  0  0  0  0  # atno 7974 bound_to 7965
  155.0771  140.3206  155.4612 H   0  0  0  0  0  0  0  0  0  0  0  0  # atno 8008 bound_to 7997
  156.2776  140.2101  156.5845 H   0  0  0  0  0  0  0  0  0  0  0  0  # atno 8009 bound_to 7997
  154.7008  140.0507  157.0443 H   0  0  0  0  0  0  0  0  0  0  0  0  # atno 8010 bound_to 7997
  140.5716  143.9151  150.6717 H   0  0  0  0  0  0  0  0  0  0  0  0  # atno 10167 bound_to 10162
  156.0106  130.4530  150.3564 H   0  0  0  0  0  0  0  0  0  0  0  0  # atno 10718 bound_to 10713
  153.0483  135.6510  154.0760 H   0  0  0  0  0  0  0  0  0  0  0  0  # atno 10763 bound_to 10752
  154.0453  135.2900  155.3350 H   0  0  0  0  0  0  0  0  0  0  0  0  # atno 10764 bound_to 10752
  154.6755  135.5340  153.8260 H   0  0  0  0  0  0  0  0  0  0  0  0  # atno 10765 bound_to 10752
  140.0828  134.9087  157.1528 H   0  0  0  0  0  0  0  0  0  0  0  0  # atno 11005 bound_to 11000
  144.8401  140.6844  143.6235 LP  0  0  0  0  0  0  0  0  0  0  0  0  # atno 17320 bound_to 7965
  145.3932  139.1612  143.4218 LP  0  0  0  0  0  0  0  0  0  0  0  0  # atno 17321 bound_to 7965
  140.2628  143.3512  152.1308 LP  0  0  0  0  0  0  0  0  0  0  0  0  # atno 17342 bound_to 10162
  139.5120  144.6910  151.5760 LP  0  0  0  0  0  0  0  0  0  0  0  0  # atno 17343 bound_to 10162
  157.1654  131.0355  151.2821 LP  0  0  0  0  0  0  0  0  0  0  0  0  # atno 17370 bound_to 10713
  157.4275  130.7472  149.6963 LP  0  0  0  0  0  0  0  0  0  0  0  0  # atno 17371 bound_to 10713
  140.3463  134.2648  155.7205 LP  0  0  0  0  0  0  0  0  0  0  0  0  # atno 17394 bound_to 11000
  141.2052  133.7865  157.0243 LP  0  0  0  0  0  0  0  0  0  0  0  0  # atno 17395 bound_to 11000

$$$$
