AV-unprocessed.smi:1899|AV-procd|sdf|7707|dock5
  -GOLD-   22720 9443D 1   1.00000     0.00000
 Structure written by MMmdl.
 33 34  0  0  0  0  0  0  0  0  1 V2000
  152.6664  140.2582  157.8320 O   0  0  0  0  0  0  0  0  0  0  0  0
  151.9018  141.1926  157.5895 C   0  0  0  0  0  0  0  0  0  0  0  0
  151.1875  141.2849  156.4566 N   0  0  0  0  0  0  0  0  0  0  0  0
  151.1608  140.2846  155.3932 C   0  0  0  0  0  0  0  0  0  0  0  0
  149.8345  139.5017  155.3769 C   0  0  0  0  0  0  0  0  0  0  0  0
  148.7728  140.2139  154.6897 N   0  0  0  0  0  0  0  0  0  0  0  0
  147.8427  139.6820  153.8058 C   0  0  0  0  0  0  0  0  0  0  0  0
  147.0461  140.7274  153.3972 C   0  0  0  0  0  0  0  0  0  0  0  0
  147.4602  141.9030  154.0191 N   0  0  0  0  0  0  0  0  0  0  0  0
  148.4857  141.5203  154.7690 C   0  0  0  0  0  0  0  0  0  0  0  0
  151.7032  142.3134  158.6175 C   0  0  2  0  0  0  0  0  0  0  0  0
  151.9327  143.7066  157.9871 C   0  0  0  0  0  0  0  0  0  0  0  0
  152.0076  144.8042  159.0344 C   0  0  0  0  0  0  0  0  0  0  0  0
  152.1912  144.5656  160.3444 C   0  0  0  0  0  0  0  0  0  0  0  0
  152.3496  143.1718  160.9259 C   0  0  0  0  0  0  0  0  0  0  0  0
  152.6236  142.1157  159.8388 C   0  0  0  0  0  0  0  0  0  0  0  0
  150.5872  142.0887  156.3406 H   0  0  0  0  0  0  0  0  0  0  0  0
  151.2786  140.8100  154.4454 H   0  0  0  0  0  0  0  0  0  0  0  0
  152.0099  139.6030  155.4675 H   0  0  0  0  0  0  0  0  0  0  0  0
  149.9705  138.5287  154.9030 H   0  0  0  0  0  0  0  0  0  0  0  0
  149.5058  139.3085  156.3987 H   0  0  0  0  0  0  0  0  0  0  0  0
  147.8309  138.6351  153.5408 H   0  0  0  0  0  0  0  0  0  0  0  0
  146.2138  140.7238  152.7090 H   0  0  0  0  0  0  0  0  0  0  0  0
  149.0457  142.2078  155.3859 H   0  0  0  0  0  0  0  0  0  0  0  0
  150.6717  142.2706  158.9729 H   0  0  0  0  0  0  0  0  0  0  0  0
  152.8558  143.7351  157.4062 H   0  0  0  0  0  0  0  0  0  0  0  0
  151.1183  143.9380  157.2997 H   0  0  0  0  0  0  0  0  0  0  0  0
  151.9182  145.8211  158.6815 H   0  0  0  0  0  0  0  0  0  0  0  0
  152.2221  145.3902  161.0413 H   0  0  0  0  0  0  0  0  0  0  0  0
  153.1611  143.1748  161.6540 H   0  0  0  0  0  0  0  0  0  0  0  0
  151.4362  142.9260  161.4682 H   0  0  0  0  0  0  0  0  0  0  0  0
  152.5016  141.1165  160.2595 H   0  0  0  0  0  0  0  0  0  0  0  0
  153.6659  142.1904  159.5242 H   0  0  0  0  0  0  0  0  0  0  0  0
  1  2  2  0  0  0  0
  2  3  1  0  0  0  0
  2 11  1  0  0  0  0
  3  4  1  0  0  0  0
  3 17  1  0  0  0  0
  4  5  1  0  0  0  0
  4 18  1  0  0  0  0
  4 19  1  0  0  0  0
  5  6  1  0  0  0  0
  5 20  1  0  0  0  0
  5 21  1  0  0  0  0
  6 10  1  0  0  0  0
  6  7  1  0  0  0  0
  7  8  2  0  0  0  0
  7 22  1  0  0  0  0
  8  9  1  0  0  0  0
  8 23  1  0  0  0  0
  9 10  2  0  0  0  0
 10 24  1  0  0  0  0
 11 16  1  0  0  0  0
 11 12  1  0  0  0  0
 11 25  1  0  0  0  0
 12 13  1  0  0  0  0
 12 26  1  0  0  0  0
 12 27  1  0  0  0  0
 13 14  2  0  0  0  0
 13 28  1  0  0  0  0
 14 15  1  0  0  0  0
 14 29  1  0  0  0  0
 15 16  1  0  0  0  0
 15 30  1  0  0  0  0
 15 31  1  0  0  0  0
 16 32  1  0  0  0  0
 16 33  1  0  0  0  0
M  END
> <s_m_source_file>
AV-unprocessed.smi

> <i_m_source_file_index>
1899

> <i_lp_mmshare_version>
43012

> <i_f3d_flags>
0

> <s_epik_input>
W0NIMl0xW0NIMl1bQ0hdPVtDSF1bQ0gyXVtDQEhdMUMoPU8pW05IXVtDSDJdW0NIMl1uMltjSF1bY0hdbltjSF0y

> <s_epik_cmdline>
J2VwaWtfcHl0aG9uJywgJy1waCcsICc3LjAnLCAnLXRuJywgJzgnLCAnLW1hJywgJzIwMCcsICctbWV0YWxfYmluZGluZycsICctaW1hZScsICc8aW5maWxlLm1hZT4nLCAnLW9tYWUnLCAnPG91dGZpbGUubWFlPic=

> <r_lp_tautomer_probability>
1

> <r_epik_Ionization_Penalty>
0.598506

> <r_epik_Ionization_Penalty_Charging>
0.598506

> <r_epik_Ionization_Penalty_Neutral>
1.57027e-08

> <r_epik_State_Penalty>
0.612686

> <r_epik_Charging_Adjusted_Penalty>
1.21119

> <i_epik_Tot_Q>
0

> <i_epik_Tot_abs_Q>
0

> <r_epik_Metal_State_Penalty>
0.300712

> <b_epik_Metal_Only>
0

> <s_lp_Force_Field>
OPLS_2005

> <r_lp_Energy>
9.97921

> <b_lp_Chiralities_Consistent>
1

> <s_lp_Variant>
AV-unprocessed.smi:1899-3

> <Gold.Version>
5.8.1

> <Gold.Id.Protein>
6NUR|6NUR_protein|mol2

> <Gold.PLP.Fitness>
43.9852

> <Gold.PLP.PLP>
-36.0119

> <Gold.PLP.part.hbond>
-1.0000

> <Gold.PLP.part.metal>
0.0000

> <Gold.PLP.part.buried>
-2.5166

> <Gold.PLP.part.nonpolar>
-32.7494

> <Gold.PLP.part.repulsive>
0.2768

> <Gold.PLP.ligand.clash>
0.0000

> <Gold.PLP.ligand.torsion>
0.4849

> <Gold.PLP.Chemscore.Hbond>
0.9675

> <Gold.PLP.Chemscore.CHOScore>
2.0000

> <Gold.PLP.Chemscore.Metal>
0.0000

> <Gold.Chemscore.Hbonds>
donor molecule, donor type, donor heavy atom, donor atom, acceptor molecule, acceptor atom, score
      P1  H  7997  8008       L1     1  0.92
      L1  C     8    23       P1 10175  0.97
      L1  C    10    24       P1  8028  1.00

> <Gold.PLP.Chemscore.Internal.Correction>
0.0408

> <Gold.Rescore>
     Score         DG    S(hbond)    S(metal)    S(lipo)     H(rot)  DE(clash)    DE(int)     intcor
     14.26     -14.98       0.88        0.00      95.71       1.80       0.26       0.46       ----

> <Gold.Chemscore.Fitness>
14.2612

> <Gold.Chemscore.DG>
-14.9818

> <Gold.Chemscore.ZeroCoef>
-5.4800

> <Gold.Chemscore.Hbond>
0.8755

> <Gold.Chemscore.Metal>
0.0000

> <Gold.Chemscore.Lipo>
95.7104

> <Gold.Chemscore.Internal_Hbond>
0.0000

> <Gold.Chemscore.DEClash>
0.2612

> <Gold.Chemscore.DEInternal>
0.4595

> <Gold.Chemscore.Rot>
1.8048

> <Gold.Chemscore.Internal.Correction>
   9.000000E+99

> <Gold.Chemscore.Hbonds>
donor molecule, donor type, donor heavy atom, donor atom, acceptor molecule, acceptor atom, score
      P1  H  7997  8008       L1     1  0.82

> <Gold.Chemscore.Hbond.Weighted>
-2.9240

> <Gold.Chemscore.Metal.Weighted>
-0.0000

> <Gold.Chemscore.Lipo.Weighted>
-11.1981

> <Gold.Chemscore.Internal_Hbond.Weighted>
0.0000

> <Gold.Chemscore.DEClash.Weighted>
0.2612

> <Gold.Chemscore.DEInternal.Weighted>
0.4595

> <Gold.Chemscore.Rot.Weighted>
4.6203

> <Gold.Chemscore.Internal.Correction.Weighted>
   9.000000E+99

> <Gold.Protein.RotatedTorsions>
[ 6907 6896 6895 6894 ] final  -19.62 input  -60.11 | X-H torsion
[ 7974 7965 7964 7962 ] final  119.73 input  175.53 | X-H torsion
[ 8008 7997 7996 7995 ] final  -69.29 input   59.86 | X-H torsion
[ 10167 10162 10161 10158 ] final   15.74 input  -65.29 | X-H torsion
[ 10718 10713 10712 10709 ] final  -77.59 input   66.30 | X-H torsion
[ 10763 10752 10751 10750 ] final  -51.33 input  -60.55 | X-H torsion
[ 11005 11000 10999 10996 ] final  169.33 input  -57.11 | X-H torsion

> <Gold.Protein.ActiveResidues>
 VAL166  LYS551  ARG553  GLY616  TRP617  ASP618  TYR619  PRO620  LYS621  CYS622 
 ASP623  PHE694  ASN695  SER759  ASP760  ASP761  ALA762  ILE779  LEU786  VAL792 
 PHE793  MET794  SER795  GLU796  ALA797  LYS798  CYS799  TRP800  GLU811  SER814 

> <Gold.Protein.RotatedAtoms>
  151.2603  135.0652  159.9095 H   0  0  0  0  0  0  0  0  0  0  0  0  # atno 6907 bound_to 6896
  152.5367  134.0238  159.8004 H   0  0  0  0  0  0  0  0  0  0  0  0  # atno 6908 bound_to 6896
  151.0460  133.5615  159.2678 H   0  0  0  0  0  0  0  0  0  0  0  0  # atno 6909 bound_to 6896
  145.1397  139.3276  143.4622 H   0  0  0  0  0  0  0  0  0  0  0  0  # atno 7974 bound_to 7965
  154.4928  140.0856  156.7632 H   0  0  0  0  0  0  0  0  0  0  0  0  # atno 8008 bound_to 7997
  155.4189  140.3445  155.4251 H   0  0  0  0  0  0  0  0  0  0  0  0  # atno 8009 bound_to 7997
  156.1353  140.1513  156.8991 H   0  0  0  0  0  0  0  0  0  0  0  0  # atno 8010 bound_to 7997
  140.5846  143.8914  150.6819 H   0  0  0  0  0  0  0  0  0  0  0  0  # atno 10167 bound_to 10162
  156.0141  130.4495  150.3367 H   0  0  0  0  0  0  0  0  0  0  0  0  # atno 10718 bound_to 10713
  154.1248  135.6529  153.4910 H   0  0  0  0  0  0  0  0  0  0  0  0  # atno 10763 bound_to 10752
  153.0214  135.5279  154.7061 H   0  0  0  0  0  0  0  0  0  0  0  0  # atno 10764 bound_to 10752
  154.6278  135.2972  155.0221 H   0  0  0  0  0  0  0  0  0  0  0  0  # atno 10765 bound_to 10752
  140.2966  134.7630  157.3882 H   0  0  0  0  0  0  0  0  0  0  0  0  # atno 11005 bound_to 11000
  146.3506  140.1429  142.8594 LP  0  0  0  0  0  0  0  0  0  0  0  0  # atno 17320 bound_to 7965
  145.0546  140.9043  143.4975 LP  0  0  0  0  0  0  0  0  0  0  0  0  # atno 17321 bound_to 7965
  140.2422  143.3655  152.1477 LP  0  0  0  0  0  0  0  0  0  0  0  0  # atno 17342 bound_to 10162
  139.5190  144.7013  151.5484 LP  0  0  0  0  0  0  0  0  0  0  0  0  # atno 17343 bound_to 10162
  157.1464  131.0310  151.2905 LP  0  0  0  0  0  0  0  0  0  0  0  0  # atno 17370 bound_to 10713
  157.4429  130.7554  149.7084 LP  0  0  0  0  0  0  0  0  0  0  0  0  # atno 17371 bound_to 10713
  140.1147  134.5299  155.8235 LP  0  0  0  0  0  0  0  0  0  0  0  0  # atno 17394 bound_to 11000
  141.2136  133.6736  156.6754 LP  0  0  0  0  0  0  0  0  0  0  0  0  # atno 17395 bound_to 11000

$$$$
