AV-unprocessed.smi:873|AV-procd|sdf|4015|dock1
  -GOLD-   22720 1503D 1   1.00000     0.00000
 Structure written by MMmdl.
 46 49  0  0  0  0  0  0  0  0  2 V2000
  145.9509  138.8900  153.7628 O   0  0  0  0  0  0  0  0  0  0  0  0
  146.8145  138.0592  153.4833 C   0  0  0  0  0  0  0  0  0  0  0  0
  148.1121  138.1453  153.8213 N   0  0  0  0  0  0  0  0  0  0  0  0
  148.7572  139.1435  154.5996 C   0  0  0  0  0  0  0  0  0  0  0  0
  150.0568  139.5573  154.2389 C   0  0  0  0  0  0  0  0  0  0  0  0
  150.7367  140.4840  154.9472 N   0  0  0  0  0  0  0  0  0  0  0  0
  150.1274  140.9841  156.0256 C   0  0  0  0  0  0  0  0  0  0  0  0
  150.8691  142.0348  156.7921 C   0  0  0  0  0  0  0  0  0  0  0  0
  151.4119  141.7493  158.1779 C   0  0  0  0  0  0  0  0  0  0  0  0
  150.2478  142.6853  158.0113 C   0  0  0  0  0  0  0  0  0  0  0  0
  148.9037  140.6757  156.4631 N   0  0  0  0  0  0  0  0  0  0  0  0
  148.2150  139.7516  155.7590 C   0  0  0  0  0  0  0  0  0  0  0  0
  146.5740  136.9473  152.7728 N   0  0  0  0  0  0  0  0  0  0  0  0
  145.2798  136.5448  152.2267 C   0  0  2  0  0  0  0  0  0  0  0  0
  144.6116  135.5179  153.1565 C   0  0  0  0  0  0  0  0  0  0  0  0
  143.2978  134.9894  152.5493 C   0  0  0  0  0  0  0  0  0  0  0  0
  143.4964  134.4269  151.1886 N   0  3  2  0  0  0  0  0  0  0  0  0
  144.1611  133.1026  151.1922 C   0  0  0  0  0  0  0  0  0  0  0  0
  144.7859  132.7345  149.8667 C   0  0  0  0  0  0  0  0  0  0  0  0
  143.4907  132.0848  150.2991 C   0  0  0  0  0  0  0  0  0  0  0  0
  144.1339  135.4029  150.2674 C   0  0  0  0  0  0  0  0  0  0  0  0
  145.4655  135.9426  150.8237 C   0  0  0  0  0  0  0  0  0  0  0  0
  148.7182  137.4274  153.4514 H   0  0  0  0  0  0  0  0  0  0  0  0
  150.5557  139.1451  153.3737 H   0  0  0  0  0  0  0  0  0  0  0  0
  151.4647  142.6612  156.1306 H   0  0  0  0  0  0  0  0  0  0  0  0
  151.2093  140.7724  158.6130 H   0  0  0  0  0  0  0  0  0  0  0  0
  152.3740  142.1852  158.4390 H   0  0  0  0  0  0  0  0  0  0  0  0
  150.4298  143.7477  158.1590 H   0  0  0  0  0  0  0  0  0  0  0  0
  149.2712  142.3305  158.3351 H   0  0  0  0  0  0  0  0  0  0  0  0
  147.2427  139.4989  156.1515 H   0  0  0  0  0  0  0  0  0  0  0  0
  147.3522  136.3304  152.5909 H   0  0  0  0  0  0  0  0  0  0  0  0
  144.6155  137.4068  152.1414 H   0  0  0  0  0  0  0  0  0  0  0  0
  145.2915  134.6865  153.3471 H   0  0  0  0  0  0  0  0  0  0  0  0
  144.4084  135.9733  154.1264 H   0  0  0  0  0  0  0  0  0  0  0  0
  142.8518  134.2384  153.2023 H   0  0  0  0  0  0  0  0  0  0  0  0
  142.5754  135.8038  152.4818 H   0  0  0  0  0  0  0  0  0  0  0  0
  144.6286  132.7893  152.1236 H   0  0  0  0  0  0  0  0  0  0  0  0
  144.7370  133.4566  149.0535 H   0  0  0  0  0  0  0  0  0  0  0  0
  145.6828  132.1187  149.8880 H   0  0  0  0  0  0  0  0  0  0  0  0
  143.5351  131.0416  150.6057 H   0  0  0  0  0  0  0  0  0  0  0  0
  142.5836  132.3764  149.7726 H   0  0  0  0  0  0  0  0  0  0  0  0
  144.2870  134.9467  149.2888 H   0  0  0  0  0  0  0  0  0  0  0  0
  143.4420  136.2319  150.1141 H   0  0  0  0  0  0  0  0  0  0  0  0
  145.8650  136.6980  150.1458 H   0  0  0  0  0  0  0  0  0  0  0  0
  146.2043  135.1406  150.8553 H   0  0  0  0  0  0  0  0  0  0  0  0
  142.5716  134.2580  150.8194 H   0  0  0  0  0  0  0  0  0  0  0  0
  1  2  2  0  0  0  0
  2  3  1  0  0  0  0
  2 13  1  0  0  0  0
  3  4  1  0  0  0  0
  3 23  1  0  0  0  0
  4 12  1  0  0  0  0
  4  5  2  0  0  0  0
  5  6  1  0  0  0  0
  5 24  1  0  0  0  0
  6  7  2  0  0  0  0
  7  8  1  0  0  0  0
  7 11  1  0  0  0  0
  8 10  1  0  0  0  0
  8  9  1  0  0  0  0
  8 25  1  0  0  0  0
  9 10  1  0  0  0  0
  9 26  1  0  0  0  0
  9 27  1  0  0  0  0
 10 28  1  0  0  0  0
 10 29  1  0  0  0  0
 11 12  2  0  0  0  0
 12 30  1  0  0  0  0
 13 14  1  0  0  0  0
 13 31  1  0  0  0  0
 14 22  1  0  0  0  0
 14 15  1  0  0  0  0
 14 32  1  0  0  0  0
 15 16  1  0  0  0  0
 15 33  1  0  0  0  0
 15 34  1  0  0  0  0
 16 17  1  0  0  0  0
 16 35  1  0  0  0  0
 16 36  1  0  0  0  0
 17 18  1  0  0  0  0
 17 21  1  0  0  0  0
 17 46  1  0  0  0  0
 18 20  1  0  0  0  0
 18 19  1  0  0  0  0
 18 37  1  0  0  0  0
 19 20  1  0  0  0  0
 19 38  1  0  0  0  0
 19 39  1  0  0  0  0
 20 40  1  0  0  0  0
 20 41  1  0  0  0  0
 21 22  1  0  0  0  0
 21 42  1  0  0  0  0
 21 43  1  0  0  0  0
 22 44  1  0  0  0  0
 22 45  1  0  0  0  0
M  CHG  1  17   1
M  END
> <s_m_source_file>
AV-unprocessed.smi

> <i_m_source_file_index>
873

> <i_lp_mmshare_version>
43012

> <i_f3d_flags>
0

> <s_epik_input>
W0NIMl0xW0NIMl1bQ0hdMU4oW0NIMl1bQ0gyXTIpW0NIMl1bQ0gyXVtDSF0yW05IXUMoPU8pW05IXWMzW2NIXW5jKG5bY0hdMylbQ0hdNFtDSDJdW0NIMl00

> <s_epik_cmdline>
J2VwaWtfcHl0aG9uJywgJy1waCcsICc3LjAnLCAnLXRuJywgJzgnLCAnLW1hJywgJzIwMCcsICctbWV0YWxfYmluZGluZycsICctaW1hZScsICc8aW5maWxlLm1hZT4nLCAnLW9tYWUnLCAnPG91dGZpbGUubWFlPic=

> <r_lp_tautomer_probability>
1

> <r_epik_Ionization_Penalty>
0.123264

> <r_epik_Ionization_Penalty_Charging>
0.123242

> <r_epik_Ionization_Penalty_Neutral>
2.24743e-05

> <r_epik_State_Penalty>
0.112739

> <r_epik_Charging_Adjusted_Penalty>
0.235981

> <i_epik_Tot_Q>
1

> <i_epik_Tot_abs_Q>
1

> <r_epik_Metal_State_Penalty>
0.112739

> <b_epik_Metal_Only>
0

> <s_lp_Force_Field>
OPLS_2005

> <r_lp_Energy>
28.8241

> <b_lp_Chiralities_Consistent>
1

> <s_lp_Variant>
AV-unprocessed.smi:873-2

> <Gold.Version>
5.8.1

> <Gold.Id.Protein>
6NUR|6NUR_protein|mol2

> <Gold.PLP.Fitness>
48.1899

> <Gold.PLP.PLP>
-35.1120

> <Gold.PLP.part.hbond>
-4.0000

> <Gold.PLP.part.metal>
0.0000

> <Gold.PLP.part.buried>
-2.7259

> <Gold.PLP.part.nonpolar>
-29.1069

> <Gold.PLP.part.repulsive>
0.7158

> <Gold.PLP.ligand.clash>
0.0000

> <Gold.PLP.ligand.torsion>
1.5416

> <Gold.PLP.Chemscore.Hbond>
4.2260

> <Gold.PLP.Chemscore.CHOScore>
0.6935

> <Gold.PLP.Chemscore.Metal>
0.0000

> <Gold.Chemscore.Hbonds>
donor molecule, donor type, donor heavy atom, donor atom, acceptor molecule, acceptor atom, score
      L1  H     3    23       P1  7948  0.85
      L1  H    13    31       P1  7948  0.88
      L1  H    17    46       P1 10186  2.00
      P1  H  7989  7998       L1     6  0.45
      L1  C     5    24       P1  7957  0.64

> <Gold.PLP.Chemscore.Internal.Correction>
1.4027

> <Gold.Rescore>
     Score         DG    S(hbond)    S(metal)    S(lipo)     H(rot)  DE(clash)    DE(int)     intcor
     19.36     -21.43       2.53        0.00      93.89       1.36       0.62       1.45       ----

> <Gold.Chemscore.Fitness>
19.3561

> <Gold.Chemscore.DG>
-21.4286

> <Gold.Chemscore.ZeroCoef>
-5.4800

> <Gold.Chemscore.Hbond>
2.5263

> <Gold.Chemscore.Metal>
0.0000

> <Gold.Chemscore.Lipo>
93.8880

> <Gold.Chemscore.Internal_Hbond>
0.0000

> <Gold.Chemscore.DEClash>
0.6221

> <Gold.Chemscore.DEInternal>
1.4503

> <Gold.Chemscore.Rot>
1.3571

> <Gold.Chemscore.Internal.Correction>
   9.000000E+99

> <Gold.Chemscore.Hbonds>
donor molecule, donor type, donor heavy atom, donor atom, acceptor molecule, acceptor atom, score
      L1  H     3    23       P1  7948  0.80
      L1  H    13    31       P1  7948  0.87
      L1  H    17    46       P1 10186  0.33
      P1  H  7989  7998       L1     6  0.02

> <Gold.Chemscore.Hbond.Weighted>
-8.4379

> <Gold.Chemscore.Metal.Weighted>
-0.0000

> <Gold.Chemscore.Lipo.Weighted>
-10.9849

> <Gold.Chemscore.Internal_Hbond.Weighted>
0.0000

> <Gold.Chemscore.DEClash.Weighted>
0.6221

> <Gold.Chemscore.DEInternal.Weighted>
1.4503

> <Gold.Chemscore.Rot.Weighted>
3.4742

> <Gold.Chemscore.Internal.Correction.Weighted>
   9.000000E+99

> <Gold.Protein.RotatedTorsions>
[ 6907 6896 6895 6894 ] final -164.09 input  -60.11 | X-H torsion
[ 7974 7965 7964 7962 ] final -142.40 input  175.53 | X-H torsion
[ 8008 7997 7996 7995 ] final  161.84 input   59.86 | X-H torsion
[ 10167 10162 10161 10158 ] final  -26.44 input  -65.29 | X-H torsion
[ 10718 10713 10712 10709 ] final   40.38 input   66.30 | X-H torsion
[ 10763 10752 10751 10750 ] final -154.20 input  -60.55 | X-H torsion
[ 11005 11000 10999 10996 ] final -127.27 input  -57.11 | X-H torsion

> <Gold.Protein.ActiveResidues>
 VAL166  LYS551  ARG553  GLY616  TRP617  ASP618  TYR619  PRO620  LYS621  CYS622 
 ASP623  PHE694  ASN695  SER759  ASP760  ASP761  ALA762  ILE779  LEU786  VAL792 
 PHE793  MET794  SER795  GLU796  ALA797  LYS798  CYS799  TRP800  GLU811  SER814 

> <Gold.Protein.RotatedAtoms>
  151.4064  133.3741  159.2738 H   0  0  0  0  0  0  0  0  0  0  0  0  # atno 6907 bound_to 6896
  150.9395  134.8807  159.7614 H   0  0  0  0  0  0  0  0  0  0  0  0  # atno 6908 bound_to 6896
  152.5065  134.4013  159.9469 H   0  0  0  0  0  0  0  0  0  0  0  0  # atno 6909 bound_to 6896
  144.8446  140.5962  143.5430 H   0  0  0  0  0  0  0  0  0  0  0  0  # atno 7974 bound_to 7965
  156.2074  140.1766  156.7769 H   0  0  0  0  0  0  0  0  0  0  0  0  # atno 8008 bound_to 7997
  154.5675  140.0688  156.8943 H   0  0  0  0  0  0  0  0  0  0  0  0  # atno 8009 bound_to 7997
  155.2734  140.3344  155.4266 H   0  0  0  0  0  0  0  0  0  0  0  0  # atno 8010 bound_to 7997
  140.7283  143.4178  151.1001 H   0  0  0  0  0  0  0  0  0  0  0  0  # atno 10167 bound_to 10162
  157.3815  130.7756  149.7196 H   0  0  0  0  0  0  0  0  0  0  0  0  # atno 10718 bound_to 10713
  154.7875  135.3195  154.7852 H   0  0  0  0  0  0  0  0  0  0  0  0  # atno 10763 bound_to 10752
  153.8549  135.6859  153.4793 H   0  0  0  0  0  0  0  0  0  0  0  0  # atno 10764 bound_to 10752
  153.1532  135.4690  154.9607 H   0  0  0  0  0  0  0  0  0  0  0  0  # atno 10765 bound_to 10752
  140.9613  134.0932  157.3965 H   0  0  0  0  0  0  0  0  0  0  0  0  # atno 11005 bound_to 11000
  145.4623  139.1511  143.3859 LP  0  0  0  0  0  0  0  0  0  0  0  0  # atno 17320 bound_to 7965
  146.2733  140.4754  142.8805 LP  0  0  0  0  0  0  0  0  0  0  0  0  # atno 17321 bound_to 7965
  139.7819  143.8342  152.3139 LP  0  0  0  0  0  0  0  0  0  0  0  0  # atno 17342 bound_to 10162
  139.8296  144.7259  150.9467 LP  0  0  0  0  0  0  0  0  0  0  0  0  # atno 17343 bound_to 10162
  155.9777  130.4060  150.3697 LP  0  0  0  0  0  0  0  0  0  0  0  0  # atno 17370 bound_to 10713
  157.1801  131.0390  151.2752 LP  0  0  0  0  0  0  0  0  0  0  0  0  # atno 17371 bound_to 10713
  139.8879  135.0093  156.6589 LP  0  0  0  0  0  0  0  0  0  0  0  0  # atno 17394 bound_to 11000
  140.7463  133.8935  155.8314 LP  0  0  0  0  0  0  0  0  0  0  0  0  # atno 17395 bound_to 11000

$$$$
