AV-unprocessed.smi:740|AV-procd|sdf|3546|dock9
  -GOLD-   22720 0543D 1   1.00000     0.00000
 Structure written by MMmdl.
 44 46  0  0  0  0  0  0  0  0  1 V2000
  153.1370  142.8984  161.6548 C   0  0  0  0  0  0  0  0  0  0  0  0
  152.5093  142.5190  160.3252 C   0  0  0  0  0  0  0  0  0  0  0  0
  152.8734  141.2962  159.7178 C   0  0  0  0  0  0  0  0  0  0  0  0
  152.3166  140.9081  158.4798 C   0  0  0  0  0  0  0  0  0  0  0  0
  152.5287  139.7730  157.7162 N   0  0  0  0  0  0  0  0  0  0  0  0
  151.7295  139.9965  156.6772 C   0  0  0  0  0  0  0  0  0  0  0  0
  151.0228  141.1428  156.6778 N   0  0  0  0  0  0  0  0  0  0  0  0
  150.1005  141.5967  155.6526 C   0  0  0  0  0  0  0  0  0  0  0  0
  149.5688  140.4378  154.7876 C   0  0  2  0  0  0  0  0  0  0  0  0
  149.6962  140.7957  153.4246 O   0  0  0  0  0  0  0  0  0  0  0  0
  148.0853  140.1375  155.0859 C   0  0  0  0  0  0  0  0  0  0  0  0
  147.2283  141.3020  154.8340 N   0  0  0  0  0  0  0  0  0  0  0  0
  146.8221  141.6853  153.6158 C   0  0  0  0  0  0  0  0  0  0  0  0
  147.0890  141.1296  152.5508 O   0  0  0  0  0  0  0  0  0  0  0  0
  145.9659  142.9413  153.6955 C   0  0  0  0  0  0  0  0  0  0  0  0
  145.9252  143.2459  155.2005 C   0  0  1  0  0  0  0  0  0  0  0  0
  144.5050  143.2659  155.7897 C   0  0  0  0  0  0  0  0  0  0  0  0
  146.7706  142.1198  155.7925 C   0  0  0  0  0  0  0  0  0  0  0  0
  146.9828  142.0126  157.0005 O   0  0  0  0  0  0  0  0  0  0  0  0
  151.3778  141.7839  157.8600 C   0  0  0  0  0  0  0  0  0  0  0  0
  151.0059  143.0024  158.4553 C   0  0  0  0  0  0  0  0  0  0  0  0
  151.5719  143.3748  159.6927 C   0  0  0  0  0  0  0  0  0  0  0  0
  151.1656  144.6934  160.3265 C   0  0  0  0  0  0  0  0  0  0  0  0
  153.8047  142.1164  162.0177 H   0  0  0  0  0  0  0  0  0  0  0  0
  152.3677  143.0574  162.4108 H   0  0  0  0  0  0  0  0  0  0  0  0
  153.7185  143.8149  161.5534 H   0  0  0  0  0  0  0  0  0  0  0  0
  153.5878  140.6440  160.1982 H   0  0  0  0  0  0  0  0  0  0  0  0
  151.6548  139.2877  155.8655 H   0  0  0  0  0  0  0  0  0  0  0  0
  149.2725  142.1067  156.1470 H   0  0  0  0  0  0  0  0  0  0  0  0
  150.6000  142.3435  155.0340 H   0  0  0  0  0  0  0  0  0  0  0  0
  150.1777  139.5520  154.9739 H   0  0  0  0  0  0  0  0  0  0  0  0
  149.4192  140.0646  152.8938 H   0  0  0  0  0  0  0  0  0  0  0  0
  147.7434  139.3238  154.4441 H   0  0  0  0  0  0  0  0  0  0  0  0
  147.9639  139.7652  156.1049 H   0  0  0  0  0  0  0  0  0  0  0  0
  146.4279  143.7522  153.1313 H   0  0  0  0  0  0  0  0  0  0  0  0
  144.9761  142.7487  153.2799 H   0  0  0  0  0  0  0  0  0  0  0  0
  146.4208  144.1964  155.4019 H   0  0  0  0  0  0  0  0  0  0  0  0
  144.5235  143.4885  156.8573 H   0  0  0  0  0  0  0  0  0  0  0  0
  144.0011  142.3077  155.6567 H   0  0  0  0  0  0  0  0  0  0  0  0
  143.8958  144.0301  155.3066 H   0  0  0  0  0  0  0  0  0  0  0  0
  150.2936  143.6463  157.9612 H   0  0  0  0  0  0  0  0  0  0  0  0
  150.4489  145.2303  159.7042 H   0  0  0  0  0  0  0  0  0  0  0  0
  152.0357  145.3353  160.4648 H   0  0  0  0  0  0  0  0  0  0  0  0
  150.7024  144.5227  161.2985 H   0  0  0  0  0  0  0  0  0  0  0  0
  1  2  1  0  0  0  0
  1 24  1  0  0  0  0
  1 25  1  0  0  0  0
  1 26  1  0  0  0  0
  2 22  1  0  0  0  0
  2  3  2  0  0  0  0
  3  4  1  0  0  0  0
  3 27  1  0  0  0  0
  4 20  2  0  0  0  0
  4  5  1  0  0  0  0
  5  6  2  0  0  0  0
  6  7  1  0  0  0  0
  6 28  1  0  0  0  0
  7  8  1  0  0  0  0
  7 20  1  0  0  0  0
  8  9  1  0  0  0  0
  8 29  1  0  0  0  0
  8 30  1  0  0  0  0
  9 10  1  0  0  0  0
  9 11  1  0  0  0  0
  9 31  1  0  0  0  0
 10 32  1  0  0  0  0
 11 12  1  0  0  0  0
 11 33  1  0  0  0  0
 11 34  1  0  0  0  0
 12 18  1  0  0  0  0
 12 13  1  0  0  0  0
 13 14  2  0  0  0  0
 13 15  1  0  0  0  0
 15 16  1  0  0  0  0
 15 35  1  0  0  0  0
 15 36  1  0  0  0  0
 16 17  1  0  0  0  0
 16 18  1  0  0  0  0
 16 37  1  0  0  0  0
 17 38  1  0  0  0  0
 17 39  1  0  0  0  0
 17 40  1  0  0  0  0
 18 19  2  0  0  0  0
 20 21  1  0  0  0  0
 21 22  2  0  0  0  0
 21 41  1  0  0  0  0
 22 23  1  0  0  0  0
 23 42  1  0  0  0  0
 23 43  1  0  0  0  0
 23 44  1  0  0  0  0
M  END
> <s_m_source_file>
AV-unprocessed.smi

> <i_m_source_file_index>
740

> <i_lp_mmshare_version>
43012

> <i_f3d_flags>
0

> <s_epik_input>
W0NIM11jKFtjSF0xKWMoW0NIM10pW2NIXWMoYzEyKW4oW2NIXW4yKVtDSDJdW0NASF0oW09IXSlbQ0gyXU4zQyg9TylbQ0gyXVtDQEBIXShbQ0gzXSlDMz1P

> <s_epik_cmdline>
J2VwaWtfcHl0aG9uJywgJy1waCcsICc3LjAnLCAnLXRuJywgJzgnLCAnLW1hJywgJzIwMCcsICctbWV0YWxfYmluZGluZycsICctaW1hZScsICc8aW5maWxlLm1hZT4nLCAnLW9tYWUnLCAnPG91dGZpbGUubWFlPic=

> <r_lp_tautomer_probability>
1

> <r_epik_Ionization_Penalty>
0.104021

> <r_epik_Ionization_Penalty_Charging>
0

> <r_epik_Ionization_Penalty_Neutral>
0.104021

> <r_epik_State_Penalty>
0.0939354

> <r_epik_Charging_Adjusted_Penalty>
0.0939354

> <i_epik_Tot_Q>
0

> <i_epik_Tot_abs_Q>
0

> <r_epik_Metal_State_Penalty>
0.000101783

> <b_epik_Metal_Only>
0

> <s_lp_Force_Field>
OPLS_2005

> <r_lp_Energy>
16.4677

> <b_lp_Chiralities_Consistent>
1

> <s_lp_Variant>
AV-unprocessed.smi:740-1

> <Gold.Version>
5.8.1

> <Gold.Id.Protein>
6NUR|6NUR_protein|mol2

> <Gold.PLP.Fitness>
51.5753

> <Gold.PLP.PLP>
-45.8973

> <Gold.PLP.part.hbond>
-3.4237

> <Gold.PLP.part.metal>
0.0000

> <Gold.PLP.part.buried>
-4.3095

> <Gold.PLP.part.nonpolar>
-38.1393

> <Gold.PLP.part.repulsive>
0.7666

> <Gold.PLP.ligand.clash>
0.0000

> <Gold.PLP.ligand.torsion>
1.2597

> <Gold.PLP.Chemscore.Hbond>
2.7273

> <Gold.PLP.Chemscore.CHOScore>
0.0000

> <Gold.PLP.Chemscore.Metal>
0.0000

> <Gold.Chemscore.Hbonds>
donor molecule, donor type, donor heavy atom, donor atom, acceptor molecule, acceptor atom, score
      L1  H    10    32       P1  7957  0.45
      P1  H  7989  7998       L1    10  0.24
      P1  H  7997  8009       L1     5  0.70
      P1  H  8011  8017       L1    10  1.00

> <Gold.PLP.Chemscore.Internal.Correction>
0.0155

> <Gold.Rescore>
     Score         DG    S(hbond)    S(metal)    S(lipo)     H(rot)  DE(clash)    DE(int)     intcor
     15.88     -18.54       1.99        0.00     105.33       2.31       0.19       2.46       ----

> <Gold.Chemscore.Fitness>
15.8815

> <Gold.Chemscore.DG>
-18.5354

> <Gold.Chemscore.ZeroCoef>
-5.4800

> <Gold.Chemscore.Hbond>
1.9933

> <Gold.Chemscore.Metal>
0.0000

> <Gold.Chemscore.Lipo>
105.3280

> <Gold.Chemscore.Internal_Hbond>
0.0000

> <Gold.Chemscore.DEClash>
0.1947

> <Gold.Chemscore.DEInternal>
2.4592

> <Gold.Chemscore.Rot>
2.3147

> <Gold.Chemscore.Internal.Correction>
   9.000000E+99

> <Gold.Chemscore.Hbonds>
donor molecule, donor type, donor heavy atom, donor atom, acceptor molecule, acceptor atom, score
      L1  H    10    32       P1  7957  0.44
      P1  H  7989  7998       L1    10  0.02
      P1  H  7997  8009       L1     5  0.14
      P1  H  8011  8017       L1    10  0.73

> <Gold.Chemscore.Hbond.Weighted>
-6.6576

> <Gold.Chemscore.Metal.Weighted>
-0.0000

> <Gold.Chemscore.Lipo.Weighted>
-12.3234

> <Gold.Chemscore.Internal_Hbond.Weighted>
0.0000

> <Gold.Chemscore.DEClash.Weighted>
0.1947

> <Gold.Chemscore.DEInternal.Weighted>
2.4592

> <Gold.Chemscore.Rot.Weighted>
5.9256

> <Gold.Chemscore.Internal.Correction.Weighted>
   9.000000E+99

> <Gold.Protein.RotatedTorsions>
[ 6907 6896 6895 6894 ] final   40.41 input  -60.11 | X-H torsion
[ 7974 7965 7964 7962 ] final -176.07 input  175.53 | X-H torsion
[ 8008 7997 7996 7995 ] final  161.52 input   59.86 | X-H torsion
[ 10167 10162 10161 10158 ] final -160.13 input  -65.29 | X-H torsion
[ 10718 10713 10712 10709 ] final -127.20 input   66.30 | X-H torsion
[ 10763 10752 10751 10750 ] final   88.44 input  -60.55 | X-H torsion
[ 11005 11000 10999 10996 ] final  174.10 input  -57.11 | X-H torsion

> <Gold.Protein.ActiveResidues>
 VAL166  LYS551  ARG553  GLY616  TRP617  ASP618  TYR619  PRO620  LYS621  CYS622 
 ASP623  PHE694  ASN695  SER759  ASP760  ASP761  ALA762  ILE779  LEU786  VAL792 
 PHE793  MET794  SER795  GLU796  ALA797  LYS798  CYS799  TRP800  GLU811  SER814 

> <Gold.Protein.RotatedAtoms>
  152.1821  134.8745  160.0525 H   0  0  0  0  0  0  0  0  0  0  0  0  # atno 6907 bound_to 6896
  151.9665  133.3707  159.4063 H   0  0  0  0  0  0  0  0  0  0  0  0  # atno 6908 bound_to 6896
  150.6919  134.4108  159.5205 H   0  0  0  0  0  0  0  0  0  0  0  0  # atno 6909 bound_to 6896
  144.7127  140.1226  143.6404 H   0  0  0  0  0  0  0  0  0  0  0  0  # atno 7974 bound_to 7965
  156.2097  140.1775  156.7722 H   0  0  0  0  0  0  0  0  0  0  0  0  # atno 8008 bound_to 7997
  154.5705  140.0683  156.8987 H   0  0  0  0  0  0  0  0  0  0  0  0  # atno 8009 bound_to 7997
  155.2682  140.3340  155.4270 H   0  0  0  0  0  0  0  0  0  0  0  0  # atno 8010 bound_to 7997
  139.6563  143.9993  152.2196 H   0  0  0  0  0  0  0  0  0  0  0  0  # atno 10167 bound_to 10162
  156.1835  130.6748  151.0335 H   0  0  0  0  0  0  0  0  0  0  0  0  # atno 10718 bound_to 10713
  153.1768  135.4507  154.9976 H   0  0  0  0  0  0  0  0  0  0  0  0  # atno 10763 bound_to 10752
  154.8004  135.3253  154.7567 H   0  0  0  0  0  0  0  0  0  0  0  0  # atno 10764 bound_to 10752
  153.8037  135.6960  153.4906 H   0  0  0  0  0  0  0  0  0  0  0  0  # atno 10765 bound_to 10752
  140.3476  134.7223  157.4246 H   0  0  0  0  0  0  0  0  0  0  0  0  # atno 11005 bound_to 11000
  145.9357  139.2636  143.1298 LP  0  0  0  0  0  0  0  0  0  0  0  0  # atno 17320 bound_to 7965
  145.9476  140.8933  143.0276 LP  0  0  0  0  0  0  0  0  0  0  0  0  # atno 17321 bound_to 7965
  139.9720  144.6487  150.7980 LP  0  0  0  0  0  0  0  0  0  0  0  0  # atno 17342 bound_to 10162
  140.7560  143.3058  151.2966 LP  0  0  0  0  0  0  0  0  0  0  0  0  # atno 17343 bound_to 10162
  157.6884  131.0818  150.7178 LP  0  0  0  0  0  0  0  0  0  0  0  0  # atno 17370 bound_to 10713
  156.7235  130.4688  149.5517 LP  0  0  0  0  0  0  0  0  0  0  0  0  # atno 17371 bound_to 10713
  140.0729  134.5837  155.8622 LP  0  0  0  0  0  0  0  0  0  0  0  0  # atno 17394 bound_to 11000
  141.2021  133.6623  156.5988 LP  0  0  0  0  0  0  0  0  0  0  0  0  # atno 17395 bound_to 11000

$$$$
