#       Name:                AV-unprocessed.smi:1637
#       Creating user name   scv26
#       Creation time:       Fri Mar 27 07:22:58 2020


#       File generated by GOLD software.
#

@<TRIPOS>MOLECULE
AV-unprocessed.smi:1637
    45    46     1
SMALL
NO_CHARGES


@<TRIPOS>ATOM
      1 ****        -7.2401   2.2953  -0.6267 C.3            1 S1                 0.0000
      2 ****        -6.6030   1.0257  -0.7184 O.3            1 S1                 0.0000
      3 ****        -5.2369   0.9636  -0.5347 C.ar           1 S1                 0.0000
      4 ****        -4.5991  -0.2882  -0.6369 C.ar           1 S1                 0.0000
      5 ****        -3.2046  -0.3611  -0.4549 C.ar           1 S1                 0.0000
      6 ****        -2.4884   0.8267  -0.1694 C.ar           1 S1                 0.0000
      7 ****        -1.0814   0.9044   0.0248 N.am           1 S1                 0.0000
      8 ****        -0.1772  -0.0840   0.1367 C.2            1 S1                 0.0000
      9 ****        -0.4250  -1.2891   0.1212 O.2            1 S1                 0.0000
     10 ****         1.0602   0.4125   0.2788 N.am           1 S1                 0.0000
     11 ****         2.2845  -0.3725   0.4469 C.3            1 S1                 0.0000
     12 ****         2.8239  -0.8168  -0.9313 C.3            1 S1                 0.0000
     13 ****         3.7419  -2.0485  -0.8771 C.3            1 S1                 0.0000
     14 ****         5.0390  -1.8530  -0.0781 C.3            1 S1                 0.0000
     15 ****         4.8086  -1.6150   1.4241 C.3            1 S1                 0.0000
     16 ****         4.4170  -0.2423   1.7196 N.am           1 S1                 0.0000
     17 ****         3.3070   0.3904   1.3102 C.2            1 S1                 0.0000
     18 ****         3.1113   1.5672   1.6137 O.2            1 S1                 0.0000
     19 ****        -3.2220   2.0289  -0.0917 C.ar           1 S1                 0.0000
     20 ****        -4.5580   2.1059  -0.2662 N.ar           1 S1                 0.0000
     21 ****        -8.3104   2.1741  -0.7919 H              1 S1                 0.0000
     22 ****        -6.8644   2.9850  -1.3838 H              1 S1                 0.0000
     23 ****        -7.1064   2.7393   0.3607 H              1 S1                 0.0000
     24 ****        -5.1698  -1.1787  -0.8558 H              1 S1                 0.0000
     25 ****        -2.7254  -1.3222  -0.5478 H              1 S1                 0.0000
     26 ****        -0.7142   1.8417   0.1012 H              1 S1                 0.0000
     27 ****         1.1699   1.4162   0.2904 H              1 S1                 0.0000
     28 ****         2.0133  -1.2647   1.0147 H              1 S1                 0.0000
     29 ****         1.9882  -1.0668  -1.5863 H              1 S1                 0.0000
     30 ****         3.3393   0.0129  -1.4175 H              1 S1                 0.0000
     31 ****         3.1884  -2.8962  -0.4711 H              1 S1                 0.0000
     32 ****         4.0039  -2.3280  -1.8981 H              1 S1                 0.0000
     33 ****         5.6422  -2.7543  -0.1930 H              1 S1                 0.0000
     34 ****         5.6307  -1.0421  -0.5051 H              1 S1                 0.0000
     35 ****         4.0766  -2.3159   1.8278 H              1 S1                 0.0000
     36 ****         5.7386  -1.8023   1.9611 H              1 S1                 0.0000
     37 ****         5.0626   0.2899   2.2850 H              1 S1                 0.0000
     38 ****        -2.7216   2.9633   0.1171 H              1 S1                 0.0000
     39 ****        -6.7957   0.6631  -1.6301 LP             1 S1                 0.0000
     40 ****        -7.0214   0.4342  -0.0291 LP             1 S1                 0.0000
     41 ****        -1.3684  -1.6043   0.0183 LP             1 S1                 0.0000
     42 ****         0.3171  -1.9534   0.2116 LP             1 S1                 0.0000
     43 ****         2.2845   2.0337   1.2996 LP             1 S1                 0.0000
     44 ****         3.7792   2.0566   2.1745 LP             1 S1                 0.0000
     45 ****        -5.0346   2.9824  -0.1992 LP             1 S1                 0.0000
@<TRIPOS>BOND
    1    1    2 1     
    2    1   21 1     
    3    1   22 1     
    4    1   23 1     
    5    2    3 1     
    6    3   20 ar    
    7    3    4 ar    
    8    4    5 ar    
    9    4   24 1     
   10    5    6 ar    
   11    5   25 1     
   12    6    7 1     
   13    6   19 ar    
   14    7    8 am    
   15    7   26 1     
   16    8    9 2     
   17    8   10 am    
   18   10   11 1     
   19   10   27 1     
   20   11   17 1     
   21   11   12 1     
   22   11   28 1     
   23   12   13 1     
   24   12   29 1     
   25   12   30 1     
   26   13   14 1     
   27   13   31 1     
   28   13   32 1     
   29   14   15 1     
   30   14   33 1     
   31   14   34 1     
   32   15   16 1     
   33   15   35 1     
   34   15   36 1     
   35   16   17 am    
   36   16   37 1     
   37   17   18 2     
   38   19   20 ar    
   39   19   38 1     
   40    2   39 1     
   41    2   40 1     
   42    9   41 1     
   43    9   42 1     
   44   18   43 1     
   45   18   44 1     
   46   20   45 1     
@<TRIPOS>SUBSTRUCTURE
      1 S1             1
@<TRIPOS>SET
LONE_PAIRS      STATIC     ATOMS    <user>   **** ""
7 39 40 41 42 43 44 45
DONOR_HYDROGENS      STATIC     ATOMS    <user>   **** ""
3 26 27 37
ATOM$BLUE        STATIC     ATOMS    COLORGROUP SYSTEM
7 39 40 41 42 43 44 45
ATOM$RED        STATIC     ATOMS    COLORGROUP SYSTEM
3 26 27 37
