#       Name:                AV-unprocessed.smi:283
#       Creating user name   scv26
#       Creation time:       Thu Mar 26 21:43:50 2020


#       File generated by GOLD software.
#

@<TRIPOS>MOLECULE
AV-unprocessed.smi:283
    59    62     1
SMALL
NO_CHARGES


@<TRIPOS>ATOM
      1 ****        -5.1069  -0.5312  -1.7017 C.3            1 S1                 0.0000
      2 ****        -3.6159  -0.4901  -1.3411 C.3            1 S1                 0.0000
      3 ****        -3.0781   0.8383  -1.6262 N.pl3          1 S1                 0.0000
      4 ****        -1.7753   1.1322  -1.4182 C.ar           1 S1                 0.0000
      5 ****        -1.4986   2.4452  -1.2413 N.ar           1 S1                 0.0000
      6 ****        -0.2446   2.8391  -1.0112 C.ar           1 S1                 0.0000
      7 ****         0.8574   2.0950  -0.9207 N.ar           1 S1                 0.0000
      8 ****         0.5966   0.7677  -1.1024 C.ar           1 S1                 0.0000
      9 ****        -0.6885   0.2091  -1.3684 C.ar           1 S1                 0.0000
     10 ****        -0.5672  -1.1646  -1.5314 N.2            1 S1                 0.0000
     11 ****         0.7012  -1.4007  -1.3500 C.2            1 S1                 0.0000
     12 ****         1.4784  -0.3000  -1.0672 N.pl3          1 S1                 0.0000
     13 ****         2.9622  -0.3052  -0.8071 C.3            1 S1                 0.0000
     14 ****         3.4903   0.9684  -1.0294 O.3            1 S1                 0.0000
     15 ****         3.8112   1.6140   0.2060 C.3            1 S1                 0.0000
     16 ****         5.3020   2.0026   0.1881 C.3            1 S1                 0.0000
     17 ****         6.1510   0.8867   0.3650 O.3            1 S1                 0.0000
     18 ****         3.3866   0.6691   1.3436 C.3            1 S1                 0.0000
     19 ****         2.1406   1.0881   1.8719 O.3            1 S1                 0.0000
     20 ****         3.2986  -0.6830   0.6464 C.3            1 S1                 0.0000
     21 ****         2.4018  -1.5841   1.2744 O.3            1 S1                 0.0000
     22 ****        -3.4023  -0.9782   0.0951 C.ar           1 S1                 0.0000
     23 ****        -3.4452  -0.0586   1.1694 C.ar           1 S1                 0.0000
     24 ****        -3.2447  -0.4906   2.4938 C.ar           1 S1                 0.0000
     25 ****        -3.0072  -1.8507   2.7606 C.ar           1 S1                 0.0000
     26 ****        -2.9776  -2.7772   1.7023 C.ar           1 S1                 0.0000
     27 ****        -3.1780  -2.3502   0.3743 C.ar           1 S1                 0.0000
     28 ****        -3.1446  -3.5362  -0.8838 Cl             1 S1                 0.0000
     29 ****         3.3485  -1.0164  -1.5381 H              1 S1                 0.0000
     30 ****         3.2452   2.5452   0.2547 H              1 S1                 0.0000
     31 ****         4.1035   0.6521   2.1652 H              1 S1                 0.0000
     32 ****         4.2891  -1.1390   0.6345 H              1 S1                 0.0000
     33 ****        -5.5118  -1.5368  -1.5840 H              1 S1                 0.0000
     34 ****        -5.2691  -0.2320  -2.7376 H              1 S1                 0.0000
     35 ****        -5.6880   0.1379  -1.0660 H              1 S1                 0.0000
     36 ****        -3.1090  -1.1696  -2.0242 H              1 S1                 0.0000
     37 ****        -3.7751   1.5615  -1.7283 H              1 S1                 0.0000
     38 ****        -0.1037   3.9011  -0.8754 H              1 S1                 0.0000
     39 ****         1.1088  -2.3994  -1.4076 H              1 S1                 0.0000
     40 ****         5.5548   2.5100  -0.7433 H              1 S1                 0.0000
     41 ****         5.5060   2.7046   0.9971 H              1 S1                 0.0000
     42 ****         7.0471   1.1871   0.3506 H              1 S1                 0.0000
     43 ****         1.8286   0.4187   2.4617 H              1 S1                 0.0000
     44 ****         2.3788  -2.3837   0.7719 H              1 S1                 0.0000
     45 ****        -3.6284   0.9895   0.9839 H              1 S1                 0.0000
     46 ****        -3.2742   0.2220   3.3048 H              1 S1                 0.0000
     47 ****        -2.8528  -2.1843   3.7762 H              1 S1                 0.0000
     48 ****        -2.8018  -3.8221   1.9116 H              1 S1                 0.0000
     49 ****        -2.2347   3.1208  -1.2830 LP             1 S1                 0.0000
     50 ****         1.7685   2.4657  -0.7407 LP             1 S1                 0.0000
     51 ****        -1.2898  -1.8235  -1.7406 LP             1 S1                 0.0000
     52 ****         2.8169   1.5202  -1.5213 LP             1 S1                 0.0000
     53 ****         4.3206   0.8863  -1.5806 LP             1 S1                 0.0000
     54 ****         6.0034   0.2297  -0.3743 LP             1 S1                 0.0000
     55 ****         5.9556   0.4498   1.2431 LP             1 S1                 0.0000
     56 ****         1.4841   1.2167   1.1286 LP             1 S1                 0.0000
     57 ****         2.2557   1.9489   2.3677 LP             1 S1                 0.0000
     58 ****         1.4874  -1.1809   1.3086 LP             1 S1                 0.0000
     59 ****         2.7151  -1.7789   2.2039 LP             1 S1                 0.0000
@<TRIPOS>BOND
    1    1    2 1     
    2    1   33 1     
    3    1   34 1     
    4    1   35 1     
    5    2    3 1     
    6    2   22 1     
    7    2   36 1     
    8    3    4 1     
    9    3   37 1     
   10    4    9 ar    
   11    4    5 ar    
   12    5    6 ar    
   13    6    7 ar    
   14    6   38 1     
   15    7    8 ar    
   16    8   12 1     
   17    8    9 ar    
   18    9   10 1     
   19   10   11 2     
   20   11   12 1     
   21   11   39 1     
   22   12   13 1     
   23   13   29 1     
   24   13   20 1     
   25   13   14 1     
   26   14   15 1     
   27   15   30 1     
   28   15   16 1     
   29   15   18 1     
   30   16   17 1     
   31   16   40 1     
   32   16   41 1     
   33   17   42 1     
   34   18   31 1     
   35   18   19 1     
   36   18   20 1     
   37   19   43 1     
   38   20   32 1     
   39   20   21 1     
   40   21   44 1     
   41   22   27 ar    
   42   22   23 ar    
   43   23   24 ar    
   44   23   45 1     
   45   24   25 ar    
   46   24   46 1     
   47   25   26 ar    
   48   25   47 1     
   49   26   27 ar    
   50   26   48 1     
   51   27   28 1     
   52    5   49 1     
   53    7   50 1     
   54   10   51 1     
   55   14   52 1     
   56   14   53 1     
   57   17   54 1     
   58   17   55 1     
   59   19   56 1     
   60   19   57 1     
   61   21   58 1     
   62   21   59 1     
@<TRIPOS>SUBSTRUCTURE
      1 S1             1
@<TRIPOS>SET
LONE_PAIRS      STATIC     ATOMS    <user>   **** ""
11 49 50 51 52 53 54 55 56 57 58 59
DONOR_HYDROGENS      STATIC     ATOMS    <user>   **** ""
4 37 42 43 44
ATOM$BLUE        STATIC     ATOMS    COLORGROUP SYSTEM
11 49 50 51 52 53 54 55 56 57 58 59
ATOM$RED        STATIC     ATOMS    COLORGROUP SYSTEM
4 37 42 43 44
