#       Name:                AV-unprocessed.smi:1971
#       Creating user name   scv26
#       Creation time:       Fri Mar 27 10:14:17 2020


#       File generated by GOLD software.
#

@<TRIPOS>MOLECULE
AV-unprocessed.smi:1971
    48    49     1
SMALL
NO_CHARGES


@<TRIPOS>ATOM
      1 ****        -3.2199   1.3065  -3.2443 C.3            1 S1                 0.0000
      2 ****        -2.2312   1.8127  -2.1841 C.3            1 S1                 0.0000
      3 ****        -2.4956   1.2422  -0.8400 N.4            1 S1                 1.0000
      4 ****        -1.8582   2.0303   0.2439 C.3            1 S1                 0.0000
      5 ****        -2.1721   1.4188   1.6286 C.3            1 S1                 0.0000
      6 ****        -1.7312   0.0192   1.7302 N.3            1 S1                 0.0000
      7 ****        -0.2621  -0.1636   1.7250 C.3            1 S1                 0.0000
      8 ****         0.3646   0.5328   2.9563 C.3            1 S1                 0.0000
      9 ****         0.1434  -1.6632   1.6914 C.3            1 S1                 0.0000
     10 ****         1.5902  -1.8485   1.6276 N.am           1 S1                 0.0000
     11 ****         2.3559  -1.6444   0.5456 C.2            1 S1                 0.0000
     12 ****         1.8386  -1.2832  -0.5148 O.2            1 S1                 0.0000
     13 ****         3.6717  -1.8672   0.7603 N.pl3          1 S1                -1.0000
     14 ****         4.5548  -1.6951  -0.2368 C.2            1 S1                 0.0000
     15 ****         5.2826  -0.5819  -0.3824 N.2            1 S1                 0.0000
     16 ****         6.1434  -0.6211  -1.4807 C.2            1 S1                 0.0000
     17 ****         6.0742  -1.7943  -2.1841 C.2            1 S1                 0.0000
     18 ****         4.9193  -2.8917  -1.4831 S.3            1 S1                 0.0000
     19 ****        -2.4716  -0.7115   0.6922 C.3            1 S1                 0.0000
     20 ****        -2.1343  -0.1929  -0.7209 C.3            1 S1                 0.0000
     21 ****        -3.0610   1.8198  -4.1929 H              1 S1                 0.0000
     22 ****        -4.2513   1.4880  -2.9405 H              1 S1                 0.0000
     23 ****        -3.1057   0.2394  -3.4333 H              1 S1                 0.0000
     24 ****        -1.2036   1.6030  -2.4847 H              1 S1                 0.0000
     25 ****        -2.3229   2.8985  -2.1322 H              1 S1                 0.0000
     26 ****        -0.7835   2.1042   0.0753 H              1 S1                 0.0000
     27 ****        -2.2426   3.0503   0.2139 H              1 S1                 0.0000
     28 ****        -1.7425   2.0297   2.4200 H              1 S1                 0.0000
     29 ****        -3.2489   1.4555   1.8005 H              1 S1                 0.0000
     30 ****         0.1529   0.3034   0.8337 H              1 S1                 0.0000
     31 ****         1.4361   0.3459   3.0250 H              1 S1                 0.0000
     32 ****        -0.0865   0.1791   3.8840 H              1 S1                 0.0000
     33 ****         0.2620   1.6160   2.9199 H              1 S1                 0.0000
     34 ****        -0.2313  -2.1762   2.5776 H              1 S1                 0.0000
     35 ****        -0.2720  -2.1848   0.8302 H              1 S1                 0.0000
     36 ****         2.0520  -2.1464   2.4745 H              1 S1                 0.0000
     37 ****         6.7723   0.2319  -1.6871 H              1 S1                 0.0000
     38 ****         6.6291  -2.0794  -3.0650 H              1 S1                 0.0000
     39 ****        -2.3073  -1.7848   0.7645 H              1 S1                 0.0000
     40 ****        -3.5401  -0.5869   0.8737 H              1 S1                 0.0000
     41 ****        -2.6981  -0.7770  -1.4469 H              1 S1                 0.0000
     42 ****        -1.0794  -0.3414  -0.9557 H              1 S1                 0.0000
     43 ****        -3.4915   1.3064  -0.6854 H              1 S1                 0.0000
     44 ****        -1.9489  -0.3623   2.6286 LP             1 S1                 0.0000
     45 ****         0.8498  -1.1430  -0.5665 LP             1 S1                 0.0000
     46 ****         2.4082  -1.1305  -1.3224 LP             1 S1                 0.0000
     47 ****         3.9880  -2.1604   1.6625 LP             1 S1                 0.0000
     48 ****         5.2164   0.2018   0.2353 LP             1 S1                 0.0000
@<TRIPOS>BOND
    1    1    2 1     
    2    1   21 1     
    3    1   22 1     
    4    1   23 1     
    5    2    3 1     
    6    2   24 1     
    7    2   25 1     
    8    3   20 1     
    9    3    4 1     
   10    3   43 1     
   11    4    5 1     
   12    4   26 1     
   13    4   27 1     
   14    5    6 1     
   15    5   28 1     
   16    5   29 1     
   17    6    7 1     
   18    6   19 1     
   19    7    8 1     
   20    7    9 1     
   21    7   30 1     
   22    8   31 1     
   23    8   32 1     
   24    8   33 1     
   25    9   10 1     
   26    9   34 1     
   27    9   35 1     
   28   10   11 am    
   29   10   36 1     
   30   11   12 2     
   31   11   13 1     
   32   13   14 1     
   33   14   18 1     
   34   14   15 2     
   35   15   16 1     
   36   16   17 2     
   37   16   37 1     
   38   17   18 1     
   39   17   38 1     
   40   19   20 1     
   41   19   39 1     
   42   19   40 1     
   43   20   41 1     
   44   20   42 1     
   45    6   44 1     
   46   12   45 1     
   47   12   46 1     
   48   13   47 1     
   49   15   48 1     
@<TRIPOS>SUBSTRUCTURE
      1 S1             1
@<TRIPOS>SET
LONE_PAIRS      STATIC     ATOMS    <user>   **** ""
5 44 45 46 47 48
DONOR_HYDROGENS      STATIC     ATOMS    <user>   **** ""
2 43 36
ATOM$BLUE        STATIC     ATOMS    COLORGROUP SYSTEM
5 44 45 46 47 48
ATOM$RED        STATIC     ATOMS    COLORGROUP SYSTEM
2 43 36
