AV-unprocessed.smi:3314|AV-procd|sdf|12732|dock10
  -GOLD-   2272019 73D 1   1.00000     0.00000
 Structure written by MMmdl.
 38 39  0  0  0  0  0  0  0  0  2 V2000
  154.4403  141.3845  159.7032 C   0  0  0  0  0  0  0  0  0  0  0  0
  153.1596  142.1585  159.4704 C   0  0  0  0  0  0  0  0  0  0  0  0
  153.0052  143.4678  159.9645 C   0  0  0  0  0  0  0  0  0  0  0  0
  151.7886  144.1331  159.7164 C   0  0  0  0  0  0  0  0  0  0  0  0
  151.5553  145.5429  160.2174 C   0  0  0  0  0  0  0  0  0  0  0  0
  150.7693  143.5732  159.0301 N   0  0  0  0  0  0  0  0  0  0  0  0
  150.9063  142.3117  158.5518 C   0  0  0  0  0  0  0  0  0  0  0  0
  149.8960  141.6344  157.8197 N   0  0  0  0  0  0  0  0  0  0  0  0
  148.5752  141.8919  157.7869 C   0  0  0  0  0  0  0  0  0  0  0  0
  148.0217  142.7865  158.4281 O   0  0  0  0  0  0  0  0  0  0  0  0
  147.7496  140.9695  156.8693 C   0  0  1  0  0  0  0  0  0  0  0  0
  146.5737  141.6628  156.1397 C   0  0  0  0  0  0  0  0  0  0  0  0
  147.0584  142.5647  155.0674 N   0  3  2  0  0  0  0  0  0  0  0  0
  145.9603  143.2767  154.3804 C   0  0  0  0  0  0  0  0  0  0  0  0
  147.9455  141.8398  154.1304 C   0  0  0  0  0  0  0  0  0  0  0  0
  149.1083  141.1859  154.8941 C   0  0  0  0  0  0  0  0  0  0  0  0
  148.5936  140.3253  155.9103 O   0  0  0  0  0  0  0  0  0  0  0  0
  152.0954  141.5758  158.7533 C   0  0  0  0  0  0  0  0  0  0  0  0
  155.1704  141.9805  160.2514 H   0  0  0  0  0  0  0  0  0  0  0  0
  154.8844  141.0924  158.7514 H   0  0  0  0  0  0  0  0  0  0  0  0
  154.2357  140.4815  160.2788 H   0  0  0  0  0  0  0  0  0  0  0  0
  153.7977  143.9495  160.5190 H   0  0  0  0  0  0  0  0  0  0  0  0
  152.3951  145.8936  160.8181 H   0  0  0  0  0  0  0  0  0  0  0  0
  150.6570  145.5834  160.8340 H   0  0  0  0  0  0  0  0  0  0  0  0
  151.4277  146.2265  159.3776 H   0  0  0  0  0  0  0  0  0  0  0  0
  150.2146  140.8580  157.2583 H   0  0  0  0  0  0  0  0  0  0  0  0
  147.3337  140.1877  157.5061 H   0  0  0  0  0  0  0  0  0  0  0  0
  145.9194  140.9064  155.7033 H   0  0  0  0  0  0  0  0  0  0  0  0
  145.9656  142.2261  156.8494 H   0  0  0  0  0  0  0  0  0  0  0  0
  145.3063  142.5779  153.8570 H   0  0  0  0  0  0  0  0  0  0  0  0
  146.3583  143.9844  153.6526 H   0  0  0  0  0  0  0  0  0  0  0  0
  145.3592  143.8378  155.0966 H   0  0  0  0  0  0  0  0  0  0  0  0
  147.3730  141.0791  153.5976 H   0  0  0  0  0  0  0  0  0  0  0  0
  148.3359  142.5300  153.3817 H   0  0  0  0  0  0  0  0  0  0  0  0
  149.7152  140.5926  154.2101 H   0  0  0  0  0  0  0  0  0  0  0  0
  149.7702  141.9425  155.3173 H   0  0  0  0  0  0  0  0  0  0  0  0
  152.1930  140.5718  158.3656 H   0  0  0  0  0  0  0  0  0  0  0  0
  147.6243  143.2702  155.5186 H   0  0  0  0  0  0  0  0  0  0  0  0
  1  2  1  0  0  0  0
  1 19  1  0  0  0  0
  1 20  1  0  0  0  0
  1 21  1  0  0  0  0
  2 18  1  0  0  0  0
  2  3  2  0  0  0  0
  3  4  1  0  0  0  0
  3 22  1  0  0  0  0
  4  5  1  0  0  0  0
  4  6  2  0  0  0  0
  5 23  1  0  0  0  0
  5 24  1  0  0  0  0
  5 25  1  0  0  0  0
  6  7  1  0  0  0  0
  7  8  1  0  0  0  0
  7 18  2  0  0  0  0
  8  9  1  0  0  0  0
  8 26  1  0  0  0  0
  9 10  2  0  0  0  0
  9 11  1  0  0  0  0
 11 17  1  0  0  0  0
 11 12  1  0  0  0  0
 11 27  1  0  0  0  0
 12 13  1  0  0  0  0
 12 28  1  0  0  0  0
 12 29  1  0  0  0  0
 13 14  1  0  0  0  0
 13 15  1  0  0  0  0
 13 38  1  0  0  0  0
 14 30  1  0  0  0  0
 14 31  1  0  0  0  0
 14 32  1  0  0  0  0
 15 16  1  0  0  0  0
 15 33  1  0  0  0  0
 15 34  1  0  0  0  0
 16 17  1  0  0  0  0
 16 35  1  0  0  0  0
 16 36  1  0  0  0  0
 18 37  1  0  0  0  0
M  CHG  1  13   1
M  END
> <s_m_source_file>
AV-unprocessed.smi

> <i_m_source_file_index>
3314

> <i_lp_mmshare_version>
43012

> <i_f3d_flags>
0

> <s_epik_input>
W0NIM11jMVtjSF1jKFtDSDNdKW5jKFtjSF0xKVtOSF1DKD1PKVtDQEBIXTJbQ0gyXU4oW0NIM10pW0NIMl1bQ0gyXU8y

> <s_epik_cmdline>
J2VwaWtfcHl0aG9uJywgJy1waCcsICc3LjAnLCAnLXRuJywgJzgnLCAnLW1hJywgJzIwMCcsICctbWV0YWxfYmluZGluZycsICctaW1hZScsICc8aW5maWxlLm1hZT4nLCAnLW9tYWUnLCAnPG91dGZpbGUubWFlPic=

> <r_epik_Ionization_Penalty>
0.32442

> <r_epik_Ionization_Penalty_Charging>
0.314023

> <r_epik_Ionization_Penalty_Neutral>
0.0103972

> <r_epik_State_Penalty>
0.29453

> <r_epik_Charging_Adjusted_Penalty>
0.608553

> <i_epik_Tot_Q>
1

> <i_epik_Tot_abs_Q>
1

> <r_epik_Metal_State_Penalty>
0.286909

> <b_epik_Metal_Only>
0

> <s_lp_Force_Field>
OPLS_2005

> <r_lp_Energy>
14.9445

> <b_lp_Chiralities_Consistent>
1

> <s_lp_Variant>
AV-unprocessed.smi:3314-2

> <Gold.Version>
5.8.1

> <Gold.Id.Protein>
6NUR|6NUR_protein|mol2

> <Gold.PLP.Fitness>
42.2242

> <Gold.PLP.PLP>
-37.6031

> <Gold.PLP.part.hbond>
-1.0000

> <Gold.PLP.part.metal>
0.0000

> <Gold.PLP.part.buried>
-5.8884

> <Gold.PLP.part.nonpolar>
-31.6933

> <Gold.PLP.part.repulsive>
0.5315

> <Gold.PLP.ligand.clash>
0.0000

> <Gold.PLP.ligand.torsion>
0.7002

> <Gold.PLP.Chemscore.Hbond>
2.0000

> <Gold.PLP.Chemscore.CHOScore>
0.0000

> <Gold.PLP.Chemscore.Metal>
0.0000

> <Gold.Chemscore.Hbonds>
donor molecule, donor type, donor heavy atom, donor atom, acceptor molecule, acceptor atom, score
      L1  H    13    38       P1  8028  1.90

> <Gold.PLP.Chemscore.Internal.Correction>
0.0216

> <Gold.Rescore>
     Score         DG    S(hbond)    S(metal)    S(lipo)     H(rot)  DE(clash)    DE(int)     intcor
     13.11     -16.21       0.90        0.00      87.99       1.00       0.37       2.74       ----

> <Gold.Chemscore.Fitness>
13.1052

> <Gold.Chemscore.DG>
-16.2136

> <Gold.Chemscore.ZeroCoef>
-5.4800

> <Gold.Chemscore.Hbond>
0.8979

> <Gold.Chemscore.Metal>
0.0000

> <Gold.Chemscore.Lipo>
87.9883

> <Gold.Chemscore.Internal_Hbond>
0.0000

> <Gold.Chemscore.DEClash>
0.3696

> <Gold.Chemscore.DEInternal>
2.7388

> <Gold.Chemscore.Rot>
1.0000

> <Gold.Chemscore.Internal.Correction>
   9.000000E+99

> <Gold.Chemscore.Hbonds>
donor molecule, donor type, donor heavy atom, donor atom, acceptor molecule, acceptor atom, score
      L1  H    13    38       P1  8028  0.21

> <Gold.Chemscore.Hbond.Weighted>
-2.9990

> <Gold.Chemscore.Metal.Weighted>
-0.0000

> <Gold.Chemscore.Lipo.Weighted>
-10.2946

> <Gold.Chemscore.Internal_Hbond.Weighted>
0.0000

> <Gold.Chemscore.DEClash.Weighted>
0.3696

> <Gold.Chemscore.DEInternal.Weighted>
2.7388

> <Gold.Chemscore.Rot.Weighted>
2.5600

> <Gold.Chemscore.Internal.Correction.Weighted>
   9.000000E+99

> <Gold.Protein.RotatedTorsions>
[ 6907 6896 6895 6894 ] final  -52.40 input  -60.11 | X-H torsion
[ 7974 7965 7964 7962 ] final  -46.96 input  175.53 | X-H torsion
[ 8008 7997 7996 7995 ] final  105.26 input   59.86 | X-H torsion
[ 10167 10162 10161 10158 ] final  -66.96 input  -65.29 | X-H torsion
[ 10718 10713 10712 10709 ] final  171.78 input   66.30 | X-H torsion
[ 10763 10752 10751 10750 ] final  -71.10 input  -60.55 | X-H torsion
[ 11005 11000 10999 10996 ] final  161.93 input  -57.11 | X-H torsion

> <Gold.Protein.ActiveResidues>
 VAL166  LYS551  ARG553  GLY616  TRP617  ASP618  TYR619  PRO620  LYS621  CYS622 
 ASP623  PHE694  ASN695  SER759  ASP760  ASP761  ALA762  ILE779  LEU786  VAL792 
 PHE793  MET794  SER795  GLU796  ALA797  LYS798  CYS799  TRP800  GLU811  SER814 

> <Gold.Protein.RotatedAtoms>
  150.8522  134.7850  159.7017 H   0  0  0  0  0  0  0  0  0  0  0  0  # atno 6907 bound_to 6896
  152.4583  134.5238  159.9800 H   0  0  0  0  0  0  0  0  0  0  0  0  # atno 6908 bound_to 6896
  151.5357  133.3403  159.2962 H   0  0  0  0  0  0  0  0  0  0  0  0  # atno 6909 bound_to 6896
  145.9665  140.7426  142.9431 H   0  0  0  0  0  0  0  0  0  0  0  0  # atno 7974 bound_to 7965
  156.1644  140.3133  155.8862 H   0  0  0  0  0  0  0  0  0  0  0  0  # atno 8008 bound_to 7997
  155.3717  140.0482  157.3062 H   0  0  0  0  0  0  0  0  0  0  0  0  # atno 8009 bound_to 7997
  154.5177  140.2187  155.9045 H   0  0  0  0  0  0  0  0  0  0  0  0  # atno 8010 bound_to 7997
  140.5618  143.2313  151.6712 H   0  0  0  0  0  0  0  0  0  0  0  0  # atno 10167 bound_to 10162
  156.9885  131.0140  151.2863 H   0  0  0  0  0  0  0  0  0  0  0  0  # atno 10718 bound_to 10713
  154.4271  135.5973  153.6045 H   0  0  0  0  0  0  0  0  0  0  0  0  # atno 10763 bound_to 10752
  152.9797  135.5966  154.3885 H   0  0  0  0  0  0  0  0  0  0  0  0  # atno 10764 bound_to 10752
  154.3718  135.2841  155.2240 H   0  0  0  0  0  0  0  0  0  0  0  0  # atno 10765 bound_to 10752
  140.2207  134.8198  157.3217 H   0  0  0  0  0  0  0  0  0  0  0  0  # atno 11005 bound_to 11000
  144.6827  140.2678  143.7310 LP  0  0  0  0  0  0  0  0  0  0  0  0  # atno 17320 bound_to 7965
  145.7966  139.1948  143.2072 LP  0  0  0  0  0  0  0  0  0  0  0  0  # atno 17321 bound_to 7965
  139.5074  144.3648  152.0527 LP  0  0  0  0  0  0  0  0  0  0  0  0  # atno 17342 bound_to 10162
  140.2776  144.3896  150.6130 LP  0  0  0  0  0  0  0  0  0  0  0  0  # atno 17343 bound_to 10162
  157.5476  130.8161  149.8105 LP  0  0  0  0  0  0  0  0  0  0  0  0  # atno 17370 bound_to 10713
  156.0216  130.3793  150.1944 LP  0  0  0  0  0  0  0  0  0  0  0  0  # atno 17371 bound_to 10713
  140.1852  134.4439  155.7748 LP  0  0  0  0  0  0  0  0  0  0  0  0  # atno 17394 bound_to 11000
  141.2223  133.7002  156.7936 LP  0  0  0  0  0  0  0  0  0  0  0  0  # atno 17395 bound_to 11000

$$$$
