AV-unprocessed.smi:2078|AV-procd|sdf|8470|dock3
  -GOLD-   2272011173D 1   1.00000     0.00000
 Structure written by MMmdl.
 41 42  0  0  0  0  0  0  0  0  3 V2000
  146.8532  136.2200  162.7343 C   0  0  0  0  0  0  0  0  0  0  0  0
  147.4541  135.9194  161.4038 C   0  0  0  0  0  0  0  0  0  0  0  0
  147.7746  134.7509  160.7734 C   0  0  0  0  0  0  0  0  0  0  0  0
  148.3059  135.1877  159.5295 C   0  0  0  0  0  0  0  0  0  0  0  0
  148.7807  134.3954  158.5559 N   0  5  0  0  0  0  0  0  0  0  0  0
  148.8016  134.8284  157.2746 C   0  0  0  0  0  0  0  0  0  0  0  0
  149.1428  135.9470  156.8839 O   0  0  0  0  0  0  0  0  0  0  0  0
  148.3977  133.9070  156.3901 N   0  0  0  0  0  0  0  0  0  0  0  0
  148.3065  134.1016  154.9492 C   0  0  0  0  0  0  0  0  0  0  0  0
  147.1726  135.0838  154.6172 C   0  0  0  0  0  0  0  0  0  0  0  0
  146.8531  135.1096  153.1677 N   0  3  2  0  0  0  0  0  0  0  0  0
  145.7867  136.0932  152.8472 C   0  0  0  0  0  0  0  0  0  0  0  0
  145.5730  136.2044  151.3294 C   0  0  0  0  0  0  0  0  0  0  0  0
  145.2499  134.8349  150.7196 C   0  0  0  0  0  0  0  0  0  0  0  0
  146.3451  133.8178  151.0822 C   0  0  2  0  0  0  0  0  0  0  0  0
  146.0326  132.4291  150.5070 C   0  0  0  0  0  0  0  0  0  0  0  0
  146.5421  133.7652  152.6112 C   0  0  0  0  0  0  0  0  0  0  0  0
  148.3203  136.5060  159.4203 N   0  0  0  0  0  0  0  0  0  0  0  0
  147.7681  136.9826  160.6154 O   0  0  0  0  0  0  0  0  0  0  0  0
  147.2471  135.5477  163.4964 H   0  0  0  0  0  0  0  0  0  0  0  0
  145.7703  136.0999  162.7035 H   0  0  0  0  0  0  0  0  0  0  0  0
  147.0723  137.2429  163.0413 H   0  0  0  0  0  0  0  0  0  0  0  0
  147.6485  133.7438  161.1422 H   0  0  0  0  0  0  0  0  0  0  0  0
  148.1313  133.0029  156.7523 H   0  0  0  0  0  0  0  0  0  0  0  0
  149.2507  134.4870  154.5606 H   0  0  0  0  0  0  0  0  0  0  0  0
  148.1395  133.1287  154.4875 H   0  0  0  0  0  0  0  0  0  0  0  0
  146.2743  134.8529  155.1921 H   0  0  0  0  0  0  0  0  0  0  0  0
  147.4913  136.0792  154.9309 H   0  0  0  0  0  0  0  0  0  0  0  0
  144.8580  135.7987  153.3390 H   0  0  0  0  0  0  0  0  0  0  0  0
  146.0575  137.0739  153.2404 H   0  0  0  0  0  0  0  0  0  0  0  0
  144.7662  136.9062  151.1166 H   0  0  0  0  0  0  0  0  0  0  0  0
  146.4700  136.6124  150.8614 H   0  0  0  0  0  0  0  0  0  0  0  0
  144.2826  134.4890  151.0873 H   0  0  0  0  0  0  0  0  0  0  0  0
  145.1582  134.9238  149.6366 H   0  0  0  0  0  0  0  0  0  0  0  0
  147.2813  134.1550  150.6344 H   0  0  0  0  0  0  0  0  0  0  0  0
  145.1040  132.0294  150.9158 H   0  0  0  0  0  0  0  0  0  0  0  0
  146.8291  131.7203  150.7358 H   0  0  0  0  0  0  0  0  0  0  0  0
  145.9286  132.4674  149.4222 H   0  0  0  0  0  0  0  0  0  0  0  0
  147.3506  133.0713  152.8384 H   0  0  0  0  0  0  0  0  0  0  0  0
  145.6458  133.3715  153.0938 H   0  0  0  0  0  0  0  0  0  0  0  0
  147.6866  135.4373  152.7006 H   0  0  0  0  0  0  0  0  0  0  0  0
  1  2  1  0  0  0  0
  1 20  1  0  0  0  0
  1 21  1  0  0  0  0
  1 22  1  0  0  0  0
  2 19  1  0  0  0  0
  2  3  2  0  0  0  0
  3  4  1  0  0  0  0
  3 23  1  0  0  0  0
  4  5  1  0  0  0  0
  4 18  2  0  0  0  0
  5  6  1  0  0  0  0
  6  7  2  0  0  0  0
  6  8  1  0  0  0  0
  8  9  1  0  0  0  0
  8 24  1  0  0  0  0
  9 10  1  0  0  0  0
  9 25  1  0  0  0  0
  9 26  1  0  0  0  0
 10 11  1  0  0  0  0
 10 27  1  0  0  0  0
 10 28  1  0  0  0  0
 11 17  1  0  0  0  0
 11 12  1  0  0  0  0
 11 41  1  0  0  0  0
 12 13  1  0  0  0  0
 12 29  1  0  0  0  0
 12 30  1  0  0  0  0
 13 14  1  0  0  0  0
 13 31  1  0  0  0  0
 13 32  1  0  0  0  0
 14 15  1  0  0  0  0
 14 33  1  0  0  0  0
 14 34  1  0  0  0  0
 15 16  1  0  0  0  0
 15 17  1  0  0  0  0
 15 35  1  0  0  0  0
 16 36  1  0  0  0  0
 16 37  1  0  0  0  0
 16 38  1  0  0  0  0
 17 39  1  0  0  0  0
 17 40  1  0  0  0  0
 18 19  1  0  0  0  0
M  CHG  1   5  -1
M  CHG  1  11   1
M  END
> <s_m_source_file>
AV-unprocessed.smi

> <i_m_source_file_index>
2078

> <i_lp_mmshare_version>
43012

> <i_f3d_flags>
0

> <s_epik_input>
W0NIM11jMVtjSF1jKG5vMSlbTkhdQyg9TylbTkhdW0NIMl1bQ0gyXU4yW0NIMl1bQ0gyXVtDSDJdW0NAQEhdKFtDSDNdKVtDSDJdMg==

> <s_epik_cmdline>
J2VwaWtfcHl0aG9uJywgJy1waCcsICc3LjAnLCAnLXRuJywgJzgnLCAnLW1hJywgJzIwMCcsICctbWV0YWxfYmluZGluZycsICctaW1hZScsICc8aW5maWxlLm1hZT4nLCAnLW9tYWUnLCAnPG91dGZpbGUubWFlPic=

> <r_epik_Ionization_Penalty>
6.22434

> <r_epik_Ionization_Penalty_Charging>
6.22425

> <r_epik_Ionization_Penalty_Neutral>
9.37855e-05

> <r_epik_State_Penalty>
6.22423

> <r_epik_Charging_Adjusted_Penalty>
12.4485

> <i_epik_Tot_Q>
0

> <i_epik_Tot_abs_Q>
2

> <r_epik_Metal_State_Penalty>
2.16764

> <b_epik_Metal_Only>
1

> <s_lp_Force_Field>
OPLS_2005

> <r_lp_Energy>
6.03682

> <b_lp_Chiralities_Consistent>
1

> <s_lp_Variant>
AV-unprocessed.smi:2078-8

> <Gold.Version>
5.8.1

> <Gold.Id.Protein>
6NUR|6NUR_protein|mol2

> <Gold.PLP.Fitness>
44.6185

> <Gold.PLP.PLP>
-28.8219

> <Gold.PLP.part.hbond>
-4.0000

> <Gold.PLP.part.metal>
0.0000

> <Gold.PLP.part.buried>
-3.5765

> <Gold.PLP.part.nonpolar>
-21.6762

> <Gold.PLP.part.repulsive>
0.0187

> <Gold.PLP.ligand.clash>
0.0000

> <Gold.PLP.ligand.torsion>
0.5651

> <Gold.PLP.Chemscore.Hbond>
5.6160

> <Gold.PLP.Chemscore.CHOScore>
0.0000

> <Gold.PLP.Chemscore.Metal>
0.0000

> <Gold.Chemscore.Hbonds>
donor molecule, donor type, donor heavy atom, donor atom, acceptor molecule, acceptor atom, score
      L1  H    11    41       P1  7948  2.00
      P1  H  6896  6909       L1     5  1.62
      P1  H  6931  6943       L1    19  0.50
      P1  H  6934  6947       L1    19  0.65

> <Gold.PLP.Chemscore.Internal.Correction>
0.0787

> <Gold.Rescore>
     Score         DG    S(hbond)    S(metal)    S(lipo)     H(rot)  DE(clash)    DE(int)     intcor
     16.58     -18.72       2.95        0.00      62.74       1.54       0.00       2.14       ----

> <Gold.Chemscore.Fitness>
16.5763

> <Gold.Chemscore.DG>
-18.7219

> <Gold.Chemscore.ZeroCoef>
-5.4800

> <Gold.Chemscore.Hbond>
2.9478

> <Gold.Chemscore.Metal>
0.0000

> <Gold.Chemscore.Lipo>
62.7420

> <Gold.Chemscore.Internal_Hbond>
0.0000

> <Gold.Chemscore.DEClash>
0.0021

> <Gold.Chemscore.DEInternal>
2.1435

> <Gold.Chemscore.Rot>
1.5409

> <Gold.Chemscore.Internal.Correction>
   9.000000E+99

> <Gold.Chemscore.Hbonds>
donor molecule, donor type, donor heavy atom, donor atom, acceptor molecule, acceptor atom, score
      L1  H    11    41       P1  7948  1.00
      P1  H  6896  6909       L1     5  0.17
      P1  H  6931  6943       L1    19  0.23
      P1  H  6934  6947       L1    19  0.63

> <Gold.Chemscore.Hbond.Weighted>
-9.8457

> <Gold.Chemscore.Metal.Weighted>
-0.0000

> <Gold.Chemscore.Lipo.Weighted>
-7.3408

> <Gold.Chemscore.Internal_Hbond.Weighted>
0.0000

> <Gold.Chemscore.DEClash.Weighted>
0.0021

> <Gold.Chemscore.DEInternal.Weighted>
2.1435

> <Gold.Chemscore.Rot.Weighted>
3.9446

> <Gold.Chemscore.Internal.Correction.Weighted>
   9.000000E+99

> <Gold.Protein.RotatedTorsions>
[ 6907 6896 6895 6894 ] final   10.41 input  -60.11 | X-H torsion
[ 7974 7965 7964 7962 ] final  130.30 input  175.53 | X-H torsion
[ 8008 7997 7996 7995 ] final -163.25 input   59.86 | X-H torsion
[ 10167 10162 10161 10158 ] final  -92.63 input  -65.29 | X-H torsion
[ 10718 10713 10712 10709 ] final   23.32 input   66.30 | X-H torsion
[ 10763 10752 10751 10750 ] final   78.36 input  -60.55 | X-H torsion
[ 11005 11000 10999 10996 ] final  -69.48 input  -57.11 | X-H torsion

> <Gold.Protein.ActiveResidues>
 VAL166  LYS551  ARG553  GLY616  TRP617  ASP618  TYR619  PRO620  LYS621  CYS622 
 ASP623  PHE694  ASN695  SER759  ASP760  ASP761  ALA762  ILE779  LEU786  VAL792 
 PHE793  MET794  SER795  GLU796  ALA797  LYS798  CYS799  TRP800  GLU811  SER814 

> <Gold.Protein.RotatedAtoms>
  151.7378  135.0861  160.0310 H   0  0  0  0  0  0  0  0  0  0  0  0  # atno 6907 bound_to 6896
  152.3499  133.6163  159.5946 H   0  0  0  0  0  0  0  0  0  0  0  0  # atno 6908 bound_to 6896
  150.7533  133.9506  159.3526 H   0  0  0  0  0  0  0  0  0  0  0  0  # atno 6909 bound_to 6896
  145.0193  139.4146  143.5205 H   0  0  0  0  0  0  0  0  0  0  0  0  # atno 7974 bound_to 7965
  155.8186  140.0916  157.1862 H   0  0  0  0  0  0  0  0  0  0  0  0  # atno 8008 bound_to 7997
  154.3979  140.1441  156.3532 H   0  0  0  0  0  0  0  0  0  0  0  0  # atno 8009 bound_to 7997
  155.8290  140.3443  155.5563 H   0  0  0  0  0  0  0  0  0  0  0  0  # atno 8010 bound_to 7997
  140.3328  143.2985  151.9922 H   0  0  0  0  0  0  0  0  0  0  0  0  # atno 10167 bound_to 10162
  157.1645  130.6732  149.6056 H   0  0  0  0  0  0  0  0  0  0  0  0  # atno 10718 bound_to 10713
  153.0868  135.4880  154.8612 H   0  0  0  0  0  0  0  0  0  0  0  0  # atno 10763 bound_to 10752
  154.7220  135.3041  154.9034 H   0  0  0  0  0  0  0  0  0  0  0  0  # atno 10764 bound_to 10752
  153.9695  135.6803  153.4800 H   0  0  0  0  0  0  0  0  0  0  0  0  # atno 10765 bound_to 10752
  141.1555  133.6765  156.6605 H   0  0  0  0  0  0  0  0  0  0  0  0  # atno 11005 bound_to 11000
  146.3483  139.9682  142.8709 LP  0  0  0  0  0  0  0  0  0  0  0  0  # atno 17320 bound_to 7965
  145.1917  140.9814  143.4207 LP  0  0  0  0  0  0  0  0  0  0  0  0  # atno 17321 bound_to 7965
  139.4853  144.6221  151.7236 LP  0  0  0  0  0  0  0  0  0  0  0  0  # atno 17342 bound_to 10162
  140.5381  144.0623  150.6078 LP  0  0  0  0  0  0  0  0  0  0  0  0  # atno 17343 bound_to 10162
  155.9748  130.4700  150.6415 LP  0  0  0  0  0  0  0  0  0  0  0  0  # atno 17370 bound_to 10713
  157.4101  131.0822  151.1228 LP  0  0  0  0  0  0  0  0  0  0  0  0  # atno 17371 bound_to 10713
  140.3251  134.7976  157.4282 LP  0  0  0  0  0  0  0  0  0  0  0  0  # atno 17394 bound_to 11000
  140.1064  134.5404  155.8305 LP  0  0  0  0  0  0  0  0  0  0  0  0  # atno 17395 bound_to 11000

$$$$
