#       Name:                AV-unprocessed.smi:2184
#       Creating user name   scv26
#       Creation time:       Fri Mar 27 12:07:01 2020


#       File generated by GOLD software.
#

@<TRIPOS>MOLECULE
AV-unprocessed.smi:2184
    53    54     1
SMALL
NO_CHARGES


@<TRIPOS>ATOM
      1 ****        -4.6184  -0.7124   5.7074 C.3            1 S1                 0.0000
      2 ****        -5.5137   0.0448   4.3235 S.3            1 S1                 0.0000
      3 ****        -4.5280  -0.5411   2.9129 C.3            1 S1                 0.0000
      4 ****        -5.3155  -0.3667   1.6047 C.3            1 S1                 0.0000
      5 ****        -3.1669   0.1611   2.8352 C.2            1 S1                 0.0000
      6 ****        -3.0886   1.3260   2.4437 O.2            1 S1                 0.0000
      7 ****        -2.0996  -0.5584   3.2158 N.am           1 S1                 0.0000
      8 ****        -0.7228  -0.0742   3.2146 C.3            1 S1                 0.0000
      9 ****        -0.0774  -0.0169   1.8369 C.ar           1 S1                 0.0000
     10 ****        -0.4162  -0.9244   0.8113 C.ar           1 S1                 0.0000
     11 ****         0.2232  -0.8142  -0.4379 C.ar           1 S1                 0.0000
     12 ****         1.1931   0.1982  -0.6310 C.ar           1 S1                 0.0000
     13 ****         1.8453   0.3281  -1.8762 N.3            1 S1                 0.0000
     14 ****         2.4718  -0.8856  -2.3923 C.3            1 S1                 0.0000
     15 ****         2.8592  -0.7036  -3.8722 C.3            1 S1                 0.0000
     16 ****         3.6309  -1.9098  -4.4172 C.3            1 S1                 0.0000
     17 ****         3.6837   0.4513  -4.0040 O.3            1 S1                 0.0000
     18 ****         3.0178   1.6446  -3.5999 C.3            1 S1                 0.0000
     19 ****         3.9496   2.8309  -3.8684 C.3            1 S1                 0.0000
     20 ****         2.6397   1.5318  -2.1115 C.3            1 S1                 0.0000
     21 ****         1.5172   1.0670   0.3586 N.ar           1 S1                 0.0000
     22 ****         0.9011   0.9569   1.5541 C.ar           1 S1                 0.0000
     23 ****        -5.1232  -0.4860   6.6464 H              1 S1                 0.0000
     24 ****        -3.5998  -0.3289   5.7658 H              1 S1                 0.0000
     25 ****        -4.5783  -1.7955   5.5902 H              1 S1                 0.0000
     26 ****        -4.3628  -1.6101   3.0563 H              1 S1                 0.0000
     27 ****        -4.7360  -0.7036   0.7442 H              1 S1                 0.0000
     28 ****        -5.5887   0.6758   1.4363 H              1 S1                 0.0000
     29 ****        -6.2372  -0.9486   1.6261 H              1 S1                 0.0000
     30 ****        -2.2515  -1.5066   3.5278 H              1 S1                 0.0000
     31 ****        -0.6816   0.9102   3.6836 H              1 S1                 0.0000
     32 ****        -0.1287  -0.7390   3.8416 H              1 S1                 0.0000
     33 ****        -1.1569  -1.6942   0.9696 H              1 S1                 0.0000
     34 ****        -0.0471  -1.4935  -1.2325 H              1 S1                 0.0000
     35 ****         3.3589  -1.1008  -1.7951 H              1 S1                 0.0000
     36 ****         1.8128  -1.7480  -2.3013 H              1 S1                 0.0000
     37 ****         1.9579  -0.5692  -4.4732 H              1 S1                 0.0000
     38 ****         3.0343  -2.8200  -4.3508 H              1 S1                 0.0000
     39 ****         4.5538  -2.0725  -3.8598 H              1 S1                 0.0000
     40 ****         3.8956  -1.7620  -5.4644 H              1 S1                 0.0000
     41 ****         2.1145   1.7712  -4.1994 H              1 S1                 0.0000
     42 ****         3.4787   3.7719  -3.5833 H              1 S1                 0.0000
     43 ****         4.2048   2.8940  -4.9265 H              1 S1                 0.0000
     44 ****         4.8794   2.7375  -3.3064 H              1 S1                 0.0000
     45 ****         2.0768   2.4173  -1.8137 H              1 S1                 0.0000
     46 ****         3.5396   1.4938  -1.4958 H              1 S1                 0.0000
     47 ****         1.1984   1.6720   2.3070 H              1 S1                 0.0000
     48 ****        -3.9155   1.8196   2.1742 LP             1 S1                 0.0000
     49 ****        -2.1981   1.7785   2.3953 LP             1 S1                 0.0000
     50 ****         1.0437   0.4844  -2.4532 LP             1 S1                 0.0000
     51 ****         3.9554   0.5441  -4.9619 LP             1 S1                 0.0000
     52 ****         4.4983   0.3305  -3.4367 LP             1 S1                 0.0000
     53 ****         2.2026   1.7787   0.2046 LP             1 S1                 0.0000
@<TRIPOS>BOND
    1    1    2 1     
    2    1   23 1     
    3    1   24 1     
    4    1   25 1     
    5    2    3 1     
    6    3    4 1     
    7    3    5 1     
    8    3   26 1     
    9    4   27 1     
   10    4   28 1     
   11    4   29 1     
   12    5    6 2     
   13    5    7 am    
   14    7    8 1     
   15    7   30 1     
   16    8    9 1     
   17    8   31 1     
   18    8   32 1     
   19    9   22 ar    
   20    9   10 ar    
   21   10   11 ar    
   22   10   33 1     
   23   11   12 ar    
   24   11   34 1     
   25   12   13 1     
   26   12   21 ar    
   27   13   20 1     
   28   13   14 1     
   29   14   15 1     
   30   14   35 1     
   31   14   36 1     
   32   15   16 1     
   33   15   17 1     
   34   15   37 1     
   35   16   38 1     
   36   16   39 1     
   37   16   40 1     
   38   17   18 1     
   39   18   19 1     
   40   18   20 1     
   41   18   41 1     
   42   19   42 1     
   43   19   43 1     
   44   19   44 1     
   45   20   45 1     
   46   20   46 1     
   47   21   22 ar    
   48   22   47 1     
   49    6   48 1     
   50    6   49 1     
   51   13   50 1     
   52   17   51 1     
   53   17   52 1     
   54   21   53 1     
@<TRIPOS>SUBSTRUCTURE
      1 S1             1
@<TRIPOS>SET
LONE_PAIRS      STATIC     ATOMS    <user>   **** ""
6 48 49 50 51 52 53
DONOR_HYDROGENS      STATIC     ATOMS    <user>   **** ""
1 30
ATOM$BLUE        STATIC     ATOMS    COLORGROUP SYSTEM
6 48 49 50 51 52 53
ATOM$RED        STATIC     ATOMS    COLORGROUP SYSTEM
1 30
