#       Name:                AV-unprocessed.smi:3016
#       Creating user name   scv26
#       Creation time:       Fri Mar 27 16:41:05 2020


#       File generated by GOLD software.
#

@<TRIPOS>MOLECULE
AV-unprocessed.smi:3016
    38    39     1
SMALL
NO_CHARGES


@<TRIPOS>ATOM
      1 ****        -3.9203   1.4931   2.3828 C.3            1 S1                 0.0000
      2 ****        -3.8311   1.0943   0.9055 C.3            1 S1                 0.0000
      3 ****        -3.1219  -0.1648   0.7284 N.pl3          1 S1                 0.0000
      4 ****        -3.8018  -1.3777   0.6953 C.2            1 S1                 0.0000
      5 ****        -3.2094  -2.5692   0.4868 C.2            1 S1                 0.0000
      6 ****        -1.7495  -2.6236   0.2712 C.2            1 S1                 0.0000
      7 ****        -1.1754  -3.6963   0.0828 O.2            1 S1                 0.0000
      8 ****        -1.0233  -1.3259   0.2946 C.2            1 S1                 0.0000
      9 ****         0.3649  -1.3901   0.0867 N.am           1 S1                 0.0000
     10 ****         1.2641  -0.3935  -0.0105 C.2            1 S1                 0.0000
     11 ****         1.0200   0.8107   0.0586 O.2            1 S1                 0.0000
     12 ****         2.4972  -0.8822  -0.2035 N.am           1 S1                 0.0000
     13 ****         3.6991  -0.0755  -0.3703 C.3            1 S1                 0.0000
     14 ****         3.8935   0.4977  -1.7610 C.3            1 S1                 0.0000
     15 ****         4.9210   1.5787  -2.0028 C.3            1 S1                 0.0000
     16 ****         3.4500   1.9025  -2.0989 C.3            1 S1                 0.0000
     17 ****        -1.7446  -0.1972   0.5178 C.2            1 S1                 0.0000
     18 ****        -4.4534   2.4367   2.4980 H              1 S1                 0.0000
     19 ****        -2.9280   1.6156   2.8181 H              1 S1                 0.0000
     20 ****        -4.4511   0.7379   2.9632 H              1 S1                 0.0000
     21 ****        -4.8335   1.0104   0.4838 H              1 S1                 0.0000
     22 ****        -3.3267   1.8784   0.3396 H              1 S1                 0.0000
     23 ****        -4.8667  -1.2960   0.8586 H              1 S1                 0.0000
     24 ****        -3.7784  -3.4871   0.4724 H              1 S1                 0.0000
     25 ****         0.7268  -2.3276  -0.0103 H              1 S1                 0.0000
     26 ****         2.6116  -1.8843  -0.2492 H              1 S1                 0.0000
     27 ****         3.7164   0.7299   0.3661 H              1 S1                 0.0000
     28 ****         4.5546  -0.7120  -0.1444 H              1 S1                 0.0000
     29 ****         3.7997  -0.2409  -2.5551 H              1 S1                 0.0000
     30 ****         5.4635   1.9656  -1.1424 H              1 S1                 0.0000
     31 ****         5.4883   1.5343  -2.9303 H              1 S1                 0.0000
     32 ****         3.0340   2.0714  -3.0899 H              1 S1                 0.0000
     33 ****         3.0144   2.5028  -1.3024 H              1 S1                 0.0000
     34 ****        -1.3026   0.7849   0.5623 H              1 S1                 0.0000
     35 ****        -1.6985  -4.5486   0.0741 LP             1 S1                 0.0000
     36 ****        -0.1861  -3.7154  -0.0616 LP             1 S1                 0.0000
     37 ****         0.0805   1.1231   0.1993 LP             1 S1                 0.0000
     38 ****         1.7610   1.4767  -0.0261 LP             1 S1                 0.0000
@<TRIPOS>BOND
    1    1    2 1     
    2    1   18 1     
    3    1   19 1     
    4    1   20 1     
    5    2    3 1     
    6    2   21 1     
    7    2   22 1     
    8    3   17 1     
    9    3    4 1     
   10    4    5 2     
   11    4   23 1     
   12    5    6 1     
   13    5   24 1     
   14    6    7 2     
   15    6    8 1     
   16    8    9 1     
   17    8   17 2     
   18    9   10 am    
   19    9   25 1     
   20   10   11 2     
   21   10   12 am    
   22   12   13 1     
   23   12   26 1     
   24   13   14 1     
   25   13   27 1     
   26   13   28 1     
   27   14   16 1     
   28   14   15 1     
   29   14   29 1     
   30   15   16 1     
   31   15   30 1     
   32   15   31 1     
   33   16   32 1     
   34   16   33 1     
   35   17   34 1     
   36    7   35 1     
   37    7   36 1     
   38   11   37 1     
   39   11   38 1     
@<TRIPOS>SUBSTRUCTURE
      1 S1             1
@<TRIPOS>SET
LONE_PAIRS      STATIC     ATOMS    <user>   **** ""
4 35 36 37 38
DONOR_HYDROGENS      STATIC     ATOMS    <user>   **** ""
2 25 26
ATOM$BLUE        STATIC     ATOMS    COLORGROUP SYSTEM
4 35 36 37 38
ATOM$RED        STATIC     ATOMS    COLORGROUP SYSTEM
2 25 26
