AV-unprocessed.smi:1333|AV-procd|sdf|5491|dock3
  -GOLD-   22720 5 73D 1   1.00000     0.00000
 Structure written by MMmdl.
 34 35  0  0  0  0  0  0  0  0  2 V2000
  150.2703  140.0699  154.4733 O   0  0  0  0  0  0  0  0  0  0  0  0
  149.6096  141.0967  154.6520 C   0  0  0  0  0  0  0  0  0  0  0  0
  148.3871  141.3854  153.7706 C   0  0  0  0  0  0  0  0  0  0  0  0
  147.3966  140.3009  153.7857 N   0  0  0  0  0  0  0  0  0  0  0  0
  147.4885  139.0819  153.1632 C   0  0  0  0  0  0  0  0  0  0  0  0
  146.3285  138.4086  153.4488 C   0  0  0  0  0  0  0  0  0  0  0  0
  145.5785  139.2436  154.2329 N   0  3  0  0  0  0  0  0  0  0  0  0
  146.2292  140.3937  154.4366 C   0  0  0  0  0  0  0  0  0  0  0  0
  149.8624  142.0424  155.5858 N   0  0  0  0  0  0  0  0  0  0  0  0
  150.8335  142.1289  156.5263 C   0  0  0  0  0  0  0  0  0  0  0  0
  151.4630  141.1291  156.8677 O   0  0  0  0  0  0  0  0  0  0  0  0
  151.0668  143.3433  157.0593 N   0  0  0  0  0  0  0  0  0  0  0  0
  152.0658  143.6436  158.0812 C   0  0  0  0  0  0  0  0  0  0  0  0
  151.7949  142.8629  159.3828 C   0  0  0  0  0  0  0  0  0  0  0  0
  151.2683  143.8894  160.3853 C   0  0  0  0  0  0  0  0  0  0  0  0
  151.9661  145.1865  159.9893 C   0  0  0  0  0  0  0  0  0  0  0  0
  152.0240  145.1366  158.4612 C   0  0  0  0  0  0  0  0  0  0  0  0
  147.8919  142.2959  154.1108 H   0  0  0  0  0  0  0  0  0  0  0  0
  148.7044  141.5506  152.7398 H   0  0  0  0  0  0  0  0  0  0  0  0
  148.3481  138.7931  152.5754 H   0  0  0  0  0  0  0  0  0  0  0  0
  145.9892  137.4247  153.1590 H   0  0  0  0  0  0  0  0  0  0  0  0
  145.8780  141.2333  155.0099 H   0  0  0  0  0  0  0  0  0  0  0  0
  149.2194  142.8208  155.5840 H   0  0  0  0  0  0  0  0  0  0  0  0
  150.5090  144.1181  156.7293 H   0  0  0  0  0  0  0  0  0  0  0  0
  153.0588  143.3914  157.7042 H   0  0  0  0  0  0  0  0  0  0  0  0
  151.1071  142.0258  159.2558 H   0  0  0  0  0  0  0  0  0  0  0  0
  152.7341  142.4499  159.7531 H   0  0  0  0  0  0  0  0  0  0  0  0
  150.1899  144.0001  160.2667 H   0  0  0  0  0  0  0  0  0  0  0  0
  151.4637  143.6049  161.4196 H   0  0  0  0  0  0  0  0  0  0  0  0
  151.4504  146.0723  160.3613 H   0  0  0  0  0  0  0  0  0  0  0  0
  152.9787  145.1958  160.3953 H   0  0  0  0  0  0  0  0  0  0  0  0
  152.8821  145.6844  158.0705 H   0  0  0  0  0  0  0  0  0  0  0  0
  151.1290  145.6129  158.0569 H   0  0  0  0  0  0  0  0  0  0  0  0
  144.6621  139.0257  154.6038 H   0  0  0  0  0  0  0  0  0  0  0  0
  1  2  2  0  0  0  0
  2  3  1  0  0  0  0
  2  9  1  0  0  0  0
  3  4  1  0  0  0  0
  3 18  1  0  0  0  0
  3 19  1  0  0  0  0
  4  8  1  0  0  0  0
  4  5  1  0  0  0  0
  5  6  2  0  0  0  0
  5 20  1  0  0  0  0
  6  7  1  0  0  0  0
  6 21  1  0  0  0  0
  7  8  2  0  0  0  0
  7 34  1  0  0  0  0
  8 22  1  0  0  0  0
  9 10  1  0  0  0  0
  9 23  1  0  0  0  0
 10 11  2  0  0  0  0
 10 12  1  0  0  0  0
 12 13  1  0  0  0  0
 12 24  1  0  0  0  0
 13 17  1  0  0  0  0
 13 14  1  0  0  0  0
 13 25  1  0  0  0  0
 14 15  1  0  0  0  0
 14 26  1  0  0  0  0
 14 27  1  0  0  0  0
 15 16  1  0  0  0  0
 15 28  1  0  0  0  0
 15 29  1  0  0  0  0
 16 17  1  0  0  0  0
 16 30  1  0  0  0  0
 16 31  1  0  0  0  0
 17 32  1  0  0  0  0
 17 33  1  0  0  0  0
M  CHG  1   7   1
M  END
> <s_m_source_file>
AV-unprocessed.smi

> <i_m_source_file_index>
1333

> <i_lp_mmshare_version>
43012

> <i_f3d_flags>
0

> <s_epik_input>
W2NIXTFuW2NIXVtjSF1uMVtDSDJdQyg9TylbTkhdQyg9TylbTkhdW0NIXTJbQ0gyXVtDSDJdW0NIMl1bQ0gyXTI=

> <s_epik_cmdline>
J2VwaWtfcHl0aG9uJywgJy1waCcsICc3LjAnLCAnLXRuJywgJzgnLCAnLW1hJywgJzIwMCcsICctbWV0YWxfYmluZGluZycsICctaW1hZScsICc8aW5maWxlLm1hZT4nLCAnLW9tYWUnLCAnPG91dGZpbGUubWFlPic=

> <r_lp_tautomer_probability>
1

> <r_epik_Ionization_Penalty>
0.816939

> <r_epik_Ionization_Penalty_Charging>
0

> <r_epik_Ionization_Penalty_Neutral>
0.816939

> <r_epik_State_Penalty>
0.849575

> <r_epik_Charging_Adjusted_Penalty>
0.849575

> <i_epik_Tot_Q>
1

> <i_epik_Tot_abs_Q>
1

> <r_epik_Metal_State_Penalty>
0.984774

> <b_epik_Metal_Only>
0

> <s_lp_Force_Field>
OPLS_2005

> <r_lp_Energy>
25.5003

> <b_lp_Chiralities_Consistent>
1

> <s_lp_Variant>
AV-unprocessed.smi:1333-2

> <Gold.Version>
5.8.1

> <Gold.Id.Protein>
6NUR|6NUR_protein|mol2

> <Gold.PLP.Fitness>
48.6667

> <Gold.PLP.PLP>
-36.1790

> <Gold.PLP.part.hbond>
-4.0000

> <Gold.PLP.part.metal>
0.0000

> <Gold.PLP.part.buried>
-2.9323

> <Gold.PLP.part.nonpolar>
-28.6010

> <Gold.PLP.part.repulsive>
0.2886

> <Gold.PLP.ligand.clash>
0.0000

> <Gold.PLP.ligand.torsion>
0.2644

> <Gold.PLP.Chemscore.Hbond>
2.8680

> <Gold.PLP.Chemscore.CHOScore>
1.4652

> <Gold.PLP.Chemscore.Metal>
0.0000

> <Gold.Chemscore.Hbonds>
donor molecule, donor type, donor heavy atom, donor atom, acceptor molecule, acceptor atom, score
      L1  H     9    23       P1  8028  1.00
      L1  H    12    24       P1  8028  0.98
      P1  H  7989  7998       L1     1  0.80
      L1  C     5    20       P1  7948  0.54
      L1  C     5    20       P1  7957  1.00

> <Gold.PLP.Chemscore.Internal.Correction>
0.0169

> <Gold.Rescore>
     Score         DG    S(hbond)    S(metal)    S(lipo)     H(rot)  DE(clash)    DE(int)     intcor
     15.99     -17.62       2.26        0.00      78.01       1.77       0.07       1.57       ----

> <Gold.Chemscore.Fitness>
15.9879

> <Gold.Chemscore.DG>
-17.6226

> <Gold.Chemscore.ZeroCoef>
-5.4800

> <Gold.Chemscore.Hbond>
2.2585

> <Gold.Chemscore.Metal>
0.0000

> <Gold.Chemscore.Lipo>
78.0061

> <Gold.Chemscore.Internal_Hbond>
0.0000

> <Gold.Chemscore.DEClash>
0.0669

> <Gold.Chemscore.DEInternal>
1.5677

> <Gold.Chemscore.Rot>
1.7686

> <Gold.Chemscore.Internal.Correction>
   9.000000E+99

> <Gold.Chemscore.Hbonds>
donor molecule, donor type, donor heavy atom, donor atom, acceptor molecule, acceptor atom, score
      L1  H     9    23       P1  8028  0.95
      L1  H    12    24       P1  8028  0.88
      P1  H  7989  7998       L1     1  0.12

> <Gold.Chemscore.Hbond.Weighted>
-7.5435

> <Gold.Chemscore.Metal.Weighted>
-0.0000

> <Gold.Chemscore.Lipo.Weighted>
-9.1267

> <Gold.Chemscore.Internal_Hbond.Weighted>
0.0000

> <Gold.Chemscore.DEClash.Weighted>
0.0669

> <Gold.Chemscore.DEInternal.Weighted>
1.5677

> <Gold.Chemscore.Rot.Weighted>
4.5277

> <Gold.Chemscore.Internal.Correction.Weighted>
   9.000000E+99

> <Gold.Protein.RotatedTorsions>
[ 6907 6896 6895 6894 ] final  128.19 input  -60.11 | X-H torsion
[ 7974 7965 7964 7962 ] final   59.72 input  175.53 | X-H torsion
[ 8008 7997 7996 7995 ] final   -8.98 input   59.86 | X-H torsion
[ 10167 10162 10161 10158 ] final -142.17 input  -65.29 | X-H torsion
[ 10718 10713 10712 10709 ] final  -53.98 input   66.30 | X-H torsion
[ 10763 10752 10751 10750 ] final   46.56 input  -60.55 | X-H torsion
[ 11005 11000 10999 10996 ] final   83.28 input  -57.11 | X-H torsion

> <Gold.Protein.ActiveResidues>
 VAL166  LYS551  ARG553  GLY616  TRP617  ASP618  TYR619  PRO620  LYS621  CYS622 
 ASP623  PHE694  ASN695  SER759  ASP760  ASP761  ALA762  ILE779  LEU786  VAL792 
 PHE793  MET794  SER795  GLU796  ALA797  LYS798  CYS799  TRP800  GLU811  SER814 

> <Gold.Protein.RotatedAtoms>
  152.3743  133.6460  159.6110 H   0  0  0  0  0  0  0  0  0  0  0  0  # atno 6907 bound_to 6896
  150.7692  133.9219  159.3409 H   0  0  0  0  0  0  0  0  0  0  0  0  # atno 6908 bound_to 6896
  151.7036  135.0927  160.0306 H   0  0  0  0  0  0  0  0  0  0  0  0  # atno 6909 bound_to 6896
  145.9040  139.3603  143.0575 H   0  0  0  0  0  0  0  0  0  0  0  0  # atno 7974 bound_to 7965
  154.5689  140.2367  155.8221 H   0  0  0  0  0  0  0  0  0  0  0  0  # atno 8008 bound_to 7997
  156.2091  140.3031  155.9650 H   0  0  0  0  0  0  0  0  0  0  0  0  # atno 8009 bound_to 7997
  155.2749  140.0420  157.3001 H   0  0  0  0  0  0  0  0  0  0  0  0  # atno 8010 bound_to 7997
  139.8114  143.7697  152.2663 H   0  0  0  0  0  0  0  0  0  0  0  0  # atno 10167 bound_to 10162
  156.1489  130.4152  149.9978 H   0  0  0  0  0  0  0  0  0  0  0  0  # atno 10718 bound_to 10713
  152.9809  135.6004  154.3619 H   0  0  0  0  0  0  0  0  0  0  0  0  # atno 10763 bound_to 10752
  154.3300  135.2768  155.2478 H   0  0  0  0  0  0  0  0  0  0  0  0  # atno 10764 bound_to 10752
  154.4607  135.5966  153.6309 H   0  0  0  0  0  0  0  0  0  0  0  0  # atno 10765 bound_to 10752
  139.9036  134.8133  156.2288 H   0  0  0  0  0  0  0  0  0  0  0  0  # atno 11005 bound_to 11000
  145.8755  140.9394  143.0628 LP  0  0  0  0  0  0  0  0  0  0  0  0  # atno 17320 bound_to 7965
  144.6738  140.0711  143.7473 LP  0  0  0  0  0  0  0  0  0  0  0  0  # atno 17321 bound_to 7965
  139.7847  144.7432  151.0038 LP  0  0  0  0  0  0  0  0  0  0  0  0  # atno 17342 bound_to 10162
  140.7817  143.4504  151.0420 LP  0  0  0  0  0  0  0  0  0  0  0  0  # atno 17343 bound_to 10162
  156.7842  130.9232  151.3646 LP  0  0  0  0  0  0  0  0  0  0  0  0  # atno 17370 bound_to 10713
  157.6640  130.8991  149.9891 LP  0  0  0  0  0  0  0  0  0  0  0  0  # atno 17371 bound_to 10713
  141.0359  133.6963  156.1511 LP  0  0  0  0  0  0  0  0  0  0  0  0  # atno 17394 bound_to 11000
  140.7028  134.4546  157.5585 LP  0  0  0  0  0  0  0  0  0  0  0  0  # atno 17395 bound_to 11000

$$$$
