AV-unprocessed.smi:157|AV-procd|sdf|1308|dock9
  -GOLD-   2262018593D 1   1.00000     0.00000
 Structure written by MMmdl.
 36 38  0  0  0  0  0  0  0  0  2 V2000
  155.4055  138.8693  154.5058 O   0  0  0  0  0  0  0  0  0  0  0  0
  154.2349  138.0803  154.5025 C   0  0  0  0  0  0  0  0  0  0  0  0
  152.9994  138.9590  154.7644 C   0  0  2  0  0  0  0  0  0  0  0  0
  153.0686  139.5716  156.0513 O   0  0  0  0  0  0  0  0  0  0  0  0
  151.7999  139.6199  156.6311 C   0  0  1  0  0  0  0  0  0  0  0  0
  151.5387  141.0170  157.0957 N   0  0  0  0  0  0  0  0  0  0  0  0
  150.9322  141.9771  156.3681 C   0  0  0  0  0  0  0  0  0  0  0  0
  150.7969  143.1340  156.9935 N   0  3  0  0  0  0  0  0  0  0  0  0
  151.3418  142.9657  158.2485 C   0  0  0  0  0  0  0  0  0  0  0  0
  151.8053  141.6481  158.2923 C   0  0  0  0  0  0  0  0  0  0  0  0
  152.4458  140.9601  159.3346 N   0  0  0  0  0  0  0  0  0  0  0  0
  152.9768  141.5541  160.3531 C   0  0  0  0  0  0  0  0  0  0  0  0
  152.9594  142.8979  160.6874 N   0  0  0  0  0  0  0  0  0  0  0  0
  151.7544  143.7068  160.6478 C   0  0  0  0  0  0  0  0  0  0  0  0
  151.3216  144.0971  159.2285 C   0  0  1  0  0  0  0  0  0  0  0  0
  152.1021  145.1955  158.8046 O   0  0  0  0  0  0  0  0  0  0  0  0
  150.7869  139.1897  155.5687 C   0  0  0  0  0  0  0  0  0  0  0  0
  151.6273  138.2671  154.7113 C   0  0  2  0  0  0  0  0  0  0  0  0
  151.6550  136.9635  155.2621 O   0  0  0  0  0  0  0  0  0  0  0  0
  152.9932  139.7771  154.0423 H   0  0  0  0  0  0  0  0  0  0  0  0
  151.7763  138.9960  157.5258 H   0  0  0  0  0  0  0  0  0  0  0  0
  150.2962  144.4638  159.2873 H   0  0  0  0  0  0  0  0  0  0  0  0
  151.2473  138.2020  153.6914 H   0  0  0  0  0  0  0  0  0  0  0  0
  156.1047  138.3712  154.1103 H   0  0  0  0  0  0  0  0  0  0  0  0
  154.1535  137.5416  153.5582 H   0  0  0  0  0  0  0  0  0  0  0  0
  154.3274  137.3297  155.2877 H   0  0  0  0  0  0  0  0  0  0  0  0
  150.5869  141.8097  155.3635 H   0  0  0  0  0  0  0  0  0  0  0  0
  153.5203  140.9574  161.0871 H   0  0  0  0  0  0  0  0  0  0  0  0
  153.6026  143.2284  161.3930 H   0  0  0  0  0  0  0  0  0  0  0  0
  150.9564  143.1261  161.1132 H   0  0  0  0  0  0  0  0  0  0  0  0
  151.8856  144.5926  161.2701 H   0  0  0  0  0  0  0  0  0  0  0  0
  151.6039  145.6988  158.1792 H   0  0  0  0  0  0  0  0  0  0  0  0
  149.9108  138.7199  156.0172 H   0  0  0  0  0  0  0  0  0  0  0  0
  150.4650  140.0529  154.9850 H   0  0  0  0  0  0  0  0  0  0  0  0
  150.9782  136.9024  155.9192 H   0  0  0  0  0  0  0  0  0  0  0  0
  150.3664  143.9716  156.6226 H   0  0  0  0  0  0  0  0  0  0  0  0
  1  2  1  0  0  0  0
  1 24  1  0  0  0  0
  2  3  1  0  0  0  0
  2 25  1  0  0  0  0
  2 26  1  0  0  0  0
  3 20  1  0  0  0  0
  3 18  1  0  0  0  0
  3  4  1  0  0  0  0
  4  5  1  0  0  0  0
  5 21  1  0  0  0  0
  5  6  1  0  0  0  0
  5 17  1  0  0  0  0
  6 10  1  0  0  0  0
  6  7  1  0  0  0  0
  7  8  2  0  0  0  0
  7 27  1  0  0  0  0
  8  9  1  0  0  0  0
  8 36  1  0  0  0  0
  9 15  1  0  0  0  0
  9 10  2  0  0  0  0
 10 11  1  0  0  0  0
 11 12  2  0  0  0  0
 12 13  1  0  0  0  0
 12 28  1  0  0  0  0
 13 14  1  0  0  0  0
 13 29  1  0  0  0  0
 14 15  1  0  0  0  0
 14 30  1  0  0  0  0
 14 31  1  0  0  0  0
 15 22  1  0  0  0  0
 15 16  1  0  0  0  0
 16 32  1  0  0  0  0
 17 18  1  0  0  0  0
 17 33  1  0  0  0  0
 17 34  1  0  0  0  0
 18 23  1  0  0  0  0
 18 19  1  0  0  0  0
 19 35  1  0  0  0  0
M  CHG  1   8   1
M  END
> <s_m_source_file>
AV-unprocessed.smi

> <i_m_source_file_index>
157

> <i_lp_mmshare_version>
43012

> <i_f3d_flags>
0

> <s_epik_input>
W09IXVtDSDJdW0NASF0xT1tDQEhdKFtDSDJdW0NAQEhdMVtPSF0pbihbY0hdbjIpYyhjMjMpTj1bQ0hdW05IXVtDSDJdW0NASF0zW09IXQ==

> <s_epik_cmdline>
J2VwaWtfcHl0aG9uJywgJy1waCcsICc3LjAnLCAnLXRuJywgJzgnLCAnLW1hJywgJzIwMCcsICctbWV0YWxfYmluZGluZycsICctaW1hZScsICc8aW5maWxlLm1hZT4nLCAnLW9tYWUnLCAnPG91dGZpbGUubWFlPic=

> <r_epik_Ionization_Penalty>
1.68594

> <r_epik_Ionization_Penalty_Charging>
0

> <r_epik_Ionization_Penalty_Neutral>
1.68594

> <r_epik_State_Penalty>
1.79006

> <r_epik_Charging_Adjusted_Penalty>
1.79006

> <i_epik_Tot_Q>
1

> <i_epik_Tot_abs_Q>
1

> <r_epik_Metal_State_Penalty>
5.85324

> <b_epik_Metal_Only>
0

> <s_epik_Chemistry_Notes>
This compound has an imine and may undergo hydrolysis. This compound contains an acetal/aminal-like group ( X-CH(R)-Y where X, Y are N, S, or O) that may be acid/base labile, releasing an aldehyde.

> <s_lp_Force_Field>
OPLS_2005

> <r_lp_Energy>
54.692

> <b_lp_Chiralities_Consistent>
1

> <s_lp_Variant>
AV-unprocessed.smi:157-18

> <Gold.Version>
5.8.1

> <Gold.Id.Protein>
6NUR|6NUR_protein|mol2

> <Gold.PLP.Fitness>
48.8403

> <Gold.PLP.PLP>
-36.4516

> <Gold.PLP.part.hbond>
-3.7574

> <Gold.PLP.part.metal>
0.0000

> <Gold.PLP.part.buried>
-4.2049

> <Gold.PLP.part.nonpolar>
-28.5736

> <Gold.PLP.part.repulsive>
0.0491

> <Gold.PLP.ligand.clash>
0.0000

> <Gold.PLP.ligand.torsion>
0.7436

> <Gold.PLP.Chemscore.Hbond>
4.6240

> <Gold.PLP.Chemscore.CHOScore>
0.0000

> <Gold.PLP.Chemscore.Metal>
0.0000

> <Gold.Chemscore.Hbonds>
donor molecule, donor type, donor heavy atom, donor atom, acceptor molecule, acceptor atom, score
      L1  H     8    36       P1  8028  1.92
      P1  H  7997  8008       L1     1  0.56
      P1  H  7997  8010       L1     4  0.86
      P1  H 10752 10764       L1    19  1.00

> <Gold.PLP.Chemscore.Internal.Correction>
0.0040

> <Gold.Rescore>
     Score         DG    S(hbond)    S(metal)    S(lipo)     H(rot)  DE(clash)    DE(int)     intcor
     13.69     -15.25       3.52        0.00      63.19       3.67       0.84       0.72       ----

> <Gold.Chemscore.Fitness>
13.6871

> <Gold.Chemscore.DG>
-15.2477

> <Gold.Chemscore.ZeroCoef>
-5.4800

> <Gold.Chemscore.Hbond>
3.5209

> <Gold.Chemscore.Metal>
0.0000

> <Gold.Chemscore.Lipo>
63.1853

> <Gold.Chemscore.Internal_Hbond>
0.0000

> <Gold.Chemscore.DEClash>
0.8429

> <Gold.Chemscore.DEInternal>
0.7178

> <Gold.Chemscore.Rot>
3.6659

> <Gold.Chemscore.Internal.Correction>
   9.000000E+99

> <Gold.Chemscore.Hbonds>
donor molecule, donor type, donor heavy atom, donor atom, acceptor molecule, acceptor atom, score
      L1  H     8    36       P1  8028  0.92
      P1  H  7997  8008       L1     1  0.56
      P1  H  7997  8010       L1     4  0.78
      P1  H 10752 10764       L1    19  0.96

> <Gold.Chemscore.Hbond.Weighted>
-11.7599

> <Gold.Chemscore.Metal.Weighted>
-0.0000

> <Gold.Chemscore.Lipo.Weighted>
-7.3927

> <Gold.Chemscore.Internal_Hbond.Weighted>
0.0000

> <Gold.Chemscore.DEClash.Weighted>
0.8429

> <Gold.Chemscore.DEInternal.Weighted>
0.7178

> <Gold.Chemscore.Rot.Weighted>
9.3848

> <Gold.Chemscore.Internal.Correction.Weighted>
   9.000000E+99

> <Gold.Protein.RotatedTorsions>
[ 6907 6896 6895 6894 ] final -162.81 input  -60.11 | X-H torsion
[ 7974 7965 7964 7962 ] final   23.71 input  175.53 | X-H torsion
[ 8008 7997 7996 7995 ] final   63.89 input   59.86 | X-H torsion
[ 10167 10162 10161 10158 ] final -150.62 input  -65.29 | X-H torsion
[ 10718 10713 10712 10709 ] final -148.46 input   66.30 | X-H torsion
[ 10763 10752 10751 10750 ] final  -53.75 input  -60.55 | X-H torsion
[ 11005 11000 10999 10996 ] final   32.01 input  -57.11 | X-H torsion

> <Gold.Protein.ActiveResidues>
 VAL166  LYS551  ARG553  GLY616  TRP617  ASP618  TYR619  PRO620  LYS621  CYS622 
 ASP623  PHE694  ASN695  SER759  ASP760  ASP761  ALA762  ILE779  LEU786  VAL792 
 PHE793  MET794  SER795  GLU796  ALA797  LYS798  CYS799  TRP800  GLU811  SER814 

> <Gold.Protein.RotatedAtoms>
  151.3862  133.3804  159.2715 H   0  0  0  0  0  0  0  0  0  0  0  0  # atno 6907 bound_to 6896
  150.9540  134.8937  159.7700 H   0  0  0  0  0  0  0  0  0  0  0  0  # atno 6908 bound_to 6896
  152.5123  134.3818  159.9406 H   0  0  0  0  0  0  0  0  0  0  0  0  # atno 6909 bound_to 6896
  146.1971  139.7706  142.8789 H   0  0  0  0  0  0  0  0  0  0  0  0  # atno 7974 bound_to 7965
  155.6373  140.3496  155.4703 H   0  0  0  0  0  0  0  0  0  0  0  0  # atno 8008 bound_to 7997
  155.9954  140.1202  157.0621 H   0  0  0  0  0  0  0  0  0  0  0  0  # atno 8009 bound_to 7997
  154.4232  140.1111  156.5610 H   0  0  0  0  0  0  0  0  0  0  0  0  # atno 8010 bound_to 7997
  139.7338  143.8767  152.2543 H   0  0  0  0  0  0  0  0  0  0  0  0  # atno 10167 bound_to 10162
  156.4206  130.8027  151.2249 H   0  0  0  0  0  0  0  0  0  0  0  0  # atno 10718 bound_to 10713
  154.1639  135.6470  153.4992 H   0  0  0  0  0  0  0  0  0  0  0  0  # atno 10763 bound_to 10752
  153.0103  135.5367  154.6683 H   0  0  0  0  0  0  0  0  0  0  0  0  # atno 10764 bound_to 10752
  154.6003  135.2943  155.0514 H   0  0  0  0  0  0  0  0  0  0  0  0  # atno 10765 bound_to 10752
  140.2780  134.3006  155.7809 H   0  0  0  0  0  0  0  0  0  0  0  0  # atno 11005 bound_to 11000
  145.3606  141.0325  143.3287 LP  0  0  0  0  0  0  0  0  0  0  0  0  # atno 17320 bound_to 7965
  144.8604  139.5185  143.6815 LP  0  0  0  0  0  0  0  0  0  0  0  0  # atno 17321 bound_to 7965
  139.8698  144.7074  150.9001 LP  0  0  0  0  0  0  0  0  0  0  0  0  # atno 17342 bound_to 10162
  140.7775  143.3748  151.1584 LP  0  0  0  0  0  0  0  0  0  0  0  0  # atno 17343 bound_to 10162
  157.7508  131.0229  150.3813 LP  0  0  0  0  0  0  0  0  0  0  0  0  # atno 17370 bound_to 10713
  156.4129  130.3937  149.6879 LP  0  0  0  0  0  0  0  0  0  0  0  0  # atno 17371 bound_to 10713
  141.2167  133.7507  156.9436 LP  0  0  0  0  0  0  0  0  0  0  0  0  # atno 17394 bound_to 11000
  140.1311  134.9355  157.2338 LP  0  0  0  0  0  0  0  0  0  0  0  0  # atno 17395 bound_to 11000

$$$$
