AV-unprocessed.smi:175|AV-procd|sdf|1432|dock4
  -GOLD-   2262019213D 1   1.00000     0.00000
 Structure written by MMmdl.
 47 50  0  0  0  0  0  0  0  0  1 V2000
  150.7583  140.9211  156.9575 C   0  0  0  0  0  0  0  0  0  0  0  0
  150.9825  140.4833  155.5016 C   0  0  1  0  0  0  0  0  0  0  0  0
  151.8290  139.3365  155.5211 O   0  0  0  0  0  0  0  0  0  0  0  0
  151.5146  138.5138  154.4119 C   0  0  0  0  0  0  0  0  0  0  0  0
  149.9970  138.5976  154.3635 C   0  0  0  0  0  0  0  0  0  0  0  0
  149.7221  140.0625  154.6936 C   0  0  2  0  0  0  0  0  0  0  0  0
  149.7295  140.7881  153.4755 O   0  0  0  0  0  0  0  0  0  0  0  0
  148.3516  140.2958  155.3825 C   0  0  0  0  0  0  0  0  0  0  0  0
  147.2571  139.5753  154.7498 N   0  0  0  0  0  0  0  0  0  0  0  0
  147.0963  139.3329  153.4033 C   0  0  0  0  0  0  0  0  0  0  0  0
  146.0212  138.6666  153.0805 N   0  0  0  0  0  0  0  0  0  0  0  0
  145.3997  138.4251  154.2984 C   0  0  0  0  0  0  0  0  0  0  0  0
  144.2046  137.7634  154.6803 C   0  0  0  0  0  0  0  0  0  0  0  0
  143.3891  137.1842  153.7723 N   0  0  0  0  0  0  0  0  0  0  0  0
  143.2318  135.7389  153.9230 C   0  0  0  0  0  0  0  0  0  0  0  0
  141.7404  135.5437  153.7359 C   0  0  0  0  0  0  0  0  0  0  0  0
  141.1926  134.4438  153.7872 O   0  0  0  0  0  0  0  0  0  0  0  0
  141.1465  136.7192  153.5218 N   0  0  0  0  0  0  0  0  0  0  0  0
  139.7194  136.9561  153.3157 C   0  0  0  0  0  0  0  0  0  0  0  0
  139.0867  137.7705  154.4582 C   0  0  0  0  0  0  0  0  0  0  0  0
  139.7277  137.4938  155.5930 F   0  0  0  0  0  0  0  0  0  0  0  0
  139.1996  139.0761  154.2148 F   0  0  0  0  0  0  0  0  0  0  0  0
  137.7994  137.4635  154.6150 F   0  0  0  0  0  0  0  0  0  0  0  0
  142.0892  137.8238  153.5650 C   0  0  0  0  0  0  0  0  0  0  0  0
  143.9006  137.7062  156.0038 N   0  0  0  0  0  0  0  0  0  0  0  0
  144.7172  138.2714  156.8987 C   0  0  0  0  0  0  0  0  0  0  0  0
  145.8614  138.9267  156.6886 N   0  0  0  0  0  0  0  0  0  0  0  0
  146.1660  138.9813  155.3597 C   0  0  0  0  0  0  0  0  0  0  0  0
  150.1231  141.8052  157.0152 H   0  0  0  0  0  0  0  0  0  0  0  0
  151.7068  141.1714  157.4331 H   0  0  0  0  0  0  0  0  0  0  0  0
  150.2973  140.1288  157.5477 H   0  0  0  0  0  0  0  0  0  0  0  0
  151.5188  141.2799  154.9824 H   0  0  0  0  0  0  0  0  0  0  0  0
  151.9623  138.9251  153.5059 H   0  0  0  0  0  0  0  0  0  0  0  0
  151.8779  137.4952  154.5485 H   0  0  0  0  0  0  0  0  0  0  0  0
  149.5783  138.2721  153.4102 H   0  0  0  0  0  0  0  0  0  0  0  0
  149.5871  137.9542  155.1429 H   0  0  0  0  0  0  0  0  0  0  0  0
  149.6261  140.1775  152.7617 H   0  0  0  0  0  0  0  0  0  0  0  0
  148.3900  139.9828  156.4262 H   0  0  0  0  0  0  0  0  0  0  0  0
  148.1032  141.3577  155.3868 H   0  0  0  0  0  0  0  0  0  0  0  0
  147.8036  139.6730  152.6612 H   0  0  0  0  0  0  0  0  0  0  0  0
  143.7877  135.2118  153.1472 H   0  0  0  0  0  0  0  0  0  0  0  0
  143.5453  135.3650  154.8995 H   0  0  0  0  0  0  0  0  0  0  0  0
  139.5689  137.4672  152.3635 H   0  0  0  0  0  0  0  0  0  0  0  0
  139.2108  135.9951  153.2272 H   0  0  0  0  0  0  0  0  0  0  0  0
  141.8161  138.5260  154.3545 H   0  0  0  0  0  0  0  0  0  0  0  0
  142.0887  138.3600  152.6157 H   0  0  0  0  0  0  0  0  0  0  0  0
  144.4102  138.1863  157.9306 H   0  0  0  0  0  0  0  0  0  0  0  0
  1  2  1  0  0  0  0
  1 29  1  0  0  0  0
  1 30  1  0  0  0  0
  1 31  1  0  0  0  0
  2  6  1  0  0  0  0
  2  3  1  0  0  0  0
  2 32  1  0  0  0  0
  3  4  1  0  0  0  0
  4  5  1  0  0  0  0
  4 33  1  0  0  0  0
  4 34  1  0  0  0  0
  5  6  1  0  0  0  0
  5 35  1  0  0  0  0
  5 36  1  0  0  0  0
  6  7  1  0  0  0  0
  6  8  1  0  0  0  0
  7 37  1  0  0  0  0
  8  9  1  0  0  0  0
  8 38  1  0  0  0  0
  8 39  1  0  0  0  0
  9 28  1  0  0  0  0
  9 10  1  0  0  0  0
 10 11  2  0  0  0  0
 10 40  1  0  0  0  0
 11 12  1  0  0  0  0
 12 28  2  0  0  0  0
 12 13  1  0  0  0  0
 13 14  1  0  0  0  0
 13 25  2  0  0  0  0
 14 24  1  0  0  0  0
 14 15  1  0  0  0  0
 15 16  1  0  0  0  0
 15 41  1  0  0  0  0
 15 42  1  0  0  0  0
 16 17  2  0  0  0  0
 16 18  1  0  0  0  0
 18 19  1  0  0  0  0
 18 24  1  0  0  0  0
 19 20  1  0  0  0  0
 19 43  1  0  0  0  0
 19 44  1  0  0  0  0
 20 21  1  0  0  0  0
 20 22  1  0  0  0  0
 20 23  1  0  0  0  0
 24 45  1  0  0  0  0
 24 46  1  0  0  0  0
 25 26  1  0  0  0  0
 26 27  2  0  0  0  0
 26 47  1  0  0  0  0
 27 28  1  0  0  0  0
M  END
> <s_m_source_file>
AV-unprocessed.smi

> <i_m_source_file_index>
175

> <i_lp_mmshare_version>
43012

> <i_f3d_flags>
0

> <s_epik_input>
W0NIMl0xW0NIMl1PW0NAQEhdKFtDSDNdKVtDQEBdMShbT0hdKVtDSDJdbihbY0hdbjIpYyhjMjMpbltjSF1uYzNONFtDSDJdQyg9TylOKFtDSDJdNClbQ0gyXUMoRikoRilG

> <s_epik_cmdline>
J2VwaWtfcHl0aG9uJywgJy1waCcsICc3LjAnLCAnLXRuJywgJzgnLCAnLW1hJywgJzIwMCcsICctbWV0YWxfYmluZGluZycsICctaW1hZScsICc8aW5maWxlLm1hZT4nLCAnLW9tYWUnLCAnPG91dGZpbGUubWFlPic=

> <r_lp_tautomer_probability>
1

> <r_epik_Ionization_Penalty>
0.000307802

> <r_epik_Ionization_Penalty_Charging>
0

> <r_epik_Ionization_Penalty_Neutral>
0.000307802

> <r_epik_State_Penalty>
-0

> <r_epik_Charging_Adjusted_Penalty>
0

> <i_epik_Tot_Q>
0

> <i_epik_Tot_abs_Q>
0

> <r_epik_Metal_State_Penalty>
-0

> <b_epik_Metal_Only>
0

> <s_epik_Chemistry_Notes>
This compound contains an acetal/aminal-like group ( X-CH(R)-Y where X, Y are N, S, or O) that may be acid/base labile, releasing an aldehyde.

> <s_lp_Force_Field>
OPLS_2005

> <r_lp_Energy>
36.4888

> <b_lp_Chiralities_Consistent>
1

> <s_lp_Variant>
AV-unprocessed.smi:175-4

> <Gold.Version>
5.8.1

> <Gold.Id.Protein>
6NUR|6NUR_protein|mol2

> <Gold.PLP.Fitness>
48.2054

> <Gold.PLP.PLP>
-38.3888

> <Gold.PLP.part.hbond>
-4.1561

> <Gold.PLP.part.metal>
0.0000

> <Gold.PLP.part.buried>
-5.0764

> <Gold.PLP.part.nonpolar>
-29.0966

> <Gold.PLP.part.repulsive>
1.1537

> <Gold.PLP.ligand.clash>
0.0000

> <Gold.PLP.ligand.torsion>
1.1340

> <Gold.PLP.Chemscore.Hbond>
2.9208

> <Gold.PLP.Chemscore.CHOScore>
1.0000

> <Gold.PLP.Chemscore.Metal>
0.0000

> <Gold.Chemscore.Hbonds>
donor molecule, donor type, donor heavy atom, donor atom, acceptor molecule, acceptor atom, score
      L1  H     7    37       P1  7957  0.88
      P1  H  7989  7998       L1     7  0.20
      P1  H  8011  8017       L1     7  0.75
      P1  H 11000 11005       L1    17  0.89
      L1  C    10    40       P1  7957  1.00

> <Gold.PLP.Chemscore.Internal.Correction>
0.3223

> <Gold.Rescore>
     Score         DG    S(hbond)    S(metal)    S(lipo)     H(rot)  DE(clash)    DE(int)     intcor
      8.88     -10.91       2.03        0.00      55.31       3.05       0.12       1.91       ----

> <Gold.Chemscore.Fitness>
8.8827

> <Gold.Chemscore.DG>
-10.9108

> <Gold.Chemscore.ZeroCoef>
-5.4800

> <Gold.Chemscore.Hbond>
2.0252

> <Gold.Chemscore.Metal>
0.0000

> <Gold.Chemscore.Lipo>
55.3096

> <Gold.Chemscore.Internal_Hbond>
0.0000

> <Gold.Chemscore.DEClash>
0.1174

> <Gold.Chemscore.DEInternal>
1.9106

> <Gold.Chemscore.Rot>
3.0487

> <Gold.Chemscore.Internal.Correction>
   9.000000E+99

> <Gold.Chemscore.Hbonds>
donor molecule, donor type, donor heavy atom, donor atom, acceptor molecule, acceptor atom, score
      L1  H     7    37       P1  7957  0.85
      P1  H  8011  8017       L1     7  0.09
      P1  H 11000 11005       L1    17  0.65

> <Gold.Chemscore.Hbond.Weighted>
-6.7641

> <Gold.Chemscore.Metal.Weighted>
-0.0000

> <Gold.Chemscore.Lipo.Weighted>
-6.4712

> <Gold.Chemscore.Internal_Hbond.Weighted>
0.0000

> <Gold.Chemscore.DEClash.Weighted>
0.1174

> <Gold.Chemscore.DEInternal.Weighted>
1.9106

> <Gold.Chemscore.Rot.Weighted>
7.8046

> <Gold.Chemscore.Internal.Correction.Weighted>
   9.000000E+99

> <Gold.Protein.RotatedTorsions>
[ 6907 6896 6895 6894 ] final   11.15 input  -60.11 | X-H torsion
[ 7974 7965 7964 7962 ] final   89.44 input  175.53 | X-H torsion
[ 8008 7997 7996 7995 ] final   49.32 input   59.86 | X-H torsion
[ 10167 10162 10161 10158 ] final   -0.70 input  -65.29 | X-H torsion
[ 10718 10713 10712 10709 ] final -138.13 input   66.30 | X-H torsion
[ 10763 10752 10751 10750 ] final -158.69 input  -60.55 | X-H torsion
[ 11005 11000 10999 10996 ] final   12.43 input  -57.11 | X-H torsion

> <Gold.Protein.ActiveResidues>
 VAL166  LYS551  ARG553  GLY616  TRP617  ASP618  TYR619  PRO620  LYS621  CYS622 
 ASP623  PHE694  ASN695  SER759  ASP760  ASP761  ALA762  ILE779  LEU786  VAL792 
 PHE793  MET794  SER795  GLU796  ALA797  LYS798  CYS799  TRP800  GLU811  SER814 

> <Gold.Protein.RotatedAtoms>
  151.7497  135.0835  160.0328 H   0  0  0  0  0  0  0  0  0  0  0  0  # atno 6907 bound_to 6896
  152.3425  133.6079  159.5895 H   0  0  0  0  0  0  0  0  0  0  0  0  # atno 6908 bound_to 6896
  150.7488  133.9617  159.3559 H   0  0  0  0  0  0  0  0  0  0  0  0  # atno 6909 bound_to 6896
  145.5323  139.2284  143.2612 H   0  0  0  0  0  0  0  0  0  0  0  0  # atno 7974 bound_to 7965
  155.4003  140.3437  155.4256 H   0  0  0  0  0  0  0  0  0  0  0  0  # atno 8008 bound_to 7997
  156.1507  140.1570  156.8806 H   0  0  0  0  0  0  0  0  0  0  0  0  # atno 8009 bound_to 7997
  154.5050  140.0804  156.7857 H   0  0  0  0  0  0  0  0  0  0  0  0  # atno 8010 bound_to 7997
  140.6778  143.6864  150.8063 H   0  0  0  0  0  0  0  0  0  0  0  0  # atno 10167 bound_to 10162
  156.2958  130.7401  151.1439 H   0  0  0  0  0  0  0  0  0  0  0  0  # atno 10718 bound_to 10713
  154.7536  135.3099  154.8512 H   0  0  0  0  0  0  0  0  0  0  0  0  # atno 10763 bound_to 10752
  153.9292  135.6787  153.4750 H   0  0  0  0  0  0  0  0  0  0  0  0  # atno 10764 bound_to 10752
  153.1133  135.4856  154.9001 H   0  0  0  0  0  0  0  0  0  0  0  0  # atno 10765 bound_to 10752
  140.4920  134.0831  155.7773 H   0  0  0  0  0  0  0  0  0  0  0  0  # atno 11005 bound_to 11000
  146.2036  140.6140  142.9091 LP  0  0  0  0  0  0  0  0  0  0  0  0  # atno 17320 bound_to 7965
  144.7619  140.5442  143.6729 LP  0  0  0  0  0  0  0  0  0  0  0  0  # atno 17321 bound_to 7965
  140.0559  143.5203  152.2651 LP  0  0  0  0  0  0  0  0  0  0  0  0  # atno 17342 bound_to 10162
  139.6082  144.7602  151.3014 LP  0  0  0  0  0  0  0  0  0  0  0  0  # atno 17343 bound_to 10162
  157.7355  131.0572  150.5466 LP  0  0  0  0  0  0  0  0  0  0  0  0  # atno 17370 bound_to 10713
  156.5588  130.4250  149.6072 LP  0  0  0  0  0  0  0  0  0  0  0  0  # atno 17371 bound_to 10713
  141.1479  133.9022  157.2170 LP  0  0  0  0  0  0  0  0  0  0  0  0  # atno 17394 bound_to 11000
  139.9763  135.0112  156.9640 LP  0  0  0  0  0  0  0  0  0  0  0  0  # atno 17395 bound_to 11000

$$$$
