AV-unprocessed.smi:2944|AV-procd|sdf|11274|dock3
  -GOLD-   2272016163D 1   1.00000     0.00000
 Structure written by MMmdl.
 45 47  0  0  0  0  0  0  0  0  2 V2000
  147.8536  127.6194  151.5131 C   0  0  0  0  0  0  0  0  0  0  0  0
  147.9902  127.9115  152.8924 O   0  0  0  0  0  0  0  0  0  0  0  0
  148.3330  129.2672  153.1311 C   0  0  0  0  0  0  0  0  0  0  0  0
  147.0707  130.0826  153.4466 C   0  0  0  0  0  0  0  0  0  0  0  0
  147.1617  131.4734  152.9761 N   0  0  0  0  0  0  0  0  0  0  0  0
  148.1114  132.4218  153.2073 C   0  0  0  0  0  0  0  0  0  0  0  0
  149.5904  132.2237  154.1471 S   0  0  0  0  0  0  0  0  0  0  0  0
  149.1405  132.6196  155.8661 C   0  0  2  0  0  0  0  0  0  0  0  0
  147.7885  133.3509  155.9007 C   0  0  0  0  0  0  0  0  0  0  0  0
  150.2412  133.4477  156.5649 C   0  0  0  0  0  0  0  0  0  0  0  0
  150.7352  132.9740  157.5913 O   0  0  0  0  0  0  0  0  0  0  0  0
  150.5845  134.6680  156.0624 N   0  0  0  0  0  0  0  0  0  0  0  0
  150.0597  135.2244  154.8143 C   0  0  0  0  0  0  0  0  0  0  0  0
  150.6986  136.6021  154.7042 C   0  0  0  0  0  0  0  0  0  0  0  0
  151.5179  136.6435  155.8879 N   0  0  0  0  0  0  0  0  0  0  0  0
  151.4419  135.5439  156.6411 C   0  0  0  0  0  0  0  0  0  0  0  0
  152.0612  135.4040  157.6962 O   0  0  0  0  0  0  0  0  0  0  0  0
  147.7352  133.5552  152.5542 N   0  3  0  0  0  0  0  0  0  0  0  0
  146.5418  133.3236  151.8705 C   0  0  0  0  0  0  0  0  0  0  0  0
  145.7843  134.1590  151.0559 C   0  0  0  0  0  0  0  0  0  0  0  0
  144.6109  133.6070  150.5016 C   0  0  0  0  0  0  0  0  0  0  0  0
  144.2310  132.2748  150.7639 C   0  0  0  0  0  0  0  0  0  0  0  0
  145.0069  131.4373  151.5921 C   0  0  0  0  0  0  0  0  0  0  0  0
  146.1660  131.9896  152.1371 C   0  0  0  0  0  0  0  0  0  0  0  0
  147.5741  126.5736  151.3870 H   0  0  0  0  0  0  0  0  0  0  0  0
  148.7909  127.7855  150.9808 H   0  0  0  0  0  0  0  0  0  0  0  0
  147.0770  128.2323  151.0540 H   0  0  0  0  0  0  0  0  0  0  0  0
  149.0318  129.3340  153.9661 H   0  0  0  0  0  0  0  0  0  0  0  0
  148.8338  129.6840  152.2563 H   0  0  0  0  0  0  0  0  0  0  0  0
  146.1869  129.6155  153.0122 H   0  0  0  0  0  0  0  0  0  0  0  0
  146.9035  130.1072  154.5237 H   0  0  0  0  0  0  0  0  0  0  0  0
  148.9824  131.6697  156.3709 H   0  0  0  0  0  0  0  0  0  0  0  0
  147.5043  133.6117  156.9210 H   0  0  0  0  0  0  0  0  0  0  0  0
  146.9971  132.7216  155.4929 H   0  0  0  0  0  0  0  0  0  0  0  0
  147.8103  134.2705  155.3143 H   0  0  0  0  0  0  0  0  0  0  0  0
  150.3354  134.6011  153.9622 H   0  0  0  0  0  0  0  0  0  0  0  0
  148.9754  135.3131  154.8476 H   0  0  0  0  0  0  0  0  0  0  0  0
  151.3092  136.7028  153.8063 H   0  0  0  0  0  0  0  0  0  0  0  0
  149.9557  137.4007  154.7232 H   0  0  0  0  0  0  0  0  0  0  0  0
  152.0976  137.4387  156.1149 H   0  0  0  0  0  0  0  0  0  0  0  0
  146.0747  135.1793  150.8519 H   0  0  0  0  0  0  0  0  0  0  0  0
  143.9905  134.2172  149.8613 H   0  0  0  0  0  0  0  0  0  0  0  0
  143.3259  131.8860  150.3197 H   0  0  0  0  0  0  0  0  0  0  0  0
  144.7092  130.4164  151.7798 H   0  0  0  0  0  0  0  0  0  0  0  0
  148.2676  134.4161  152.5626 H   0  0  0  0  0  0  0  0  0  0  0  0
  1  2  1  0  0  0  0
  1 25  1  0  0  0  0
  1 26  1  0  0  0  0
  1 27  1  0  0  0  0
  2  3  1  0  0  0  0
  3  4  1  0  0  0  0
  3 28  1  0  0  0  0
  3 29  1  0  0  0  0
  4  5  1  0  0  0  0
  4 30  1  0  0  0  0
  4 31  1  0  0  0  0
  5 24  1  0  0  0  0
  5  6  1  0  0  0  0
  6  7  1  0  0  0  0
  6 18  2  0  0  0  0
  7  8  1  0  0  0  0
  8  9  1  0  0  0  0
  8 10  1  0  0  0  0
  8 32  1  0  0  0  0
  9 33  1  0  0  0  0
  9 34  1  0  0  0  0
  9 35  1  0  0  0  0
 10 11  2  0  0  0  0
 10 12  1  0  0  0  0
 12 16  1  0  0  0  0
 12 13  1  0  0  0  0
 13 14  1  0  0  0  0
 13 36  1  0  0  0  0
 13 37  1  0  0  0  0
 14 15  1  0  0  0  0
 14 38  1  0  0  0  0
 14 39  1  0  0  0  0
 15 16  1  0  0  0  0
 15 40  1  0  0  0  0
 16 17  2  0  0  0  0
 18 19  1  0  0  0  0
 18 45  1  0  0  0  0
 19 24  2  0  0  0  0
 19 20  1  0  0  0  0
 20 21  2  0  0  0  0
 20 41  1  0  0  0  0
 21 22  1  0  0  0  0
 21 42  1  0  0  0  0
 22 23  2  0  0  0  0
 22 43  1  0  0  0  0
 23 24  1  0  0  0  0
 23 44  1  0  0  0  0
M  CHG  1  18   1
M  END
> <s_m_source_file>
AV-unprocessed.smi

> <i_m_source_file_index>
2944

> <i_lp_mmshare_version>
43012

> <i_f3d_flags>
0

> <s_epik_input>
W2NIXTFbY0hdW2NIXVtjSF1jKGMxMiluKFtDSDJdW0NIMl1PW0NIM10pYyhuMilTW0NASF0oW0NIM10pQyg9TylOM1tDSDJdW0NIMl1bTkhdQzM9Tw==

> <s_epik_cmdline>
J2VwaWtfcHl0aG9uJywgJy1waCcsICc3LjAnLCAnLXRuJywgJzgnLCAnLW1hJywgJzIwMCcsICctbWV0YWxfYmluZGluZycsICctaW1hZScsICc8aW5maWxlLm1hZT4nLCAnLW9tYWUnLCAnPG91dGZpbGUubWFlPic=

> <r_lp_tautomer_probability>
0.9999

> <r_epik_Ionization_Penalty>
1.88808

> <r_epik_Ionization_Penalty_Charging>
1.88806

> <r_epik_Ionization_Penalty_Neutral>
2.68145e-05

> <r_epik_State_Penalty>
2.00836

> <r_epik_Charging_Adjusted_Penalty>
3.89641

> <i_epik_Tot_Q>
1

> <i_epik_Tot_abs_Q>
1

> <r_epik_Metal_State_Penalty>
2.03272

> <b_epik_Metal_Only>
0

> <s_lp_Force_Field>
OPLS_2005

> <r_lp_Energy>
42.6194

> <b_lp_Chiralities_Consistent>
1

> <s_lp_Variant>
AV-unprocessed.smi:2944-3

> <Gold.Version>
5.8.1

> <Gold.Id.Protein>
6NUR|6NUR_protein|mol2

> <Gold.PLP.Fitness>
46.4023

> <Gold.PLP.PLP>
-40.2839

> <Gold.PLP.part.hbond>
-3.0000

> <Gold.PLP.part.metal>
0.0000

> <Gold.PLP.part.buried>
-5.5053

> <Gold.PLP.part.nonpolar>
-32.8711

> <Gold.PLP.part.repulsive>
0.2482

> <Gold.PLP.ligand.clash>
0.0000

> <Gold.PLP.ligand.torsion>
1.4966

> <Gold.PLP.Chemscore.Hbond>
3.0000

> <Gold.PLP.Chemscore.CHOScore>
0.0000

> <Gold.PLP.Chemscore.Metal>
0.0000

> <Gold.Chemscore.Hbonds>
donor molecule, donor type, donor heavy atom, donor atom, acceptor molecule, acceptor atom, score
      L1  H    18    45       P1  7948  1.80
      P1  H  6896  6907       L1    11  1.00

> <Gold.PLP.Chemscore.Internal.Correction>
0.1117

> <Gold.Rescore>
     Score         DG    S(hbond)    S(metal)    S(lipo)     H(rot)  DE(clash)    DE(int)     intcor
     13.86     -16.58       2.34        0.00      78.22       2.30       0.01       2.71       ----

> <Gold.Chemscore.Fitness>
13.8631

> <Gold.Chemscore.DG>
-16.5765

> <Gold.Chemscore.ZeroCoef>
-5.4800

> <Gold.Chemscore.Hbond>
2.3442

> <Gold.Chemscore.Metal>
0.0000

> <Gold.Chemscore.Lipo>
78.2204

> <Gold.Chemscore.Internal_Hbond>
0.0000

> <Gold.Chemscore.DEClash>
0.0064

> <Gold.Chemscore.DEInternal>
2.7070

> <Gold.Chemscore.Rot>
2.2988

> <Gold.Chemscore.Internal.Correction>
   9.000000E+99

> <Gold.Chemscore.Hbonds>
donor molecule, donor type, donor heavy atom, donor atom, acceptor molecule, acceptor atom, score
      L1  H    18    45       P1  7948  0.17
      P1  H  6896  6907       L1    11  0.96

> <Gold.Chemscore.Hbond.Weighted>
-7.8297

> <Gold.Chemscore.Metal.Weighted>
-0.0000

> <Gold.Chemscore.Lipo.Weighted>
-9.1518

> <Gold.Chemscore.Internal_Hbond.Weighted>
0.0000

> <Gold.Chemscore.DEClash.Weighted>
0.0064

> <Gold.Chemscore.DEInternal.Weighted>
2.7070

> <Gold.Chemscore.Rot.Weighted>
5.8850

> <Gold.Chemscore.Internal.Correction.Weighted>
   9.000000E+99

> <Gold.Protein.RotatedTorsions>
[ 6907 6896 6895 6894 ] final -155.93 input  -60.11 | X-H torsion
[ 7974 7965 7964 7962 ] final   36.16 input  175.53 | X-H torsion
[ 8008 7997 7996 7995 ] final   96.07 input   59.86 | X-H torsion
[ 10167 10162 10161 10158 ] final  108.22 input  -65.29 | X-H torsion
[ 10718 10713 10712 10709 ] final    0.12 input   66.30 | X-H torsion
[ 10763 10752 10751 10750 ] final -118.98 input  -60.55 | X-H torsion
[ 11005 11000 10999 10996 ] final   39.27 input  -57.11 | X-H torsion

> <Gold.Protein.ActiveResidues>
 VAL166  LYS551  ARG553  GLY616  TRP617  ASP618  TYR619  PRO620  LYS621  CYS622 
 ASP623  PHE694  ASN695  SER759  ASP760  ASP761  ALA762  ILE779  LEU786  VAL792 
 PHE793  MET794  SER795  GLU796  ALA797  LYS798  CYS799  TRP800  GLU811  SER814 

> <Gold.Protein.RotatedAtoms>
  151.2799  133.4214  159.2626 H   0  0  0  0  0  0  0  0  0  0  0  0  # atno 6907 bound_to 6896
  151.0370  134.9580  159.8152 H   0  0  0  0  0  0  0  0  0  0  0  0  # atno 6908 bound_to 6896
  152.5357  134.2758  159.9041 H   0  0  0  0  0  0  0  0  0  0  0  0  # atno 6909 bound_to 6896
  146.1231  139.6052  142.9276 H   0  0  0  0  0  0  0  0  0  0  0  0  # atno 7974 bound_to 7965
  156.0756  140.3278  155.7630 H   0  0  0  0  0  0  0  0  0  0  0  0  # atno 8008 bound_to 7997
  155.5235  140.0587  157.2920 H   0  0  0  0  0  0  0  0  0  0  0  0  # atno 8009 bound_to 7997
  154.4554  140.1940  156.0413 H   0  0  0  0  0  0  0  0  0  0  0  0  # atno 8010 bound_to 7997
  139.6864  144.7113  151.1425 H   0  0  0  0  0  0  0  0  0  0  0  0  # atno 10167 bound_to 10162
  156.8286  130.5481  149.5689 H   0  0  0  0  0  0  0  0  0  0  0  0  # atno 10718 bound_to 10713
  154.8604  135.4255  154.2225 H   0  0  0  0  0  0  0  0  0  0  0  0  # atno 10763 bound_to 10752
  153.3227  135.6983  153.7022 H   0  0  0  0  0  0  0  0  0  0  0  0  # atno 10764 bound_to 10752
  153.6070  135.3526  155.2939 H   0  0  0  0  0  0  0  0  0  0  0  0  # atno 10765 bound_to 10752
  140.2044  134.3830  155.8079 H   0  0  0  0  0  0  0  0  0  0  0  0  # atno 11005 bound_to 11000
  145.5423  141.0420  143.2324 LP  0  0  0  0  0  0  0  0  0  0  0  0  # atno 17320 bound_to 7965
  144.7616  139.6943  143.7232 LP  0  0  0  0  0  0  0  0  0  0  0  0  # atno 17321 bound_to 7965
  140.7669  143.5624  150.9085 LP  0  0  0  0  0  0  0  0  0  0  0  0  # atno 17342 bound_to 10162
  139.9299  143.6506  152.3078 LP  0  0  0  0  0  0  0  0  0  0  0  0  # atno 17343 bound_to 10162
  156.0947  130.5923  150.9793 LP  0  0  0  0  0  0  0  0  0  0  0  0  # atno 17370 bound_to 10713
  157.6419  131.0909  150.8234 LP  0  0  0  0  0  0  0  0  0  0  0  0  # atno 17371 bound_to 10713
  141.2227  133.7111  156.8313 LP  0  0  0  0  0  0  0  0  0  0  0  0  # atno 17394 bound_to 11000
  140.2018  134.8891  157.3178 LP  0  0  0  0  0  0  0  0  0  0  0  0  # atno 17395 bound_to 11000

$$$$
