#       Name:                AV-unprocessed.smi:366
#       Creating user name   scv26
#       Creation time:       Thu Mar 26 22:37:05 2020


#       File generated by GOLD software.
#

@<TRIPOS>MOLECULE
AV-unprocessed.smi:366
    58    59     1
SMALL
NO_CHARGES


@<TRIPOS>ATOM
      1 ****        -2.8594  -4.5644   3.5862 C.3            1 S1                 0.0000
      2 ****        -2.4514  -3.5408   2.5318 C.2            1 S1                 0.0000
      3 ****        -2.3588  -2.3518   2.8347 O.2            1 S1                 0.0000
      4 ****        -2.2067  -4.0135   1.2990 N.am           1 S1                 0.0000
      5 ****        -1.7867  -3.2099   0.1490 C.3            1 S1                 0.0000
      6 ****        -0.2599  -3.0150   0.2181 C.2            1 S1                 0.0000
      7 ****         0.4874  -3.9779   0.3997 O.2            1 S1                 0.0000
      8 ****         0.1870  -1.7620   0.0525 N.am           1 S1                 0.0000
      9 ****         1.5903  -1.3781   0.0762 C.3            1 S1                 0.0000
     10 ****         1.7572   0.1266   0.0210 C.ar           1 S1                 0.0000
     11 ****         1.8580   0.8878   1.2013 C.ar           1 S1                 0.0000
     12 ****         2.0014   2.2847   1.1004 C.ar           1 S1                 0.0000
     13 ****         2.0345   2.8859  -0.1811 C.ar           1 S1                 0.0000
     14 ****         2.1753   4.2854  -0.3065 N.3            1 S1                 0.0000
     15 ****         2.4412   4.8313  -1.6364 C.3            1 S1                 0.0000
     16 ****         2.8508   6.3104  -1.5382 C.3            1 S1                 0.0000
     17 ****         1.8502   7.0386  -0.8349 O.3            1 S1                 0.0000
     18 ****         1.6878   6.5625   0.4968 C.3            1 S1                 0.0000
     19 ****         1.2388   5.0912   0.4737 C.3            1 S1                 0.0000
     20 ****         1.9397   2.1452  -1.3139 N.ar           1 S1                 0.0000
     21 ****         1.8025   0.8064  -1.2121 C.ar           1 S1                 0.0000
     22 ****        -2.1690  -3.9622  -1.1599 C.3            1 S1                 0.0000
     23 ****        -1.7429  -3.2070  -2.4365 C.3            1 S1                 0.0000
     24 ****        -3.6800  -4.2589  -1.2322 C.3            1 S1                 0.0000
     25 ****        -3.1624  -5.5080   3.1305 H              1 S1                 0.0000
     26 ****        -3.6952  -4.1880   4.1764 H              1 S1                 0.0000
     27 ****        -2.0250  -4.7606   4.2595 H              1 S1                 0.0000
     28 ****        -2.3003  -5.0069   1.1462 H              1 S1                 0.0000
     29 ****        -2.2902  -2.2409   0.1714 H              1 S1                 0.0000
     30 ****        -0.4898  -1.0269  -0.0932 H              1 S1                 0.0000
     31 ****         2.0648  -1.7608   0.9814 H              1 S1                 0.0000
     32 ****         2.1070  -1.8320  -0.7710 H              1 S1                 0.0000
     33 ****         1.8282   0.4114   2.1702 H              1 S1                 0.0000
     34 ****         2.0978   2.8720   2.0011 H              1 S1                 0.0000
     35 ****         3.2384   4.2686  -2.1239 H              1 S1                 0.0000
     36 ****         1.5465   4.7321  -2.2526 H              1 S1                 0.0000
     37 ****         3.8139   6.4155  -1.0360 H              1 S1                 0.0000
     38 ****         2.9642   6.7352  -2.5354 H              1 S1                 0.0000
     39 ****         2.6208   6.6753   1.0514 H              1 S1                 0.0000
     40 ****         0.9417   7.1744   1.0034 H              1 S1                 0.0000
     41 ****         0.2482   5.0107   0.0243 H              1 S1                 0.0000
     42 ****         1.1508   4.7334   1.4983 H              1 S1                 0.0000
     43 ****         1.7247   0.2635  -2.1426 H              1 S1                 0.0000
     44 ****        -1.6553  -4.9253  -1.1690 H              1 S1                 0.0000
     45 ****        -2.1806  -2.2089  -2.4690 H              1 S1                 0.0000
     46 ****        -2.0660  -3.7385  -3.3321 H              1 S1                 0.0000
     47 ****        -0.6608  -3.0990  -2.5104 H              1 S1                 0.0000
     48 ****        -4.2650  -3.3399  -1.1898 H              1 S1                 0.0000
     49 ****        -4.0105  -4.9012  -0.4159 H              1 S1                 0.0000
     50 ****        -3.9356  -4.7711  -2.1602 H              1 S1                 0.0000
     51 ****        -2.5509  -2.0579   3.7710 LP             1 S1                 0.0000
     52 ****        -2.0913  -1.6793   2.1445 LP             1 S1                 0.0000
     53 ****         0.1042  -4.8956   0.5036 LP             1 S1                 0.0000
     54 ****         1.4772  -3.8415   0.4431 LP             1 S1                 0.0000
     55 ****         3.0600   4.3902   0.1477 LP             1 S1                 0.0000
     56 ****         0.9809   6.9455  -1.3203 LP             1 S1                 0.0000
     57 ****         2.1132   8.0029  -0.8041 LP             1 S1                 0.0000
     58 ****         1.9711   2.5850  -2.2115 LP             1 S1                 0.0000
@<TRIPOS>BOND
    1    1    2 1     
    2    1   25 1     
    3    1   26 1     
    4    1   27 1     
    5    2    3 2     
    6    2    4 am    
    7    4    5 1     
    8    4   28 1     
    9    5    6 1     
   10    5   22 1     
   11    5   29 1     
   12    6    7 2     
   13    6    8 am    
   14    8    9 1     
   15    8   30 1     
   16    9   10 1     
   17    9   31 1     
   18    9   32 1     
   19   10   21 ar    
   20   10   11 ar    
   21   11   12 ar    
   22   11   33 1     
   23   12   13 ar    
   24   12   34 1     
   25   13   14 1     
   26   13   20 ar    
   27   14   19 1     
   28   14   15 1     
   29   15   16 1     
   30   15   35 1     
   31   15   36 1     
   32   16   17 1     
   33   16   37 1     
   34   16   38 1     
   35   17   18 1     
   36   18   19 1     
   37   18   39 1     
   38   18   40 1     
   39   19   41 1     
   40   19   42 1     
   41   20   21 ar    
   42   21   43 1     
   43   22   23 1     
   44   22   24 1     
   45   22   44 1     
   46   23   45 1     
   47   23   46 1     
   48   23   47 1     
   49   24   48 1     
   50   24   49 1     
   51   24   50 1     
   52    3   51 1     
   53    3   52 1     
   54    7   53 1     
   55    7   54 1     
   56   14   55 1     
   57   17   56 1     
   58   17   57 1     
   59   20   58 1     
@<TRIPOS>SUBSTRUCTURE
      1 S1             1
@<TRIPOS>SET
LONE_PAIRS      STATIC     ATOMS    <user>   **** ""
8 51 52 53 54 55 56 57 58
DONOR_HYDROGENS      STATIC     ATOMS    <user>   **** ""
2 28 30
ATOM$BLUE        STATIC     ATOMS    COLORGROUP SYSTEM
8 51 52 53 54 55 56 57 58
ATOM$RED        STATIC     ATOMS    COLORGROUP SYSTEM
2 28 30
