AV-unprocessed.smi:72|AV-procd|sdf|695|dock2
  -GOLD-   2262017 13D 1   1.00000     0.00000
 Structure written by MMmdl.
 30 31  0  0  0  0  0  0  0  0  2 V2000
  154.1724  137.9304  154.0907 N   0  0  0  0  0  0  0  0  0  0  0  0
  152.9376  138.4413  154.4325 C   0  0  0  0  0  0  0  0  0  0  0  0
  151.8203  137.8600  153.8592 N   0  3  0  0  0  0  0  0  0  0  0  0
  150.5538  138.2314  154.0917 C   0  0  0  0  0  0  0  0  0  0  0  0
  150.3212  139.2153  154.9360 N   0  0  0  0  0  0  0  0  0  0  0  0
  148.9179  139.6669  155.2322 C   0  0  2  0  0  0  0  0  0  0  0  0
  148.0463  138.8532  154.5067 O   0  0  0  0  0  0  0  0  0  0  0  0
  147.0932  139.6516  153.8120 C   0  0  2  0  0  0  0  0  0  0  0  0
  146.5998  138.9049  152.5632 C   0  0  0  0  0  0  0  0  0  0  0  0
  147.6963  138.5455  151.7506 O   0  0  0  0  0  0  0  0  0  0  0  0
  147.8919  140.9160  153.4962 C   0  0  1  0  0  0  0  0  0  0  0  0
  147.0742  142.0261  153.1790 O   0  0  0  0  0  0  0  0  0  0  0  0
  148.7166  141.1160  154.7626 C   0  0  1  0  0  0  0  0  0  0  0  0
  148.0362  141.8742  155.7455 O   0  0  0  0  0  0  0  0  0  0  0  0
  151.4041  139.8948  155.5491 C   0  0  0  0  0  0  0  0  0  0  0  0
  151.1969  140.8457  156.3020 O   0  0  0  0  0  0  0  0  0  0  0  0
  152.6927  139.4323  155.2448 N   0  0  0  0  0  0  0  0  0  0  0  0
  148.7597  139.5106  156.3010 H   0  0  0  0  0  0  0  0  0  0  0  0
  146.2669  139.8958  154.4831 H   0  0  0  0  0  0  0  0  0  0  0  0
  148.5654  140.7229  152.6599 H   0  0  0  0  0  0  0  0  0  0  0  0
  149.6693  141.6037  154.5507 H   0  0  0  0  0  0  0  0  0  0  0  0
  155.0418  138.2940  154.4555 H   0  0  0  0  0  0  0  0  0  0  0  0
  154.3079  137.1585  153.4537 H   0  0  0  0  0  0  0  0  0  0  0  0
  149.7456  137.7235  153.5802 H   0  0  0  0  0  0  0  0  0  0  0  0
  146.0920  137.9842  152.8516 H   0  0  0  0  0  0  0  0  0  0  0  0
  145.8868  139.5042  151.9964 H   0  0  0  0  0  0  0  0  0  0  0  0
  148.3766  139.1928  151.8577 H   0  0  0  0  0  0  0  0  0  0  0  0
  147.3849  142.4116  152.3741 H   0  0  0  0  0  0  0  0  0  0  0  0
  148.3011  142.7786  155.6695 H   0  0  0  0  0  0  0  0  0  0  0  0
  151.9754  137.0965  153.2163 H   0  0  0  0  0  0  0  0  0  0  0  0
  1  2  1  0  0  0  0
  1 22  1  0  0  0  0
  1 23  1  0  0  0  0
  2 17  2  0  0  0  0
  2  3  1  0  0  0  0
  3  4  2  0  0  0  0
  3 30  1  0  0  0  0
  4  5  1  0  0  0  0
  4 24  1  0  0  0  0
  5  6  1  0  0  0  0
  5 15  1  0  0  0  0
  6 18  1  0  0  0  0
  6 13  1  0  0  0  0
  6  7  1  0  0  0  0
  7  8  1  0  0  0  0
  8 19  1  0  0  0  0
  8  9  1  0  0  0  0
  8 11  1  0  0  0  0
  9 10  1  0  0  0  0
  9 25  1  0  0  0  0
  9 26  1  0  0  0  0
 10 27  1  0  0  0  0
 11 20  1  0  0  0  0
 11 12  1  0  0  0  0
 11 13  1  0  0  0  0
 12 28  1  0  0  0  0
 13 21  1  0  0  0  0
 13 14  1  0  0  0  0
 14 29  1  0  0  0  0
 15 16  2  0  0  0  0
 15 17  1  0  0  0  0
M  CHG  1   3   1
M  END
> <s_m_source_file>
AV-unprocessed.smi

> <i_m_source_file_index>
72

> <i_lp_mmshare_version>
43012

> <i_f3d_flags>
0

> <s_epik_input>
W05IMl1jMW5bY0hdbihjKD1PKW4xKVtDQEBIXTJPW0NASF0oW0NIMl1bT0hdKVtDQEBIXShbT0hdKVtDQEhdMltPSF0=

> <s_epik_cmdline>
J2VwaWtfcHl0aG9uJywgJy1waCcsICc3LjAnLCAnLXRuJywgJzgnLCAnLW1hJywgJzIwMCcsICctbWV0YWxfYmluZGluZycsICctaW1hZScsICc8aW5maWxlLm1hZT4nLCAnLW9tYWUnLCAnPG91dGZpbGUubWFlPic=

> <r_lp_tautomer_probability>
4.77166e-05

> <r_epik_Ionization_Penalty>
0.104979

> <r_epik_Ionization_Penalty_Charging>
0.0999619

> <r_epik_Ionization_Penalty_Neutral>
0.00501745

> <r_epik_State_Penalty>
2.51541

> <r_epik_Charging_Adjusted_Penalty>
2.61537

> <i_epik_Tot_Q>
1

> <i_epik_Tot_abs_Q>
1

> <r_epik_Metal_State_Penalty>
3.53763

> <b_epik_Metal_Only>
0

> <s_epik_Chemistry_Notes>
This compound contains an acetal/aminal-like group ( X-CH(R)-Y where X, Y are N, S, or O) that may be acid/base labile, releasing an aldehyde.

> <s_lp_Force_Field>
OPLS_2005

> <r_lp_Energy>
34.3488

> <b_lp_Chiralities_Consistent>
1

> <s_lp_Variant>
AV-unprocessed.smi:72-33

> <Gold.Version>
5.8.1

> <Gold.Id.Protein>
6NUR|6NUR_protein|mol2

> <Gold.PLP.Fitness>
38.0494

> <Gold.PLP.PLP>
-19.8821

> <Gold.PLP.part.hbond>
-6.0104

> <Gold.PLP.part.metal>
0.0000

> <Gold.PLP.part.buried>
3.6832

> <Gold.PLP.part.nonpolar>
-20.2081

> <Gold.PLP.part.repulsive>
3.1026

> <Gold.PLP.ligand.clash>
0.0000

> <Gold.PLP.ligand.torsion>
0.0170

> <Gold.PLP.Chemscore.Hbond>
5.0606

> <Gold.PLP.Chemscore.CHOScore>
1.0000

> <Gold.PLP.Chemscore.Metal>
0.0000

> <Gold.Chemscore.Hbonds>
donor molecule, donor type, donor heavy atom, donor atom, acceptor molecule, acceptor atom, score
      L1  H     3    30       P1  7949  1.07
      L1  H    10    27       P1  7957  0.91
      L1  H    14    29       P1  8028  1.00
      P1  H  7954  7966       L1    10  0.91
      P1  H  7997  8008       L1    17  1.00
      L1  C     4    24       P1  7948  1.00

> <Gold.PLP.Chemscore.Internal.Correction>
0.0196

> <Gold.Rescore>
     Score         DG    S(hbond)    S(metal)    S(lipo)     H(rot)  DE(clash)    DE(int)     intcor
      4.93     -10.18       3.49        0.00      29.74       4.08       4.04       1.22       ----

> <Gold.Chemscore.Fitness>
4.9310

> <Gold.Chemscore.DG>
-10.1832

> <Gold.Chemscore.ZeroCoef>
-5.4800

> <Gold.Chemscore.Hbond>
3.4921

> <Gold.Chemscore.Metal>
0.0000

> <Gold.Chemscore.Lipo>
29.7432

> <Gold.Chemscore.Internal_Hbond>
0.0000

> <Gold.Chemscore.DEClash>
4.0364

> <Gold.Chemscore.DEInternal>
1.2158

> <Gold.Chemscore.Rot>
4.0783

> <Gold.Chemscore.Internal.Correction>
   9.000000E+99

> <Gold.Chemscore.Hbonds>
donor molecule, donor type, donor heavy atom, donor atom, acceptor molecule, acceptor atom, score
      L1  H     3    30       P1  7949  0.52
      L1  H    10    27       P1  7957  0.86
      L1  H    14    29       P1  8028  0.93
      P1  H  7954  7966       L1    10  0.19
      P1  H  7997  8008       L1    17  0.75

> <Gold.Chemscore.Hbond.Weighted>
-11.6637

> <Gold.Chemscore.Metal.Weighted>
-0.0000

> <Gold.Chemscore.Lipo.Weighted>
-3.4800

> <Gold.Chemscore.Internal_Hbond.Weighted>
0.0000

> <Gold.Chemscore.DEClash.Weighted>
4.0364

> <Gold.Chemscore.DEInternal.Weighted>
1.2158

> <Gold.Chemscore.Rot.Weighted>
10.4404

> <Gold.Chemscore.Internal.Correction.Weighted>
   9.000000E+99

> <Gold.Protein.RotatedTorsions>
[ 6907 6896 6895 6894 ] final   18.70 input  -60.11 | X-H torsion
[ 7974 7965 7964 7962 ] final   52.93 input  175.53 | X-H torsion
[ 8008 7997 7996 7995 ] final  -23.46 input   59.86 | X-H torsion
[ 10167 10162 10161 10158 ] final  -92.74 input  -65.29 | X-H torsion
[ 10718 10713 10712 10709 ] final  161.82 input   66.30 | X-H torsion
[ 10763 10752 10751 10750 ] final  -22.27 input  -60.55 | X-H torsion
[ 11005 11000 10999 10996 ] final  121.29 input  -57.11 | X-H torsion

> <Gold.Protein.ActiveResidues>
 VAL166  LYS551  ARG553  GLY616  TRP617  ASP618  TYR619  PRO620  LYS621  CYS622 
 ASP623  PHE694  ASN695  SER759  ASP760  ASP761  ALA762  ILE779  LEU786  VAL792 
 PHE793  MET794  SER795  GLU796  ALA797  LYS798  CYS799  TRP800  GLU811  SER814 

> <Gold.Protein.RotatedAtoms>
  151.8695  135.0495  160.0477 H   0  0  0  0  0  0  0  0  0  0  0  0  # atno 6907 bound_to 6896
  152.2600  133.5284  159.5384 H   0  0  0  0  0  0  0  0  0  0  0  0  # atno 6908 bound_to 6896
  150.7113  134.0759  159.3923 H   0  0  0  0  0  0  0  0  0  0  0  0  # atno 6909 bound_to 6896
  145.9763  139.4198  143.0159 H   0  0  0  0  0  0  0  0  0  0  0  0  # atno 7974 bound_to 7965
  154.4584  140.1980  156.0314 H   0  0  0  0  0  0  0  0  0  0  0  0  # atno 8008 bound_to 7997
  156.0792  140.3274  155.7644 H   0  0  0  0  0  0  0  0  0  0  0  0  # atno 8009 bound_to 7997
  155.5139  140.0564  157.2909 H   0  0  0  0  0  0  0  0  0  0  0  0  # atno 8010 bound_to 7997
  140.3317  143.2991  151.9934 H   0  0  0  0  0  0  0  0  0  0  0  0  # atno 10167 bound_to 10162
  157.1311  131.0517  151.2371 H   0  0  0  0  0  0  0  0  0  0  0  0  # atno 10718 bound_to 10713
  153.6492  135.6981  153.5214 H   0  0  0  0  0  0  0  0  0  0  0  0  # atno 10763 bound_to 10752
  153.2720  135.4212  155.0996 H   0  0  0  0  0  0  0  0  0  0  0  0  # atno 10764 bound_to 10752
  154.8480  135.3580  154.6037 H   0  0  0  0  0  0  0  0  0  0  0  0  # atno 10765 bound_to 10752
  139.9220  134.9638  156.7936 H   0  0  0  0  0  0  0  0  0  0  0  0  # atno 11005 bound_to 11000
  145.7834  140.9846  143.1087 LP  0  0  0  0  0  0  0  0  0  0  0  0  # atno 17320 bound_to 7965
  144.6849  139.9593  143.7480 LP  0  0  0  0  0  0  0  0  0  0  0  0  # atno 17321 bound_to 7965
  139.4855  144.6229  151.7220 LP  0  0  0  0  0  0  0  0  0  0  0  0  # atno 17342 bound_to 10162
  140.5391  144.0609  150.6081 LP  0  0  0  0  0  0  0  0  0  0  0  0  # atno 17343 bound_to 10162
  157.4391  130.7534  149.7054 LP  0  0  0  0  0  0  0  0  0  0  0  0  # atno 17370 bound_to 10713
  155.9808  130.4026  150.3510 LP  0  0  0  0  0  0  0  0  0  0  0  0  # atno 17371 bound_to 10713
  140.6447  133.9786  155.7725 LP  0  0  0  0  0  0  0  0  0  0  0  0  # atno 17394 bound_to 11000
  141.0748  134.0151  157.3474 LP  0  0  0  0  0  0  0  0  0  0  0  0  # atno 17395 bound_to 11000

$$$$
