#       Name:                AV-unprocessed.smi:1545
#       Creating user name   scv26
#       Creation time:       Fri Mar 27 06:38:27 2020


#       File generated by GOLD software.
#

@<TRIPOS>MOLECULE
AV-unprocessed.smi:1545
    46    48     1
SMALL
NO_CHARGES


@<TRIPOS>ATOM
      1 ****        -4.2791   1.5948   3.0097 O.3            1 S1                 0.0000
      2 ****        -4.0141   2.0923   1.7160 C.3            1 S1                 0.0000
      3 ****        -2.5410   2.5059   1.6062 C.3            1 S1                 0.0000
      4 ****        -1.6838   1.3661   1.3229 N.pl3          1 S1                 0.0000
      5 ****        -0.3162   1.5773   1.1194 C.cat          1 S1                 0.0000
      6 ****         0.3568   2.7368   1.3475 N.pl3          1 S1                 1.0000
      7 ****         1.6995   2.5389   1.0124 C.ar           1 S1                 0.0000
      8 ****         2.7859   3.4069   1.0639 C.ar           1 S1                 0.0000
      9 ****         4.0299   2.8909   0.6448 C.ar           1 S1                 0.0000
     10 ****         4.1609   1.5608   0.1953 C.ar           1 S1                 0.0000
     11 ****         3.0548   0.6867   0.1472 C.ar           1 S1                 0.0000
     12 ****         1.8282   1.2015   0.5655 C.ar           1 S1                 0.0000
     13 ****         0.5492   0.6389   0.6553 N.pl3          1 S1                 0.0000
     14 ****         0.3378  -0.7624   0.2628 C.3            1 S1                 0.0000
     15 ****         0.1158  -0.9331  -1.2529 C.3            1 S1                 0.0000
     16 ****        -0.9896  -0.1528  -1.6661 O.3            1 S1                 0.0000
     17 ****        -0.0459  -2.3985  -1.6230 C.ar           1 S1                 0.0000
     18 ****        -1.2518  -3.0807  -1.3470 C.ar           1 S1                 0.0000
     19 ****        -1.3903  -4.4414  -1.6829 C.ar           1 S1                 0.0000
     20 ****        -0.3245  -5.1281  -2.2956 C.ar           1 S1                 0.0000
     21 ****         0.8807  -4.4536  -2.5706 C.ar           1 S1                 0.0000
     22 ****         1.9071  -5.1131  -3.1580 F              1 S1                 0.0000
     23 ****         1.0202  -3.0930  -2.2341 C.ar           1 S1                 0.0000
     24 ****        -3.7519   0.8227   3.1474 H              1 S1                 0.0000
     25 ****        -4.2873   1.3574   0.9576 H              1 S1                 0.0000
     26 ****        -4.6516   2.9631   1.5624 H              1 S1                 0.0000
     27 ****        -2.4337   3.2124   0.7820 H              1 S1                 0.0000
     28 ****        -2.2130   3.0198   2.5108 H              1 S1                 0.0000
     29 ****        -2.1027   0.4861   1.0573 H              1 S1                 0.0000
     30 ****         2.6898   4.4269   1.4062 H              1 S1                 0.0000
     31 ****         4.9015   3.5290   0.6681 H              1 S1                 0.0000
     32 ****         5.1307   1.2028  -0.1192 H              1 S1                 0.0000
     33 ****         3.1666  -0.3301  -0.1995 H              1 S1                 0.0000
     34 ****         1.1944  -1.3478   0.5986 H              1 S1                 0.0000
     35 ****        -0.5229  -1.1357   0.8194 H              1 S1                 0.0000
     36 ****         0.9857  -0.5415  -1.7818 H              1 S1                 0.0000
     37 ****        -1.0622  -0.2108  -2.6067 H              1 S1                 0.0000
     38 ****        -2.0739  -2.5632  -0.8739 H              1 S1                 0.0000
     39 ****        -2.3141  -4.9590  -1.4690 H              1 S1                 0.0000
     40 ****        -0.4308  -6.1717  -2.5529 H              1 S1                 0.0000
     41 ****         1.9502  -2.5862  -2.4464 H              1 S1                 0.0000
     42 ****        -0.0654   3.5863   1.6990 H              1 S1                 0.0000
     43 ****        -5.2480   1.3604   3.0892 LP             1 S1                 0.0000
     44 ****        -4.0468   2.2880   3.6920 LP             1 S1                 0.0000
     45 ****        -0.8497   0.7999  -1.3965 LP             1 S1                 0.0000
     46 ****        -1.8255  -0.5001  -1.2410 LP             1 S1                 0.0000
@<TRIPOS>BOND
    1    1    2 1     
    2    1   24 1     
    3    2    3 1     
    4    2   25 1     
    5    2   26 1     
    6    3    4 1     
    7    3   27 1     
    8    3   28 1     
    9    4    5 ar    
   10    4   29 1     
   11    5   13 ar    
   12    5    6 ar    
   13    6    7 1     
   14    6   42 1     
   15    7   12 ar    
   16    7    8 ar    
   17    8    9 ar    
   18    8   30 1     
   19    9   10 ar    
   20    9   31 1     
   21   10   11 ar    
   22   10   32 1     
   23   11   12 ar    
   24   11   33 1     
   25   12   13 1     
   26   13   14 1     
   27   14   15 1     
   28   14   34 1     
   29   14   35 1     
   30   15   16 1     
   31   15   17 1     
   32   15   36 1     
   33   16   37 1     
   34   17   23 ar    
   35   17   18 ar    
   36   18   19 ar    
   37   18   38 1     
   38   19   20 ar    
   39   19   39 1     
   40   20   21 ar    
   41   20   40 1     
   42   21   22 1     
   43   21   23 ar    
   44   23   41 1     
   45    1   43 1     
   46    1   44 1     
   47   16   45 1     
   48   16   46 1     
@<TRIPOS>SUBSTRUCTURE
      1 S1             1
@<TRIPOS>SET
LONE_PAIRS      STATIC     ATOMS    <user>   **** ""
4 43 44 45 46
DONOR_HYDROGENS      STATIC     ATOMS    <user>   **** ""
4 24 29 42 37
ATOM$BLUE        STATIC     ATOMS    COLORGROUP SYSTEM
4 43 44 45 46
ATOM$RED        STATIC     ATOMS    COLORGROUP SYSTEM
4 24 29 42 37
