AV-unprocessed.smi:80|AV-procd|sdf|785|dock1
  -GOLD-   2262017153D 1   1.00000     0.00000
 Structure written by MMmdl.
 51 54  0  0  0  0  0  0  0  0  1 V2000
  151.0831  140.0390  154.9027 N   0  0  0  0  0  0  0  0  0  0  0  0
  151.0476  140.0744  156.0589 C   0  0  0  0  0  0  0  0  0  0  0  0
  151.0053  140.1171  157.5301 C   0  0  0  0  0  0  0  0  0  0  0  0
  150.8087  138.7406  158.1789 C   0  0  0  0  0  0  0  0  0  0  0  0
  151.7321  138.2517  158.8311 O   0  0  0  0  0  0  0  0  0  0  0  0
  149.6250  138.1066  158.0087 N   0  0  0  0  0  0  0  0  0  0  0  0
  148.5089  138.6018  157.1934 C   0  0  0  0  0  0  0  0  0  0  0  0
  148.3535  137.6883  155.9643 C   0  0  0  0  0  0  0  0  0  0  0  0
  148.2019  136.2943  156.3782 N   0  0  0  0  0  0  0  0  0  0  0  0
  147.9443  135.4529  155.3561 C   0  0  0  0  0  0  0  0  0  0  0  0
  148.7707  134.3895  155.2065 N   0  0  0  0  0  0  0  0  0  0  0  0
  148.5636  133.5196  154.2130 C   0  0  0  0  0  0  0  0  0  0  0  0
  147.6075  133.5279  153.2812 N   0  0  0  0  0  0  0  0  0  0  0  0
  146.7731  134.5971  153.4324 C   0  0  0  0  0  0  0  0  0  0  0  0
  146.8709  135.6034  154.4340 C   0  0  0  0  0  0  0  0  0  0  0  0
  145.8560  136.5376  154.2698 N   0  0  0  0  0  0  0  0  0  0  0  0
  145.1984  136.1107  153.2265 C   0  0  0  0  0  0  0  0  0  0  0  0
  145.6702  134.9419  152.6693 N   0  0  0  0  0  0  0  0  0  0  0  0
  145.1564  134.2629  151.5128 C   0  0  0  0  0  0  0  0  0  0  0  0
  144.4281  132.9262  151.6598 C   0  0  0  0  0  0  0  0  0  0  0  0
  145.0482  132.4289  150.3339 C   0  0  0  0  0  0  0  0  0  0  0  0
  145.6292  131.0085  150.4026 C   0  0  0  0  0  0  0  0  0  0  0  0
  146.5532  130.8782  151.4640 O   0  0  0  0  0  0  0  0  0  0  0  0
  144.1363  132.4871  149.0881 C   0  0  0  0  0  0  0  0  0  0  0  0
  142.8641  131.9096  149.3000 O   0  0  0  0  0  0  0  0  0  0  0  0
  146.0779  133.5692  150.5046 C   0  0  0  0  0  0  0  0  0  0  0  0
  149.2126  135.7973  157.3111 C   0  0  0  0  0  0  0  0  0  0  0  0
  149.3606  136.7524  158.5109 C   0  0  0  0  0  0  0  0  0  0  0  0
  151.9419  140.5594  157.8704 H   0  0  0  0  0  0  0  0  0  0  0  0
  150.1885  140.7828  157.8105 H   0  0  0  0  0  0  0  0  0  0  0  0
  147.5960  138.5795  157.7904 H   0  0  0  0  0  0  0  0  0  0  0  0
  148.6238  139.6358  156.8732 H   0  0  0  0  0  0  0  0  0  0  0  0
  147.4841  137.9941  155.3810 H   0  0  0  0  0  0  0  0  0  0  0  0
  149.2261  137.7901  155.3178 H   0  0  0  0  0  0  0  0  0  0  0  0
  149.2631  132.6984  154.1572 H   0  0  0  0  0  0  0  0  0  0  0  0
  144.3461  136.6459  152.8344 H   0  0  0  0  0  0  0  0  0  0  0  0
  144.5240  134.9816  150.9903 H   0  0  0  0  0  0  0  0  0  0  0  0
  144.7706  132.3636  152.5298 H   0  0  0  0  0  0  0  0  0  0  0  0
  143.3406  133.0078  151.6572 H   0  0  0  0  0  0  0  0  0  0  0  0
  144.8398  130.2727  150.5592 H   0  0  0  0  0  0  0  0  0  0  0  0
  146.1223  130.7373  149.4685 H   0  0  0  0  0  0  0  0  0  0  0  0
  147.4255  130.8544  151.1015 H   0  0  0  0  0  0  0  0  0  0  0  0
  143.9753  133.5175  148.7701 H   0  0  0  0  0  0  0  0  0  0  0  0
  144.5986  131.9701  148.2466 H   0  0  0  0  0  0  0  0  0  0  0  0
  142.2262  132.6035  149.3679 H   0  0  0  0  0  0  0  0  0  0  0  0
  146.2668  134.1489  149.6004 H   0  0  0  0  0  0  0  0  0  0  0  0
  147.0150  133.2240  150.9425 H   0  0  0  0  0  0  0  0  0  0  0  0
  148.9321  134.8029  157.6605 H   0  0  0  0  0  0  0  0  0  0  0  0
  150.1709  135.6983  156.7998 H   0  0  0  0  0  0  0  0  0  0  0  0
  150.1398  136.3870  159.1809 H   0  0  0  0  0  0  0  0  0  0  0  0
  148.4410  136.7617  159.0978 H   0  0  0  0  0  0  0  0  0  0  0  0
  1  2  3  0  0  0  0
  2  3  1  0  0  0  0
  3  4  1  0  0  0  0
  3 29  1  0  0  0  0
  3 30  1  0  0  0  0
  4  5  2  0  0  0  0
  4  6  1  0  0  0  0
  6 28  1  0  0  0  0
  6  7  1  0  0  0  0
  7  8  1  0  0  0  0
  7 31  1  0  0  0  0
  7 32  1  0  0  0  0
  8  9  1  0  0  0  0
  8 33  1  0  0  0  0
  8 34  1  0  0  0  0
  9 10  1  0  0  0  0
  9 27  1  0  0  0  0
 10 15  1  0  0  0  0
 10 11  2  0  0  0  0
 11 12  1  0  0  0  0
 12 13  2  0  0  0  0
 12 35  1  0  0  0  0
 13 14  1  0  0  0  0
 14 18  1  0  0  0  0
 14 15  2  0  0  0  0
 15 16  1  0  0  0  0
 16 17  2  0  0  0  0
 17 18  1  0  0  0  0
 17 36  1  0  0  0  0
 18 19  1  0  0  0  0
 19 26  1  0  0  0  0
 19 20  1  0  0  0  0
 19 37  1  0  0  0  0
 20 21  1  0  0  0  0
 20 38  1  0  0  0  0
 20 39  1  0  0  0  0
 21 22  1  0  0  0  0
 21 24  1  0  0  0  0
 21 26  1  0  0  0  0
 22 23  1  0  0  0  0
 22 40  1  0  0  0  0
 22 41  1  0  0  0  0
 23 42  1  0  0  0  0
 24 25  1  0  0  0  0
 24 43  1  0  0  0  0
 24 44  1  0  0  0  0
 25 45  1  0  0  0  0
 26 46  1  0  0  0  0
 26 47  1  0  0  0  0
 27 28  1  0  0  0  0
 27 48  1  0  0  0  0
 27 49  1  0  0  0  0
 28 50  1  0  0  0  0
 28 51  1  0  0  0  0
M  END
> <s_m_source_file>
AV-unprocessed.smi

> <i_m_source_file_index>
80

> <i_lp_mmshare_version>
43012

> <i_f3d_flags>
0

> <s_epik_input>
TiNDW0NIMl1DKD1PKU4xW0NIMl1bQ0gyXU4oW0NIMl1bQ0gyXTEpYyhuW2NIXW4yKWMoYzIzKW5bY0hdbjNbQ0hdKFtDSDJdNClbQ0gyXUM0KFtDSDJdW09IXSlbQ0gyXVtPSF0=

> <s_epik_cmdline>
J2VwaWtfcHl0aG9uJywgJy1waCcsICc3LjAnLCAnLXRuJywgJzgnLCAnLW1hJywgJzIwMCcsICctbWV0YWxfYmluZGluZycsICctaW1hZScsICc8aW5maWxlLm1hZT4nLCAnLW9tYWUnLCAnPG91dGZpbGUubWFlPic=

> <r_lp_tautomer_probability>
1

> <r_epik_Ionization_Penalty>
0.000827394

> <r_epik_Ionization_Penalty_Charging>
0

> <r_epik_Ionization_Penalty_Neutral>
0.000827394

> <r_epik_State_Penalty>
0.000406949

> <r_epik_Charging_Adjusted_Penalty>
0.000406949

> <i_epik_Tot_Q>
0

> <i_epik_Tot_abs_Q>
0

> <r_epik_Metal_State_Penalty>
-0

> <b_epik_Metal_Only>
0

> <s_lp_Force_Field>
OPLS_2005

> <r_lp_Energy>
60.4217

> <b_lp_Chiralities_Consistent>
1

> <s_lp_Variant>
AV-unprocessed.smi:80-1

> <Gold.Version>
5.8.1

> <Gold.Id.Protein>
6NUR|6NUR_protein|mol2

> <Gold.PLP.Fitness>
45.6849

> <Gold.PLP.PLP>
-35.4002

> <Gold.PLP.part.hbond>
-4.9535

> <Gold.PLP.part.metal>
0.0000

> <Gold.PLP.part.buried>
-6.2723

> <Gold.PLP.part.nonpolar>
-23.7990

> <Gold.PLP.part.repulsive>
0.3408

> <Gold.PLP.ligand.clash>
0.0000

> <Gold.PLP.ligand.torsion>
1.0226

> <Gold.PLP.Chemscore.Hbond>
3.8850

> <Gold.PLP.Chemscore.CHOScore>
0.0000

> <Gold.PLP.Chemscore.Metal>
0.0000

> <Gold.Chemscore.Hbonds>
donor molecule, donor type, donor heavy atom, donor atom, acceptor molecule, acceptor atom, score
      L1  H    23    42       P1 10747  1.00
      L1  H    25    45       P1 10186  0.62
      P1  H  7989  7998       L1     1  1.00
      P1  H 10785 10796       L1    25  1.00

> <Gold.PLP.Chemscore.Internal.Correction>
0.6749

> <Gold.Rescore>
     Score         DG    S(hbond)    S(metal)    S(lipo)     H(rot)  DE(clash)    DE(int)     intcor
     14.30     -15.15       3.62        0.00      62.77       3.82       0.16       0.69       ----

> <Gold.Chemscore.Fitness>
14.2971

> <Gold.Chemscore.DG>
-15.1478

> <Gold.Chemscore.ZeroCoef>
-5.4800

> <Gold.Chemscore.Hbond>
3.6207

> <Gold.Chemscore.Metal>
0.0000

> <Gold.Chemscore.Lipo>
62.7740

> <Gold.Chemscore.Internal_Hbond>
0.0000

> <Gold.Chemscore.DEClash>
0.1615

> <Gold.Chemscore.DEInternal>
0.6891

> <Gold.Chemscore.Rot>
3.8164

> <Gold.Chemscore.Internal.Correction>
   9.000000E+99

> <Gold.Chemscore.Hbonds>
donor molecule, donor type, donor heavy atom, donor atom, acceptor molecule, acceptor atom, score
      L1  H    23    42       P1 10747  1.00
      L1  H    25    45       P1 10186  0.60
      P1  H  7989  7998       L1     1  1.00
      P1  H 10785 10796       L1    25  0.30

> <Gold.Chemscore.Hbond.Weighted>
-12.0931

> <Gold.Chemscore.Metal.Weighted>
-0.0000

> <Gold.Chemscore.Lipo.Weighted>
-7.3446

> <Gold.Chemscore.Internal_Hbond.Weighted>
0.0000

> <Gold.Chemscore.DEClash.Weighted>
0.1615

> <Gold.Chemscore.DEInternal.Weighted>
0.6891

> <Gold.Chemscore.Rot.Weighted>
9.7699

> <Gold.Chemscore.Internal.Correction.Weighted>
   9.000000E+99

> <Gold.Protein.RotatedTorsions>
[ 6907 6896 6895 6894 ] final   29.54 input  -60.11 | X-H torsion
[ 7974 7965 7964 7962 ] final  -19.58 input  175.53 | X-H torsion
[ 8008 7997 7996 7995 ] final   15.53 input   59.86 | X-H torsion
[ 10167 10162 10161 10158 ] final -128.38 input  -65.29 | X-H torsion
[ 10718 10713 10712 10709 ] final  144.33 input   66.30 | X-H torsion
[ 10763 10752 10751 10750 ] final   74.82 input  -60.55 | X-H torsion
[ 11005 11000 10999 10996 ] final  -99.68 input  -57.11 | X-H torsion

> <Gold.Protein.ActiveResidues>
 VAL166  LYS551  ARG553  GLY616  TRP617  ASP618  TYR619  PRO620  LYS621  CYS622 
 ASP623  PHE694  ASN695  SER759  ASP760  ASP761  ALA762  ILE779  LEU786  VAL792 
 PHE793  MET794  SER795  GLU796  ALA797  LYS798  CYS799  TRP800  GLU811  SER814 

> <Gold.Protein.RotatedAtoms>
  152.0331  134.9756  160.0572 H   0  0  0  0  0  0  0  0  0  0  0  0  # atno 6907 bound_to 6896
  152.1225  133.4356  159.4690 H   0  0  0  0  0  0  0  0  0  0  0  0  # atno 6908 bound_to 6896
  150.6850  134.2437  159.4526 H   0  0  0  0  0  0  0  0  0  0  0  0  # atno 6909 bound_to 6896
  146.1834  140.4082  142.8486 H   0  0  0  0  0  0  0  0  0  0  0  0  # atno 7974 bound_to 7965
  154.8640  140.2948  155.5522 H   0  0  0  0  0  0  0  0  0  0  0  0  # atno 8008 bound_to 7997
  156.3020  140.2473  156.3551 H   0  0  0  0  0  0  0  0  0  0  0  0  # atno 8009 bound_to 7997
  154.8888  140.0395  157.1815 H   0  0  0  0  0  0  0  0  0  0  0  0  # atno 8010 bound_to 7997
  139.9509  143.6056  152.2475 H   0  0  0  0  0  0  0  0  0  0  0  0  # atno 10167 bound_to 10162
  157.3585  131.0961  151.0937 H   0  0  0  0  0  0  0  0  0  0  0  0  # atno 10718 bound_to 10713
  153.0613  135.5011  154.8099 H   0  0  0  0  0  0  0  0  0  0  0  0  # atno 10763 bound_to 10752
  154.6886  135.2980  154.9514 H   0  0  0  0  0  0  0  0  0  0  0  0  # atno 10764 bound_to 10752
  154.0276  135.6734  153.4830 H   0  0  0  0  0  0  0  0  0  0  0  0  # atno 10765 bound_to 10752
  141.1299  133.8340  157.1004 H   0  0  0  0  0  0  0  0  0  0  0  0  # atno 11005 bound_to 11000
  144.8354  140.6773  143.6264 LP  0  0  0  0  0  0  0  0  0  0  0  0  # atno 17320 bound_to 7965
  145.4011  139.1597  143.4177 LP  0  0  0  0  0  0  0  0  0  0  0  0  # atno 17321 bound_to 7965
  139.6629  144.7662  151.1929 LP  0  0  0  0  0  0  0  0  0  0  0  0  # atno 17342 bound_to 10162
  140.7583  143.5983  150.8726 LP  0  0  0  0  0  0  0  0  0  0  0  0  # atno 17343 bound_to 10162
  157.2086  130.6427  149.5765 LP  0  0  0  0  0  0  0  0  0  0  0  0  # atno 17370 bound_to 10713
  155.9733  130.4667  150.6300 LP  0  0  0  0  0  0  0  0  0  0  0  0  # atno 17371 bound_to 10713
  140.0337  134.9889  157.0829 LP  0  0  0  0  0  0  0  0  0  0  0  0  # atno 17394 bound_to 11000
  140.4245  134.1846  155.7165 LP  0  0  0  0  0  0  0  0  0  0  0  0  # atno 17395 bound_to 11000

$$$$
