AV-unprocessed.smi:37|AV-procd|sdf|317|dock3
  -GOLD-   2262016133D 1   1.00000     0.00000
 Structure written by MMmdl.
 44 45  0  0  0  0  0  0  0  0  1 V2000
  146.8172  134.9924  162.3231 C   0  0  0  0  0  0  0  0  0  0  0  0
  147.8501  134.8420  161.1959 C   0  0  0  0  0  0  0  0  0  0  0  0
  148.1515  136.1500  160.4610 C   0  0  0  0  0  0  0  0  0  0  0  0
  147.5777  137.2070  160.7301 O   0  0  0  0  0  0  0  0  0  0  0  0
  149.0892  135.9881  159.5150 O   0  0  0  0  0  0  0  0  0  0  0  0
  149.3787  137.0510  158.6199 C   0  0  0  0  0  0  0  0  0  0  0  0
  150.3454  136.5664  157.5261 C   0  0  2  0  0  0  0  0  0  0  0  0
  151.5485  136.1561  158.1765 O   0  0  0  0  0  0  0  0  0  0  0  0
  152.6459  136.6883  157.5053 C   0  0  2  0  0  0  0  0  0  0  0  0
  153.8106  136.8443  158.4549 N   0  0  0  0  0  0  0  0  0  0  0  0
  153.6464  137.2884  159.7619 C   0  0  0  0  0  0  0  0  0  0  0  0
  154.6815  137.4395  160.6216 C   0  0  0  0  0  0  0  0  0  0  0  0
  154.4482  137.8804  161.8695 F   0  0  0  0  0  0  0  0  0  0  0  0
  156.0474  137.1355  160.2046 C   0  0  0  0  0  0  0  0  0  0  0  0
  157.0476  137.2370  160.9121 O   0  0  0  0  0  0  0  0  0  0  0  0
  156.1640  136.6997  158.8814 N   0  0  0  0  0  0  0  0  0  0  0  0
  155.1063  136.5426  157.9842 C   0  0  0  0  0  0  0  0  0  0  0  0
  155.3215  136.1584  156.8353 O   0  0  0  0  0  0  0  0  0  0  0  0
  152.1717  138.0206  156.9261 C   0  0  2  0  0  0  0  0  0  0  0  0
  152.1020  139.4538  158.3212 Br  0  0  0  0  0  0  0  0  0  0  0  0
  150.7681  137.6283  156.4880 C   0  0  2  0  0  0  0  0  0  0  0  0
  149.8786  138.7359  156.3954 O   0  0  0  0  0  0  0  0  0  0  0  0
  150.1575  139.7683  155.5834 C   0  0  0  0  0  0  0  0  0  0  0  0
  151.1435  139.8591  154.8499 O   0  0  0  0  0  0  0  0  0  0  0  0
  149.0916  140.8621  155.6689 C   0  0  0  0  0  0  0  0  0  0  0  0
  148.4915  141.2419  154.3074 C   0  0  0  0  0  0  0  0  0  0  0  0
  157.0919  136.4828  158.5475 H   0  0  0  0  0  0  0  0  0  0  0  0
  146.6448  134.0351  162.8153 H   0  0  0  0  0  0  0  0  0  0  0  0
  145.8578  135.3429  161.9402 H   0  0  0  0  0  0  0  0  0  0  0  0
  147.1566  135.6968  163.0833 H   0  0  0  0  0  0  0  0  0  0  0  0
  148.7828  134.4516  161.6035 H   0  0  0  0  0  0  0  0  0  0  0  0
  147.4944  134.1124  160.4679 H   0  0  0  0  0  0  0  0  0  0  0  0
  148.4671  137.4482  158.1716 H   0  0  0  0  0  0  0  0  0  0  0  0
  149.8375  137.8613  159.1877 H   0  0  0  0  0  0  0  0  0  0  0  0
  149.9171  135.7023  157.0166 H   0  0  0  0  0  0  0  0  0  0  0  0
  152.9625  135.9737  156.7417 H   0  0  0  0  0  0  0  0  0  0  0  0
  152.6612  137.5418  160.1253 H   0  0  0  0  0  0  0  0  0  0  0  0
  152.8107  138.3569  156.1091 H   0  0  0  0  0  0  0  0  0  0  0  0
  150.8359  137.1221  155.5232 H   0  0  0  0  0  0  0  0  0  0  0  0
  148.3002  140.5210  156.3370 H   0  0  0  0  0  0  0  0  0  0  0  0
  149.5372  141.7427  156.1322 H   0  0  0  0  0  0  0  0  0  0  0  0
  147.7382  142.0208  154.4247 H   0  0  0  0  0  0  0  0  0  0  0  0
  148.0099  140.3866  153.8318 H   0  0  0  0  0  0  0  0  0  0  0  0
  149.2556  141.6217  153.6281 H   0  0  0  0  0  0  0  0  0  0  0  0
  1  2  1  0  0  0  0
  1 28  1  0  0  0  0
  1 29  1  0  0  0  0
  1 30  1  0  0  0  0
  2  3  1  0  0  0  0
  2 31  1  0  0  0  0
  2 32  1  0  0  0  0
  3  4  2  0  0  0  0
  3  5  1  0  0  0  0
  5  6  1  0  0  0  0
  6  7  1  0  0  0  0
  6 33  1  0  0  0  0
  6 34  1  0  0  0  0
  7 21  1  0  0  0  0
  7  8  1  0  0  0  0
  7 35  1  0  0  0  0
  8  9  1  0  0  0  0
  9 10  1  0  0  0  0
  9 19  1  0  0  0  0
  9 36  1  0  0  0  0
 10 17  1  0  0  0  0
 10 11  1  0  0  0  0
 11 12  2  0  0  0  0
 11 37  1  0  0  0  0
 12 13  1  0  0  0  0
 12 14  1  0  0  0  0
 14 15  2  0  0  0  0
 14 16  1  0  0  0  0
 16 27  1  0  0  0  0
 16 17  1  0  0  0  0
 17 18  2  0  0  0  0
 19 20  1  0  0  0  0
 19 21  1  0  0  0  0
 19 38  1  0  0  0  0
 21 22  1  0  0  0  0
 21 39  1  0  0  0  0
 22 23  1  0  0  0  0
 23 24  2  0  0  0  0
 23 25  1  0  0  0  0
 25 26  1  0  0  0  0
 25 40  1  0  0  0  0
 25 41  1  0  0  0  0
 26 42  1  0  0  0  0
 26 43  1  0  0  0  0
 26 44  1  0  0  0  0
M  END
> <s_m_source_file>
AV-unprocessed.smi

> <i_m_source_file_index>
37

> <i_lp_mmshare_version>
43012

> <i_f3d_flags>
0

> <s_epik_input>
W0NIM11bQ0gyXUMoPU8pT1tDSDJdW0NAQEhdMU9bQ0BASF0objJbY0hdYyhGKWMoPU8pW25IXWMyPU8pW0NAQEhdKEJyKVtDQEhdMU9DKD1PKVtDSDJdW0NIM10=

> <s_epik_cmdline>
J2VwaWtfcHl0aG9uJywgJy1waCcsICc3LjAnLCAnLXRuJywgJzgnLCAnLW1hJywgJzIwMCcsICctbWV0YWxfYmluZGluZycsICctaW1hZScsICc8aW5maWxlLm1hZT4nLCAnLW9tYWUnLCAnPG91dGZpbGUubWFlPic=

> <r_lp_tautomer_probability>
0.999537

> <r_epik_Ionization_Penalty>
0.104106

> <r_epik_Ionization_Penalty_Charging>
0.104106

> <r_epik_Ionization_Penalty_Neutral>
3.94675e-16

> <r_epik_State_Penalty>
0.0940182

> <r_epik_Charging_Adjusted_Penalty>
0.198124

> <i_epik_Tot_Q>
0

> <i_epik_Tot_abs_Q>
0

> <r_epik_Metal_State_Penalty>
3.05314

> <b_epik_Metal_Only>
0

> <s_epik_Chemistry_Notes>
This compound has an ester and may undergo hydrolysis at high or low pH. This compound contains an acetal/aminal-like group ( X-CH(R)-Y where X, Y are N, S, or O) that may be acid/base labile, releasing an aldehyde.

> <s_lp_Force_Field>
OPLS_2005

> <r_lp_Energy>
26.9129

> <b_lp_Chiralities_Consistent>
1

> <s_lp_Variant>
AV-unprocessed.smi:37-15

> <Gold.Version>
5.8.1

> <Gold.Id.Protein>
6NUR|6NUR_protein|mol2

> <Gold.PLP.Fitness>
43.3375

> <Gold.PLP.PLP>
-31.9926

> <Gold.PLP.part.hbond>
-6.0000

> <Gold.PLP.part.metal>
0.0000

> <Gold.PLP.part.buried>
-6.0624

> <Gold.PLP.part.nonpolar>
-19.6500

> <Gold.PLP.part.repulsive>
0.0698

> <Gold.PLP.ligand.clash>
0.0000

> <Gold.PLP.ligand.torsion>
0.6462

> <Gold.PLP.Chemscore.Hbond>
4.1440

> <Gold.PLP.Chemscore.CHOScore>
0.0000

> <Gold.PLP.Chemscore.Metal>
0.0000

> <Gold.Chemscore.Hbonds>
donor molecule, donor type, donor heavy atom, donor atom, acceptor molecule, acceptor atom, score
      P1  H  6896  6907       L1     8  0.42
      P1  H  6931  6943       L1     4  0.59
      P1  H  6934  6947       L1     4  0.99
      P1  H  7989  7998       L1    24  1.00
      P1  H 10752 10765       L1    18  1.00

> <Gold.PLP.Chemscore.Internal.Correction>
0.2052

> <Gold.Rescore>
     Score         DG    S(hbond)    S(metal)    S(lipo)     H(rot)  DE(clash)    DE(int)     intcor
     16.06     -17.18       4.12        0.00      55.38       3.33       0.00       1.12       ----

> <Gold.Chemscore.Fitness>
16.0569

> <Gold.Chemscore.DG>
-17.1831

> <Gold.Chemscore.ZeroCoef>
-5.4800

> <Gold.Chemscore.Hbond>
4.1166

> <Gold.Chemscore.Metal>
0.0000

> <Gold.Chemscore.Lipo>
55.3769

> <Gold.Chemscore.Internal_Hbond>
0.0000

> <Gold.Chemscore.DEClash>
0.0029

> <Gold.Chemscore.DEInternal>
1.1232

> <Gold.Chemscore.Rot>
3.3303

> <Gold.Chemscore.Internal.Correction>
   9.000000E+99

> <Gold.Chemscore.Hbonds>
donor molecule, donor type, donor heavy atom, donor atom, acceptor molecule, acceptor atom, score
      P1  H  6896  6907       L1     8  0.37
      P1  H  6931  6943       L1     4  0.23
      P1  H  6934  6947       L1     4  0.93
      P1  H  7989  7998       L1    24  1.00
      P1  H 10752 10765       L1    18  0.97

> <Gold.Chemscore.Hbond.Weighted>
-13.7496

> <Gold.Chemscore.Metal.Weighted>
-0.0000

> <Gold.Chemscore.Lipo.Weighted>
-6.4791

> <Gold.Chemscore.Internal_Hbond.Weighted>
0.0000

> <Gold.Chemscore.DEClash.Weighted>
0.0029

> <Gold.Chemscore.DEInternal.Weighted>
1.1232

> <Gold.Chemscore.Rot.Weighted>
8.5256

> <Gold.Chemscore.Internal.Correction.Weighted>
   9.000000E+99

> <Gold.Protein.RotatedTorsions>
[ 6907 6896 6895 6894 ] final  -16.06 input  -60.11 | X-H torsion
[ 7974 7965 7964 7962 ] final   89.70 input  175.53 | X-H torsion
[ 8008 7997 7996 7995 ] final   45.17 input   59.86 | X-H torsion
[ 10167 10162 10161 10158 ] final   85.67 input  -65.29 | X-H torsion
[ 10718 10713 10712 10709 ] final   88.99 input   66.30 | X-H torsion
[ 10763 10752 10751 10750 ] final  -71.15 input  -60.55 | X-H torsion
[ 11005 11000 10999 10996 ] final   16.34 input  -57.11 | X-H torsion

> <Gold.Protein.ActiveResidues>
 VAL166  LYS551  ARG553  GLY616  TRP617  ASP618  TYR619  PRO620  LYS621  CYS622 
 ASP623  PHE694  ASN695  SER759  ASP760  ASP761  ALA762  ILE779  LEU786  VAL792 
 PHE793  MET794  SER795  GLU796  ALA797  LYS798  CYS799  TRP800  GLU811  SER814 

> <Gold.Protein.RotatedAtoms>
  151.3143  135.0802  159.9283 H   0  0  0  0  0  0  0  0  0  0  0  0  # atno 6907 bound_to 6896
  152.5271  133.9703  159.7769 H   0  0  0  0  0  0  0  0  0  0  0  0  # atno 6908 bound_to 6896
  151.0013  133.6002  159.2725 H   0  0  0  0  0  0  0  0  0  0  0  0  # atno 6909 bound_to 6896
  145.5289  139.2282  143.2630 H   0  0  0  0  0  0  0  0  0  0  0  0  # atno 7974 bound_to 7965
  155.3314  140.3403  155.4239 H   0  0  0  0  0  0  0  0  0  0  0  0  # atno 8008 bound_to 7997
  156.1859  140.1680  156.8222 H   0  0  0  0  0  0  0  0  0  0  0  0  # atno 8009 bound_to 7997
  154.5386  140.0729  156.8454 H   0  0  0  0  0  0  0  0  0  0  0  0  # atno 8010 bound_to 7997
  139.8954  144.6361  150.8694 H   0  0  0  0  0  0  0  0  0  0  0  0  # atno 10167 bound_to 10162
  157.6952  131.0316  150.3358 H   0  0  0  0  0  0  0  0  0  0  0  0  # atno 10718 bound_to 10713
  154.4277  135.5971  153.6049 H   0  0  0  0  0  0  0  0  0  0  0  0  # atno 10763 bound_to 10752
  152.9797  135.5967  154.3878 H   0  0  0  0  0  0  0  0  0  0  0  0  # atno 10764 bound_to 10752
  154.3711  135.2841  155.2244 H   0  0  0  0  0  0  0  0  0  0  0  0  # atno 10765 bound_to 10752
  140.4482  134.1252  155.7699 H   0  0  0  0  0  0  0  0  0  0  0  0  # atno 11005 bound_to 11000
  146.2057  140.6105  142.9082 LP  0  0  0  0  0  0  0  0  0  0  0  0  # atno 17320 bound_to 7965
  144.7636  140.5479  143.6718 LP  0  0  0  0  0  0  0  0  0  0  0  0  # atno 17321 bound_to 7965
  140.7718  143.3478  151.2076 LP  0  0  0  0  0  0  0  0  0  0  0  0  # atno 17342 bound_to 10162
  139.7072  143.9435  152.2932 LP  0  0  0  0  0  0  0  0  0  0  0  0  # atno 17343 bound_to 10162
  156.3825  130.3883  149.7090 LP  0  0  0  0  0  0  0  0  0  0  0  0  # atno 17370 bound_to 10713
  156.4468  130.7887  151.2909 LP  0  0  0  0  0  0  0  0  0  0  0  0  # atno 17371 bound_to 10713
  141.1676  133.8673  157.1669 LP  0  0  0  0  0  0  0  0  0  0  0  0  # atno 17394 bound_to 11000
  140.0024  135.0022  157.0220 LP  0  0  0  0  0  0  0  0  0  0  0  0  # atno 17395 bound_to 11000

$$$$
