AV-unprocessed.smi:2758|AV-procd|sdf|10622|dock9
  -GOLD-   2272015 73D 1   1.00000     0.00000
 Structure written by MMmdl.
 32 33  0  0  0  0  0  0  0  0  1 V2000
  146.0559  141.9002  155.7518 C   0  0  0  0  0  0  0  0  0  0  0  0
  147.4101  141.9579  155.3388 O   0  0  0  0  0  0  0  0  0  0  0  0
  148.1090  140.7518  155.6001 C   0  0  0  0  0  0  0  0  0  0  0  0
  149.4645  140.7861  154.8773 C   0  0  1  0  0  0  0  0  0  0  0  0
  149.2382  141.1296  153.5244 O   0  0  0  0  0  0  0  0  0  0  0  0
  150.4238  141.8163  155.5066 C   0  0  0  0  0  0  0  0  0  0  0  0
  151.2911  141.2307  156.5207 N   0  0  0  0  0  0  0  0  0  0  0  0
  152.0034  140.0781  156.4570 C   0  0  0  0  0  0  0  0  0  0  0  0
  151.9862  139.2011  155.2456 C   0  0  0  0  0  0  0  0  0  0  0  0
  152.7224  139.7782  157.5390 N   0  0  0  0  0  0  0  0  0  0  0  0
  152.4543  140.8376  158.3840 C   0  0  0  0  0  0  0  0  0  0  0  0
  152.9188  141.1106  159.6906 C   0  0  0  0  0  0  0  0  0  0  0  0
  152.5046  142.2774  160.3660 C   0  0  0  0  0  0  0  0  0  0  0  0
  151.6212  143.1854  159.7468 C   0  0  0  0  0  0  0  0  0  0  0  0
  151.1456  142.9320  158.4458 C   0  0  0  0  0  0  0  0  0  0  0  0
  151.5627  141.7662  157.7758 C   0  0  0  0  0  0  0  0  0  0  0  0
  149.9254  139.7983  154.9181 H   0  0  0  0  0  0  0  0  0  0  0  0
  145.5611  142.8428  155.5188 H   0  0  0  0  0  0  0  0  0  0  0  0
  145.9795  141.7375  156.8276 H   0  0  0  0  0  0  0  0  0  0  0  0
  145.5186  141.1023  155.2378 H   0  0  0  0  0  0  0  0  0  0  0  0
  148.2391  140.5892  156.6718 H   0  0  0  0  0  0  0  0  0  0  0  0
  147.5103  139.9229  155.2187 H   0  0  0  0  0  0  0  0  0  0  0  0
  149.3833  140.3605  152.9942 H   0  0  0  0  0  0  0  0  0  0  0  0
  151.0292  142.2944  154.7364 H   0  0  0  0  0  0  0  0  0  0  0  0
  149.8516  142.6156  155.9794 H   0  0  0  0  0  0  0  0  0  0  0  0
  152.5648  138.2937  155.4218 H   0  0  0  0  0  0  0  0  0  0  0  0
  152.4226  139.7259  154.3955 H   0  0  0  0  0  0  0  0  0  0  0  0
  150.9647  138.9128  154.9986 H   0  0  0  0  0  0  0  0  0  0  0  0
  153.5964  140.4217  160.1728 H   0  0  0  0  0  0  0  0  0  0  0  0
  152.8671  142.4768  161.3640 H   0  0  0  0  0  0  0  0  0  0  0  0
  151.3094  144.0770  160.2711 H   0  0  0  0  0  0  0  0  0  0  0  0
  150.4691  143.6250  157.9681 H   0  0  0  0  0  0  0  0  0  0  0  0
  1  2  1  0  0  0  0
  1 18  1  0  0  0  0
  1 19  1  0  0  0  0
  1 20  1  0  0  0  0
  2  3  1  0  0  0  0
  3  4  1  0  0  0  0
  3 21  1  0  0  0  0
  3 22  1  0  0  0  0
  4 17  1  0  0  0  0
  4  5  1  0  0  0  0
  4  6  1  0  0  0  0
  5 23  1  0  0  0  0
  6  7  1  0  0  0  0
  6 24  1  0  0  0  0
  6 25  1  0  0  0  0
  7 16  1  0  0  0  0
  7  8  1  0  0  0  0
  8  9  1  0  0  0  0
  8 10  2  0  0  0  0
  9 26  1  0  0  0  0
  9 27  1  0  0  0  0
  9 28  1  0  0  0  0
 10 11  1  0  0  0  0
 11 16  2  0  0  0  0
 11 12  1  0  0  0  0
 12 13  2  0  0  0  0
 12 29  1  0  0  0  0
 13 14  1  0  0  0  0
 13 30  1  0  0  0  0
 14 15  2  0  0  0  0
 14 31  1  0  0  0  0
 15 16  1  0  0  0  0
 15 32  1  0  0  0  0
M  END
> <s_m_source_file>
AV-unprocessed.smi

> <i_m_source_file_index>
2758

> <i_lp_mmshare_version>
43012

> <i_f3d_flags>
0

> <s_epik_input>
W0NIM11PW0NIMl1bQ0BASF0oW09IXSlbQ0gyXW4oYyhuMSlbQ0gzXSljKGMxMilbY0hdW2NIXVtjSF1bY0hdMg==

> <s_epik_cmdline>
J2VwaWtfcHl0aG9uJywgJy1waCcsICc3LjAnLCAnLXRuJywgJzgnLCAnLW1hJywgJzIwMCcsICctbWV0YWxfYmluZGluZycsICctaW1hZScsICc8aW5maWxlLm1hZT4nLCAnLW9tYWUnLCAnPG91dGZpbGUubWFlPic=

> <r_epik_Ionization_Penalty>
0.126985

> <r_epik_Ionization_Penalty_Charging>
0

> <r_epik_Ionization_Penalty_Neutral>
0.126985

> <r_epik_State_Penalty>
0.116428

> <r_epik_Charging_Adjusted_Penalty>
0.116428

> <i_epik_Tot_Q>
0

> <i_epik_Tot_abs_Q>
0

> <r_epik_Metal_State_Penalty>
0.000128642

> <b_epik_Metal_Only>
0

> <s_lp_Force_Field>
OPLS_2005

> <r_lp_Energy>
8.80871

> <b_lp_Chiralities_Consistent>
1

> <s_lp_Variant>
AV-unprocessed.smi:2758-1

> <Gold.Version>
5.8.1

> <Gold.Id.Protein>
6NUR|6NUR_protein|mol2

> <Gold.PLP.Fitness>
39.6483

> <Gold.PLP.PLP>
-32.9323

> <Gold.PLP.part.hbond>
-4.0000

> <Gold.PLP.part.metal>
0.0000

> <Gold.PLP.part.buried>
-3.7503

> <Gold.PLP.part.nonpolar>
-24.8660

> <Gold.PLP.part.repulsive>
0.3931

> <Gold.PLP.ligand.clash>
0.0000

> <Gold.PLP.ligand.torsion>
0.6765

> <Gold.PLP.Chemscore.Hbond>
2.6880

> <Gold.PLP.Chemscore.CHOScore>
0.0000

> <Gold.PLP.Chemscore.Metal>
0.0000

> <Gold.Chemscore.Hbonds>
donor molecule, donor type, donor heavy atom, donor atom, acceptor molecule, acceptor atom, score
      L1  H     5    23       P1  7957  0.69
      P1  H  7997  8009       L1    10  1.00
      P1  H  8011  8017       L1     5  0.95

> <Gold.PLP.Chemscore.Internal.Correction>
0.0050

> <Gold.Rescore>
     Score         DG    S(hbond)    S(metal)    S(lipo)     H(rot)  DE(clash)    DE(int)     intcor
     14.13     -15.95       1.86        0.00      81.38       2.05       1.32       0.49       ----

> <Gold.Chemscore.Fitness>
14.1311

> <Gold.Chemscore.DG>
-15.9468

> <Gold.Chemscore.ZeroCoef>
-5.4800

> <Gold.Chemscore.Hbond>
1.8555

> <Gold.Chemscore.Metal>
0.0000

> <Gold.Chemscore.Lipo>
81.3754

> <Gold.Chemscore.Internal_Hbond>
0.0000

> <Gold.Chemscore.DEClash>
1.3233

> <Gold.Chemscore.DEInternal>
0.4924

> <Gold.Chemscore.Rot>
2.0513

> <Gold.Chemscore.Internal.Correction>
   9.000000E+99

> <Gold.Chemscore.Hbonds>
donor molecule, donor type, donor heavy atom, donor atom, acceptor molecule, acceptor atom, score
      L1  H     5    23       P1  7957  0.70
      P1  H  7997  8009       L1    10  0.21
      P1  H  8011  8017       L1     5  0.21

> <Gold.Chemscore.Hbond.Weighted>
-6.1973

> <Gold.Chemscore.Metal.Weighted>
-0.0000

> <Gold.Chemscore.Lipo.Weighted>
-9.5209

> <Gold.Chemscore.Internal_Hbond.Weighted>
0.0000

> <Gold.Chemscore.DEClash.Weighted>
1.3233

> <Gold.Chemscore.DEInternal.Weighted>
0.4924

> <Gold.Chemscore.Rot.Weighted>
5.2514

> <Gold.Chemscore.Internal.Correction.Weighted>
   9.000000E+99

> <Gold.Protein.RotatedTorsions>
[ 6907 6896 6895 6894 ] final  -88.58 input  -60.11 | X-H torsion
[ 7974 7965 7964 7962 ] final   -0.18 input  175.53 | X-H torsion
[ 8008 7997 7996 7995 ] final  156.53 input   59.86 | X-H torsion
[ 10167 10162 10161 10158 ] final   41.61 input  -65.29 | X-H torsion
[ 10718 10713 10712 10709 ] final   86.01 input   66.30 | X-H torsion
[ 10763 10752 10751 10750 ] final   80.21 input  -60.55 | X-H torsion
[ 11005 11000 10999 10996 ] final  169.61 input  -57.11 | X-H torsion

> <Gold.Protein.ActiveResidues>
 VAL166  LYS551  ARG553  GLY616  TRP617  ASP618  TYR619  PRO620  LYS621  CYS622 
 ASP623  PHE694  ASN695  SER759  ASP760  ASP761  ALA762  ILE779  LEU786  VAL792 
 PHE793  MET794  SER795  GLU796  ALA797  LYS798  CYS799  TRP800  GLU811  SER814 

> <Gold.Protein.RotatedAtoms>
  150.6869  134.2719  159.4591 H   0  0  0  0  0  0  0  0  0  0  0  0  # atno 6907 bound_to 6896
  152.0641  134.9573  160.0584 H   0  0  0  0  0  0  0  0  0  0  0  0  # atno 6908 bound_to 6896
  152.0989  133.4204  159.4615 H   0  0  0  0  0  0  0  0  0  0  0  0  # atno 6909 bound_to 6896
  146.2429  140.1230  142.8340 H   0  0  0  0  0  0  0  0  0  0  0  0  # atno 7974 bound_to 7965
  156.2417  140.1910  156.6970 H   0  0  0  0  0  0  0  0  0  0  0  0  # atno 8008 bound_to 7997
  154.6210  140.0608  156.9641 H   0  0  0  0  0  0  0  0  0  0  0  0  # atno 8009 bound_to 7997
  155.1862  140.3280  155.4369 H   0  0  0  0  0  0  0  0  0  0  0  0  # atno 8010 bound_to 7997
  140.3626  144.2209  150.6137 H   0  0  0  0  0  0  0  0  0  0  0  0  # atno 10167 bound_to 10162
  157.6923  131.0198  150.2908 H   0  0  0  0  0  0  0  0  0  0  0  0  # atno 10718 bound_to 10713
  153.1015  135.4811  154.8875 H   0  0  0  0  0  0  0  0  0  0  0  0  # atno 10763 bound_to 10752
  154.7383  135.3076  154.8774 H   0  0  0  0  0  0  0  0  0  0  0  0  # atno 10764 bound_to 10752
  153.9390  135.6836  153.4798 H   0  0  0  0  0  0  0  0  0  0  0  0  # atno 10765 bound_to 10752
  140.2996  134.7606  157.3905 H   0  0  0  0  0  0  0  0  0  0  0  0  # atno 11005 bound_to 11000
  145.0390  140.8930  143.5064 LP  0  0  0  0  0  0  0  0  0  0  0  0  # atno 17320 bound_to 7965
  145.1308  139.2633  143.5540 LP  0  0  0  0  0  0  0  0  0  0  0  0  # atno 17321 bound_to 7965
  140.5112  143.2290  151.8532 LP  0  0  0  0  0  0  0  0  0  0  0  0  # atno 17342 bound_to 10162
  139.4812  144.4947  151.9139 LP  0  0  0  0  0  0  0  0  0  0  0  0  # atno 17343 bound_to 10162
  156.3439  130.3820  149.7385 LP  0  0  0  0  0  0  0  0  0  0  0  0  # atno 17370 bound_to 10713
  156.4885  130.8074  151.3085 LP  0  0  0  0  0  0  0  0  0  0  0  0  # atno 17371 bound_to 10713
  140.1121  134.5331  155.8256 LP  0  0  0  0  0  0  0  0  0  0  0  0  # atno 17394 bound_to 11000
  141.2131  133.6728  156.6709 LP  0  0  0  0  0  0  0  0  0  0  0  0  # atno 17395 bound_to 11000

$$$$
