#       Name:                AV-unprocessed.smi:2725
#       Creating user name   scv26
#       Creation time:       Fri Mar 27 14:56:01 2020


#       File generated by GOLD software.
#

@<TRIPOS>MOLECULE
AV-unprocessed.smi:2725
    49    50     1
SMALL
NO_CHARGES


@<TRIPOS>ATOM
      1 ****         0.0487   1.6778   0.4983 O.2            1 S1                 0.0000
      2 ****        -0.2864   0.5648   0.0928 C.2            1 S1                 0.0000
      3 ****        -1.7674   0.1897  -0.0163 C.3            1 S1                 0.0000
      4 ****        -2.6225   0.7903   1.1156 C.3            1 S1                 0.0000
      5 ****        -4.0985   0.3593   1.0528 C.3            1 S1                 0.0000
      6 ****        -4.8660   0.8964  -0.1603 C.3            1 S1                 0.0000
      7 ****        -6.3471   0.8509   0.2368 C.3            1 S1                 0.0000
      8 ****        -6.3828   0.7401   1.7686 C.3            1 S1                 0.0000
      9 ****        -4.9298   0.8595   2.2357 C.3            1 S1                 0.0000
     10 ****         0.5950  -0.3778  -0.2779 N.am           1 S1                 0.0000
     11 ****         2.0495  -0.2310  -0.2662 C.3            1 S1                 0.0000
     12 ****         2.5916  -0.5148   1.1537 C.3            1 S1                 0.0000
     13 ****         3.8307   0.1289   1.3640 O.3            1 S1                 0.0000
     14 ****         2.6456  -1.1419  -1.3614 C.3            1 S1                 0.0000
     15 ****         4.1318  -0.9358  -1.5954 C.ar           1 S1                 0.0000
     16 ****         4.6172   0.0558  -2.4753 C.ar           1 S1                 0.0000
     17 ****         6.0095   0.2095  -2.6410 C.ar           1 S1                 0.0000
     18 ****         6.8867  -0.6299  -1.9238 C.ar           1 S1                 0.0000
     19 ****         6.3484  -1.6028  -1.0572 C.ar           1 S1                 0.0000
     20 ****         5.0087  -1.7194  -0.9258 N.pl3          1 S1                 1.0000
     21 ****        -2.1320   0.5310  -0.9854 H              1 S1                 0.0000
     22 ****        -1.8663  -0.8968  -0.0095 H              1 S1                 0.0000
     23 ****        -2.2080   0.4826   2.0769 H              1 S1                 0.0000
     24 ****        -2.5619   1.8794   1.0933 H              1 S1                 0.0000
     25 ****        -4.1525  -0.7306   1.0414 H              1 S1                 0.0000
     26 ****        -4.5770   1.9303  -0.3542 H              1 S1                 0.0000
     27 ****        -4.6642   0.3249  -1.0668 H              1 S1                 0.0000
     28 ****        -6.8715   1.7400  -0.1150 H              1 S1                 0.0000
     29 ****        -6.8376  -0.0145  -0.2103 H              1 S1                 0.0000
     30 ****        -7.0180   1.5008   2.2239 H              1 S1                 0.0000
     31 ****        -6.7835  -0.2331   2.0547 H              1 S1                 0.0000
     32 ****        -4.7393   0.2960   3.1496 H              1 S1                 0.0000
     33 ****        -4.6978   1.9062   2.4386 H              1 S1                 0.0000
     34 ****         0.2291  -1.2630  -0.5975 H              1 S1                 0.0000
     35 ****         2.2747   0.8043  -0.5319 H              1 S1                 0.0000
     36 ****         1.9086  -0.1284   1.9112 H              1 S1                 0.0000
     37 ****         2.6897  -1.5853   1.3352 H              1 S1                 0.0000
     38 ****         4.0753   0.0208   2.2707 H              1 S1                 0.0000
     39 ****         2.4633  -2.1897  -1.1174 H              1 S1                 0.0000
     40 ****         2.1326  -0.9614  -2.3074 H              1 S1                 0.0000
     41 ****         3.9323   0.6947  -3.0139 H              1 S1                 0.0000
     42 ****         6.3995   0.9634  -3.3092 H              1 S1                 0.0000
     43 ****         7.9563  -0.5274  -2.0356 H              1 S1                 0.0000
     44 ****         6.9441  -2.2847  -0.4681 H              1 S1                 0.0000
     45 ****         4.6420  -2.4269  -0.2889 H              1 S1                 0.0000
     46 ****        -0.6484   2.3454   0.7596 LP             1 S1                 0.0000
     47 ****         1.0179   1.9142   0.5663 LP             1 S1                 0.0000
     48 ****         3.7453   1.1023   1.1515 LP             1 S1                 0.0000
     49 ****         4.5277  -0.2809   0.7755 LP             1 S1                 0.0000
@<TRIPOS>BOND
    1    1    2 2     
    2    2    3 1     
    3    2   10 am    
    4    3    4 1     
    5    3   21 1     
    6    3   22 1     
    7    4    5 1     
    8    4   23 1     
    9    4   24 1     
   10    5    9 1     
   11    5    6 1     
   12    5   25 1     
   13    6    7 1     
   14    6   26 1     
   15    6   27 1     
   16    7    8 1     
   17    7   28 1     
   18    7   29 1     
   19    8    9 1     
   20    8   30 1     
   21    8   31 1     
   22    9   32 1     
   23    9   33 1     
   24   10   11 1     
   25   10   34 1     
   26   11   12 1     
   27   11   14 1     
   28   11   35 1     
   29   12   13 1     
   30   12   36 1     
   31   12   37 1     
   32   13   38 1     
   33   14   15 1     
   34   14   39 1     
   35   14   40 1     
   36   15   20 ar    
   37   15   16 ar    
   38   16   17 ar    
   39   16   41 1     
   40   17   18 ar    
   41   17   42 1     
   42   18   19 ar    
   43   18   43 1     
   44   19   20 ar    
   45   19   44 1     
   46   20   45 1     
   47    1   46 1     
   48    1   47 1     
   49   13   48 1     
   50   13   49 1     
@<TRIPOS>SUBSTRUCTURE
      1 S1             1
@<TRIPOS>SET
LONE_PAIRS      STATIC     ATOMS    <user>   **** ""
4 46 47 48 49
DONOR_HYDROGENS      STATIC     ATOMS    <user>   **** ""
3 34 38 45
ATOM$BLUE        STATIC     ATOMS    COLORGROUP SYSTEM
4 46 47 48 49
ATOM$RED        STATIC     ATOMS    COLORGROUP SYSTEM
3 34 38 45
