AV-unprocessed.smi:3249|AV-procd|sdf|12421|dock5
  -GOLD-   2272018303D 1   1.00000     0.00000
 Structure written by MMmdl.
 44 45  0  0  0  0  0  0  0  0  2 V2000
  153.5679  142.8557  163.3171 C   0  0  0  0  0  0  0  0  0  0  0  0
  153.0125  142.8871  161.9223 C   0  0  0  0  0  0  0  0  0  0  0  0
  153.4120  142.1035  160.8028 C   0  0  0  0  0  0  0  0  0  0  0  0
  152.7174  142.3766  159.7106 N   0  0  0  0  0  0  0  0  0  0  0  0
  151.8543  143.3440  160.0883 N   0  0  0  0  0  0  0  0  0  0  0  0
  150.9090  143.8875  159.1214 C   0  0  2  0  0  0  0  0  0  0  0  0
  150.0708  144.9985  159.7802 C   0  0  0  0  0  0  0  0  0  0  0  0
  150.0433  142.7736  158.4748 C   0  0  2  0  0  0  0  0  0  0  0  0
  150.7600  142.0390  157.3273 C   0  0  0  0  0  0  0  0  0  0  0  0
  148.7764  143.3389  157.9592 N   0  3  0  0  0  0  0  0  0  0  0  0
  147.6075  142.4410  158.0595 C   0  0  0  0  0  0  0  0  0  0  0  0
  146.5262  143.0449  158.9654 C   0  0  1  0  0  0  0  0  0  0  0  0
  145.1762  142.3189  158.8080 C   0  0  0  0  0  0  0  0  0  0  0  0
  144.1455  142.8752  159.7967 C   0  0  0  0  0  0  0  0  0  0  0  0
  144.7182  142.8346  161.2174 C   0  0  0  0  0  0  0  0  0  0  0  0
  146.0912  143.5237  161.2602 C   0  0  0  0  0  0  0  0  0  0  0  0
  146.9679  142.9165  160.3156 O   0  0  0  0  0  0  0  0  0  0  0  0
  152.0100  143.6678  161.4214 C   0  0  0  0  0  0  0  0  0  0  0  0
  154.3752  142.1297  163.4167 H   0  0  0  0  0  0  0  0  0  0  0  0
  152.8040  142.5893  164.0477 H   0  0  0  0  0  0  0  0  0  0  0  0
  153.9708  143.8251  163.6110 H   0  0  0  0  0  0  0  0  0  0  0  0
  154.1819  141.3476  160.7528 H   0  0  0  0  0  0  0  0  0  0  0  0
  151.4945  144.3556  158.3271 H   0  0  0  0  0  0  0  0  0  0  0  0
  149.4592  145.5255  159.0477 H   0  0  0  0  0  0  0  0  0  0  0  0
  150.7123  145.7415  160.2556 H   0  0  0  0  0  0  0  0  0  0  0  0
  149.4038  144.5983  160.5443 H   0  0  0  0  0  0  0  0  0  0  0  0
  149.8163  142.0252  159.2365 H   0  0  0  0  0  0  0  0  0  0  0  0
  151.6476  141.5102  157.6751 H   0  0  0  0  0  0  0  0  0  0  0  0
  151.0716  142.7334  156.5463 H   0  0  0  0  0  0  0  0  0  0  0  0
  150.1063  141.2955  156.8700 H   0  0  0  0  0  0  0  0  0  0  0  0
  148.5764  144.1876  158.4696 H   0  0  0  0  0  0  0  0  0  0  0  0
  147.2084  142.2809  157.0570 H   0  0  0  0  0  0  0  0  0  0  0  0
  147.9139  141.4670  158.4430 H   0  0  0  0  0  0  0  0  0  0  0  0
  146.4007  144.1014  158.7204 H   0  0  0  0  0  0  0  0  0  0  0  0
  144.8060  142.4232  157.7876 H   0  0  0  0  0  0  0  0  0  0  0  0
  145.3091  141.2507  158.9842 H   0  0  0  0  0  0  0  0  0  0  0  0
  143.8971  143.9032  159.5293 H   0  0  0  0  0  0  0  0  0  0  0  0
  143.2186  142.3036  159.7432 H   0  0  0  0  0  0  0  0  0  0  0  0
  144.0317  143.3145  161.9155 H   0  0  0  0  0  0  0  0  0  0  0  0
  144.8215  141.7983  161.5415 H   0  0  0  0  0  0  0  0  0  0  0  0
  145.9988  144.5910  161.0535 H   0  0  0  0  0  0  0  0  0  0  0  0
  146.5262  143.4290  162.2553 H   0  0  0  0  0  0  0  0  0  0  0  0
  151.4010  144.4203  161.9004 H   0  0  0  0  0  0  0  0  0  0  0  0
  148.9064  143.5764  156.9860 H   0  0  0  0  0  0  0  0  0  0  0  0
  1  2  1  0  0  0  0
  1 19  1  0  0  0  0
  1 20  1  0  0  0  0
  1 21  1  0  0  0  0
  2 18  2  0  0  0  0
  2  3  1  0  0  0  0
  3  4  2  0  0  0  0
  3 22  1  0  0  0  0
  4  5  1  0  0  0  0
  5  6  1  0  0  0  0
  5 18  1  0  0  0  0
  6  7  1  0  0  0  0
  6  8  1  0  0  0  0
  6 23  1  0  0  0  0
  7 24  1  0  0  0  0
  7 25  1  0  0  0  0
  7 26  1  0  0  0  0
  8  9  1  0  0  0  0
  8 10  1  0  0  0  0
  8 27  1  0  0  0  0
  9 28  1  0  0  0  0
  9 29  1  0  0  0  0
  9 30  1  0  0  0  0
 10 11  1  0  0  0  0
 10 31  1  0  0  0  0
 10 44  1  0  0  0  0
 11 12  1  0  0  0  0
 11 32  1  0  0  0  0
 11 33  1  0  0  0  0
 12 17  1  0  0  0  0
 12 13  1  0  0  0  0
 12 34  1  0  0  0  0
 13 14  1  0  0  0  0
 13 35  1  0  0  0  0
 13 36  1  0  0  0  0
 14 15  1  0  0  0  0
 14 37  1  0  0  0  0
 14 38  1  0  0  0  0
 15 16  1  0  0  0  0
 15 39  1  0  0  0  0
 15 40  1  0  0  0  0
 16 17  1  0  0  0  0
 16 41  1  0  0  0  0
 16 42  1  0  0  0  0
 18 43  1  0  0  0  0
M  CHG  1  10   1
M  END
> <s_m_source_file>
AV-unprocessed.smi

> <i_m_source_file_index>
3249

> <i_lp_mmshare_version>
43012

> <i_f3d_flags>
0

> <s_epik_input>
W0NIM11jMVtjSF1ubihbY0hdMSlbQ0BIXShbQ0gzXSlbQ0BIXShbQ0gzXSlbTkhdW0NIMl1bQ0BASF0yW0NIMl1bQ0gyXVtDSDJdW0NIMl1PMg==

> <s_epik_cmdline>
J2VwaWtfcHl0aG9uJywgJy1waCcsICc3LjAnLCAnLXRuJywgJzgnLCAnLW1hJywgJzIwMCcsICctbWV0YWxfYmluZGluZycsICctaW1hZScsICc8aW5maWxlLm1hZT4nLCAnLW9tYWUnLCAnPG91dGZpbGUubWFlPic=

> <r_lp_tautomer_probability>
1

> <r_epik_Ionization_Penalty>
0.00659207

> <r_epik_Ionization_Penalty_Charging>
0.00656881

> <r_epik_Ionization_Penalty_Neutral>
2.32662e-05

> <r_epik_State_Penalty>
0.0048654

> <r_epik_Charging_Adjusted_Penalty>
0.0114342

> <i_epik_Tot_Q>
1

> <i_epik_Tot_abs_Q>
1

> <r_epik_Metal_State_Penalty>
-0

> <b_epik_Metal_Only>
0

> <s_lp_Force_Field>
OPLS_2005

> <r_lp_Energy>
18.8744

> <b_lp_Chiralities_Consistent>
1

> <s_lp_Variant>
AV-unprocessed.smi:3249-5

> <Gold.Version>
5.8.1

> <Gold.Id.Protein>
6NUR|6NUR_protein|mol2

> <Gold.PLP.Fitness>
50.0072

> <Gold.PLP.PLP>
-40.7110

> <Gold.PLP.part.hbond>
-4.0000

> <Gold.PLP.part.metal>
0.0000

> <Gold.PLP.part.buried>
-5.9454

> <Gold.PLP.part.nonpolar>
-30.3157

> <Gold.PLP.part.repulsive>
0.0892

> <Gold.PLP.ligand.clash>
0.0000

> <Gold.PLP.ligand.torsion>
1.4496

> <Gold.PLP.Chemscore.Hbond>
4.0207

> <Gold.PLP.Chemscore.CHOScore>
0.0000

> <Gold.PLP.Chemscore.Metal>
0.0000

> <Gold.Chemscore.Hbonds>
donor molecule, donor type, donor heavy atom, donor atom, acceptor molecule, acceptor atom, score
      L1  H    10    31       P1  8029  0.32
      L1  H    10    44       P1  8028  2.00
      P1  H  6933  6944       L1    17  0.93
      P1  H  6934  6946       L1    17  0.74

> <Gold.PLP.Chemscore.Internal.Correction>
0.1333

> <Gold.Rescore>
     Score         DG    S(hbond)    S(metal)    S(lipo)     H(rot)  DE(clash)    DE(int)     intcor
     16.20     -17.99       1.50        0.00      97.63       1.53       0.01       1.79       ----

> <Gold.Chemscore.Fitness>
16.1969

> <Gold.Chemscore.DG>
-17.9948

> <Gold.Chemscore.ZeroCoef>
-5.4800

> <Gold.Chemscore.Hbond>
1.5023

> <Gold.Chemscore.Metal>
0.0000

> <Gold.Chemscore.Lipo>
97.6261

> <Gold.Chemscore.Internal_Hbond>
0.0000

> <Gold.Chemscore.DEClash>
0.0097

> <Gold.Chemscore.DEInternal>
1.7882

> <Gold.Chemscore.Rot>
1.5333

> <Gold.Chemscore.Internal.Correction>
   9.000000E+99

> <Gold.Chemscore.Hbonds>
donor molecule, donor type, donor heavy atom, donor atom, acceptor molecule, acceptor atom, score
      L1  H    10    31       P1  8029  0.09
      L1  H    10    44       P1  8028  0.47
      P1  H  6933  6944       L1    17  0.35
      P1  H  6934  6946       L1    17  0.22

> <Gold.Chemscore.Hbond.Weighted>
-5.0177

> <Gold.Chemscore.Metal.Weighted>
-0.0000

> <Gold.Chemscore.Lipo.Weighted>
-11.4223

> <Gold.Chemscore.Internal_Hbond.Weighted>
0.0000

> <Gold.Chemscore.DEClash.Weighted>
0.0097

> <Gold.Chemscore.DEInternal.Weighted>
1.7882

> <Gold.Chemscore.Rot.Weighted>
3.9252

> <Gold.Chemscore.Internal.Correction.Weighted>
   9.000000E+99

> <Gold.Protein.RotatedTorsions>
[ 6907 6896 6895 6894 ] final -156.66 input  -60.11 | X-H torsion
[ 7974 7965 7964 7962 ] final  135.23 input  175.53 | X-H torsion
[ 8008 7997 7996 7995 ] final  119.27 input   59.86 | X-H torsion
[ 10167 10162 10161 10158 ] final -152.47 input  -65.29 | X-H torsion
[ 10718 10713 10712 10709 ] final   17.82 input   66.30 | X-H torsion
[ 10763 10752 10751 10750 ] final  170.99 input  -60.55 | X-H torsion
[ 11005 11000 10999 10996 ] final   13.50 input  -57.11 | X-H torsion

> <Gold.Protein.ActiveResidues>
 VAL166  LYS551  ARG553  GLY616  TRP617  ASP618  TYR619  PRO620  LYS621  CYS622 
 ASP623  PHE694  ASN695  SER759  ASP760  ASP761  ALA762  ILE779  LEU786  VAL792 
 PHE793  MET794  SER795  GLU796  ALA797  LYS798  CYS799  TRP800  GLU811  SER814 

> <Gold.Protein.RotatedAtoms>
  151.2910  133.4165  159.2632 H   0  0  0  0  0  0  0  0  0  0  0  0  # atno 6907 bound_to 6896
  151.0278  134.9517  159.8105 H   0  0  0  0  0  0  0  0  0  0  0  0  # atno 6908 bound_to 6896
  152.5339  134.2871  159.9082 H   0  0  0  0  0  0  0  0  0  0  0  0  # atno 6909 bound_to 6896
  144.9684  139.4632  143.5445 H   0  0  0  0  0  0  0  0  0  0  0  0  # atno 7974 bound_to 7965
  156.2588  140.2856  156.0966 H   0  0  0  0  0  0  0  0  0  0  0  0  # atno 8008 bound_to 7997
  155.1405  140.0395  157.2815 H   0  0  0  0  0  0  0  0  0  0  0  0  # atno 8009 bound_to 7997
  154.6533  140.2549  155.7196 H   0  0  0  0  0  0  0  0  0  0  0  0  # atno 8010 bound_to 7997
  139.7179  143.9004  152.2493 H   0  0  0  0  0  0  0  0  0  0  0  0  # atno 10167 bound_to 10162
  157.0876  130.6414  149.5841 H   0  0  0  0  0  0  0  0  0  0  0  0  # atno 10718 bound_to 10713
  154.4055  135.2755  155.2070 H   0  0  0  0  0  0  0  0  0  0  0  0  # atno 10763 bound_to 10752
  154.4077  135.6029  153.5938 H   0  0  0  0  0  0  0  0  0  0  0  0  # atno 10764 bound_to 10752
  152.9831  135.5942  154.4329 H   0  0  0  0  0  0  0  0  0  0  0  0  # atno 10765 bound_to 10752
  140.4801  134.0944  155.7749 H   0  0  0  0  0  0  0  0  0  0  0  0  # atno 11005 bound_to 11000
  146.3375  139.8881  142.8813 LP  0  0  0  0  0  0  0  0  0  0  0  0  # atno 17320 bound_to 7965
  145.2595  141.0072  143.3835 LP  0  0  0  0  0  0  0  0  0  0  0  0  # atno 17321 bound_to 7965
  139.8891  144.6975  150.8790 LP  0  0  0  0  0  0  0  0  0  0  0  0  # atno 17342 bound_to 10162
  140.7747  143.3600  151.1846 LP  0  0  0  0  0  0  0  0  0  0  0  0  # atno 17343 bound_to 10162
  155.9906  130.4958  150.7266 LP  0  0  0  0  0  0  0  0  0  0  0  0  # atno 17370 bound_to 10713
  157.4748  131.0896  151.0602 LP  0  0  0  0  0  0  0  0  0  0  0  0  # atno 17371 bound_to 10713
  141.1535  133.8925  157.2036 LP  0  0  0  0  0  0  0  0  0  0  0  0  # atno 17394 bound_to 11000
  139.9832  135.0091  156.9800 LP  0  0  0  0  0  0  0  0  0  0  0  0  # atno 17395 bound_to 11000

$$$$
