AV-unprocessed.smi:1824|AV-procd|sdf|7409|dock4
  -GOLD-   22720 9 83D 1   1.00000     0.00000
 Structure written by MMmdl.
 45 47  0  0  0  0  0  0  0  0  2 V2000
  146.4036  142.0751  155.1925 C   0  0  0  0  0  0  0  0  0  0  0  0
  147.7725  141.5663  154.7094 C   0  0  2  0  0  0  0  0  0  0  0  0
  147.6908  140.7165  153.4259 C   0  0  0  0  0  0  0  0  0  0  0  0
  147.1358  139.3872  153.6598 N   0  0  0  0  0  0  0  0  0  0  0  0
  147.0785  138.6224  152.4127 C   0  0  0  0  0  0  0  0  0  0  0  0
  146.3069  137.2897  152.4855 C   0  0  1  0  0  0  0  0  0  0  0  0
  144.9230  137.5787  152.5139 O   0  0  0  0  0  0  0  0  0  0  0  0
  146.6206  136.3906  151.2737 C   0  0  0  0  0  0  0  0  0  0  0  0
  145.7906  135.1778  151.2307 N   0  0  0  0  0  0  0  0  0  0  0  0
  144.5503  134.9941  150.7021 C   0  0  0  0  0  0  0  0  0  0  0  0
  144.2021  133.6943  150.9111 N   0  3  0  0  0  0  0  0  0  0  0  0
  145.2358  133.0364  151.5815 C   0  0  0  0  0  0  0  0  0  0  0  0
  145.3497  131.7178  152.0100 C   0  0  0  0  0  0  0  0  0  0  0  0
  146.5474  131.3638  152.6653 C   0  0  0  0  0  0  0  0  0  0  0  0
  146.7110  130.0926  153.1020 F   0  0  0  0  0  0  0  0  0  0  0  0
  147.5763  132.3066  152.8732 C   0  0  0  0  0  0  0  0  0  0  0  0
  148.7114  131.9244  153.5050 F   0  0  0  0  0  0  0  0  0  0  0  0
  147.4483  133.6413  152.4357 C   0  0  0  0  0  0  0  0  0  0  0  0
  146.2609  133.9831  151.7894 C   0  0  0  0  0  0  0  0  0  0  0  0
  147.9234  138.7240  154.6957 C   0  0  0  0  0  0  0  0  0  0  0  0
  147.9625  139.5399  156.0010 C   0  0  1  0  0  0  0  0  0  0  0  0
  148.8647  138.8933  157.0575 C   0  0  0  0  0  0  0  0  0  0  0  0
  148.4639  140.8478  155.7320 O   0  0  0  0  0  0  0  0  0  0  0  0
  145.9386  142.7099  154.4379 H   0  0  0  0  0  0  0  0  0  0  0  0
  146.5075  142.6662  156.1025 H   0  0  0  0  0  0  0  0  0  0  0  0
  145.7121  141.2591  155.4009 H   0  0  0  0  0  0  0  0  0  0  0  0
  148.3786  142.4458  154.4901 H   0  0  0  0  0  0  0  0  0  0  0  0
  147.0962  141.2440  152.6790 H   0  0  0  0  0  0  0  0  0  0  0  0
  148.6933  140.6198  153.0055 H   0  0  0  0  0  0  0  0  0  0  0  0
  146.6161  139.2341  151.6362 H   0  0  0  0  0  0  0  0  0  0  0  0
  148.0956  138.4306  152.0676 H   0  0  0  0  0  0  0  0  0  0  0  0
  146.5621  136.7414  153.3913 H   0  0  0  0  0  0  0  0  0  0  0  0
  144.8115  138.5066  152.3698 H   0  0  0  0  0  0  0  0  0  0  0  0
  146.5133  136.9353  150.3353 H   0  0  0  0  0  0  0  0  0  0  0  0
  147.6600  136.0631  151.3174 H   0  0  0  0  0  0  0  0  0  0  0  0
  143.9504  135.7443  150.2067 H   0  0  0  0  0  0  0  0  0  0  0  0
  144.5653  130.9923  151.8518 H   0  0  0  0  0  0  0  0  0  0  0  0
  148.2456  134.3517  152.5947 H   0  0  0  0  0  0  0  0  0  0  0  0
  147.5099  137.7419  154.9191 H   0  0  0  0  0  0  0  0  0  0  0  0
  148.9409  138.5602  154.3369 H   0  0  0  0  0  0  0  0  0  0  0  0
  146.9553  139.6161  156.4120 H   0  0  0  0  0  0  0  0  0  0  0  0
  148.5183  137.8906  157.3097 H   0  0  0  0  0  0  0  0  0  0  0  0
  148.8732  139.4817  157.9752 H   0  0  0  0  0  0  0  0  0  0  0  0
  149.8929  138.8136  156.7033 H   0  0  0  0  0  0  0  0  0  0  0  0
  143.3231  133.2888  150.6155 H   0  0  0  0  0  0  0  0  0  0  0  0
  1  2  1  0  0  0  0
  1 24  1  0  0  0  0
  1 25  1  0  0  0  0
  1 26  1  0  0  0  0
  2 23  1  0  0  0  0
  2  3  1  0  0  0  0
  2 27  1  0  0  0  0
  3  4  1  0  0  0  0
  3 28  1  0  0  0  0
  3 29  1  0  0  0  0
  4  5  1  0  0  0  0
  4 20  1  0  0  0  0
  5  6  1  0  0  0  0
  5 30  1  0  0  0  0
  5 31  1  0  0  0  0
  6  7  1  0  0  0  0
  6  8  1  0  0  0  0
  6 32  1  0  0  0  0
  7 33  1  0  0  0  0
  8  9  1  0  0  0  0
  8 34  1  0  0  0  0
  8 35  1  0  0  0  0
  9 19  1  0  0  0  0
  9 10  1  0  0  0  0
 10 11  2  0  0  0  0
 10 36  1  0  0  0  0
 11 12  1  0  0  0  0
 11 45  1  0  0  0  0
 12 19  2  0  0  0  0
 12 13  1  0  0  0  0
 13 14  2  0  0  0  0
 13 37  1  0  0  0  0
 14 15  1  0  0  0  0
 14 16  1  0  0  0  0
 16 17  1  0  0  0  0
 16 18  2  0  0  0  0
 18 19  1  0  0  0  0
 18 38  1  0  0  0  0
 20 21  1  0  0  0  0
 20 39  1  0  0  0  0
 20 40  1  0  0  0  0
 21 22  1  0  0  0  0
 21 23  1  0  0  0  0
 21 41  1  0  0  0  0
 22 42  1  0  0  0  0
 22 43  1  0  0  0  0
 22 44  1  0  0  0  0
M  CHG  1  11   1
M  END
> <s_m_source_file>
AV-unprocessed.smi

> <i_m_source_file_index>
1824

> <i_lp_mmshare_version>
43012

> <i_f3d_flags>
0

> <s_epik_input>
W0NIM11bQ0BASF0xW0NIMl1OKFtDSDJdW0NASF0oTzEpW0NIM10pW0NIMl1bQ0BIXShbT0hdKVtDSDJdbihbY0hdbjIpYyhjMjMpW2NIXWMoRiljKEYpW2NIXTM=

> <s_epik_cmdline>
J2VwaWtfcHl0aG9uJywgJy1waCcsICc3LjAnLCAnLXRuJywgJzgnLCAnLW1hJywgJzIwMCcsICctbWV0YWxfYmluZGluZycsICctaW1hZScsICc8aW5maWxlLm1hZT4nLCAnLW9tYWUnLCAnPG91dGZpbGUubWFlPic=

> <r_epik_Ionization_Penalty>
2.58709

> <r_epik_Ionization_Penalty_Charging>
2.37273

> <r_epik_Ionization_Penalty_Neutral>
0.214359

> <r_epik_State_Penalty>
2.71799

> <r_epik_Charging_Adjusted_Penalty>
5.09071

> <i_epik_Tot_Q>
1

> <i_epik_Tot_abs_Q>
1

> <r_epik_Metal_State_Penalty>
6.80217

> <b_epik_Metal_Only>
0

> <s_lp_Force_Field>
OPLS_2005

> <r_lp_Energy>
35.2621

> <b_lp_Chiralities_Consistent>
1

> <s_lp_Variant>
AV-unprocessed.smi:1824-17

> <Gold.Version>
5.8.1

> <Gold.Id.Protein>
6NUR|6NUR_protein|mol2

> <Gold.PLP.Fitness>
49.3500

> <Gold.PLP.PLP>
-39.3732

> <Gold.PLP.part.hbond>
-3.0000

> <Gold.PLP.part.metal>
0.0000

> <Gold.PLP.part.buried>
-1.0577

> <Gold.PLP.part.nonpolar>
-36.3295

> <Gold.PLP.part.repulsive>
0.2631

> <Gold.PLP.ligand.clash>
0.0000

> <Gold.PLP.ligand.torsion>
0.5279

> <Gold.PLP.Chemscore.Hbond>
2.6640

> <Gold.PLP.Chemscore.CHOScore>
1.0000

> <Gold.PLP.Chemscore.Metal>
0.0000

> <Gold.Chemscore.Hbonds>
donor molecule, donor type, donor heavy atom, donor atom, acceptor molecule, acceptor atom, score
      L1  H     7    33       P1 10175  0.44
      L1  C    10    36       P1 10171  0.21

> <Gold.PLP.Chemscore.Internal.Correction>
0.0406

> <Gold.Rescore>
     Score         DG    S(hbond)    S(metal)    S(lipo)     H(rot)  DE(clash)    DE(int)     intcor
     12.82     -14.93       1.66        0.00      84.10       2.32       1.67       0.45       ----

> <Gold.Chemscore.Fitness>
12.8157

> <Gold.Chemscore.DG>
-14.9339

> <Gold.Chemscore.ZeroCoef>
-5.4800

> <Gold.Chemscore.Hbond>
1.6634

> <Gold.Chemscore.Metal>
0.0000

> <Gold.Chemscore.Lipo>
84.1009

> <Gold.Chemscore.Internal_Hbond>
0.0000

> <Gold.Chemscore.DEClash>
1.6691

> <Gold.Chemscore.DEInternal>
0.4491

> <Gold.Chemscore.Rot>
2.3210

> <Gold.Chemscore.Internal.Correction>
   9.000000E+99

> <Gold.Chemscore.Hbonds>
donor molecule, donor type, donor heavy atom, donor atom, acceptor molecule, acceptor atom, score
      L1  H     7    33       P1 10175  0.42

> <Gold.Chemscore.Hbond.Weighted>
-5.5557

> <Gold.Chemscore.Metal.Weighted>
-0.0000

> <Gold.Chemscore.Lipo.Weighted>
-9.8398

> <Gold.Chemscore.Internal_Hbond.Weighted>
0.0000

> <Gold.Chemscore.DEClash.Weighted>
1.6691

> <Gold.Chemscore.DEInternal.Weighted>
0.4491

> <Gold.Chemscore.Rot.Weighted>
5.9416

> <Gold.Chemscore.Internal.Correction.Weighted>
   9.000000E+99

> <Gold.Protein.RotatedTorsions>
[ 6907 6896 6895 6894 ] final -139.39 input  -60.11 | X-H torsion
[ 7974 7965 7964 7962 ] final  -55.41 input  175.53 | X-H torsion
[ 8008 7997 7996 7995 ] final  -59.09 input   59.86 | X-H torsion
[ 10167 10162 10161 10158 ] final  -68.48 input  -65.29 | X-H torsion
[ 10718 10713 10712 10709 ] final   58.92 input   66.30 | X-H torsion
[ 10763 10752 10751 10750 ] final  113.26 input  -60.55 | X-H torsion
[ 11005 11000 10999 10996 ] final  -93.57 input  -57.11 | X-H torsion

> <Gold.Protein.ActiveResidues>
 VAL166  LYS551  ARG553  GLY616  TRP617  ASP618  TYR619  PRO620  LYS621  CYS622 
 ASP623  PHE694  ASN695  SER759  ASP760  ASP761  ALA762  ILE779  LEU786  VAL792 
 PHE793  MET794  SER795  GLU796  ALA797  LYS798  CYS799  TRP800  GLU811  SER814 

> <Gold.Protein.RotatedAtoms>
  151.0471  133.5656  159.2645 H   0  0  0  0  0  0  0  0  0  0  0  0  # atno 6907 bound_to 6896
  151.2680  135.0675  159.9133 H   0  0  0  0  0  0  0  0  0  0  0  0  # atno 6908 bound_to 6896
  152.5375  134.0206  159.8034 H   0  0  0  0  0  0  0  0  0  0  0  0  # atno 6909 bound_to 6896
  145.8744  140.8191  142.9871 H   0  0  0  0  0  0  0  0  0  0  0  0  # atno 7974 bound_to 7965
  154.4337  140.1069  156.6060 H   0  0  0  0  0  0  0  0  0  0  0  0  # atno 8008 bound_to 7997
  155.5860  140.3491  155.4534 H   0  0  0  0  0  0  0  0  0  0  0  0  # atno 8009 bound_to 7997
  156.0282  140.1255  157.0275 H   0  0  0  0  0  0  0  0  0  0  0  0  # atno 8010 bound_to 7997
  140.5504  143.2312  151.6922 H   0  0  0  0  0  0  0  0  0  0  0  0  # atno 10167 bound_to 10162
  157.5634  130.8853  149.9148 H   0  0  0  0  0  0  0  0  0  0  0  0  # atno 10718 bound_to 10713
  153.4899  135.3661  155.2486 H   0  0  0  0  0  0  0  0  0  0  0  0  # atno 10763 bound_to 10752
  154.8752  135.3974  154.3601 H   0  0  0  0  0  0  0  0  0  0  0  0  # atno 10764 bound_to 10752
  153.4218  135.7080  153.6354 H   0  0  0  0  0  0  0  0  0  0  0  0  # atno 10765 bound_to 10752
  141.1493  133.7897  157.0178 H   0  0  0  0  0  0  0  0  0  0  0  0  # atno 11005 bound_to 11000
  144.6726  140.1289  143.7445 LP  0  0  0  0  0  0  0  0  0  0  0  0  # atno 17320 bound_to 7965
  145.9098  139.2480  143.1444 LP  0  0  0  0  0  0  0  0  0  0  0  0  # atno 17321 bound_to 7965
  139.5025  144.3827  152.0359 LP  0  0  0  0  0  0  0  0  0  0  0  0  # atno 17342 bound_to 10162
  140.2944  144.3717  150.6079 LP  0  0  0  0  0  0  0  0  0  0  0  0  # atno 17343 bound_to 10162
  156.0684  130.3688  150.0827 LP  0  0  0  0  0  0  0  0  0  0  0  0  # atno 17370 bound_to 10713
  156.8989  130.9613  151.3579 LP  0  0  0  0  0  0  0  0  0  0  0  0  # atno 17371 bound_to 10713
  140.0835  134.9634  157.1663 LP  0  0  0  0  0  0  0  0  0  0  0  0  # atno 17394 bound_to 11000
  140.3543  134.2564  155.7194 LP  0  0  0  0  0  0  0  0  0  0  0  0  # atno 17395 bound_to 11000

$$$$
