AV-unprocessed.smi:3158|AV-procd|sdf|12046|dock3
  -GOLD-   2272017473D 1   1.00000     0.00000
 Structure written by MMmdl.
 39 39  0  0  0  0  0  0  0  0  1 V2000
  152.6220  144.3158  158.5141 C   0  0  0  0  0  0  0  0  0  0  0  0
  151.3520  144.0688  157.6865 C   0  0  0  0  0  0  0  0  0  0  0  0
  151.2346  142.6302  157.1359 C   0  0  1  0  0  0  0  0  0  0  0  0
  151.1919  141.5740  158.2549 C   0  0  0  0  0  0  0  0  0  0  0  0
  150.1199  142.4668  156.1992 N   0  0  0  0  0  0  0  0  0  0  0  0
  149.9183  141.4542  155.3383 C   0  0  0  0  0  0  0  0  0  0  0  0
  150.6785  140.4926  155.2238 O   0  0  0  0  0  0  0  0  0  0  0  0
  148.6742  141.5592  154.4411 C   0  0  2  0  0  0  0  0  0  0  0  0
  147.4294  141.8754  155.2850 C   0  0  0  0  0  0  0  0  0  0  0  0
  148.4371  140.3465  153.6390 N   0  0  0  0  0  0  0  0  0  0  0  0
  147.0950  140.2498  153.0718 C   0  0  0  0  0  0  0  0  0  0  0  0
  147.1646  139.6972  151.6390 C   0  0  0  0  0  0  0  0  0  0  0  0
  146.5549  138.3834  151.5298 N   0  0  0  0  0  0  0  0  0  0  0  0
  145.8743  137.6738  152.4968 C   0  0  0  0  0  0  0  0  0  0  0  0
  145.4744  136.4968  151.9316 C   0  0  0  0  0  0  0  0  0  0  0  0
  145.9652  136.5787  150.5985 C   0  0  0  0  0  0  0  0  0  0  0  0
  146.6114  137.7087  150.3610 N   0  0  0  0  0  0  0  0  0  0  0  0
  152.6238  145.3254  158.9252 H   0  0  0  0  0  0  0  0  0  0  0  0
  153.5229  144.2070  157.9096 H   0  0  0  0  0  0  0  0  0  0  0  0
  152.6901  143.6172  159.3484 H   0  0  0  0  0  0  0  0  0  0  0  0
  150.4853  144.2764  158.3150 H   0  0  0  0  0  0  0  0  0  0  0  0
  151.3061  144.7928  156.8725 H   0  0  0  0  0  0  0  0  0  0  0  0
  152.1333  142.4338  156.5502 H   0  0  0  0  0  0  0  0  0  0  0  0
  152.0927  141.6204  158.8673 H   0  0  0  0  0  0  0  0  0  0  0  0
  151.1271  140.5666  157.8424 H   0  0  0  0  0  0  0  0  0  0  0  0
  150.3389  141.7181  158.9184 H   0  0  0  0  0  0  0  0  0  0  0  0
  149.4318  143.2058  156.2013 H   0  0  0  0  0  0  0  0  0  0  0  0
  148.8190  142.3924  153.7508 H   0  0  0  0  0  0  0  0  0  0  0  0
  147.5726  142.7790  155.8790 H   0  0  0  0  0  0  0  0  0  0  0  0
  147.1890  141.0610  155.9699 H   0  0  0  0  0  0  0  0  0  0  0  0
  146.5585  142.0387  154.6493 H   0  0  0  0  0  0  0  0  0  0  0  0
  149.1256  140.2457  152.9060 H   0  0  0  0  0  0  0  0  0  0  0  0
  146.4930  139.5859  153.6933 H   0  0  0  0  0  0  0  0  0  0  0  0
  146.5952  141.2189  153.0573 H   0  0  0  0  0  0  0  0  0  0  0  0
  146.6887  140.3811  150.9338 H   0  0  0  0  0  0  0  0  0  0  0  0
  148.2066  139.6085  151.3300 H   0  0  0  0  0  0  0  0  0  0  0  0
  145.7301  138.0633  153.4938 H   0  0  0  0  0  0  0  0  0  0  0  0
  144.9160  135.6994  152.3989 H   0  0  0  0  0  0  0  0  0  0  0  0
  145.8715  135.8555  149.8016 H   0  0  0  0  0  0  0  0  0  0  0  0
  1  2  1  0  0  0  0
  1 18  1  0  0  0  0
  1 19  1  0  0  0  0
  1 20  1  0  0  0  0
  2  3  1  0  0  0  0
  2 21  1  0  0  0  0
  2 22  1  0  0  0  0
  3  4  1  0  0  0  0
  3  5  1  0  0  0  0
  3 23  1  0  0  0  0
  4 24  1  0  0  0  0
  4 25  1  0  0  0  0
  4 26  1  0  0  0  0
  5  6  1  0  0  0  0
  5 27  1  0  0  0  0
  6  7  2  0  0  0  0
  6  8  1  0  0  0  0
  8  9  1  0  0  0  0
  8 10  1  0  0  0  0
  8 28  1  0  0  0  0
  9 29  1  0  0  0  0
  9 30  1  0  0  0  0
  9 31  1  0  0  0  0
 10 11  1  0  0  0  0
 10 32  1  0  0  0  0
 11 12  1  0  0  0  0
 11 33  1  0  0  0  0
 11 34  1  0  0  0  0
 12 13  1  0  0  0  0
 12 35  1  0  0  0  0
 12 36  1  0  0  0  0
 13 17  1  0  0  0  0
 13 14  1  0  0  0  0
 14 15  2  0  0  0  0
 14 37  1  0  0  0  0
 15 16  1  0  0  0  0
 15 38  1  0  0  0  0
 16 17  2  0  0  0  0
 16 39  1  0  0  0  0
M  END
> <s_m_source_file>
AV-unprocessed.smi

> <i_m_source_file_index>
3158

> <i_lp_mmshare_version>
43012

> <i_f3d_flags>
0

> <s_epik_input>
W0NIM11bQ0gyXVtDQEhdKFtDSDNdKVtOSF1DKD1PKVtDQEhdKFtDSDNdKVtOSF1bQ0gyXVtDSDJdbjFbY0hdW2NIXVtjSF1uMQ==

> <s_epik_cmdline>
J2VwaWtfcHl0aG9uJywgJy1waCcsICc3LjAnLCAnLXRuJywgJzgnLCAnLW1hJywgJzIwMCcsICctbWV0YWxfYmluZGluZycsICctaW1hZScsICc8aW5maWxlLm1hZT4nLCAnLW9tYWUnLCAnPG91dGZpbGUubWFlPic=

> <r_lp_tautomer_probability>
1

> <r_epik_Ionization_Penalty>
0.724013

> <r_epik_Ionization_Penalty_Charging>
0

> <r_epik_Ionization_Penalty_Neutral>
0.724013

> <r_epik_State_Penalty>
0.74758

> <r_epik_Charging_Adjusted_Penalty>
0.74758

> <i_epik_Tot_Q>
0

> <i_epik_Tot_abs_Q>
0

> <r_epik_Metal_State_Penalty>
0.746846

> <b_epik_Metal_Only>
0

> <s_lp_Force_Field>
OPLS_2005

> <r_lp_Energy>
6.38515

> <b_lp_Chiralities_Consistent>
1

> <s_lp_Variant>
AV-unprocessed.smi:3158-6

> <Gold.Version>
5.8.1

> <Gold.Id.Protein>
6NUR|6NUR_protein|mol2

> <Gold.PLP.Fitness>
48.9502

> <Gold.PLP.PLP>
-36.1114

> <Gold.PLP.part.hbond>
-4.0000

> <Gold.PLP.part.metal>
0.0000

> <Gold.PLP.part.buried>
3.8307

> <Gold.PLP.part.nonpolar>
-37.8399

> <Gold.PLP.part.repulsive>
2.4223

> <Gold.PLP.ligand.clash>
0.0000

> <Gold.PLP.ligand.torsion>
1.1387

> <Gold.PLP.Chemscore.Hbond>
3.9440

> <Gold.PLP.Chemscore.CHOScore>
1.0000

> <Gold.PLP.Chemscore.Metal>
0.0000

> <Gold.Chemscore.Hbonds>
donor molecule, donor type, donor heavy atom, donor atom, acceptor molecule, acceptor atom, score
      L1  H     5    27       P1  8028  1.00
      L1  H    10    32       P1  7957  1.00
      P1  H  7954  7966       L1    17  0.88
      P1  H  7989  7998       L1     7  1.00
      L1  C    16    39       P1  7921  1.00

> <Gold.PLP.Chemscore.Internal.Correction>
0.2842

> <Gold.Rescore>
     Score         DG    S(hbond)    S(metal)    S(lipo)     H(rot)  DE(clash)    DE(int)     intcor
     17.29     -21.91       3.29        0.00      93.01       2.12       3.36       1.25       ----

> <Gold.Chemscore.Fitness>
17.2947

> <Gold.Chemscore.DG>
-21.9074

> <Gold.Chemscore.ZeroCoef>
-5.4800

> <Gold.Chemscore.Hbond>
3.2876

> <Gold.Chemscore.Metal>
0.0000

> <Gold.Chemscore.Lipo>
93.0149

> <Gold.Chemscore.Internal_Hbond>
0.0000

> <Gold.Chemscore.DEClash>
3.3606

> <Gold.Chemscore.DEInternal>
1.2521

> <Gold.Chemscore.Rot>
2.1234

> <Gold.Chemscore.Internal.Correction>
   9.000000E+99

> <Gold.Chemscore.Hbonds>
donor molecule, donor type, donor heavy atom, donor atom, acceptor molecule, acceptor atom, score
      L1  H     5    27       P1  8028  0.95
      L1  H    10    32       P1  7957  0.96
      P1  H  7954  7966       L1    17  0.43
      P1  H  7989  7998       L1     7  0.36

> <Gold.Chemscore.Hbond.Weighted>
-10.9805

> <Gold.Chemscore.Metal.Weighted>
-0.0000

> <Gold.Chemscore.Lipo.Weighted>
-10.8827

> <Gold.Chemscore.Internal_Hbond.Weighted>
0.0000

> <Gold.Chemscore.DEClash.Weighted>
3.3606

> <Gold.Chemscore.DEInternal.Weighted>
1.2521

> <Gold.Chemscore.Rot.Weighted>
5.4359

> <Gold.Chemscore.Internal.Correction.Weighted>
   9.000000E+99

> <Gold.Protein.RotatedTorsions>
[ 6907 6896 6895 6894 ] final  -88.29 input  -60.11 | X-H torsion
[ 7974 7965 7964 7962 ] final -153.51 input  175.53 | X-H torsion
[ 8008 7997 7996 7995 ] final  -17.72 input   59.86 | X-H torsion
[ 10167 10162 10161 10158 ] final -174.45 input  -65.29 | X-H torsion
[ 10718 10713 10712 10709 ] final  168.20 input   66.30 | X-H torsion
[ 10763 10752 10751 10750 ] final -154.23 input  -60.55 | X-H torsion
[ 11005 11000 10999 10996 ] final -107.50 input  -57.11 | X-H torsion

> <Gold.Protein.ActiveResidues>
 VAL166  LYS551  ARG553  GLY616  TRP617  ASP618  TYR619  PRO620  LYS621  CYS622 
 ASP623  PHE694  ASN695  SER759  ASP760  ASP761  ALA762  ILE779  LEU786  VAL792 
 PHE793  MET794  SER795  GLU796  ALA797  LYS798  CYS799  TRP800  GLU811  SER814 

> <Gold.Protein.RotatedAtoms>
  150.6868  134.2765  159.4609 H   0  0  0  0  0  0  0  0  0  0  0  0  # atno 6907 bound_to 6896
  152.0683  134.9547  160.0584 H   0  0  0  0  0  0  0  0  0  0  0  0  # atno 6908 bound_to 6896
  152.0947  133.4184  159.4597 H   0  0  0  0  0  0  0  0  0  0  0  0  # atno 6909 bound_to 6896
  144.7737  140.4515  143.5889 H   0  0  0  0  0  0  0  0  0  0  0  0  # atno 7974 bound_to 7965
  154.4958  140.2135  155.9451 H   0  0  0  0  0  0  0  0  0  0  0  0  # atno 8008 bound_to 7997
  156.1368  140.3187  155.8401 H   0  0  0  0  0  0  0  0  0  0  0  0  # atno 8009 bound_to 7997
  155.4195  140.0496  157.3017 H   0  0  0  0  0  0  0  0  0  0  0  0  # atno 8010 bound_to 7997
  139.5633  144.1816  152.1274 H   0  0  0  0  0  0  0  0  0  0  0  0  # atno 10167 bound_to 10162
  157.0406  131.0285  151.2714 H   0  0  0  0  0  0  0  0  0  0  0  0  # atno 10718 bound_to 10713
  154.7873  135.3194  154.7858 H   0  0  0  0  0  0  0  0  0  0  0  0  # atno 10763 bound_to 10752
  153.8555  135.6858  153.4792 H   0  0  0  0  0  0  0  0  0  0  0  0  # atno 10764 bound_to 10752
  153.1529  135.4692  154.9602 H   0  0  0  0  0  0  0  0  0  0  0  0  # atno 10765 bound_to 10752
  141.0951  133.8986  157.1983 H   0  0  0  0  0  0  0  0  0  0  0  0  # atno 11005 bound_to 11000
  145.6249  139.1529  143.3001 LP  0  0  0  0  0  0  0  0  0  0  0  0  # atno 17320 bound_to 7965
  146.1901  140.6357  142.9149 LP  0  0  0  0  0  0  0  0  0  0  0  0  # atno 17321 bound_to 7965
  140.1334  144.5268  150.6788 LP  0  0  0  0  0  0  0  0  0  0  0  0  # atno 17342 bound_to 10162
  140.6915  143.2379  151.5118 LP  0  0  0  0  0  0  0  0  0  0  0  0  # atno 17343 bound_to 10162
  157.5107  130.7937  149.7702 LP  0  0  0  0  0  0  0  0  0  0  0  0  # atno 17370 bound_to 10713
  156.0039  130.3865  150.2502 LP  0  0  0  0  0  0  0  0  0  0  0  0  # atno 17371 bound_to 10713
  139.9785  135.0106  156.9692 LP  0  0  0  0  0  0  0  0  0  0  0  0  # atno 17394 bound_to 11000
  140.5160  134.0955  155.7281 LP  0  0  0  0  0  0  0  0  0  0  0  0  # atno 17395 bound_to 11000

$$$$
