AV-unprocessed.smi:672|AV-procd|sdf|3295|dock6
  -GOLD-   22720 0253D 1   1.00000     0.00000
 Structure written by MMmdl.
 35 36  0  0  0  0  0  0  0  0  2 V2000
  152.2266  141.2130  158.7010 C   0  0  0  0  0  0  0  0  0  0  0  0
  151.2015  141.0453  157.5745 C   0  0  0  0  0  0  0  0  0  0  0  0
  151.5115  139.8875  156.6857 C   0  0  0  0  0  0  0  0  0  0  0  0
  152.5754  139.8566  155.8787 N   0  0  0  0  0  0  0  0  0  0  0  0
  152.6321  138.6883  155.1330 N   0  0  0  0  0  0  0  0  0  0  0  0
  151.5977  137.8671  155.3636 C   0  0  0  0  0  0  0  0  0  0  0  0
  151.4598  136.6853  154.7403 N   0  5  0  0  0  0  0  0  0  0  0  0
  150.6475  135.7382  155.2623 C   0  0  0  0  0  0  0  0  0  0  0  0
  150.5459  135.4392  156.4545 O   0  0  0  0  0  0  0  0  0  0  0  0
  149.9104  135.0941  154.3462 N   0  0  0  0  0  0  0  0  0  0  0  0
  148.9420  134.0338  154.6177 C   0  0  2  0  0  0  0  0  0  0  0  0
  149.2534  132.7538  153.8151 C   0  0  0  0  0  0  0  0  0  0  0  0
  148.1546  132.6414  152.7584 C   0  0  0  0  0  0  0  0  0  0  0  0
  146.9374  133.2853  153.4167 C   0  0  2  0  0  0  0  0  0  0  0  0
  145.6724  133.7763  152.2092 S   0  0  0  0  0  0  0  0  0  0  0  0
  145.4364  132.2069  151.3345 C   0  0  0  0  0  0  0  0  0  0  0  0
  147.5247  134.4666  154.1960 C   0  0  0  0  0  0  0  0  0  0  0  0
  150.4662  138.4821  156.5674 S   0  0  0  0  0  0  0  0  0  0  0  0
  151.9748  142.0651  159.3323 H   0  0  0  0  0  0  0  0  0  0  0  0
  153.2269  141.3793  158.2999 H   0  0  0  0  0  0  0  0  0  0  0  0
  152.2633  140.3268  159.3351 H   0  0  0  0  0  0  0  0  0  0  0  0
  150.2046  140.9103  157.9955 H   0  0  0  0  0  0  0  0  0  0  0  0
  151.1641  141.9505  156.9677 H   0  0  0  0  0  0  0  0  0  0  0  0
  150.0281  135.3686  153.3820 H   0  0  0  0  0  0  0  0  0  0  0  0
  148.9471  133.8037  155.6847 H   0  0  0  0  0  0  0  0  0  0  0  0
  150.2482  132.7502  153.3679 H   0  0  0  0  0  0  0  0  0  0  0  0
  149.2014  131.8924  154.4822 H   0  0  0  0  0  0  0  0  0  0  0  0
  148.4448  133.2076  151.8719 H   0  0  0  0  0  0  0  0  0  0  0  0
  147.9721  131.6110  152.4519 H   0  0  0  0  0  0  0  0  0  0  0  0
  146.4995  132.5723  154.1168 H   0  0  0  0  0  0  0  0  0  0  0  0
  144.7217  132.3355  150.5218 H   0  0  0  0  0  0  0  0  0  0  0  0
  145.0524  131.4439  152.0115 H   0  0  0  0  0  0  0  0  0  0  0  0
  146.3797  131.8584  150.9143 H   0  0  0  0  0  0  0  0  0  0  0  0
  146.9088  134.7369  155.0543 H   0  0  0  0  0  0  0  0  0  0  0  0
  147.5723  135.3426  153.5464 H   0  0  0  0  0  0  0  0  0  0  0  0
  1  2  1  0  0  0  0
  1 19  1  0  0  0  0
  1 20  1  0  0  0  0
  1 21  1  0  0  0  0
  2  3  1  0  0  0  0
  2 22  1  0  0  0  0
  2 23  1  0  0  0  0
  3 18  1  0  0  0  0
  3  4  2  0  0  0  0
  4  5  1  0  0  0  0
  5  6  2  0  0  0  0
  6  7  1  0  0  0  0
  6 18  1  0  0  0  0
  7  8  1  0  0  0  0
  8  9  2  0  0  0  0
  8 10  1  0  0  0  0
 10 11  1  0  0  0  0
 10 24  1  0  0  0  0
 11 17  1  0  0  0  0
 11 12  1  0  0  0  0
 11 25  1  0  0  0  0
 12 13  1  0  0  0  0
 12 26  1  0  0  0  0
 12 27  1  0  0  0  0
 13 14  1  0  0  0  0
 13 28  1  0  0  0  0
 13 29  1  0  0  0  0
 14 15  1  0  0  0  0
 14 17  1  0  0  0  0
 14 30  1  0  0  0  0
 15 16  1  0  0  0  0
 16 31  1  0  0  0  0
 16 32  1  0  0  0  0
 16 33  1  0  0  0  0
 17 34  1  0  0  0  0
 17 35  1  0  0  0  0
M  CHG  1   7  -1
M  END
> <s_m_source_file>
AV-unprocessed.smi

> <i_m_source_file_index>
672

> <i_lp_mmshare_version>
43012

> <i_f3d_flags>
0

> <s_epik_input>
W0NIM11bQ0gyXWMxbm5jKHMxKVtOSF1DKD1PKVtOSF1bQ0BASF0yW0NIMl1bQ0gyXVtDQEhdKFtDSDJdMilTW0NIM10=

> <s_epik_cmdline>
J2VwaWtfcHl0aG9uJywgJy1waCcsICc3LjAnLCAnLXRuJywgJzgnLCAnLW1hJywgJzIwMCcsICctbWV0YWxfYmluZGluZycsICctaW1hZScsICc8aW5maWxlLm1hZT4nLCAnLW9tYWUnLCAnPG91dGZpbGUubWFlPic=

> <r_lp_tautomer_probability>
1

> <r_epik_Ionization_Penalty>
4.49964

> <r_epik_Ionization_Penalty_Charging>
4.32991

> <r_epik_Ionization_Penalty_Neutral>
0.169727

> <r_epik_State_Penalty>
4.32952

> <r_epik_Charging_Adjusted_Penalty>
8.65943

> <i_epik_Tot_Q>
-1

> <i_epik_Tot_abs_Q>
1

> <r_epik_Metal_State_Penalty>
0.740482

> <b_epik_Metal_Only>
1

> <s_lp_Force_Field>
OPLS_2005

> <r_lp_Energy>
9.98036

> <b_lp_Chiralities_Consistent>
1

> <s_lp_Variant>
AV-unprocessed.smi:672-7

> <Gold.Version>
5.8.1

> <Gold.Id.Protein>
6NUR|6NUR_protein|mol2

> <Gold.PLP.Fitness>
35.8876

> <Gold.PLP.PLP>
-27.6391

> <Gold.PLP.part.hbond>
-3.1334

> <Gold.PLP.part.metal>
0.0000

> <Gold.PLP.part.buried>
-2.9229

> <Gold.PLP.part.nonpolar>
-21.2885

> <Gold.PLP.part.repulsive>
0.2140

> <Gold.PLP.ligand.clash>
0.0000

> <Gold.PLP.ligand.torsion>
0.4890

> <Gold.PLP.Chemscore.Hbond>
3.0618

> <Gold.PLP.Chemscore.CHOScore>
0.0000

> <Gold.PLP.Chemscore.Metal>
0.0000

> <Gold.Chemscore.Hbonds>
donor molecule, donor type, donor heavy atom, donor atom, acceptor molecule, acceptor atom, score
      L1  H    10    24       P1  7948  0.08
      P1  H  7997  8009       L1     4  1.00
      P1  H 10752 10763       L1     7  1.80

> <Gold.PLP.Chemscore.Internal.Correction>
0.0413

> <Gold.Rescore>
     Score         DG    S(hbond)    S(metal)    S(lipo)     H(rot)  DE(clash)    DE(int)     intcor
     14.59     -15.13       1.78        0.00      60.88       1.34       0.00       0.53       ----

> <Gold.Chemscore.Fitness>
14.5898

> <Gold.Chemscore.DG>
-15.1262

> <Gold.Chemscore.ZeroCoef>
-5.4800

> <Gold.Chemscore.Hbond>
1.7834

> <Gold.Chemscore.Metal>
0.0000

> <Gold.Chemscore.Lipo>
60.8768

> <Gold.Chemscore.Internal_Hbond>
0.0000

> <Gold.Chemscore.DEClash>
0.0021

> <Gold.Chemscore.DEInternal>
0.5343

> <Gold.Chemscore.Rot>
1.3410

> <Gold.Chemscore.Internal.Correction>
   9.000000E+99

> <Gold.Chemscore.Hbonds>
donor molecule, donor type, donor heavy atom, donor atom, acceptor molecule, acceptor atom, score
      P1  H  7997  8009       L1     4  0.44
      P1  H 10752 10763       L1     7  0.17

> <Gold.Chemscore.Hbond.Weighted>
-5.9566

> <Gold.Chemscore.Metal.Weighted>
-0.0000

> <Gold.Chemscore.Lipo.Weighted>
-7.1226

> <Gold.Chemscore.Internal_Hbond.Weighted>
0.0000

> <Gold.Chemscore.DEClash.Weighted>
0.0021

> <Gold.Chemscore.DEInternal.Weighted>
0.5343

> <Gold.Chemscore.Rot.Weighted>
3.4329

> <Gold.Chemscore.Internal.Correction.Weighted>
   9.000000E+99

> <Gold.Protein.RotatedTorsions>
[ 6907 6896 6895 6894 ] final  -98.56 input  -60.11 | X-H torsion
[ 7974 7965 7964 7962 ] final  121.59 input  175.53 | X-H torsion
[ 8008 7997 7996 7995 ] final -169.74 input   59.86 | X-H torsion
[ 10167 10162 10161 10158 ] final    2.65 input  -65.29 | X-H torsion
[ 10718 10713 10712 10709 ] final  -93.54 input   66.30 | X-H torsion
[ 10763 10752 10751 10750 ] final   52.18 input  -60.55 | X-H torsion
[ 11005 11000 10999 10996 ] final -111.98 input  -57.11 | X-H torsion

> <Gold.Protein.ActiveResidues>
 VAL166  LYS551  ARG553  GLY616  TRP617  ASP618  TYR619  PRO620  LYS621  CYS622 
 ASP623  PHE694  ASN695  SER759  ASP760  ASP761  ALA762  ILE779  LEU786  VAL792 
 PHE793  MET794  SER795  GLU796  ALA797  LYS798  CYS799  TRP800  GLU811  SER814 

> <Gold.Protein.RotatedAtoms>
  150.7051  134.1175  159.4022 H   0  0  0  0  0  0  0  0  0  0  0  0  # atno 6907 bound_to 6896
  151.9162  135.0315  160.0528 H   0  0  0  0  0  0  0  0  0  0  0  0  # atno 6908 bound_to 6896
  152.2294  133.5011  159.5244 H   0  0  0  0  0  0  0  0  0  0  0  0  # atno 6909 bound_to 6896
  145.1175  139.3411  143.4731 H   0  0  0  0  0  0  0  0  0  0  0  0  # atno 7974 bound_to 7965
  155.9090  140.1054  157.1293 H   0  0  0  0  0  0  0  0  0  0  0  0  # atno 8008 bound_to 7997
  154.4037  140.1278  156.4598 H   0  0  0  0  0  0  0  0  0  0  0  0  # atno 8009 bound_to 7997
  155.7332  140.3468  155.5071 H   0  0  0  0  0  0  0  0  0  0  0  0  # atno 8010 bound_to 7997
  140.6624  143.7268  150.7764 H   0  0  0  0  0  0  0  0  0  0  0  0  # atno 10167 bound_to 10162
  156.0015  130.5031  150.5791 H   0  0  0  0  0  0  0  0  0  0  0  0  # atno 10718 bound_to 10713
  152.9788  135.5821  154.4536 H   0  0  0  0  0  0  0  0  0  0  0  0  # atno 10763 bound_to 10752
  154.4121  135.2770  155.2032 H   0  0  0  0  0  0  0  0  0  0  0  0  # atno 10764 bound_to 10752
  154.3817  135.6145  153.5848 H   0  0  0  0  0  0  0  0  0  0  0  0  # atno 10765 bound_to 10752
  141.0702  133.9392  157.2500 H   0  0  0  0  0  0  0  0  0  0  0  0  # atno 11005 bound_to 11000
  146.3523  140.1121  142.8603 LP  0  0  0  0  0  0  0  0  0  0  0  0  # atno 17320 bound_to 7965
  145.0777  140.9199  143.4844 LP  0  0  0  0  0  0  0  0  0  0  0  0  # atno 17321 bound_to 7965
  140.0939  143.4852  152.2463 LP  0  0  0  0  0  0  0  0  0  0  0  0  # atno 17342 bound_to 10162
  139.5862  144.7532  151.3513 LP  0  0  0  0  0  0  0  0  0  0  0  0  # atno 17343 bound_to 10162
  157.3674  131.0760  151.1586 LP  0  0  0  0  0  0  0  0  0  0  0  0  # atno 17370 bound_to 10713
  157.2351  130.6543  149.5866 LP  0  0  0  0  0  0  0  0  0  0  0  0  # atno 17371 bound_to 10713
  139.9516  135.0174  156.9010 LP  0  0  0  0  0  0  0  0  0  0  0  0  # atno 17394 bound_to 11000
  140.5689  134.0462  155.7424 LP  0  0  0  0  0  0  0  0  0  0  0  0  # atno 17395 bound_to 11000

$$$$
