AV-unprocessed.smi:1154|AV-procd|sdf|4900|dock9
  -GOLD-   22720 3473D 1   1.00000     0.00000
 Structure written by MMmdl.
 42 43  0  0  0  0  0  0  0  0  2 V2000
  153.0543  144.7086  157.7945 C   0  0  0  0  0  0  0  0  0  0  0  0
  151.7665  144.2662  158.5114 C   0  0  2  0  0  0  0  0  0  0  0  0
  151.8802  144.3324  160.0457 C   0  0  0  0  0  0  0  0  0  0  0  0
  152.7463  143.1882  160.6030 C   0  0  1  0  0  0  0  0  0  0  0  0
  152.7988  143.2231  162.1371 C   0  0  0  0  0  0  0  0  0  0  0  0
  152.2332  141.8295  160.0881 C   0  0  0  0  0  0  0  0  0  0  0  0
  152.1819  141.7957  158.6036 N   0  3  1  0  0  0  0  0  0  0  0  0
  151.8490  140.4456  158.0824 C   0  0  0  0  0  0  0  0  0  0  0  0
  152.1861  140.2967  156.5898 C   0  0  0  0  0  0  0  0  0  0  0  0
  151.8166  138.9717  156.1124 N   0  0  0  0  0  0  0  0  0  0  0  0
  151.0760  138.7421  155.0170 C   0  0  0  0  0  0  0  0  0  0  0  0
  150.6100  139.6423  154.3196 O   0  0  0  0  0  0  0  0  0  0  0  0
  150.8107  137.2786  154.6530 C   0  0  0  0  0  0  0  0  0  0  0  0
  151.0731  136.3903  155.7712 N   0  0  0  0  0  0  0  0  0  0  0  0
  150.2789  135.5304  156.4122 C   0  0  0  0  0  0  0  0  0  0  0  0
  150.9157  134.9184  157.3986 N   0  0  0  0  0  0  0  0  0  0  0  0
  152.1905  135.4555  157.3313 N   0  0  0  0  0  0  0  0  0  0  0  0
  152.2905  136.3284  156.3668 N   0  0  0  0  0  0  0  0  0  0  0  0
  151.3012  142.8664  158.0637 C   0  0  0  0  0  0  0  0  0  0  0  0
  153.8887  144.0385  158.0010 H   0  0  0  0  0  0  0  0  0  0  0  0
  153.3500  145.7116  158.1037 H   0  0  0  0  0  0  0  0  0  0  0  0
  152.9112  144.7301  156.7137 H   0  0  0  0  0  0  0  0  0  0  0  0
  150.9934  144.9764  158.2146 H   0  0  0  0  0  0  0  0  0  0  0  0
  152.2824  145.2989  160.3525 H   0  0  0  0  0  0  0  0  0  0  0  0
  150.8805  144.2691  160.4781 H   0  0  0  0  0  0  0  0  0  0  0  0
  153.7671  143.3227  160.2434 H   0  0  0  0  0  0  0  0  0  0  0  0
  151.8078  143.0897  162.5724 H   0  0  0  0  0  0  0  0  0  0  0  0
  153.1936  144.1745  162.4946 H   0  0  0  0  0  0  0  0  0  0  0  0
  153.4419  142.4336  162.5267 H   0  0  0  0  0  0  0  0  0  0  0  0
  152.8956  141.0405  160.4473 H   0  0  0  0  0  0  0  0  0  0  0  0
  151.2411  141.6179  160.4908 H   0  0  0  0  0  0  0  0  0  0  0  0
  152.4230  139.6970  158.6309 H   0  0  0  0  0  0  0  0  0  0  0  0
  150.7969  140.2249  158.2697 H   0  0  0  0  0  0  0  0  0  0  0  0
  151.6584  141.0367  155.9881 H   0  0  0  0  0  0  0  0  0  0  0  0
  153.2546  140.4566  156.4352 H   0  0  0  0  0  0  0  0  0  0  0  0
  152.1567  138.1782  156.6364 H   0  0  0  0  0  0  0  0  0  0  0  0
  149.7719  137.1614  154.3421 H   0  0  0  0  0  0  0  0  0  0  0  0
  151.4362  136.9796  153.8104 H   0  0  0  0  0  0  0  0  0  0  0  0
  149.2418  135.3599  156.1635 H   0  0  0  0  0  0  0  0  0  0  0  0
  150.2797  142.6913  158.4054 H   0  0  0  0  0  0  0  0  0  0  0  0
  151.2715  142.8304  156.9753 H   0  0  0  0  0  0  0  0  0  0  0  0
  153.1198  141.9986  158.2878 H   0  0  0  0  0  0  0  0  0  0  0  0
  1  2  1  0  0  0  0
  1 20  1  0  0  0  0
  1 21  1  0  0  0  0
  1 22  1  0  0  0  0
  2 19  1  0  0  0  0
  2  3  1  0  0  0  0
  2 23  1  0  0  0  0
  3  4  1  0  0  0  0
  3 24  1  0  0  0  0
  3 25  1  0  0  0  0
  4  5  1  0  0  0  0
  4  6  1  0  0  0  0
  4 26  1  0  0  0  0
  5 27  1  0  0  0  0
  5 28  1  0  0  0  0
  5 29  1  0  0  0  0
  6  7  1  0  0  0  0
  6 30  1  0  0  0  0
  6 31  1  0  0  0  0
  7  8  1  0  0  0  0
  7 19  1  0  0  0  0
  7 42  1  0  0  0  0
  8  9  1  0  0  0  0
  8 32  1  0  0  0  0
  8 33  1  0  0  0  0
  9 10  1  0  0  0  0
  9 34  1  0  0  0  0
  9 35  1  0  0  0  0
 10 11  1  0  0  0  0
 10 36  1  0  0  0  0
 11 12  2  0  0  0  0
 11 13  1  0  0  0  0
 13 14  1  0  0  0  0
 13 37  1  0  0  0  0
 13 38  1  0  0  0  0
 14 18  1  0  0  0  0
 14 15  1  0  0  0  0
 15 16  2  0  0  0  0
 15 39  1  0  0  0  0
 16 17  1  0  0  0  0
 17 18  2  0  0  0  0
 19 40  1  0  0  0  0
 19 41  1  0  0  0  0
M  CHG  1   7   1
M  END
> <s_m_source_file>
AV-unprocessed.smi

> <i_m_source_file_index>
1154

> <i_lp_mmshare_version>
43012

> <i_f3d_flags>
0

> <s_epik_input>
W0NIM11bQ0BASF0xW0NIMl1bQ0BASF0oW0NIM10pW0NIMl1OKFtDSDJdMSlbQ0gyXVtDSDJdW05IXUMoPU8pW0NIMl1uMltjSF1ubm4y

> <s_epik_cmdline>
J2VwaWtfcHl0aG9uJywgJy1waCcsICc3LjAnLCAnLXRuJywgJzgnLCAnLW1hJywgJzIwMCcsICctbWV0YWxfYmluZGluZycsICctaW1hZScsICc8aW5maWxlLm1hZT4nLCAnLW9tYWUnLCAnPG91dGZpbGUubWFlPic=

> <r_lp_tautomer_probability>
1

> <r_epik_Ionization_Penalty>
0.00217773

> <r_epik_Ionization_Penalty_Charging>
0.00217329

> <r_epik_Ionization_Penalty_Neutral>
4.43997e-06

> <r_epik_State_Penalty>
0.00149294

> <r_epik_Charging_Adjusted_Penalty>
0.00366623

> <i_epik_Tot_Q>
1

> <i_epik_Tot_abs_Q>
1

> <r_epik_Metal_State_Penalty>
-0

> <b_epik_Metal_Only>
0

> <s_lp_Force_Field>
OPLS_2005

> <r_lp_Energy>
22.5946

> <b_lp_Chiralities_Consistent>
1

> <s_lp_Variant>
AV-unprocessed.smi:1154-1

> <Gold.Version>
5.8.1

> <Gold.Id.Protein>
6NUR|6NUR_protein|mol2

> <Gold.PLP.Fitness>
46.8177

> <Gold.PLP.PLP>
-40.5596

> <Gold.PLP.part.hbond>
-4.0000

> <Gold.PLP.part.metal>
0.0000

> <Gold.PLP.part.buried>
-5.9144

> <Gold.PLP.part.nonpolar>
-30.3114

> <Gold.PLP.part.repulsive>
0.3431

> <Gold.PLP.ligand.clash>
0.0000

> <Gold.PLP.ligand.torsion>
0.3616

> <Gold.PLP.Chemscore.Hbond>
2.3169

> <Gold.PLP.Chemscore.CHOScore>
0.0000

> <Gold.PLP.Chemscore.Metal>
0.0000

> <Gold.Chemscore.Hbonds>
donor molecule, donor type, donor heavy atom, donor atom, acceptor molecule, acceptor atom, score
      P1  H  6896  6907       L1    16  0.26
      P1  H  7989  7998       L1    12  1.00
      P1  H 10752 10765       L1    18  1.00

> <Gold.PLP.Chemscore.Internal.Correction>
0.0306

> <Gold.Rescore>
     Score         DG    S(hbond)    S(metal)    S(lipo)     H(rot)  DE(clash)    DE(int)     intcor
     15.31     -17.43       1.96        0.00     104.49       2.67       0.32       1.79       ----

> <Gold.Chemscore.Fitness>
15.3130

> <Gold.Chemscore.DG>
-17.4295

> <Gold.Chemscore.ZeroCoef>
-5.4800

> <Gold.Chemscore.Hbond>
1.9621

> <Gold.Chemscore.Metal>
0.0000

> <Gold.Chemscore.Lipo>
104.4853

> <Gold.Chemscore.Internal_Hbond>
0.0000

> <Gold.Chemscore.DEClash>
0.3217

> <Gold.Chemscore.DEInternal>
1.7948

> <Gold.Chemscore.Rot>
2.6674

> <Gold.Chemscore.Internal.Correction>
   9.000000E+99

> <Gold.Chemscore.Hbonds>
donor molecule, donor type, donor heavy atom, donor atom, acceptor molecule, acceptor atom, score
      P1  H  6896  6907       L1    16  0.14
      P1  H  7989  7998       L1    12  0.99
      P1  H 10752 10765       L1    18  0.15

> <Gold.Chemscore.Hbond.Weighted>
-6.5533

> <Gold.Chemscore.Metal.Weighted>
-0.0000

> <Gold.Chemscore.Lipo.Weighted>
-12.2248

> <Gold.Chemscore.Internal_Hbond.Weighted>
0.0000

> <Gold.Chemscore.DEClash.Weighted>
0.3217

> <Gold.Chemscore.DEInternal.Weighted>
1.7948

> <Gold.Chemscore.Rot.Weighted>
6.8286

> <Gold.Chemscore.Internal.Correction.Weighted>
   9.000000E+99

> <Gold.Protein.RotatedTorsions>
[ 6907 6896 6895 6894 ] final -103.32 input  -60.11 | X-H torsion
[ 7974 7965 7964 7962 ] final -145.46 input  175.53 | X-H torsion
[ 8008 7997 7996 7995 ] final  -46.40 input   59.86 | X-H torsion
[ 10167 10162 10161 10158 ] final -109.48 input  -65.29 | X-H torsion
[ 10718 10713 10712 10709 ] final  -14.29 input   66.30 | X-H torsion
[ 10763 10752 10751 10750 ] final -132.08 input  -60.55 | X-H torsion
[ 11005 11000 10999 10996 ] final  141.43 input  -57.11 | X-H torsion

> <Gold.Protein.ActiveResidues>
 VAL166  LYS551  ARG553  GLY616  TRP617  ASP618  TYR619  PRO620  LYS621  CYS622 
 ASP623  PHE694  ASN695  SER759  ASP760  ASP761  ALA762  ILE779  LEU786  VAL792 
 PHE793  MET794  SER795  GLU796  ALA797  LYS798  CYS799  TRP800  GLU811  SER814 

> <Gold.Protein.RotatedAtoms>
  150.7235  134.0447  159.3777 H   0  0  0  0  0  0  0  0  0  0  0  0  # atno 6907 bound_to 6896
  151.8421  135.0584  160.0458 H   0  0  0  0  0  0  0  0  0  0  0  0  # atno 6908 bound_to 6896
  152.2854  133.5474  159.5560 H   0  0  0  0  0  0  0  0  0  0  0  0  # atno 6909 bound_to 6896
  144.8226  140.5580  143.5568 H   0  0  0  0  0  0  0  0  0  0  0  0  # atno 7974 bound_to 7965
  154.4007  140.1372  156.4005 H   0  0  0  0  0  0  0  0  0  0  0  0  # atno 8008 bound_to 7997
  155.7828  140.3481  155.5286 H   0  0  0  0  0  0  0  0  0  0  0  0  # atno 8009 bound_to 7997
  155.8656  140.0963  157.1574 H   0  0  0  0  0  0  0  0  0  0  0  0  # atno 8010 bound_to 7997
  140.1548  143.4169  152.1468 H   0  0  0  0  0  0  0  0  0  0  0  0  # atno 10167 bound_to 10162
  156.6180  130.4867  149.6175 H   0  0  0  0  0  0  0  0  0  0  0  0  # atno 10718 bound_to 10713
  154.8746  135.3809  154.4351 H   0  0  0  0  0  0  0  0  0  0  0  0  # atno 10763 bound_to 10752
  153.5041  135.7030  153.5821 H   0  0  0  0  0  0  0  0  0  0  0  0  # atno 10764 bound_to 10752
  153.4139  135.3918  155.2035 H   0  0  0  0  0  0  0  0  0  0  0  0  # atno 10765 bound_to 10752
  140.0400  134.9309  157.0826 H   0  0  0  0  0  0  0  0  0  0  0  0  # atno 11005 bound_to 11000
  145.5072  139.1481  143.3625 LP  0  0  0  0  0  0  0  0  0  0  0  0  # atno 17320 bound_to 7965
  146.2531  140.5212  142.8885 LP  0  0  0  0  0  0  0  0  0  0  0  0  # atno 17321 bound_to 7965
  139.5409  144.7255  151.4739 LP  0  0  0  0  0  0  0  0  0  0  0  0  # atno 17342 bound_to 10162
  140.6680  143.8356  150.6965 LP  0  0  0  0  0  0  0  0  0  0  0  0  # atno 17343 bound_to 10162
  156.2335  130.6808  151.1486 LP  0  0  0  0  0  0  0  0  0  0  0  0  # atno 17370 bound_to 10713
  157.7236  131.0665  150.6032 LP  0  0  0  0  0  0  0  0  0  0  0  0  # atno 17371 bound_to 10713
  140.4084  134.2008  155.7163 LP  0  0  0  0  0  0  0  0  0  0  0  0  # atno 17394 bound_to 11000
  141.1878  133.8273  157.1018 LP  0  0  0  0  0  0  0  0  0  0  0  0  # atno 17395 bound_to 11000

$$$$
