#       Name:                AV-unprocessed.smi:1554
#       Creating user name   scv26
#       Creation time:       Fri Mar 27 06:43:52 2020


#       File generated by GOLD software.
#

@<TRIPOS>MOLECULE
AV-unprocessed.smi:1554
    53    55     1
SMALL
NO_CHARGES


@<TRIPOS>ATOM
      1 ****        -5.9636   3.7847   1.0231 C.3            1 S1                 0.0000
      2 ****        -4.6700   3.0403   0.7387 C.ar           1 S1                 0.0000
      3 ****        -3.7193   3.6429  -0.1155 C.ar           1 S1                 0.0000
      4 ****        -2.5462   2.9374  -0.3564 C.ar           1 S1                 0.0000
      5 ****        -1.4372   3.2490  -1.1447 N.pl3          1 S1                 1.0000
      6 ****        -0.5298   2.2364  -1.0723 C.2            1 S1                 0.0000
      7 ****        -1.0341   1.2885  -0.2325 N.pl3          1 S1                 0.0000
      8 ****        -0.4995  -0.0182   0.1899 C.3            1 S1                 0.0000
      9 ****         1.0183  -0.1808  -0.0318 C.3            1 S1                 0.0000
     10 ****         1.7019   0.8169   0.7018 O.3            1 S1                 0.0000
     11 ****         1.5148  -1.5592   0.4491 C.3            1 S1                 0.0000
     12 ****         2.9187  -1.8599   0.1608 N.3            1 S1                 0.0000
     13 ****         3.3513  -3.0540   0.8789 C.3            1 S1                 0.0000
     14 ****         4.8259  -3.3898   0.6013 C.3            1 S1                 0.0000
     15 ****         5.0212  -3.5453  -0.8002 O.3            1 S1                 0.0000
     16 ****         4.6579  -2.3854  -1.5437 C.3            1 S1                 0.0000
     17 ****         4.9209  -2.6613  -3.0280 C.3            1 S1                 0.0000
     18 ****         3.1795  -2.0473  -1.2657 C.3            1 S1                 0.0000
     19 ****        -2.2988   1.6775   0.2222 C.ar           1 S1                 0.0000
     20 ****        -3.2270   1.0674   1.0624 C.ar           1 S1                 0.0000
     21 ****        -4.4277   1.7679   1.3186 C.ar           1 S1                 0.0000
     22 ****        -5.4585   1.1278   2.2328 C.3            1 S1                 0.0000
     23 ****        -5.9885   4.7500   0.5164 H              1 S1                 0.0000
     24 ****        -6.0735   3.9677   2.0923 H              1 S1                 0.0000
     25 ****        -6.8216   3.2063   0.6798 H              1 S1                 0.0000
     26 ****        -3.8981   4.6098  -0.5628 H              1 S1                 0.0000
     27 ****         0.4209   2.1993  -1.5842 H              1 S1                 0.0000
     28 ****        -0.7260  -0.1524   1.2488 H              1 S1                 0.0000
     29 ****        -1.0471  -0.7853  -0.3593 H              1 S1                 0.0000
     30 ****         1.2312  -0.0462  -1.0914 H              1 S1                 0.0000
     31 ****         2.6310   0.6645   0.6145 H              1 S1                 0.0000
     32 ****         1.3496  -1.6181   1.5263 H              1 S1                 0.0000
     33 ****         0.8876  -2.3384   0.0132 H              1 S1                 0.0000
     34 ****         3.2122  -2.9123   1.9513 H              1 S1                 0.0000
     35 ****         2.7292  -3.9039   0.5935 H              1 S1                 0.0000
     36 ****         5.4802  -2.6046   0.9834 H              1 S1                 0.0000
     37 ****         5.1061  -4.3148   1.1053 H              1 S1                 0.0000
     38 ****         5.2875  -1.5520  -1.2268 H              1 S1                 0.0000
     39 ****         4.6719  -1.7933  -3.6389 H              1 S1                 0.0000
     40 ****         4.3269  -3.5036  -3.3843 H              1 S1                 0.0000
     41 ****         5.9712  -2.8979  -3.1999 H              1 S1                 0.0000
     42 ****         2.5445  -2.8450  -1.6546 H              1 S1                 0.0000
     43 ****         2.9238  -1.1459  -1.8204 H              1 S1                 0.0000
     44 ****        -3.0418   0.0999   1.5050 H              1 S1                 0.0000
     45 ****        -5.1286   0.1491   2.5827 H              1 S1                 0.0000
     46 ****        -6.4045   0.9918   1.7080 H              1 S1                 0.0000
     47 ****        -5.6342   1.7529   3.1087 H              1 S1                 0.0000
     48 ****        -1.3076   4.0877  -1.6957 H              1 S1                 0.0000
     49 ****         1.4400   0.7673   1.6656 LP             1 S1                 0.0000
     50 ****         1.4718   1.7203   0.3400 LP             1 S1                 0.0000
     51 ****         3.4387  -1.0632   0.4688 LP             1 S1                 0.0000
     52 ****         4.4650  -4.3139  -1.1163 LP             1 S1                 0.0000
     53 ****         5.9873  -3.7418  -0.9677 LP             1 S1                 0.0000
@<TRIPOS>BOND
    1    1    2 1     
    2    1   23 1     
    3    1   24 1     
    4    1   25 1     
    5    2   21 ar    
    6    2    3 ar    
    7    3    4 ar    
    8    3   26 1     
    9    4   19 ar    
   10    4    5 1     
   11    5    6 2     
   12    5   48 1     
   13    6    7 1     
   14    6   27 1     
   15    7    8 1     
   16    7   19 1     
   17    8    9 1     
   18    8   28 1     
   19    8   29 1     
   20    9   10 1     
   21    9   11 1     
   22    9   30 1     
   23   10   31 1     
   24   11   12 1     
   25   11   32 1     
   26   11   33 1     
   27   12   18 1     
   28   12   13 1     
   29   13   14 1     
   30   13   34 1     
   31   13   35 1     
   32   14   15 1     
   33   14   36 1     
   34   14   37 1     
   35   15   16 1     
   36   16   17 1     
   37   16   18 1     
   38   16   38 1     
   39   17   39 1     
   40   17   40 1     
   41   17   41 1     
   42   18   42 1     
   43   18   43 1     
   44   19   20 ar    
   45   20   21 ar    
   46   20   44 1     
   47   21   22 1     
   48   22   45 1     
   49   22   46 1     
   50   22   47 1     
   51   10   49 1     
   52   10   50 1     
   53   12   51 1     
   54   15   52 1     
   55   15   53 1     
@<TRIPOS>SUBSTRUCTURE
      1 S1             1
@<TRIPOS>SET
LONE_PAIRS      STATIC     ATOMS    <user>   **** ""
5 49 50 51 52 53
DONOR_HYDROGENS      STATIC     ATOMS    <user>   **** ""
2 48 31
ATOM$BLUE        STATIC     ATOMS    COLORGROUP SYSTEM
5 49 50 51 52 53
ATOM$RED        STATIC     ATOMS    COLORGROUP SYSTEM
2 48 31
