AV-unprocessed.smi:2471|AV-procd|sdf|9738|dock8
  -GOLD-   2272013383D 1   1.00000     0.00000
 Structure written by MMmdl.
 40 41  0  0  0  0  0  0  0  0  1 V2000
  153.3749  141.0586  160.3728 C   0  0  0  0  0  0  0  0  0  0  0  0
  152.6666  142.2571  159.7768 C   0  0  0  0  0  0  0  0  0  0  0  0
  152.7747  143.5306  160.3689 C   0  0  0  0  0  0  0  0  0  0  0  0
  152.0951  144.6026  159.7633 C   0  0  0  0  0  0  0  0  0  0  0  0
  151.3418  144.3591  158.5984 C   0  0  0  0  0  0  0  0  0  0  0  0
  151.2874  143.0511  158.0665 C   0  0  0  0  0  0  0  0  0  0  0  0
  150.5075  142.9120  156.8871 N   0  0  0  0  0  0  0  0  0  0  0  0
  150.2789  141.7976  156.1696 C   0  0  0  0  0  0  0  0  0  0  0  0
  150.6971  140.6729  156.4468 O   0  0  0  0  0  0  0  0  0  0  0  0
  149.5243  142.0584  155.0923 N   0  0  0  0  0  0  0  0  0  0  0  0
  149.1036  141.0664  154.1069 C   0  0  0  0  0  0  0  0  0  0  0  0
  148.0420  140.0904  154.6633 C   0  0  1  0  0  0  0  0  0  0  0  0
  146.6303  140.7152  154.7381 C   0  0  0  0  0  0  0  0  0  0  0  0
  145.6082  139.7349  155.3355 C   0  0  0  0  0  0  0  0  0  0  0  0
  145.5735  138.4139  154.5530 C   0  0  0  0  0  0  0  0  0  0  0  0
  146.9719  137.7785  154.4693 C   0  0  0  0  0  0  0  0  0  0  0  0
  148.0176  138.7503  153.8883 C   0  0  1  0  0  0  0  0  0  0  0  0
  147.7485  138.9572  152.5140 O   0  0  0  0  0  0  0  0  0  0  0  0
  151.9456  142.0237  158.6590 N   0  0  0  0  0  0  0  0  0  0  0  0
  153.7245  141.2704  161.3836 H   0  0  0  0  0  0  0  0  0  0  0  0
  154.2367  140.7890  159.7620 H   0  0  0  0  0  0  0  0  0  0  0  0
  152.7041  140.2000  160.4195 H   0  0  0  0  0  0  0  0  0  0  0  0
  153.3625  143.6845  161.2619 H   0  0  0  0  0  0  0  0  0  0  0  0
  152.1513  145.5960  160.1836 H   0  0  0  0  0  0  0  0  0  0  0  0
  150.8154  145.1724  158.1201 H   0  0  0  0  0  0  0  0  0  0  0  0
  150.0903  143.7628  156.5403 H   0  0  0  0  0  0  0  0  0  0  0  0
  149.2203  143.0089  154.9398 H   0  0  0  0  0  0  0  0  0  0  0  0
  148.7070  141.6029  153.2448 H   0  0  0  0  0  0  0  0  0  0  0  0
  149.9749  140.5153  153.7488 H   0  0  0  0  0  0  0  0  0  0  0  0
  148.3363  139.8475  155.6858 H   0  0  0  0  0  0  0  0  0  0  0  0
  146.6474  141.6208  155.3449 H   0  0  0  0  0  0  0  0  0  0  0  0
  146.3061  141.0202  153.7423 H   0  0  0  0  0  0  0  0  0  0  0  0
  145.8604  139.5354  156.3777 H   0  0  0  0  0  0  0  0  0  0  0  0
  144.6169  140.1893  155.3393 H   0  0  0  0  0  0  0  0  0  0  0  0
  144.8791  137.7200  155.0271 H   0  0  0  0  0  0  0  0  0  0  0  0
  145.1892  138.5940  153.5483 H   0  0  0  0  0  0  0  0  0  0  0  0
  147.2840  137.4770  155.4700 H   0  0  0  0  0  0  0  0  0  0  0  0
  146.9332  136.8640  153.8762 H   0  0  0  0  0  0  0  0  0  0  0  0
  149.0007  138.2826  153.9538 H   0  0  0  0  0  0  0  0  0  0  0  0
  148.5632  139.1466  152.0744 H   0  0  0  0  0  0  0  0  0  0  0  0
  1  2  1  0  0  0  0
  1 20  1  0  0  0  0
  1 21  1  0  0  0  0
  1 22  1  0  0  0  0
  2 19  1  0  0  0  0
  2  3  2  0  0  0  0
  3  4  1  0  0  0  0
  3 23  1  0  0  0  0
  4  5  2  0  0  0  0
  4 24  1  0  0  0  0
  5  6  1  0  0  0  0
  5 25  1  0  0  0  0
  6  7  1  0  0  0  0
  6 19  2  0  0  0  0
  7  8  1  0  0  0  0
  7 26  1  0  0  0  0
  8  9  2  0  0  0  0
  8 10  1  0  0  0  0
 10 11  1  0  0  0  0
 10 27  1  0  0  0  0
 11 12  1  0  0  0  0
 11 28  1  0  0  0  0
 11 29  1  0  0  0  0
 12 17  1  0  0  0  0
 12 13  1  0  0  0  0
 12 30  1  0  0  0  0
 13 14  1  0  0  0  0
 13 31  1  0  0  0  0
 13 32  1  0  0  0  0
 14 15  1  0  0  0  0
 14 33  1  0  0  0  0
 14 34  1  0  0  0  0
 15 16  1  0  0  0  0
 15 35  1  0  0  0  0
 15 36  1  0  0  0  0
 16 17  1  0  0  0  0
 16 37  1  0  0  0  0
 16 38  1  0  0  0  0
 17 18  1  0  0  0  0
 17 39  1  0  0  0  0
 18 40  1  0  0  0  0
M  END
> <s_m_source_file>
AV-unprocessed.smi

> <i_m_source_file_index>
2471

> <i_lp_mmshare_version>
43012

> <i_f3d_flags>
0

> <s_epik_input>
W0NIM11jMVtjSF1bY0hdW2NIXWMobjEpW05IXUMoPU8pW05IXVtDSDJdW0NAQEhdMltDSDJdW0NIMl1bQ0gyXVtDSDJdW0NASF0yW09IXQ==

> <s_epik_cmdline>
J2VwaWtfcHl0aG9uJywgJy1waCcsICc3LjAnLCAnLXRuJywgJzgnLCAnLW1hJywgJzIwMCcsICctbWV0YWxfYmluZGluZycsICctaW1hZScsICc8aW5maWxlLm1hZT4nLCAnLW9tYWUnLCAnPG91dGZpbGUubWFlPic=

> <r_lp_tautomer_probability>
1

> <r_epik_Ionization_Penalty>
8.52237e-05

> <r_epik_Ionization_Penalty_Charging>
0

> <r_epik_Ionization_Penalty_Neutral>
8.52237e-05

> <r_epik_State_Penalty>
-0

> <r_epik_Charging_Adjusted_Penalty>
0

> <i_epik_Tot_Q>
0

> <i_epik_Tot_abs_Q>
0

> <r_epik_Metal_State_Penalty>
-0

> <b_epik_Metal_Only>
0

> <s_lp_Force_Field>
OPLS_2005

> <r_lp_Energy>
16.6086

> <b_lp_Chiralities_Consistent>
1

> <s_lp_Variant>
AV-unprocessed.smi:2471-2

> <Gold.Version>
5.8.1

> <Gold.Id.Protein>
6NUR|6NUR_protein|mol2

> <Gold.PLP.Fitness>
45.4562

> <Gold.PLP.PLP>
-36.9647

> <Gold.PLP.part.hbond>
-3.8231

> <Gold.PLP.part.metal>
0.0000

> <Gold.PLP.part.buried>
-4.4587

> <Gold.PLP.part.nonpolar>
-29.0166

> <Gold.PLP.part.repulsive>
0.2733

> <Gold.PLP.ligand.clash>
0.0000

> <Gold.PLP.ligand.torsion>
0.2480

> <Gold.PLP.Chemscore.Hbond>
2.9920

> <Gold.PLP.Chemscore.CHOScore>
0.0000

> <Gold.PLP.Chemscore.Metal>
0.0000

> <Gold.Chemscore.Hbonds>
donor molecule, donor type, donor heavy atom, donor atom, acceptor molecule, acceptor atom, score
      L1  H     7    26       P1  8028  1.00
      L1  H    10    27       P1  8028  0.99
      L1  H    18    40       P1  7957  1.00

> <Gold.PLP.Chemscore.Internal.Correction>
0.0115

> <Gold.Rescore>
     Score         DG    S(hbond)    S(metal)    S(lipo)     H(rot)  DE(clash)    DE(int)     intcor
     19.25     -20.78       2.93        0.00      85.08       1.73       0.01       1.52       ----

> <Gold.Chemscore.Fitness>
19.2535

> <Gold.Chemscore.DG>
-20.7838

> <Gold.Chemscore.ZeroCoef>
-5.4800

> <Gold.Chemscore.Hbond>
2.9306

> <Gold.Chemscore.Metal>
0.0000

> <Gold.Chemscore.Lipo>
85.0802

> <Gold.Chemscore.Internal_Hbond>
0.0000

> <Gold.Chemscore.DEClash>
0.0135

> <Gold.Chemscore.DEInternal>
1.5167

> <Gold.Chemscore.Rot>
1.7339

> <Gold.Chemscore.Internal.Correction>
   9.000000E+99

> <Gold.Chemscore.Hbonds>
donor molecule, donor type, donor heavy atom, donor atom, acceptor molecule, acceptor atom, score
      L1  H     7    26       P1  8028  0.99
      L1  H    10    27       P1  8028  0.93
      L1  H    18    40       P1  7957  0.97

> <Gold.Chemscore.Hbond.Weighted>
-9.7881

> <Gold.Chemscore.Metal.Weighted>
-0.0000

> <Gold.Chemscore.Lipo.Weighted>
-9.9544

> <Gold.Chemscore.Internal_Hbond.Weighted>
0.0000

> <Gold.Chemscore.DEClash.Weighted>
0.0135

> <Gold.Chemscore.DEInternal.Weighted>
1.5167

> <Gold.Chemscore.Rot.Weighted>
4.4387

> <Gold.Chemscore.Internal.Correction.Weighted>
   9.000000E+99

> <Gold.Protein.RotatedTorsions>
[ 6907 6896 6895 6894 ] final -107.32 input  -60.11 | X-H torsion
[ 7974 7965 7964 7962 ] final   -6.19 input  175.53 | X-H torsion
[ 8008 7997 7996 7995 ] final   24.86 input   59.86 | X-H torsion
[ 10167 10162 10161 10158 ] final    1.35 input  -65.29 | X-H torsion
[ 10718 10713 10712 10709 ] final  110.14 input   66.30 | X-H torsion
[ 10763 10752 10751 10750 ] final   -2.86 input  -60.55 | X-H torsion
[ 11005 11000 10999 10996 ] final  -97.01 input  -57.11 | X-H torsion

> <Gold.Protein.ActiveResidues>
 VAL166  LYS551  ARG553  GLY616  TRP617  ASP618  TYR619  PRO620  LYS621  CYS622 
 ASP623  PHE694  ASN695  SER759  ASP760  ASP761  ALA762  ILE779  LEU786  VAL792 
 PHE793  MET794  SER795  GLU796  ALA797  LYS798  CYS799  TRP800  GLU811  SER814 

> <Gold.Protein.RotatedAtoms>
  150.7438  133.9844  159.3586 H   0  0  0  0  0  0  0  0  0  0  0  0  # atno 6907 bound_to 6896
  151.7787  135.0765  160.0380 H   0  0  0  0  0  0  0  0  0  0  0  0  # atno 6908 bound_to 6896
  152.3289  133.5899  159.5832 H   0  0  0  0  0  0  0  0  0  0  0  0  # atno 6909 bound_to 6896
  146.2336  140.2133  142.8336 H   0  0  0  0  0  0  0  0  0  0  0  0  # atno 7974 bound_to 7965
  155.0028  140.3127  155.4860 H   0  0  0  0  0  0  0  0  0  0  0  0  # atno 8008 bound_to 7997
  156.2922  140.2228  156.5080 H   0  0  0  0  0  0  0  0  0  0  0  0  # atno 8009 bound_to 7997
  154.7603  140.0459  157.0956 H   0  0  0  0  0  0  0  0  0  0  0  0  # atno 8010 bound_to 7997
  140.6687  143.7109  150.7878 H   0  0  0  0  0  0  0  0  0  0  0  0  # atno 10167 bound_to 10162
  157.6508  131.0927  150.6558 H   0  0  0  0  0  0  0  0  0  0  0  0  # atno 10718 bound_to 10713
  153.3636  135.6991  153.6693 H   0  0  0  0  0  0  0  0  0  0  0  0  # atno 10763 bound_to 10752
  153.5371  135.3580  155.2702 H   0  0  0  0  0  0  0  0  0  0  0  0  # atno 10764 bound_to 10752
  154.8671  135.4194  154.2899 H   0  0  0  0  0  0  0  0  0  0  0  0  # atno 10765 bound_to 10752
  141.1393  133.8139  157.0648 H   0  0  0  0  0  0  0  0  0  0  0  0  # atno 11005 bound_to 11000
  144.9689  140.8349  143.5467 LP  0  0  0  0  0  0  0  0  0  0  0  0  # atno 17320 bound_to 7965
  145.2112  139.2204  143.5142 LP  0  0  0  0  0  0  0  0  0  0  0  0  # atno 17321 bound_to 7965
  140.0790  143.4987  152.2540 LP  0  0  0  0  0  0  0  0  0  0  0  0  # atno 17342 bound_to 10162
  139.5946  144.7562  151.3318 LP  0  0  0  0  0  0  0  0  0  0  0  0  # atno 17343 bound_to 10162
  156.6869  130.4583  149.5611 LP  0  0  0  0  0  0  0  0  0  0  0  0  # atno 17370 bound_to 10713
  156.1889  130.6547  151.1038 LP  0  0  0  0  0  0  0  0  0  0  0  0  # atno 17371 bound_to 10713
  140.0548  134.9786  157.1202 LP  0  0  0  0  0  0  0  0  0  0  0  0  # atno 17394 bound_to 11000
  140.3935  134.2159  155.7165 LP  0  0  0  0  0  0  0  0  0  0  0  0  # atno 17395 bound_to 11000

$$$$
