AV-unprocessed.smi:1542|AV-procd|sdf|6203|dock6
  -GOLD-   22720 6373D 1   1.00000     0.00000
 Structure written by MMmdl.
 45 47  0  0  0  0  0  0  0  0  1 V2000
  150.0733  138.4748  153.5020 O   0  0  0  0  0  0  0  0  0  0  0  0
  151.1409  138.1066  154.3482 C   0  0  0  0  0  0  0  0  0  0  0  0
  151.6120  139.3236  155.1549 C   0  0  0  0  0  0  0  0  0  0  0  0
  150.5992  139.7384  156.2317 C   0  0  0  0  0  0  0  0  0  0  0  0
  151.0567  140.9284  157.0226 C   0  0  0  0  0  0  0  0  0  0  0  0
  151.0385  142.1533  156.4961 N   0  0  0  0  0  0  0  0  0  0  0  0
  151.4482  142.9447  157.5495 C   0  0  0  0  0  0  0  0  0  0  0  0
  151.6260  144.3446  157.6281 C   0  0  0  0  0  0  0  0  0  0  0  0
  152.0423  144.9448  158.8342 C   0  0  0  0  0  0  0  0  0  0  0  0
  152.2815  144.1557  159.9773 C   0  0  0  0  0  0  0  0  0  0  0  0
  152.1108  142.7592  159.9197 C   0  0  0  0  0  0  0  0  0  0  0  0
  151.7049  142.1618  158.7104 C   0  0  0  0  0  0  0  0  0  0  0  0
  151.4600  140.8469  158.3181 N   0  0  0  0  0  0  0  0  0  0  0  0
  151.5809  139.6577  159.1591 C   0  0  0  0  0  0  0  0  0  0  0  0
  153.0393  139.2381  159.4950 C   0  0  0  0  0  0  0  0  0  0  0  0
  153.7435  139.0618  158.2794 O   0  0  0  0  0  0  0  0  0  0  0  0
  153.7937  140.3070  160.3245 C   0  0  0  0  0  0  0  0  0  0  0  0
  155.1876  139.8438  160.7854 C   0  0  0  0  0  0  0  0  0  0  0  0
  155.1117  138.5159  161.5505 C   0  0  0  0  0  0  0  0  0  0  0  0
  154.4294  137.4344  160.7024 C   0  0  0  0  0  0  0  0  0  0  0  0
  153.0304  137.8835  160.2426 C   0  0  0  0  0  0  0  0  0  0  0  0
  149.8198  137.7209  152.9915 H   0  0  0  0  0  0  0  0  0  0  0  0
  150.8087  137.3084  155.0126 H   0  0  0  0  0  0  0  0  0  0  0  0
  151.9548  137.7100  153.7405 H   0  0  0  0  0  0  0  0  0  0  0  0
  152.5700  139.0978  155.6255 H   0  0  0  0  0  0  0  0  0  0  0  0
  151.7881  140.1630  154.4808 H   0  0  0  0  0  0  0  0  0  0  0  0
  149.6317  139.9325  155.7740 H   0  0  0  0  0  0  0  0  0  0  0  0
  150.4395  138.9096  156.9226 H   0  0  0  0  0  0  0  0  0  0  0  0
  151.4377  144.9578  156.7594 H   0  0  0  0  0  0  0  0  0  0  0  0
  152.1742  146.0157  158.8834 H   0  0  0  0  0  0  0  0  0  0  0  0
  152.5959  144.6229  160.8990 H   0  0  0  0  0  0  0  0  0  0  0  0
  152.2901  142.1563  160.7967 H   0  0  0  0  0  0  0  0  0  0  0  0
  151.0361  139.8489  160.0843 H   0  0  0  0  0  0  0  0  0  0  0  0
  151.0499  138.8346  158.6805 H   0  0  0  0  0  0  0  0  0  0  0  0
  153.5475  138.2003  157.9438 H   0  0  0  0  0  0  0  0  0  0  0  0
  153.8970  141.2326  159.7574 H   0  0  0  0  0  0  0  0  0  0  0  0
  153.2054  140.5518  161.2091 H   0  0  0  0  0  0  0  0  0  0  0  0
  155.8458  139.7330  159.9228 H   0  0  0  0  0  0  0  0  0  0  0  0
  155.6394  140.6087  161.4176 H   0  0  0  0  0  0  0  0  0  0  0  0
  156.1135  138.1912  161.8333 H   0  0  0  0  0  0  0  0  0  0  0  0
  154.5581  138.6583  162.4795 H   0  0  0  0  0  0  0  0  0  0  0  0
  155.0491  137.2033  159.8354 H   0  0  0  0  0  0  0  0  0  0  0  0
  154.3499  136.5105  161.2758 H   0  0  0  0  0  0  0  0  0  0  0  0
  152.3875  137.9642  161.1203 H   0  0  0  0  0  0  0  0  0  0  0  0
  152.5862  137.1091  159.6154 H   0  0  0  0  0  0  0  0  0  0  0  0
  1  2  1  0  0  0  0
  1 22  1  0  0  0  0
  2  3  1  0  0  0  0
  2 23  1  0  0  0  0
  2 24  1  0  0  0  0
  3  4  1  0  0  0  0
  3 25  1  0  0  0  0
  3 26  1  0  0  0  0
  4  5  1  0  0  0  0
  4 27  1  0  0  0  0
  4 28  1  0  0  0  0
  5 13  1  0  0  0  0
  5  6  2  0  0  0  0
  6  7  1  0  0  0  0
  7 12  2  0  0  0  0
  7  8  1  0  0  0  0
  8  9  2  0  0  0  0
  8 29  1  0  0  0  0
  9 10  1  0  0  0  0
  9 30  1  0  0  0  0
 10 11  2  0  0  0  0
 10 31  1  0  0  0  0
 11 12  1  0  0  0  0
 11 32  1  0  0  0  0
 12 13  1  0  0  0  0
 13 14  1  0  0  0  0
 14 15  1  0  0  0  0
 14 33  1  0  0  0  0
 14 34  1  0  0  0  0
 15 21  1  0  0  0  0
 15 16  1  0  0  0  0
 15 17  1  0  0  0  0
 16 35  1  0  0  0  0
 17 18  1  0  0  0  0
 17 36  1  0  0  0  0
 17 37  1  0  0  0  0
 18 19  1  0  0  0  0
 18 38  1  0  0  0  0
 18 39  1  0  0  0  0
 19 20  1  0  0  0  0
 19 40  1  0  0  0  0
 19 41  1  0  0  0  0
 20 21  1  0  0  0  0
 20 42  1  0  0  0  0
 20 43  1  0  0  0  0
 21 44  1  0  0  0  0
 21 45  1  0  0  0  0
M  END
> <s_m_source_file>
AV-unprocessed.smi

> <i_m_source_file_index>
1542

> <i_lp_mmshare_version>
43012

> <i_f3d_flags>
0

> <s_epik_input>
W09IXVtDSDJdW0NIMl1bQ0gyXWMobjEpbihjKGMxMilbY0hdW2NIXVtjSF1bY0hdMilbQ0gyXUMzKFtPSF0pW0NIMl1bQ0gyXVtDSDJdW0NIMl1bQ0gyXTM=

> <s_epik_cmdline>
J2VwaWtfcHl0aG9uJywgJy1waCcsICc3LjAnLCAnLXRuJywgJzgnLCAnLW1hJywgJzIwMCcsICctbWV0YWxfYmluZGluZycsICctaW1hZScsICc8aW5maWxlLm1hZT4nLCAnLW9tYWUnLCAnPG91dGZpbGUubWFlPic=

> <r_epik_Ionization_Penalty>
0.294093

> <r_epik_Ionization_Penalty_Charging>
0

> <r_epik_Ionization_Penalty_Neutral>
0.294093

> <r_epik_State_Penalty>
0.287281

> <r_epik_Charging_Adjusted_Penalty>
0.287281

> <i_epik_Tot_Q>
0

> <i_epik_Tot_abs_Q>
0

> <r_epik_Metal_State_Penalty>
0.000369578

> <b_epik_Metal_Only>
0

> <s_lp_Force_Field>
OPLS_2005

> <r_lp_Energy>
13.7601

> <b_lp_Chiralities_Consistent>
1

> <s_lp_Variant>
AV-unprocessed.smi:1542-1

> <Gold.Version>
5.8.1

> <Gold.Id.Protein>
6NUR|6NUR_protein|mol2

> <Gold.PLP.Fitness>
53.1325

> <Gold.PLP.PLP>
-47.4695

> <Gold.PLP.part.hbond>
-3.0000

> <Gold.PLP.part.metal>
0.0000

> <Gold.PLP.part.buried>
-5.2109

> <Gold.PLP.part.nonpolar>
-39.6975

> <Gold.PLP.part.repulsive>
0.0857

> <Gold.PLP.ligand.clash>
0.0000

> <Gold.PLP.ligand.torsion>
0.3140

> <Gold.PLP.Chemscore.Hbond>
2.0000

> <Gold.PLP.Chemscore.CHOScore>
0.0000

> <Gold.PLP.Chemscore.Metal>
0.0000

> <Gold.Chemscore.Hbonds>
donor molecule, donor type, donor heavy atom, donor atom, acceptor molecule, acceptor atom, score
      L1  H     1    22       P1  7948  1.00
      P1  H  7997  8008       L1    16  1.00

> <Gold.PLP.Chemscore.Internal.Correction>
0.2910

> <Gold.Rescore>
     Score         DG    S(hbond)    S(metal)    S(lipo)     H(rot)  DE(clash)    DE(int)     intcor
     20.20     -20.58       1.97        0.00     132.89       2.74       0.03       0.35       ----

> <Gold.Chemscore.Fitness>
20.1957

> <Gold.Chemscore.DG>
-20.5825

> <Gold.Chemscore.ZeroCoef>
-5.4800

> <Gold.Chemscore.Hbond>
1.9703

> <Gold.Chemscore.Metal>
0.0000

> <Gold.Chemscore.Lipo>
132.8938

> <Gold.Chemscore.Internal_Hbond>
0.0000

> <Gold.Chemscore.DEClash>
0.0343

> <Gold.Chemscore.DEInternal>
0.3525

> <Gold.Chemscore.Rot>
2.7449

> <Gold.Chemscore.Internal.Correction>
   9.000000E+99

> <Gold.Chemscore.Hbonds>
donor molecule, donor type, donor heavy atom, donor atom, acceptor molecule, acceptor atom, score
      L1  H     1    22       P1  7948  0.48
      P1  H  7997  8008       L1    16  0.74

> <Gold.Chemscore.Hbond.Weighted>
-6.5809

> <Gold.Chemscore.Metal.Weighted>
-0.0000

> <Gold.Chemscore.Lipo.Weighted>
-15.5486

> <Gold.Chemscore.Internal_Hbond.Weighted>
0.0000

> <Gold.Chemscore.DEClash.Weighted>
0.0343

> <Gold.Chemscore.DEInternal.Weighted>
0.3525

> <Gold.Chemscore.Rot.Weighted>
7.0269

> <Gold.Chemscore.Internal.Correction.Weighted>
   9.000000E+99

> <Gold.Protein.RotatedTorsions>
[ 6907 6896 6895 6894 ] final   48.65 input  -60.11 | X-H torsion
[ 7974 7965 7964 7962 ] final  -13.08 input  175.53 | X-H torsion
[ 8008 7997 7996 7995 ] final  -86.37 input   59.86 | X-H torsion
[ 10167 10162 10161 10158 ] final  105.47 input  -65.29 | X-H torsion
[ 10718 10713 10712 10709 ] final -136.57 input   66.30 | X-H torsion
[ 10763 10752 10751 10750 ] final  104.52 input  -60.55 | X-H torsion
[ 11005 11000 10999 10996 ] final  178.35 input  -57.11 | X-H torsion

> <Gold.Protein.ActiveResidues>
 VAL166  LYS551  ARG553  GLY616  TRP617  ASP618  TYR619  PRO620  LYS621  CYS622 
 ASP623  PHE694  ASN695  SER759  ASP760  ASP761  ALA762  ILE779  LEU786  VAL792 
 PHE793  MET794  SER795  GLU796  ALA797  LYS798  CYS799  TRP800  GLU811  SER814 

> <Gold.Protein.RotatedAtoms>
  152.2819  134.7819  160.0394 H   0  0  0  0  0  0  0  0  0  0  0  0  # atno 6907 bound_to 6896
  151.8395  133.3416  159.3646 H   0  0  0  0  0  0  0  0  0  0  0  0  # atno 6908 bound_to 6896
  150.7193  134.5334  159.5755 H   0  0  0  0  0  0  0  0  0  0  0  0  # atno 6909 bound_to 6896
  146.2128  140.3151  142.8386 H   0  0  0  0  0  0  0  0  0  0  0  0  # atno 7974 bound_to 7965
  154.6512  140.0579  156.9957 H   0  0  0  0  0  0  0  0  0  0  0  0  # atno 8008 bound_to 7997
  155.1369  140.3262  155.4442 H   0  0  0  0  0  0  0  0  0  0  0  0  # atno 8009 bound_to 7997
  156.2576  140.1971  156.6486 H   0  0  0  0  0  0  0  0  0  0  0  0  # atno 8010 bound_to 7997
  139.7090  144.7081  151.1059 H   0  0  0  0  0  0  0  0  0  0  0  0  # atno 10167 bound_to 10162
  156.2785  130.7307  151.1297 H   0  0  0  0  0  0  0  0  0  0  0  0  # atno 10718 bound_to 10713
  153.3671  135.3940  155.1761 H   0  0  0  0  0  0  0  0  0  0  0  0  # atno 10763 bound_to 10752
  154.8688  135.3693  154.5025 H   0  0  0  0  0  0  0  0  0  0  0  0  # atno 10764 bound_to 10752
  153.5490  135.7083  153.5661 H   0  0  0  0  0  0  0  0  0  0  0  0  # atno 10765 bound_to 10752
  140.3942  134.6835  157.4525 H   0  0  0  0  0  0  0  0  0  0  0  0  # atno 11005 bound_to 11000
  144.8960  140.7583  143.5897 LP  0  0  0  0  0  0  0  0  0  0  0  0  # atno 17320 bound_to 7965
  145.3075  139.1829  143.4656 LP  0  0  0  0  0  0  0  0  0  0  0  0  # atno 17321 bound_to 7965
  140.7728  143.5319  150.9413 LP  0  0  0  0  0  0  0  0  0  0  0  0  # atno 17342 bound_to 10162
  139.9004  143.6843  152.3132 LP  0  0  0  0  0  0  0  0  0  0  0  0  # atno 17343 bound_to 10162
  157.7307  131.0614  150.5714 LP  0  0  0  0  0  0  0  0  0  0  0  0  # atno 17370 bound_to 10713
  156.5818  130.4306  149.5974 LP  0  0  0  0  0  0  0  0  0  0  0  0  # atno 17371 bound_to 10713
  140.0384  134.6303  155.9013 LP  0  0  0  0  0  0  0  0  0  0  0  0  # atno 17394 bound_to 11000
  141.1880  133.6561  156.5306 LP  0  0  0  0  0  0  0  0  0  0  0  0  # atno 17395 bound_to 11000

$$$$
