AV-unprocessed.smi:1605|AV-procd|sdf|6453|dock5
  -GOLD-   22720 7103D 1   1.00000     0.00000
 Structure written by MMmdl.
 51 53  0  0  0  0  0  0  0  0  2 V2000
  146.8331  135.5483  154.4487 C   0  0  0  0  0  0  0  0  0  0  0  0
  147.1179  136.5567  153.4915 O   0  0  0  0  0  0  0  0  0  0  0  0
  145.9678  137.2029  152.9577 C   0  0  2  0  0  0  0  0  0  0  0  0
  146.4428  138.2494  151.9380 C   0  0  0  0  0  0  0  0  0  0  0  0
  147.1935  139.4079  152.6186 C   0  0  0  0  0  0  0  0  0  0  0  0
  146.3601  140.0462  153.6697 N   0  3  2  0  0  0  0  0  0  0  0  0
  147.0042  141.2547  154.2468 C   0  0  0  0  0  0  0  0  0  0  0  0
  147.9926  140.9094  155.3780 C   0  0  2  0  0  0  0  0  0  0  0  0
  147.7543  141.7730  156.4735 O   0  0  0  0  0  0  0  0  0  0  0  0
  149.4594  141.0515  154.9286 C   0  0  0  0  0  0  0  0  0  0  0  0
  150.3750  140.3607  155.8186 N   0  0  0  0  0  0  0  0  0  0  0  0
  150.8679  139.1149  155.6783 C   0  0  0  0  0  0  0  0  0  0  0  0
  151.7040  138.6822  156.6175 N   0  0  0  0  0  0  0  0  0  0  0  0
  151.7569  139.7726  157.4690 C   0  0  0  0  0  0  0  0  0  0  0  0
  152.4734  139.9654  158.6703 C   0  0  0  0  0  0  0  0  0  0  0  0
  152.3740  141.1797  159.3867 C   0  0  0  0  0  0  0  0  0  0  0  0
  153.1629  141.3447  160.6737 C   0  0  0  0  0  0  0  0  0  0  0  0
  151.5467  142.2249  158.9026 C   0  0  0  0  0  0  0  0  0  0  0  0
  151.4219  143.5368  159.6571 C   0  0  0  0  0  0  0  0  0  0  0  0
  150.8261  142.0499  157.7026 C   0  0  0  0  0  0  0  0  0  0  0  0
  150.9338  140.8374  156.9991 C   0  0  0  0  0  0  0  0  0  0  0  0
  145.9297  139.0605  154.6972 C   0  0  0  0  0  0  0  0  0  0  0  0
  145.1466  137.9007  154.0587 C   0  0  0  0  0  0  0  0  0  0  0  0
  147.7650  135.0864  154.7747 H   0  0  0  0  0  0  0  0  0  0  0  0
  146.2046  134.7650  154.0234 H   0  0  0  0  0  0  0  0  0  0  0  0
  146.3395  135.9528  155.3319 H   0  0  0  0  0  0  0  0  0  0  0  0
  145.3476  136.4711  152.4371 H   0  0  0  0  0  0  0  0  0  0  0  0
  147.0810  137.7784  151.1893 H   0  0  0  0  0  0  0  0  0  0  0  0
  145.5816  138.6463  151.3988 H   0  0  0  0  0  0  0  0  0  0  0  0
  148.1258  139.0500  153.0582 H   0  0  0  0  0  0  0  0  0  0  0  0
  147.4635  140.1472  151.8635 H   0  0  0  0  0  0  0  0  0  0  0  0
  147.5083  141.8055  153.4512 H   0  0  0  0  0  0  0  0  0  0  0  0
  146.2446  141.9290  154.6458 H   0  0  0  0  0  0  0  0  0  0  0  0
  147.8345  139.8861  155.7164 H   0  0  0  0  0  0  0  0  0  0  0  0
  148.2953  142.5421  156.3774 H   0  0  0  0  0  0  0  0  0  0  0  0
  149.5886  140.6391  153.9271 H   0  0  0  0  0  0  0  0  0  0  0  0
  149.7469  142.1026  154.8731 H   0  0  0  0  0  0  0  0  0  0  0  0
  150.6021  138.4919  154.8366 H   0  0  0  0  0  0  0  0  0  0  0  0
  153.1029  139.1691  159.0390 H   0  0  0  0  0  0  0  0  0  0  0  0
  153.8530  142.1850  160.5938 H   0  0  0  0  0  0  0  0  0  0  0  0
  153.7472  140.4523  160.8997 H   0  0  0  0  0  0  0  0  0  0  0  0
  152.4920  141.5259  161.5136 H   0  0  0  0  0  0  0  0  0  0  0  0
  150.7319  144.2185  159.1589 H   0  0  0  0  0  0  0  0  0  0  0  0
  152.3910  144.0316  159.7257 H   0  0  0  0  0  0  0  0  0  0  0  0
  151.0489  143.3632  160.6667 H   0  0  0  0  0  0  0  0  0  0  0  0
  150.1940  142.8385  157.3222 H   0  0  0  0  0  0  0  0  0  0  0  0
  146.8036  138.6769  155.2262 H   0  0  0  0  0  0  0  0  0  0  0  0
  145.2982  139.5393  155.4444 H   0  0  0  0  0  0  0  0  0  0  0  0
  144.2252  138.2908  153.6245 H   0  0  0  0  0  0  0  0  0  0  0  0
  144.8358  137.1916  154.8253 H   0  0  0  0  0  0  0  0  0  0  0  0
  145.5243  140.3717  153.2048 H   0  0  0  0  0  0  0  0  0  0  0  0
  1  2  1  0  0  0  0
  1 24  1  0  0  0  0
  1 25  1  0  0  0  0
  1 26  1  0  0  0  0
  2  3  1  0  0  0  0
  3 23  1  0  0  0  0
  3  4  1  0  0  0  0
  3 27  1  0  0  0  0
  4  5  1  0  0  0  0
  4 28  1  0  0  0  0
  4 29  1  0  0  0  0
  5  6  1  0  0  0  0
  5 30  1  0  0  0  0
  5 31  1  0  0  0  0
  6  7  1  0  0  0  0
  6 22  1  0  0  0  0
  6 51  1  0  0  0  0
  7  8  1  0  0  0  0
  7 32  1  0  0  0  0
  7 33  1  0  0  0  0
  8  9  1  0  0  0  0
  8 10  1  0  0  0  0
  8 34  1  0  0  0  0
  9 35  1  0  0  0  0
 10 11  1  0  0  0  0
 10 36  1  0  0  0  0
 10 37  1  0  0  0  0
 11 21  1  0  0  0  0
 11 12  1  0  0  0  0
 12 13  2  0  0  0  0
 12 38  1  0  0  0  0
 13 14  1  0  0  0  0
 14 21  2  0  0  0  0
 14 15  1  0  0  0  0
 15 16  2  0  0  0  0
 15 39  1  0  0  0  0
 16 17  1  0  0  0  0
 16 18  1  0  0  0  0
 17 40  1  0  0  0  0
 17 41  1  0  0  0  0
 17 42  1  0  0  0  0
 18 19  1  0  0  0  0
 18 20  2  0  0  0  0
 19 43  1  0  0  0  0
 19 44  1  0  0  0  0
 19 45  1  0  0  0  0
 20 21  1  0  0  0  0
 20 46  1  0  0  0  0
 22 23  1  0  0  0  0
 22 47  1  0  0  0  0
 22 48  1  0  0  0  0
 23 49  1  0  0  0  0
 23 50  1  0  0  0  0
M  CHG  1   6   1
M  END
> <s_m_source_file>
AV-unprocessed.smi

> <i_m_source_file_index>
1605

> <i_lp_mmshare_version>
43012

> <i_f3d_flags>
0

> <s_epik_input>
W0NIM11PW0NIXTFbQ0gyXVtDSDJdTihbQ0gyXVtDSDJdMSlbQ0gyXVtDQEhdKFtPSF0pW0NIMl1uKFtjSF1uMiljKGMyMylbY0hdYyhbQ0gzXSljKFtjSF0zKVtDSDNd

> <s_epik_cmdline>
J2VwaWtfcHl0aG9uJywgJy1waCcsICc3LjAnLCAnLXRuJywgJzgnLCAnLW1hJywgJzIwMCcsICctbWV0YWxfYmluZGluZycsICctaW1hZScsICc8aW5maWxlLm1hZT4nLCAnLW9tYWUnLCAnPG91dGZpbGUubWFlPic=

> <r_epik_Ionization_Penalty>
0.110943

> <r_epik_Ionization_Penalty_Charging>
0.0229283

> <r_epik_Ionization_Penalty_Neutral>
0.0880146

> <r_epik_State_Penalty>
0.0947554

> <r_epik_Charging_Adjusted_Penalty>
0.117684

> <i_epik_Tot_Q>
1

> <i_epik_Tot_abs_Q>
1

> <r_epik_Metal_State_Penalty>
0.0192456

> <b_epik_Metal_Only>
0

> <s_lp_Force_Field>
OPLS_2005

> <r_lp_Energy>
23.6879

> <b_lp_Chiralities_Consistent>
1

> <s_lp_Variant>
AV-unprocessed.smi:1605-3

> <Gold.Version>
5.8.1

> <Gold.Id.Protein>
6NUR|6NUR_protein|mol2

> <Gold.PLP.Fitness>
48.7886

> <Gold.PLP.PLP>
-42.3928

> <Gold.PLP.part.hbond>
-1.8684

> <Gold.PLP.part.metal>
0.0000

> <Gold.PLP.part.buried>
-1.9636

> <Gold.PLP.part.nonpolar>
-39.4667

> <Gold.PLP.part.repulsive>
0.0973

> <Gold.PLP.ligand.clash>
0.0000

> <Gold.PLP.ligand.torsion>
1.3471

> <Gold.PLP.Chemscore.Hbond>
3.0000

> <Gold.PLP.Chemscore.CHOScore>
0.0000

> <Gold.PLP.Chemscore.Metal>
0.0000

> <Gold.Chemscore.Hbonds>
donor molecule, donor type, donor heavy atom, donor atom, acceptor molecule, acceptor atom, score
      L1  H     6    51       P1 10175  2.00
      L1  H     9    35       P1  8028  0.18

> <Gold.PLP.Chemscore.Internal.Correction>
0.0901

> <Gold.Rescore>
     Score         DG    S(hbond)    S(metal)    S(lipo)     H(rot)  DE(clash)    DE(int)     intcor
     17.33     -18.68       1.86        0.00     108.28       2.22       0.07       1.28       ----

> <Gold.Chemscore.Fitness>
17.3273

> <Gold.Chemscore.DG>
-18.6847

> <Gold.Chemscore.ZeroCoef>
-5.4800

> <Gold.Chemscore.Hbond>
1.8595

> <Gold.Chemscore.Metal>
0.0000

> <Gold.Chemscore.Lipo>
108.2849

> <Gold.Chemscore.Internal_Hbond>
0.0000

> <Gold.Chemscore.DEClash>
0.0735

> <Gold.Chemscore.DEInternal>
1.2838

> <Gold.Chemscore.Rot>
2.2169

> <Gold.Chemscore.Internal.Correction>
   9.000000E+99

> <Gold.Chemscore.Hbonds>
donor molecule, donor type, donor heavy atom, donor atom, acceptor molecule, acceptor atom, score
      L1  H     6    51       P1 10175  0.94
      L1  H     9    35       P1  8028  0.17

> <Gold.Chemscore.Hbond.Weighted>
-6.2107

> <Gold.Chemscore.Metal.Weighted>
-0.0000

> <Gold.Chemscore.Lipo.Weighted>
-12.6693

> <Gold.Chemscore.Internal_Hbond.Weighted>
0.0000

> <Gold.Chemscore.DEClash.Weighted>
0.0735

> <Gold.Chemscore.DEInternal.Weighted>
1.2838

> <Gold.Chemscore.Rot.Weighted>
5.6753

> <Gold.Chemscore.Internal.Correction.Weighted>
   9.000000E+99

> <Gold.Protein.RotatedTorsions>
[ 6907 6896 6895 6894 ] final -178.28 input  -60.11 | X-H torsion
[ 7974 7965 7964 7962 ] final -146.63 input  175.53 | X-H torsion
[ 8008 7997 7996 7995 ] final   74.73 input   59.86 | X-H torsion
[ 10167 10162 10161 10158 ] final   36.72 input  -65.29 | X-H torsion
[ 10718 10713 10712 10709 ] final  148.18 input   66.30 | X-H torsion
[ 10763 10752 10751 10750 ] final  175.75 input  -60.55 | X-H torsion
[ 11005 11000 10999 10996 ] final  -60.50 input  -57.11 | X-H torsion

> <Gold.Protein.ActiveResidues>
 VAL166  LYS551  ARG553  GLY616  TRP617  ASP618  TYR619  PRO620  LYS621  CYS622 
 ASP623  PHE694  ASN695  SER759  ASP760  ASP761  ALA762  ILE779  LEU786  VAL792 
 PHE793  MET794  SER795  GLU796  ALA797  LYS798  CYS799  TRP800  GLU811  SER814 

> <Gold.Protein.RotatedAtoms>
  151.6346  133.3330  159.3116 H   0  0  0  0  0  0  0  0  0  0  0  0  # atno 6907 bound_to 6896
  150.8039  134.7155  159.6637 H   0  0  0  0  0  0  0  0  0  0  0  0  # atno 6908 bound_to 6896
  152.4133  134.6091  160.0072 H   0  0  0  0  0  0  0  0  0  0  0  0  # atno 6909 bound_to 6896
  144.8146  140.5431  143.5619 H   0  0  0  0  0  0  0  0  0  0  0  0  # atno 7974 bound_to 7965
  155.8026  140.3476  155.5411 H   0  0  0  0  0  0  0  0  0  0  0  0  # atno 8008 bound_to 7997
  155.8522  140.0958  157.1688 H   0  0  0  0  0  0  0  0  0  0  0  0  # atno 8009 bound_to 7997
  154.4008  140.1374  156.3846 H   0  0  0  0  0  0  0  0  0  0  0  0  # atno 8010 bound_to 7997
  140.4101  144.1604  150.6139 H   0  0  0  0  0  0  0  0  0  0  0  0  # atno 10167 bound_to 10162
  157.3118  131.0889  151.1310 H   0  0  0  0  0  0  0  0  0  0  0  0  # atno 10718 bound_to 10713
  154.4719  135.2771  155.1636 H   0  0  0  0  0  0  0  0  0  0  0  0  # atno 10763 bound_to 10752
  154.3382  135.6176  153.5587 H   0  0  0  0  0  0  0  0  0  0  0  0  # atno 10764 bound_to 10752
  152.9865  135.5782  154.5101 H   0  0  0  0  0  0  0  0  0  0  0  0  # atno 10765 bound_to 10752
  141.1289  133.6623  156.5233 H   0  0  0  0  0  0  0  0  0  0  0  0  # atno 11005 bound_to 11000
  145.5243  139.1476  143.3535 LP  0  0  0  0  0  0  0  0  0  0  0  0  # atno 17320 bound_to 7965
  146.2448  140.5384  142.8918 LP  0  0  0  0  0  0  0  0  0  0  0  0  # atno 17321 bound_to 7965
  140.4647  143.2435  151.9171 LP  0  0  0  0  0  0  0  0  0  0  0  0  # atno 17342 bound_to 10162
  139.4783  144.5431  151.8498 LP  0  0  0  0  0  0  0  0  0  0  0  0  # atno 17343 bound_to 10162
  157.2629  130.6667  149.5983 LP  0  0  0  0  0  0  0  0  0  0  0  0  # atno 17370 bound_to 10713
  155.9678  130.4503  150.5691 LP  0  0  0  0  0  0  0  0  0  0  0  0  # atno 17371 bound_to 10713
  140.4274  134.7132  157.4923 LP  0  0  0  0  0  0  0  0  0  0  0  0  # atno 17394 bound_to 11000
  140.0317  134.6396  155.9097 LP  0  0  0  0  0  0  0  0  0  0  0  0  # atno 17395 bound_to 11000

$$$$
