AV-unprocessed.smi:1703|AV-procd|sdf|6880|dock5
  -GOLD-   22720 8 83D 1   1.00000     0.00000
 Structure written by MMmdl.
 50 52  0  0  0  0  0  0  0  0  3 V2000
  148.8887  133.5675  153.8216 C   0  0  0  0  0  0  0  0  0  0  0  0
  148.7797  134.3002  155.1707 C   0  0  1  0  0  0  0  0  0  0  0  0
  149.9112  135.3195  155.4105 C   0  0  0  0  0  0  0  0  0  0  0  0
  149.7229  136.5344  154.5789 N   0  3  2  0  0  0  0  0  0  0  0  0
  150.8108  137.5329  154.7336 C   0  0  0  0  0  0  0  0  0  0  0  0
  150.4817  138.6182  155.7827 C   0  0  1  0  0  0  0  0  0  0  0  0
  150.2151  137.9981  157.0240 O   0  0  0  0  0  0  0  0  0  0  0  0
  151.6274  139.6243  156.0101 C   0  0  0  0  0  0  0  0  0  0  0  0
  151.1539  140.9430  156.4636 N   0  0  0  0  0  0  0  0  0  0  0  0
  150.2322  141.7810  155.9051 C   0  0  0  0  0  0  0  0  0  0  0  0
  149.4643  141.5635  154.6427 C   0  0  0  0  0  0  0  0  0  0  0  0
  148.6260  142.6544  154.3311 O   0  0  0  0  0  0  0  0  0  0  0  0
  150.1454  142.8788  156.7070 N   0  3  0  0  0  0  0  0  0  0  0  0
  151.0165  142.7459  157.7881 C   0  0  0  0  0  0  0  0  0  0  0  0
  151.2763  143.5996  158.8557 C   0  0  0  0  0  0  0  0  0  0  0  0
  152.2340  143.1653  159.7949 C   0  0  0  0  0  0  0  0  0  0  0  0
  152.8926  141.9271  159.6516 C   0  0  0  0  0  0  0  0  0  0  0  0
  152.6210  141.0700  158.5648 C   0  0  0  0  0  0  0  0  0  0  0  0
  151.6695  141.5042  157.6404 C   0  0  0  0  0  0  0  0  0  0  0  0
  148.3828  137.1166  154.8186 C   0  0  0  0  0  0  0  0  0  0  0  0
  147.2858  136.0748  154.5366 C   0  0  2  0  0  0  0  0  0  0  0  0
  145.8865  136.6139  154.8536 C   0  0  0  0  0  0  0  0  0  0  0  0
  147.5073  134.9234  155.3468 O   0  0  0  0  0  0  0  0  0  0  0  0
  149.8120  132.9899  153.7701 H   0  0  0  0  0  0  0  0  0  0  0  0
  148.8890  134.2533  152.9750 H   0  0  0  0  0  0  0  0  0  0  0  0
  148.0594  132.8722  153.6892 H   0  0  0  0  0  0  0  0  0  0  0  0
  148.8509  133.5385  155.9476 H   0  0  0  0  0  0  0  0  0  0  0  0
  149.9217  135.6079  156.4628 H   0  0  0  0  0  0  0  0  0  0  0  0
  150.8740  134.8518  155.2068 H   0  0  0  0  0  0  0  0  0  0  0  0
  151.7348  137.0346  155.0321 H   0  0  0  0  0  0  0  0  0  0  0  0
  151.0095  137.9758  153.7571 H   0  0  0  0  0  0  0  0  0  0  0  0
  149.5920  139.1738  155.4910 H   0  0  0  0  0  0  0  0  0  0  0  0
  150.2840  137.0613  156.9220 H   0  0  0  0  0  0  0  0  0  0  0  0
  152.3087  139.2477  156.7738 H   0  0  0  0  0  0  0  0  0  0  0  0
  152.2293  139.7409  155.1096 H   0  0  0  0  0  0  0  0  0  0  0  0
  150.1531  141.3919  153.8156 H   0  0  0  0  0  0  0  0  0  0  0  0
  148.8535  140.6658  154.7413 H   0  0  0  0  0  0  0  0  0  0  0  0
  148.7504  143.3244  154.9866 H   0  0  0  0  0  0  0  0  0  0  0  0
  150.7740  144.5496  158.9666 H   0  0  0  0  0  0  0  0  0  0  0  0
  152.4688  143.7945  160.6414 H   0  0  0  0  0  0  0  0  0  0  0  0
  153.6216  141.6282  160.3910 H   0  0  0  0  0  0  0  0  0  0  0  0
  153.1375  140.1268  158.4708 H   0  0  0  0  0  0  0  0  0  0  0  0
  148.3177  137.4707  155.8491 H   0  0  0  0  0  0  0  0  0  0  0  0
  148.2361  137.9827  154.1718 H   0  0  0  0  0  0  0  0  0  0  0  0
  147.3084  135.7945  153.4834 H   0  0  0  0  0  0  0  0  0  0  0  0
  145.6611  137.4980  154.2565 H   0  0  0  0  0  0  0  0  0  0  0  0
  145.7967  136.8878  155.9053 H   0  0  0  0  0  0  0  0  0  0  0  0
  145.1233  135.8656  154.6385 H   0  0  0  0  0  0  0  0  0  0  0  0
  149.7337  136.2420  153.6123 H   0  0  0  0  0  0  0  0  0  0  0  0
  149.5328  143.6635  156.5237 H   0  0  0  0  0  0  0  0  0  0  0  0
  1  2  1  0  0  0  0
  1 24  1  0  0  0  0
  1 25  1  0  0  0  0
  1 26  1  0  0  0  0
  2 23  1  0  0  0  0
  2  3  1  0  0  0  0
  2 27  1  0  0  0  0
  3  4  1  0  0  0  0
  3 28  1  0  0  0  0
  3 29  1  0  0  0  0
  4  5  1  0  0  0  0
  4 20  1  0  0  0  0
  4 49  1  0  0  0  0
  5  6  1  0  0  0  0
  5 30  1  0  0  0  0
  5 31  1  0  0  0  0
  6  7  1  0  0  0  0
  6  8  1  0  0  0  0
  6 32  1  0  0  0  0
  7 33  1  0  0  0  0
  8  9  1  0  0  0  0
  8 34  1  0  0  0  0
  8 35  1  0  0  0  0
  9 19  1  0  0  0  0
  9 10  1  0  0  0  0
 10 11  1  0  0  0  0
 10 13  2  0  0  0  0
 11 12  1  0  0  0  0
 11 36  1  0  0  0  0
 11 37  1  0  0  0  0
 12 38  1  0  0  0  0
 13 14  1  0  0  0  0
 13 50  1  0  0  0  0
 14 19  2  0  0  0  0
 14 15  1  0  0  0  0
 15 16  2  0  0  0  0
 15 39  1  0  0  0  0
 16 17  1  0  0  0  0
 16 40  1  0  0  0  0
 17 18  2  0  0  0  0
 17 41  1  0  0  0  0
 18 19  1  0  0  0  0
 18 42  1  0  0  0  0
 20 21  1  0  0  0  0
 20 43  1  0  0  0  0
 20 44  1  0  0  0  0
 21 22  1  0  0  0  0
 21 23  1  0  0  0  0
 21 45  1  0  0  0  0
 22 46  1  0  0  0  0
 22 47  1  0  0  0  0
 22 48  1  0  0  0  0
M  CHG  1   4   1
M  CHG  1  13   1
M  END
> <s_m_source_file>
AV-unprocessed.smi

> <i_m_source_file_index>
1703

> <i_lp_mmshare_version>
43012

> <i_f3d_flags>
0

> <s_epik_input>
W0NIM11bQ0BASF0xW0NIMl1OKFtDSDJdW0NASF0oTzEpW0NIM10pW0NIMl1bQ0BIXShbT0hdKVtDSDJdbihjKG4yKVtDSDJdW09IXSljKGMyMylbY0hdW2NIXVtjSF1bY0hdMw==

> <s_epik_cmdline>
J2VwaWtfcHl0aG9uJywgJy1waCcsICc3LjAnLCAnLXRuJywgJzgnLCAnLW1hJywgJzIwMCcsICctbWV0YWxfYmluZGluZycsICctaW1hZScsICc8aW5maWxlLm1hZT4nLCAnLW9tYWUnLCAnPG91dGZpbGUubWFlPic=

> <r_epik_Ionization_Penalty>
2.22579

> <r_epik_Ionization_Penalty_Charging>
2.22492

> <r_epik_Ionization_Penalty_Neutral>
0.000870007

> <r_epik_State_Penalty>
2.3141

> <r_epik_Charging_Adjusted_Penalty>
4.53902

> <i_epik_Tot_Q>
2

> <i_epik_Tot_abs_Q>
2

> <r_epik_Metal_State_Penalty>
6.36517

> <b_epik_Metal_Only>
0

> <s_lp_Force_Field>
OPLS_2005

> <r_lp_Energy>
31.7221

> <b_lp_Chiralities_Consistent>
1

> <s_lp_Variant>
AV-unprocessed.smi:1703-28

> <Gold.Version>
5.8.1

> <Gold.Id.Protein>
6NUR|6NUR_protein|mol2

> <Gold.PLP.Fitness>
54.2411

> <Gold.PLP.PLP>
-40.7152

> <Gold.PLP.part.hbond>
-3.9910

> <Gold.PLP.part.metal>
0.0000

> <Gold.PLP.part.buried>
-4.3888

> <Gold.PLP.part.nonpolar>
-32.4568

> <Gold.PLP.part.repulsive>
0.1227

> <Gold.PLP.ligand.clash>
0.0096

> <Gold.PLP.ligand.torsion>
0.7545

> <Gold.PLP.Chemscore.Hbond>
5.0023

> <Gold.PLP.Chemscore.CHOScore>
0.0000

> <Gold.PLP.Chemscore.Metal>
0.0000

> <Gold.Chemscore.Hbonds>
donor molecule, donor type, donor heavy atom, donor atom, acceptor molecule, acceptor atom, score
      L1  H     4    49       P1  7948  2.00
      L1  H    12    38       P1  8028  1.00
      L1  H    13    50       P1  8028  1.89

> <Gold.PLP.Chemscore.Internal.Correction>
0.0378

> <Gold.Rescore>
     Score         DG    S(hbond)    S(metal)    S(lipo)     H(rot)  DE(clash)    DE(int)     intcor
     17.58     -18.51       2.96        0.00      93.36       3.04       0.12       0.81       ----

> <Gold.Chemscore.Fitness>
17.5805

> <Gold.Chemscore.DG>
-18.5103

> <Gold.Chemscore.ZeroCoef>
-5.4800

> <Gold.Chemscore.Hbond>
2.9592

> <Gold.Chemscore.Metal>
0.0000

> <Gold.Chemscore.Lipo>
93.3606

> <Gold.Chemscore.Internal_Hbond>
0.0000

> <Gold.Chemscore.DEClash>
0.1242

> <Gold.Chemscore.DEInternal>
0.8055

> <Gold.Chemscore.Rot>
3.0378

> <Gold.Chemscore.Internal.Correction>
   9.000000E+99

> <Gold.Chemscore.Hbonds>
donor molecule, donor type, donor heavy atom, donor atom, acceptor molecule, acceptor atom, score
      L1  H     4    49       P1  7948  0.29
      L1  H    12    38       P1  8028  0.93
      L1  H    13    50       P1  8028  0.89

> <Gold.Chemscore.Hbond.Weighted>
-9.8838

> <Gold.Chemscore.Metal.Weighted>
-0.0000

> <Gold.Chemscore.Lipo.Weighted>
-10.9232

> <Gold.Chemscore.Internal_Hbond.Weighted>
0.0000

> <Gold.Chemscore.DEClash.Weighted>
0.1242

> <Gold.Chemscore.DEInternal.Weighted>
0.8055

> <Gold.Chemscore.Rot.Weighted>
7.7767

> <Gold.Chemscore.Internal.Correction.Weighted>
   9.000000E+99

> <Gold.Protein.RotatedTorsions>
[ 6907 6896 6895 6894 ] final -109.77 input  -60.11 | X-H torsion
[ 7974 7965 7964 7962 ] final -112.78 input  175.53 | X-H torsion
[ 8008 7997 7996 7995 ] final   84.88 input   59.86 | X-H torsion
[ 10167 10162 10161 10158 ] final  -79.19 input  -65.29 | X-H torsion
[ 10718 10713 10712 10709 ] final  -71.52 input   66.30 | X-H torsion
[ 10763 10752 10751 10750 ] final  160.13 input  -60.55 | X-H torsion
[ 11005 11000 10999 10996 ] final -152.85 input  -57.11 | X-H torsion

> <Gold.Protein.ActiveResidues>
 VAL166  LYS551  ARG553  GLY616  TRP617  ASP618  TYR619  PRO620  LYS621  CYS622 
 ASP623  PHE694  ASN695  SER759  ASP760  ASP761  ALA762  ILE779  LEU786  VAL792 
 PHE793  MET794  SER795  GLU796  ALA797  LYS798  CYS799  TRP800  GLU811  SER814 

> <Gold.Protein.RotatedAtoms>
  150.7582  133.9481  159.3476 H   0  0  0  0  0  0  0  0  0  0  0  0  # atno 6907 bound_to 6896
  151.7395  135.0855  160.0323 H   0  0  0  0  0  0  0  0  0  0  0  0  # atno 6908 bound_to 6896
  152.3537  133.6174  159.6000 H   0  0  0  0  0  0  0  0  0  0  0  0  # atno 6909 bound_to 6896
  145.1399  140.8772  143.3708 H   0  0  0  0  0  0  0  0  0  0  0  0  # atno 7974 bound_to 7965
  155.9428  140.3407  155.6342 H   0  0  0  0  0  0  0  0  0  0  0  0  # atno 8008 bound_to 7997
  155.7018  140.0761  157.2426 H   0  0  0  0  0  0  0  0  0  0  0  0  # atno 8009 bound_to 7997
  154.4106  140.1638  156.2186 H   0  0  0  0  0  0  0  0  0  0  0  0  # atno 8010 bound_to 7997
  140.4615  143.2452  151.8341 H   0  0  0  0  0  0  0  0  0  0  0  0  # atno 10167 bound_to 10162
  156.0359  130.4353  150.2457 H   0  0  0  0  0  0  0  0  0  0  0  0  # atno 10718 bound_to 10713
  154.2425  135.2774  155.2848 H   0  0  0  0  0  0  0  0  0  0  0  0  # atno 10763 bound_to 10752
  154.5533  135.5669  153.6944 H   0  0  0  0  0  0  0  0  0  0  0  0  # atno 10764 bound_to 10752
  152.9997  135.6279  154.2570 H   0  0  0  0  0  0  0  0  0  0  0  0  # atno 10765 bound_to 10752
  140.7145  134.3796  157.5193 H   0  0  0  0  0  0  0  0  0  0  0  0  # atno 11005 bound_to 11000
  145.0543  139.3156  143.5913 LP  0  0  0  0  0  0  0  0  0  0  0  0  # atno 17320 bound_to 7965
  146.3506  139.9962  142.8680 LP  0  0  0  0  0  0  0  0  0  0  0  0  # atno 17321 bound_to 7965
  139.4807  144.5001  151.9071 LP  0  0  0  0  0  0  0  0  0  0  0  0  # atno 17342 bound_to 10162
  140.4087  144.2397  150.5889 LP  0  0  0  0  0  0  0  0  0  0  0  0  # atno 17343 bound_to 10162
  157.0556  131.0075  151.3239 LP  0  0  0  0  0  0  0  0  0  0  0  0  # atno 17370 bound_to 10713
  157.5108  130.7937  149.7703 LP  0  0  0  0  0  0  0  0  0  0  0  0  # atno 17371 bound_to 10713
  139.8863  134.8913  156.2592 LP  0  0  0  0  0  0  0  0  0  0  0  0  # atno 17394 bound_to 11000
  141.0056  133.7125  156.1029 LP  0  0  0  0  0  0  0  0  0  0  0  0  # atno 17395 bound_to 11000

$$$$
