AV-unprocessed.smi:1368|AV-procd|sdf|5577|dock1
  -GOLD-   22720 5173D 1   1.00000     0.00000
 Structure written by MMmdl.
 47 49  0  0  0  0  0  0  0  0  2 V2000
  157.0005  139.3230  167.1136 C   0  0  0  0  0  0  0  0  0  0  0  0
  156.1848  139.4937  165.8357 C   0  0  0  0  0  0  0  0  0  0  0  0
  155.8672  140.6252  165.4723 O   0  0  0  0  0  0  0  0  0  0  0  0
  155.8459  138.3548  165.2030 N   0  0  0  0  0  0  0  0  0  0  0  0
  155.1114  138.1865  163.9971 C   0  0  0  0  0  0  0  0  0  0  0  0
  154.3123  137.0313  163.8855 C   0  0  0  0  0  0  0  0  0  0  0  0
  153.5717  136.7841  162.7142 C   0  0  0  0  0  0  0  0  0  0  0  0
  153.6198  137.6789  161.6269 C   0  0  0  0  0  0  0  0  0  0  0  0
  152.8652  137.3600  160.5179 O   0  0  0  0  0  0  0  0  0  0  0  0
  153.1251  138.0556  159.3055 C   0  0  0  0  0  0  0  0  0  0  0  0
  152.0696  139.1578  159.1241 C   0  0  2  0  0  0  0  0  0  0  0  0
  150.7909  138.5543  159.1016 O   0  0  0  0  0  0  0  0  0  0  0  0
  152.2856  139.9442  157.8153 C   0  0  0  0  0  0  0  0  0  0  0  0
  151.7760  141.3239  157.8812 N   0  0  0  0  0  0  0  0  0  0  0  0
  151.0033  142.0128  156.9938 C   0  0  0  0  0  0  0  0  0  0  0  0
  150.4746  141.5069  155.6939 C   0  0  0  0  0  0  0  0  0  0  0  0
  150.7970  143.2547  157.5155 N   0  3  0  0  0  0  0  0  0  0  0  0
  151.4443  143.3627  158.7472 C   0  0  0  0  0  0  0  0  0  0  0  0
  151.5217  144.4232  159.6448 C   0  0  0  0  0  0  0  0  0  0  0  0
  152.2723  144.2053  160.8187 C   0  0  0  0  0  0  0  0  0  0  0  0
  152.9105  142.9721  161.0634 C   0  0  0  0  0  0  0  0  0  0  0  0
  152.8238  141.9041  160.1464 C   0  0  0  0  0  0  0  0  0  0  0  0
  152.0778  142.1262  158.9887 C   0  0  0  0  0  0  0  0  0  0  0  0
  154.4336  138.8339  161.7331 C   0  0  0  0  0  0  0  0  0  0  0  0
  155.1757  139.0829  162.9039 C   0  0  0  0  0  0  0  0  0  0  0  0
  157.6052  138.4158  167.0786 H   0  0  0  0  0  0  0  0  0  0  0  0
  156.3382  139.2626  167.9774 H   0  0  0  0  0  0  0  0  0  0  0  0
  157.6716  140.1708  167.2549 H   0  0  0  0  0  0  0  0  0  0  0  0
  156.1041  137.4990  165.6726 H   0  0  0  0  0  0  0  0  0  0  0  0
  154.2598  136.3274  164.7033 H   0  0  0  0  0  0  0  0  0  0  0  0
  152.9604  135.8958  162.6493 H   0  0  0  0  0  0  0  0  0  0  0  0
  154.1132  138.5130  159.3792 H   0  0  0  0  0  0  0  0  0  0  0  0
  153.1327  137.3819  158.4467 H   0  0  0  0  0  0  0  0  0  0  0  0
  152.1167  139.8510  159.9648 H   0  0  0  0  0  0  0  0  0  0  0  0
  150.8992  137.6315  158.9263 H   0  0  0  0  0  0  0  0  0  0  0  0
  153.3518  140.0087  157.5949 H   0  0  0  0  0  0  0  0  0  0  0  0
  151.8350  139.4316  156.9652 H   0  0  0  0  0  0  0  0  0  0  0  0
  149.9410  142.2953  155.1628 H   0  0  0  0  0  0  0  0  0  0  0  0
  149.7881  140.6779  155.8659 H   0  0  0  0  0  0  0  0  0  0  0  0
  151.2926  141.1577  155.0638 H   0  0  0  0  0  0  0  0  0  0  0  0
  151.0353  145.3695  159.4584 H   0  0  0  0  0  0  0  0  0  0  0  0
  152.3618  145.0003  161.5450 H   0  0  0  0  0  0  0  0  0  0  0  0
  153.4803  142.8426  161.9721 H   0  0  0  0  0  0  0  0  0  0  0  0
  153.3231  140.9667  160.3417 H   0  0  0  0  0  0  0  0  0  0  0  0
  154.5120  139.5463  160.9261 H   0  0  0  0  0  0  0  0  0  0  0  0
  155.7989  139.9629  162.9308 H   0  0  0  0  0  0  0  0  0  0  0  0
  150.2527  143.9755  157.0594 H   0  0  0  0  0  0  0  0  0  0  0  0
  1  2  1  0  0  0  0
  1 26  1  0  0  0  0
  1 27  1  0  0  0  0
  1 28  1  0  0  0  0
  2  3  2  0  0  0  0
  2  4  1  0  0  0  0
  4  5  1  0  0  0  0
  4 29  1  0  0  0  0
  5 25  1  0  0  0  0
  5  6  2  0  0  0  0
  6  7  1  0  0  0  0
  6 30  1  0  0  0  0
  7  8  2  0  0  0  0
  7 31  1  0  0  0  0
  8  9  1  0  0  0  0
  8 24  1  0  0  0  0
  9 10  1  0  0  0  0
 10 11  1  0  0  0  0
 10 32  1  0  0  0  0
 10 33  1  0  0  0  0
 11 12  1  0  0  0  0
 11 13  1  0  0  0  0
 11 34  1  0  0  0  0
 12 35  1  0  0  0  0
 13 14  1  0  0  0  0
 13 36  1  0  0  0  0
 13 37  1  0  0  0  0
 14 23  1  0  0  0  0
 14 15  1  0  0  0  0
 15 16  1  0  0  0  0
 15 17  2  0  0  0  0
 16 38  1  0  0  0  0
 16 39  1  0  0  0  0
 16 40  1  0  0  0  0
 17 18  1  0  0  0  0
 17 47  1  0  0  0  0
 18 23  2  0  0  0  0
 18 19  1  0  0  0  0
 19 20  2  0  0  0  0
 19 41  1  0  0  0  0
 20 21  1  0  0  0  0
 20 42  1  0  0  0  0
 21 22  2  0  0  0  0
 21 43  1  0  0  0  0
 22 23  1  0  0  0  0
 22 44  1  0  0  0  0
 24 25  2  0  0  0  0
 24 45  1  0  0  0  0
 25 46  1  0  0  0  0
M  CHG  1  17   1
M  END
> <s_m_source_file>
AV-unprocessed.smi

> <i_m_source_file_index>
1368

> <i_lp_mmshare_version>
43012

> <i_f3d_flags>
0

> <s_epik_input>
W0NIM11DKD1PKVtOSF1jMVtjSF1bY0hdYyhbY0hdW2NIXTEpT1tDSDJdW0NASF0oW09IXSlbQ0gyXW4oYyhuMilbQ0gzXSljKGMyMylbY0hdW2NIXVtjSF1bY0hdMw==

> <s_epik_cmdline>
J2VwaWtfcHl0aG9uJywgJy1waCcsICc3LjAnLCAnLXRuJywgJzgnLCAnLW1hJywgJzIwMCcsICctbWV0YWxfYmluZGluZycsICctaW1hZScsICc8aW5maWxlLm1hZT4nLCAnLW9tYWUnLCAnPG91dGZpbGUubWFlPic=

> <r_lp_tautomer_probability>
1

> <r_epik_Ionization_Penalty>
1.00673

> <r_epik_Ionization_Penalty_Charging>
1.00673

> <r_epik_Ionization_Penalty_Neutral>
2.60899e-06

> <r_epik_State_Penalty>
1.05579

> <r_epik_Charging_Adjusted_Penalty>
2.06252

> <i_epik_Tot_Q>
1

> <i_epik_Tot_abs_Q>
1

> <r_epik_Metal_State_Penalty>
1.15682

> <b_epik_Metal_Only>
0

> <s_lp_Force_Field>
OPLS_2005

> <r_lp_Energy>
25.0727

> <b_lp_Chiralities_Consistent>
1

> <s_lp_Variant>
AV-unprocessed.smi:1368-3

> <Gold.Version>
5.8.1

> <Gold.Id.Protein>
6NUR|6NUR_protein|mol2

> <Gold.PLP.Fitness>
53.6021

> <Gold.PLP.PLP>
-49.7238

> <Gold.PLP.part.hbond>
-1.4009

> <Gold.PLP.part.metal>
0.0000

> <Gold.PLP.part.buried>
-7.7410

> <Gold.PLP.part.nonpolar>
-40.7217

> <Gold.PLP.part.repulsive>
0.0812

> <Gold.PLP.ligand.clash>
0.0000

> <Gold.PLP.ligand.torsion>
1.1522

> <Gold.PLP.Chemscore.Hbond>
2.0000

> <Gold.PLP.Chemscore.CHOScore>
0.0000

> <Gold.PLP.Chemscore.Metal>
0.0000

> <Gold.Chemscore.Hbonds>
donor molecule, donor type, donor heavy atom, donor atom, acceptor molecule, acceptor atom, score
      L1  H    17    47       P1  8028  1.79

> <Gold.PLP.Chemscore.Internal.Correction>
0.1826

> <Gold.Rescore>
     Score         DG    S(hbond)    S(metal)    S(lipo)     H(rot)  DE(clash)    DE(int)     intcor
     17.31     -18.52       1.00        0.00     137.03       2.47       0.11       1.10       ----

> <Gold.Chemscore.Fitness>
17.3120

> <Gold.Chemscore.DG>
-18.5189

> <Gold.Chemscore.ZeroCoef>
-5.4800

> <Gold.Chemscore.Hbond>
0.9982

> <Gold.Chemscore.Metal>
0.0000

> <Gold.Chemscore.Lipo>
137.0257

> <Gold.Chemscore.Internal_Hbond>
0.0000

> <Gold.Chemscore.DEClash>
0.1113

> <Gold.Chemscore.DEInternal>
1.0956

> <Gold.Chemscore.Rot>
2.4715

> <Gold.Chemscore.Internal.Correction>
   9.000000E+99

> <Gold.Chemscore.Hbonds>
donor molecule, donor type, donor heavy atom, donor atom, acceptor molecule, acceptor atom, score
      L1  H    17    47       P1  8028  0.82

> <Gold.Chemscore.Hbond.Weighted>
-3.3340

> <Gold.Chemscore.Metal.Weighted>
-0.0000

> <Gold.Chemscore.Lipo.Weighted>
-16.0320

> <Gold.Chemscore.Internal_Hbond.Weighted>
0.0000

> <Gold.Chemscore.DEClash.Weighted>
0.1113

> <Gold.Chemscore.DEInternal.Weighted>
1.0956

> <Gold.Chemscore.Rot.Weighted>
6.3271

> <Gold.Chemscore.Internal.Correction.Weighted>
   9.000000E+99

> <Gold.Protein.RotatedTorsions>
[ 6907 6896 6895 6894 ] final  -22.72 input  -60.11 | X-H torsion
[ 7974 7965 7964 7962 ] final    8.28 input  175.53 | X-H torsion
[ 8008 7997 7996 7995 ] final  171.25 input   59.86 | X-H torsion
[ 10167 10162 10161 10158 ] final  129.98 input  -65.29 | X-H torsion
[ 10718 10713 10712 10709 ] final   28.77 input   66.30 | X-H torsion
[ 10763 10752 10751 10750 ] final  -22.50 input  -60.55 | X-H torsion
[ 11005 11000 10999 10996 ] final  -78.28 input  -57.11 | X-H torsion

> <Gold.Protein.ActiveResidues>
 VAL166  LYS551  ARG553  GLY616  TRP617  ASP618  TYR619  PRO620  LYS621  CYS622 
 ASP623  PHE694  ASN695  SER759  ASP760  ASP761  ALA762  ILE779  LEU786  VAL792 
 PHE793  MET794  SER795  GLU796  ALA797  LYS798  CYS799  TRP800  GLU811  SER814 

> <Gold.Protein.RotatedAtoms>
  151.2145  135.0494  159.8924 H   0  0  0  0  0  0  0  0  0  0  0  0  # atno 6907 bound_to 6896
  152.5421  134.0708  159.8203 H   0  0  0  0  0  0  0  0  0  0  0  0  # atno 6908 bound_to 6896
  151.0866  133.5300  159.2649 H   0  0  0  0  0  0  0  0  0  0  0  0  # atno 6909 bound_to 6896
  146.2418  139.9957  142.8421 H   0  0  0  0  0  0  0  0  0  0  0  0  # atno 7974 bound_to 7965
  156.1288  140.1516  156.9096 H   0  0  0  0  0  0  0  0  0  0  0  0  # atno 8008 bound_to 7997
  154.4893  140.0856  156.7598 H   0  0  0  0  0  0  0  0  0  0  0  0  # atno 8009 bound_to 7997
  155.4293  140.3426  155.4281 H   0  0  0  0  0  0  0  0  0  0  0  0  # atno 8010 bound_to 7997
  139.5451  144.6766  151.4498 H   0  0  0  0  0  0  0  0  0  0  0  0  # atno 10167 bound_to 10162
  157.2378  130.7054  149.6344 H   0  0  0  0  0  0  0  0  0  0  0  0  # atno 10718 bound_to 10713
  153.6529  135.6980  153.5203 H   0  0  0  0  0  0  0  0  0  0  0  0  # atno 10763 bound_to 10752
  153.2692  135.4220  155.0970 H   0  0  0  0  0  0  0  0  0  0  0  0  # atno 10764 bound_to 10752
  154.8472  135.3574  154.6074 H   0  0  0  0  0  0  0  0  0  0  0  0  # atno 10765 bound_to 10752
  141.1664  133.7057  156.7948 H   0  0  0  0  0  0  0  0  0  0  0  0  # atno 11005 bound_to 11000
  145.1462  140.9598  143.4460 LP  0  0  0  0  0  0  0  0  0  0  0  0  # atno 17320 bound_to 7965
  145.0249  139.3392  143.6054 LP  0  0  0  0  0  0  0  0  0  0  0  0  # atno 17321 bound_to 7965
  140.6697  143.8321  150.6984 LP  0  0  0  0  0  0  0  0  0  0  0  0  # atno 17342 bound_to 10162
  140.1741  143.4169  152.1980 LP  0  0  0  0  0  0  0  0  0  0  0  0  # atno 17343 bound_to 10162
  155.9671  130.4468  150.5555 LP  0  0  0  0  0  0  0  0  0  0  0  0  # atno 17370 bound_to 10713
  157.3411  131.0717  151.1787 LP  0  0  0  0  0  0  0  0  0  0  0  0  # atno 17371 bound_to 10713
  140.2299  134.8694  157.3465 LP  0  0  0  0  0  0  0  0  0  0  0  0  # atno 17394 bound_to 11000
  140.1902  134.4381  155.7720 LP  0  0  0  0  0  0  0  0  0  0  0  0  # atno 17395 bound_to 11000

$$$$
