AV-unprocessed.smi:563|AV-procd|sdf|2946|dock2
  -GOLD-   2262023443D 1   1.00000     0.00000
 Structure written by MMmdl.
 31 32  0  0  0  0  0  0  0  0  1 V2000
  154.4001  138.5033  154.3599 C   0  0  0  0  0  0  0  0  0  0  0  0
  152.9679  138.7481  154.6908 C   0  0  0  0  0  0  0  0  0  0  0  0
  152.5610  139.6477  155.5902 N   0  0  0  0  0  0  0  0  0  0  0  0
  151.1683  139.6899  155.7187 C   0  0  0  0  0  0  0  0  0  0  0  0
  150.5322  140.6400  156.6907 C   0  0  0  0  0  0  0  0  0  0  0  0
  151.5883  141.2252  157.6290 C   0  0  0  0  0  0  0  0  0  0  0  0
  152.3776  140.4795  158.2087 O   0  0  0  0  0  0  0  0  0  0  0  0
  151.5967  142.5607  157.7635 N   0  0  0  0  0  0  0  0  0  0  0  0
  152.5271  143.3160  158.5982 C   0  0  0  0  0  0  0  0  0  0  0  0
  152.4402  142.8601  160.0675 C   0  0  0  0  0  0  0  0  0  0  0  0
  152.3282  144.1374  160.9021 C   0  0  0  0  0  0  0  0  0  0  0  0
  151.6231  145.1281  159.9818 C   0  0  0  0  0  0  0  0  0  0  0  0
  152.1934  144.8217  158.5969 C   0  0  0  0  0  0  0  0  0  0  0  0
  150.5236  138.7979  154.8975 C   0  0  0  0  0  0  0  0  0  0  0  0
  151.6419  137.8790  153.9284 S   0  0  0  0  0  0  0  0  0  0  0  0
  155.0452  138.8567  155.1649 H   0  0  0  0  0  0  0  0  0  0  0  0
  154.6645  139.0276  153.4415 H   0  0  0  0  0  0  0  0  0  0  0  0
  154.5746  137.4367  154.2175 H   0  0  0  0  0  0  0  0  0  0  0  0
  150.0357  141.4534  156.1602 H   0  0  0  0  0  0  0  0  0  0  0  0
  149.7595  140.1410  157.2773 H   0  0  0  0  0  0  0  0  0  0  0  0
  150.9078  143.0926  157.2513 H   0  0  0  0  0  0  0  0  0  0  0  0
  153.5458  143.1694  158.2339 H   0  0  0  0  0  0  0  0  0  0  0  0
  151.5487  142.2519  160.2304 H   0  0  0  0  0  0  0  0  0  0  0  0
  153.2988  142.2559  160.3621 H   0  0  0  0  0  0  0  0  0  0  0  0
  151.7951  143.9816  161.8402 H   0  0  0  0  0  0  0  0  0  0  0  0
  153.3255  144.5081  161.1432 H   0  0  0  0  0  0  0  0  0  0  0  0
  150.5492  144.9358  159.9886 H   0  0  0  0  0  0  0  0  0  0  0  0
  151.7786  146.1652  160.2806 H   0  0  0  0  0  0  0  0  0  0  0  0
  153.1125  145.3913  158.4529 H   0  0  0  0  0  0  0  0  0  0  0  0
  151.5089  145.1166  157.8003 H   0  0  0  0  0  0  0  0  0  0  0  0
  149.4610  138.6294  154.8028 H   0  0  0  0  0  0  0  0  0  0  0  0
  1  2  1  0  0  0  0
  1 16  1  0  0  0  0
  1 17  1  0  0  0  0
  1 18  1  0  0  0  0
  2 15  1  0  0  0  0
  2  3  2  0  0  0  0
  3  4  1  0  0  0  0
  4  5  1  0  0  0  0
  4 14  2  0  0  0  0
  5  6  1  0  0  0  0
  5 19  1  0  0  0  0
  5 20  1  0  0  0  0
  6  7  2  0  0  0  0
  6  8  1  0  0  0  0
  8  9  1  0  0  0  0
  8 21  1  0  0  0  0
  9 13  1  0  0  0  0
  9 10  1  0  0  0  0
  9 22  1  0  0  0  0
 10 11  1  0  0  0  0
 10 23  1  0  0  0  0
 10 24  1  0  0  0  0
 11 12  1  0  0  0  0
 11 25  1  0  0  0  0
 11 26  1  0  0  0  0
 12 13  1  0  0  0  0
 12 27  1  0  0  0  0
 12 28  1  0  0  0  0
 13 29  1  0  0  0  0
 13 30  1  0  0  0  0
 14 15  1  0  0  0  0
 14 31  1  0  0  0  0
M  END
> <s_m_source_file>
AV-unprocessed.smi

> <i_m_source_file_index>
563

> <i_lp_mmshare_version>
43012

> <i_f3d_flags>
0

> <s_epik_input>
W0NIM11jMW5jKFtjSF1zMSlbQ0gyXUMoPU8pW05IXVtDSF0yW0NIMl1bQ0gyXVtDSDJdW0NIMl0y

> <s_epik_cmdline>
J2VwaWtfcHl0aG9uJywgJy1waCcsICc3LjAnLCAnLXRuJywgJzgnLCAnLW1hJywgJzIwMCcsICctbWV0YWxfYmluZGluZycsICctaW1hZScsICc8aW5maWxlLm1hZT4nLCAnLW9tYWUnLCAnPG91dGZpbGUubWFlPic=

> <r_lp_tautomer_probability>
1

> <r_epik_Ionization_Penalty>
6.26871e-05

> <r_epik_Ionization_Penalty_Charging>
0

> <r_epik_Ionization_Penalty_Neutral>
6.26871e-05

> <r_epik_State_Penalty>
-0

> <r_epik_Charging_Adjusted_Penalty>
0

> <i_epik_Tot_Q>
0

> <i_epik_Tot_abs_Q>
0

> <r_epik_Metal_State_Penalty>
-0

> <b_epik_Metal_Only>
0

> <s_lp_Force_Field>
OPLS_2005

> <r_lp_Energy>
15.9106

> <b_lp_Chiralities_Consistent>
1

> <s_lp_Variant>
AV-unprocessed.smi:563-1

> <Gold.Version>
5.8.1

> <Gold.Id.Protein>
6NUR|6NUR_protein|mol2

> <Gold.PLP.Fitness>
39.2647

> <Gold.PLP.PLP>
-36.7500

> <Gold.PLP.part.hbond>
-1.0000

> <Gold.PLP.part.metal>
0.0000

> <Gold.PLP.part.buried>
-1.6326

> <Gold.PLP.part.nonpolar>
-34.1997

> <Gold.PLP.part.repulsive>
0.0391

> <Gold.PLP.ligand.clash>
0.0000

> <Gold.PLP.ligand.torsion>
0.2444

> <Gold.PLP.Chemscore.Hbond>
1.0000

> <Gold.PLP.Chemscore.CHOScore>
0.0000

> <Gold.PLP.Chemscore.Metal>
0.0000

> <Gold.Chemscore.Hbonds>
donor molecule, donor type, donor heavy atom, donor atom, acceptor molecule, acceptor atom, score
      P1  H  7997  8008       L1     3  0.99

> <Gold.PLP.Chemscore.Internal.Correction>
0.0034

> <Gold.Rescore>
     Score         DG    S(hbond)    S(metal)    S(lipo)     H(rot)  DE(clash)    DE(int)     intcor
     13.59     -16.41       0.31        0.00     112.85       1.29       0.55       2.27       ----

> <Gold.Chemscore.Fitness>
13.5935

> <Gold.Chemscore.DG>
-16.4135

> <Gold.Chemscore.ZeroCoef>
-5.4800

> <Gold.Chemscore.Hbond>
0.3126

> <Gold.Chemscore.Metal>
0.0000

> <Gold.Chemscore.Lipo>
112.8520

> <Gold.Chemscore.Internal_Hbond>
0.0000

> <Gold.Chemscore.DEClash>
0.5527

> <Gold.Chemscore.DEInternal>
2.2673

> <Gold.Chemscore.Rot>
1.2946

> <Gold.Chemscore.Internal.Correction>
   9.000000E+99

> <Gold.Chemscore.Hbonds>
donor molecule, donor type, donor heavy atom, donor atom, acceptor molecule, acceptor atom, score
      P1  H  7997  8008       L1     3  0.23

> <Gold.Chemscore.Hbond.Weighted>
-1.0439

> <Gold.Chemscore.Metal.Weighted>
-0.0000

> <Gold.Chemscore.Lipo.Weighted>
-13.2037

> <Gold.Chemscore.Internal_Hbond.Weighted>
0.0000

> <Gold.Chemscore.DEClash.Weighted>
0.5527

> <Gold.Chemscore.DEInternal.Weighted>
2.2673

> <Gold.Chemscore.Rot.Weighted>
3.3141

> <Gold.Chemscore.Internal.Correction.Weighted>
   9.000000E+99

> <Gold.Protein.RotatedTorsions>
[ 6907 6896 6895 6894 ] final  -84.05 input  -60.11 | X-H torsion
[ 7974 7965 7964 7962 ] final  154.38 input  175.53 | X-H torsion
[ 8008 7997 7996 7995 ] final  -50.70 input   59.86 | X-H torsion
[ 10167 10162 10161 10158 ] final  -92.12 input  -65.29 | X-H torsion
[ 10718 10713 10712 10709 ] final  117.28 input   66.30 | X-H torsion
[ 10763 10752 10751 10750 ] final   -4.31 input  -60.55 | X-H torsion
[ 11005 11000 10999 10996 ] final  -26.61 input  -57.11 | X-H torsion

> <Gold.Protein.ActiveResidues>
 VAL166  LYS551  ARG553  GLY616  TRP617  ASP618  TYR619  PRO620  LYS621  CYS622 
 ASP623  PHE694  ASN695  SER759  ASP760  ASP761  ALA762  ILE779  LEU786  VAL792 
 PHE793  MET794  SER795  GLU796  ALA797  LYS798  CYS799  TRP800  GLU811  SER814 

> <Gold.Protein.RotatedAtoms>
  150.6880  134.3417  159.4870 H   0  0  0  0  0  0  0  0  0  0  0  0  # atno 6907 bound_to 6896
  152.1270  134.9161  160.0570 H   0  0  0  0  0  0  0  0  0  0  0  0  # atno 6908 bound_to 6896
  152.0345  133.3916  159.4348 H   0  0  0  0  0  0  0  0  0  0  0  0  # atno 6909 bound_to 6896
  144.8093  139.6925  143.6148 H   0  0  0  0  0  0  0  0  0  0  0  0  # atno 7974 bound_to 7965
  154.4067  140.1266  156.4709 H   0  0  0  0  0  0  0  0  0  0  0  0  # atno 8008 bound_to 7997
  155.7180  140.3493  155.4983 H   0  0  0  0  0  0  0  0  0  0  0  0  # atno 8009 bound_to 7997
  155.9240  140.1057  157.1175 H   0  0  0  0  0  0  0  0  0  0  0  0  # atno 8010 bound_to 7997
  140.3380  143.2958  151.9867 H   0  0  0  0  0  0  0  0  0  0  0  0  # atno 10167 bound_to 10162
  157.6107  131.1035  150.7592 H   0  0  0  0  0  0  0  0  0  0  0  0  # atno 10718 bound_to 10713
  153.3832  135.6999  153.6550 H   0  0  0  0  0  0  0  0  0  0  0  0  # atno 10763 bound_to 10752
  153.5153  135.3623  155.2606 H   0  0  0  0  0  0  0  0  0  0  0  0  # atno 10764 bound_to 10752
  154.8695  135.4144  154.3134 H   0  0  0  0  0  0  0  0  0  0  0  0  # atno 10765 bound_to 10752
  140.9044  133.7502  156.0587 H   0  0  0  0  0  0  0  0  0  0  0  0  # atno 11005 bound_to 11000
  146.2389  139.5961  142.9505 LP  0  0  0  0  0  0  0  0  0  0  0  0  # atno 17320 bound_to 7965
  145.5363  141.0424  143.2355 LP  0  0  0  0  0  0  0  0  0  0  0  0  # atno 17321 bound_to 7965
  139.4845  144.6180  151.7309 LP  0  0  0  0  0  0  0  0  0  0  0  0  # atno 17342 bound_to 10162
  140.5335  144.0692  150.6062 LP  0  0  0  0  0  0  0  0  0  0  0  0  # atno 17343 bound_to 10162
  156.7970  130.4908  149.5375 LP  0  0  0  0  0  0  0  0  0  0  0  0  # atno 17370 bound_to 10713
  156.1208  130.6109  151.0191 LP  0  0  0  0  0  0  0  0  0  0  0  0  # atno 17371 bound_to 10713
  140.8189  134.3312  157.5388 LP  0  0  0  0  0  0  0  0  0  0  0  0  # atno 17394 bound_to 11000
  139.8747  134.9298  156.3485 LP  0  0  0  0  0  0  0  0  0  0  0  0  # atno 17395 bound_to 11000

$$$$
