AV-unprocessed.smi:21|AV-procd|sdf|144|dock9
  -GOLD-   2262015353D 1   1.00000     0.00000
 Structure written by MMmdl.
 62 65  0  0  0  0  0  0  0  0  2 V2000
  145.8225  132.7820  150.9626 C   0  0  0  0  0  0  0  0  0  0  0  0
  147.0340  133.2457  151.5380 O   0  0  0  0  0  0  0  0  0  0  0  0
  147.3963  132.5711  152.7360 C   0  0  2  0  0  0  0  0  0  0  0  0
  146.5478  133.0260  153.9243 C   0  0  0  0  0  0  0  0  0  0  0  0
  147.2150  134.3194  154.4274 C   0  0  2  0  0  0  0  0  0  0  0  0
  146.4810  135.6068  153.9955 C   0  0  0  0  0  0  0  0  0  0  0  0
  146.2062  136.5181  155.1102 N   0  0  0  0  0  0  0  0  0  0  0  0
  144.8248  136.7114  155.5353 C   0  0  0  0  0  0  0  0  0  0  0  0
  147.2304  137.1120  155.7918 C   0  0  0  0  0  0  0  0  0  0  0  0
  147.5722  136.6066  157.0088 N   0  0  0  0  0  0  0  0  0  0  0  0
  148.5607  137.1451  157.7264 C   0  0  0  0  0  0  0  0  0  0  0  0
  149.3350  138.1861  157.4252 N   0  0  0  0  0  0  0  0  0  0  0  0
  149.0083  138.7052  156.2085 C   0  0  0  0  0  0  0  0  0  0  0  0
  147.9830  138.2391  155.3328 C   0  0  0  0  0  0  0  0  0  0  0  0
  147.9581  139.0396  154.1936 N   0  0  0  0  0  0  0  0  0  0  0  0
  148.9061  139.9153  154.3829 C   0  0  0  0  0  0  0  0  0  0  0  0
  149.5907  139.7835  155.5674 N   0  0  0  0  0  0  0  0  0  0  0  0
  150.6819  140.6147  156.0433 C   0  0  0  0  0  0  0  0  0  0  0  0
  151.2122  140.2147  157.4459 C   0  0  1  0  0  0  0  0  0  0  0  0
  151.9976  138.8784  157.4172 C   0  0  0  0  0  0  0  0  0  0  0  0
  153.1058  138.9356  156.5430 O   0  0  0  0  0  0  0  0  0  0  0  0
  152.0775  141.3531  158.0466 C   0  0  2  0  0  0  0  0  0  0  0  0
  152.5746  141.0970  159.4704 C   0  0  0  0  0  0  0  0  0  0  0  0
  152.5020  142.4589  160.1673 C   0  0  0  0  0  0  0  0  0  0  0  0
  152.1658  143.3843  159.1464 O   0  0  0  0  0  0  0  0  0  0  0  0
  151.3598  142.6961  158.2073 C   0  0  0  0  0  0  0  0  0  0  0  0
  148.5850  134.3161  153.8593 N   0  3  1  0  0  0  0  0  0  0  0  0
  149.6531  134.6439  154.8277 C   0  0  0  0  0  0  0  0  0  0  0  0
  148.7906  133.0418  153.1403 C   0  0  0  0  0  0  0  0  0  0  0  0
  147.3737  131.4896  152.5913 H   0  0  0  0  0  0  0  0  0  0  0  0
  147.2700  134.2778  155.5163 H   0  0  0  0  0  0  0  0  0  0  0  0
  145.6226  133.3337  150.0442 H   0  0  0  0  0  0  0  0  0  0  0  0
  144.9726  132.9289  151.6287 H   0  0  0  0  0  0  0  0  0  0  0  0
  145.8876  131.7234  150.7081 H   0  0  0  0  0  0  0  0  0  0  0  0
  145.4906  133.1355  153.6906 H   0  0  0  0  0  0  0  0  0  0  0  0
  146.6146  132.2702  154.7081 H   0  0  0  0  0  0  0  0  0  0  0  0
  147.0595  136.1310  153.2340 H   0  0  0  0  0  0  0  0  0  0  0  0
  145.5441  135.3426  153.5038 H   0  0  0  0  0  0  0  0  0  0  0  0
  144.5798  137.7730  155.5784 H   0  0  0  0  0  0  0  0  0  0  0  0
  144.6585  136.2706  156.5184 H   0  0  0  0  0  0  0  0  0  0  0  0
  144.1264  136.2421  154.8421 H   0  0  0  0  0  0  0  0  0  0  0  0
  148.7593  136.6749  158.6781 H   0  0  0  0  0  0  0  0  0  0  0  0
  149.1360  140.6823  153.6576 H   0  0  0  0  0  0  0  0  0  0  0  0
  151.4899  140.5779  155.3114 H   0  0  0  0  0  0  0  0  0  0  0  0
  150.3182  141.6420  156.0467 H   0  0  0  0  0  0  0  0  0  0  0  0
  150.3541  140.0866  158.1080 H   0  0  0  0  0  0  0  0  0  0  0  0
  152.3347  138.6049  158.4175 H   0  0  0  0  0  0  0  0  0  0  0  0
  151.3725  138.0585  157.0656 H   0  0  0  0  0  0  0  0  0  0  0  0
  153.3171  138.0567  156.2672 H   0  0  0  0  0  0  0  0  0  0  0  0
  152.9473  141.5169  157.4080 H   0  0  0  0  0  0  0  0  0  0  0  0
  151.9457  140.3787  159.9983 H   0  0  0  0  0  0  0  0  0  0  0  0
  153.5919  140.7043  159.4641 H   0  0  0  0  0  0  0  0  0  0  0  0
  151.7169  142.4599  160.9250 H   0  0  0  0  0  0  0  0  0  0  0  0
  153.4403  142.7341  160.6494 H   0  0  0  0  0  0  0  0  0  0  0  0
  151.2887  143.2544  157.2736 H   0  0  0  0  0  0  0  0  0  0  0  0
  150.3543  142.5658  158.6117 H   0  0  0  0  0  0  0  0  0  0  0  0
  149.6932  133.9103  155.6340 H   0  0  0  0  0  0  0  0  0  0  0  0
  149.4784  135.6266  155.2669 H   0  0  0  0  0  0  0  0  0  0  0  0
  150.6241  134.6631  154.3320 H   0  0  0  0  0  0  0  0  0  0  0  0
  149.2334  132.3099  153.8182 H   0  0  0  0  0  0  0  0  0  0  0  0
  149.4641  133.1597  152.2907 H   0  0  0  0  0  0  0  0  0  0  0  0
  148.5901  135.0373  153.1522 H   0  0  0  0  0  0  0  0  0  0  0  0
  1  2  1  0  0  0  0
  1 32  1  0  0  0  0
  1 33  1  0  0  0  0
  1 34  1  0  0  0  0
  2  3  1  0  0  0  0
  3 30  1  0  0  0  0
  3 29  1  0  0  0  0
  3  4  1  0  0  0  0
  4  5  1  0  0  0  0
  4 35  1  0  0  0  0
  4 36  1  0  0  0  0
  5 31  1  0  0  0  0
  5  6  1  0  0  0  0
  5 27  1  0  0  0  0
  6  7  1  0  0  0  0
  6 37  1  0  0  0  0
  6 38  1  0  0  0  0
  7  8  1  0  0  0  0
  7  9  1  0  0  0  0
  8 39  1  0  0  0  0
  8 40  1  0  0  0  0
  8 41  1  0  0  0  0
  9 14  1  0  0  0  0
  9 10  2  0  0  0  0
 10 11  1  0  0  0  0
 11 12  2  0  0  0  0
 11 42  1  0  0  0  0
 12 13  1  0  0  0  0
 13 17  1  0  0  0  0
 13 14  2  0  0  0  0
 14 15  1  0  0  0  0
 15 16  2  0  0  0  0
 16 17  1  0  0  0  0
 16 43  1  0  0  0  0
 17 18  1  0  0  0  0
 18 19  1  0  0  0  0
 18 44  1  0  0  0  0
 18 45  1  0  0  0  0
 19 20  1  0  0  0  0
 19 22  1  0  0  0  0
 19 46  1  0  0  0  0
 20 21  1  0  0  0  0
 20 47  1  0  0  0  0
 20 48  1  0  0  0  0
 21 49  1  0  0  0  0
 22 26  1  0  0  0  0
 22 23  1  0  0  0  0
 22 50  1  0  0  0  0
 23 24  1  0  0  0  0
 23 51  1  0  0  0  0
 23 52  1  0  0  0  0
 24 25  1  0  0  0  0
 24 53  1  0  0  0  0
 24 54  1  0  0  0  0
 25 26  1  0  0  0  0
 26 55  1  0  0  0  0
 26 56  1  0  0  0  0
 27 28  1  0  0  0  0
 27 29  1  0  0  0  0
 27 62  1  0  0  0  0
 28 57  1  0  0  0  0
 28 58  1  0  0  0  0
 28 59  1  0  0  0  0
 29 60  1  0  0  0  0
 29 61  1  0  0  0  0
M  CHG  1  27   1
M  END
> <s_m_source_file>
AV-unprocessed.smi

> <i_m_source_file_index>
21

> <i_lp_mmshare_version>
43012

> <i_f3d_flags>
0

> <s_epik_input>
W0NIM11PW0NASF0xW0NIMl1bQ0BIXShOKFtDSDNdKVtDSDJdMSlbQ0gyXU4oW0NIM10pYyhuW2NIXW4yKWMoYzIzKW5bY0hdbjNbQ0gyXVtDQEhdKFtDSDJdW09IXSlbQ0BASF00W0NIMl1bQ0gyXU9bQ0gyXTQ=

> <s_epik_cmdline>
J2VwaWtfcHl0aG9uJywgJy1waCcsICc3LjAnLCAnLXRuJywgJzgnLCAnLW1hJywgJzIwMCcsICctbWV0YWxfYmluZGluZycsICctaW1hZScsICc8aW5maWxlLm1hZT4nLCAnLW9tYWUnLCAnPG91dGZpbGUubWFlPic=

> <r_lp_tautomer_probability>
1

> <r_epik_Ionization_Penalty>
0.0157465

> <r_epik_Ionization_Penalty_Charging>
0.015354

> <r_epik_Ionization_Penalty_Neutral>
0.000392529

> <r_epik_State_Penalty>
0.0120612

> <r_epik_Charging_Adjusted_Penalty>
0.0274152

> <i_epik_Tot_Q>
1

> <i_epik_Tot_abs_Q>
1

> <r_epik_Metal_State_Penalty>
0.0121253

> <b_epik_Metal_Only>
0

> <s_lp_Force_Field>
OPLS_2005

> <r_lp_Energy>
59.4837

> <b_lp_Chiralities_Consistent>
1

> <s_lp_Variant>
AV-unprocessed.smi:21-24

> <Gold.Version>
5.8.1

> <Gold.Id.Protein>
6NUR|6NUR_protein|mol2

> <Gold.PLP.Fitness>
42.6489

> <Gold.PLP.PLP>
-35.5917

> <Gold.PLP.part.hbond>
-2.0000

> <Gold.PLP.part.metal>
0.0000

> <Gold.PLP.part.buried>
-5.1242

> <Gold.PLP.part.nonpolar>
-28.2227

> <Gold.PLP.part.repulsive>
0.3785

> <Gold.PLP.ligand.clash>
0.0000

> <Gold.PLP.ligand.torsion>
2.3552

> <Gold.PLP.Chemscore.Hbond>
3.0000

> <Gold.PLP.Chemscore.CHOScore>
0.7914

> <Gold.PLP.Chemscore.Metal>
0.0000

> <Gold.Chemscore.Hbonds>
donor molecule, donor type, donor heavy atom, donor atom, acceptor molecule, acceptor atom, score
      L1  H    27    62       P1  7948  2.00
      P1  H  7997  8010       L1    21  1.00
      L1  C    16    43       P1  7957  0.63

> <Gold.PLP.Chemscore.Internal.Correction>
0.3936

> <Gold.Rescore>
     Score         DG    S(hbond)    S(metal)    S(lipo)     H(rot)  DE(clash)    DE(int)     intcor
      9.74     -13.54       1.91        0.00      81.61       3.08       0.00       3.80       ----

> <Gold.Chemscore.Fitness>
9.7388

> <Gold.Chemscore.DG>
-13.5400

> <Gold.Chemscore.ZeroCoef>
-5.4800

> <Gold.Chemscore.Hbond>
1.9119

> <Gold.Chemscore.Metal>
0.0000

> <Gold.Chemscore.Lipo>
81.6104

> <Gold.Chemscore.Internal_Hbond>
0.0000

> <Gold.Chemscore.DEClash>
0.0004

> <Gold.Chemscore.DEInternal>
3.8007

> <Gold.Chemscore.Rot>
3.0758

> <Gold.Chemscore.Internal.Correction>
   9.000000E+99

> <Gold.Chemscore.Hbonds>
donor molecule, donor type, donor heavy atom, donor atom, acceptor molecule, acceptor atom, score
      L1  H    27    62       P1  7948  0.65
      P1  H  7997  8010       L1    21  0.87

> <Gold.Chemscore.Hbond.Weighted>
-6.3857

> <Gold.Chemscore.Metal.Weighted>
-0.0000

> <Gold.Chemscore.Lipo.Weighted>
-9.5484

> <Gold.Chemscore.Internal_Hbond.Weighted>
0.0000

> <Gold.Chemscore.DEClash.Weighted>
0.0004

> <Gold.Chemscore.DEInternal.Weighted>
3.8007

> <Gold.Chemscore.Rot.Weighted>
7.8741

> <Gold.Chemscore.Internal.Correction.Weighted>
   9.000000E+99

> <Gold.Protein.RotatedTorsions>
[ 6907 6896 6895 6894 ] final  -84.47 input  -60.11 | X-H torsion
[ 7974 7965 7964 7962 ] final  158.68 input  175.53 | X-H torsion
[ 8008 7997 7996 7995 ] final   82.42 input   59.86 | X-H torsion
[ 10167 10162 10161 10158 ] final  -79.74 input  -65.29 | X-H torsion
[ 10718 10713 10712 10709 ] final  -49.65 input   66.30 | X-H torsion
[ 10763 10752 10751 10750 ] final  100.84 input  -60.55 | X-H torsion
[ 11005 11000 10999 10996 ] final -127.42 input  -57.11 | X-H torsion

> <Gold.Protein.ActiveResidues>
 VAL166  LYS551  ARG553  GLY616  TRP617  ASP618  TYR619  PRO620  LYS621  CYS622 
 ASP623  PHE694  ASN695  SER759  ASP760  ASP761  ALA762  ILE779  LEU786  VAL792 
 PHE793  MET794  SER795  GLU796  ALA797  LYS798  CYS799  TRP800  GLU811  SER814 

> <Gold.Protein.RotatedAtoms>
  150.6876  134.3353  159.4844 H   0  0  0  0  0  0  0  0  0  0  0  0  # atno 6907 bound_to 6896
  152.1213  134.9201  160.0572 H   0  0  0  0  0  0  0  0  0  0  0  0  # atno 6908 bound_to 6896
  152.0405  133.3941  159.4372 H   0  0  0  0  0  0  0  0  0  0  0  0  # atno 6909 bound_to 6896
  144.7832  139.7512  143.6251 H   0  0  0  0  0  0  0  0  0  0  0  0  # atno 7974 bound_to 7965
  155.9103  140.3428  155.6094 H   0  0  0  0  0  0  0  0  0  0  0  0  # atno 8008 bound_to 7997
  155.7395  140.0806  157.2271 H   0  0  0  0  0  0  0  0  0  0  0  0  # atno 8009 bound_to 7997
  154.4055  140.1573  156.2587 H   0  0  0  0  0  0  0  0  0  0  0  0  # atno 8010 bound_to 7997
  140.4566  143.2466  151.8411 H   0  0  0  0  0  0  0  0  0  0  0  0  # atno 10167 bound_to 10162
  156.1874  130.4152  149.9420 H   0  0  0  0  0  0  0  0  0  0  0  0  # atno 10718 bound_to 10713
  153.3190  135.4065  155.1401 H   0  0  0  0  0  0  0  0  0  0  0  0  # atno 10763 bound_to 10752
  154.8596  135.3583  154.5621 H   0  0  0  0  0  0  0  0  0  0  0  0  # atno 10764 bound_to 10752
  153.6054  135.7069  153.5427 H   0  0  0  0  0  0  0  0  0  0  0  0  # atno 10765 bound_to 10752
  140.9600  134.0949  157.3977 H   0  0  0  0  0  0  0  0  0  0  0  0  # atno 11005 bound_to 11000
  146.2051  139.5370  142.9718 LP  0  0  0  0  0  0  0  0  0  0  0  0  # atno 17320 bound_to 7965
  145.5993  141.0358  143.2027 LP  0  0  0  0  0  0  0  0  0  0  0  0  # atno 17321 bound_to 7965
  139.4802  144.5058  151.9000 LP  0  0  0  0  0  0  0  0  0  0  0  0  # atno 17342 bound_to 10162
  140.4144  144.2327  150.5888 LP  0  0  0  0  0  0  0  0  0  0  0  0  # atno 17343 bound_to 10162
  156.7171  130.8992  151.3615 LP  0  0  0  0  0  0  0  0  0  0  0  0  # atno 17370 bound_to 10713
  157.6907  130.9231  150.0507 LP  0  0  0  0  0  0  0  0  0  0  0  0  # atno 17371 bound_to 10713
  139.8875  135.0090  156.6564 LP  0  0  0  0  0  0  0  0  0  0  0  0  # atno 17394 bound_to 11000
  140.7480  133.8921  155.8326 LP  0  0  0  0  0  0  0  0  0  0  0  0  # atno 17395 bound_to 11000

$$$$
