AV-unprocessed.smi:1199|AV-procd|sdf|5017|dock8
  -GOLD-   22720 4 33D 1   1.00000     0.00000
 Structure written by MMmdl.
 41 42  0  0  0  0  0  0  0  0  3 V2000
  143.3034  137.9689  155.4429 C   0  0  0  0  0  0  0  0  0  0  0  0
  144.3889  138.5751  156.3447 C   0  0  1  0  0  0  0  0  0  0  0  0
  144.4843  140.1094  156.1904 C   0  0  0  0  0  0  0  0  0  0  0  0
  145.2894  140.5474  155.0180 N   0  3  0  0  0  0  0  0  0  0  0  0
  145.8461  141.9165  155.1465 C   0  0  0  0  0  0  0  0  0  0  0  0
  146.6220  142.2980  153.8745 C   0  0  0  0  0  0  0  0  0  0  0  0
  147.6528  141.3460  153.6426 O   0  0  0  0  0  0  0  0  0  0  0  0
  147.1308  140.0403  153.4306 C   0  0  0  0  0  0  0  0  0  0  0  0
  146.3602  139.5804  154.6790 C   0  0  0  0  0  0  0  0  0  0  0  0
  144.1445  138.2304  157.7405 N   0  0  0  0  0  0  0  0  0  0  0  0
  144.9178  138.5574  158.7880 C   0  0  0  0  0  0  0  0  0  0  0  0
  146.0176  139.0955  158.6664 O   0  0  0  0  0  0  0  0  0  0  0  0
  144.3623  138.2772  160.1946 C   0  0  0  0  0  0  0  0  0  0  0  0
  145.1195  137.2688  160.9558 N   0  0  0  0  0  0  0  0  0  0  0  0
  146.5684  137.3908  160.8112 N   0  5  0  0  0  0  0  0  0  0  0  0
  147.3739  136.4890  161.4315 C   0  0  0  0  0  0  0  0  0  0  0  0
  148.5972  136.5038  161.3203 O   0  0  0  0  0  0  0  0  0  0  0  0
  146.7509  135.4794  162.2707 C   0  0  0  0  0  0  0  0  0  0  0  0
  145.4134  135.4209  162.4252 C   0  0  0  0  0  0  0  0  0  0  0  0
  144.5096  136.3502  161.7581 C   0  0  0  0  0  0  0  0  0  0  0  0
  143.2890  136.3144  161.9096 O   0  0  0  0  0  0  0  0  0  0  0  0
  143.4834  138.2131  154.3957 H   0  0  0  0  0  0  0  0  0  0  0  0
  142.3129  138.3416  155.7063 H   0  0  0  0  0  0  0  0  0  0  0  0
  143.2827  136.8818  155.5275 H   0  0  0  0  0  0  0  0  0  0  0  0
  145.3472  138.1497  156.0421 H   0  0  0  0  0  0  0  0  0  0  0  0
  143.4872  140.5497  156.1431 H   0  0  0  0  0  0  0  0  0  0  0  0
  144.9559  140.5136  157.0875 H   0  0  0  0  0  0  0  0  0  0  0  0
  145.0460  142.6392  155.3039 H   0  0  0  0  0  0  0  0  0  0  0  0
  146.5022  141.9673  156.0165 H   0  0  0  0  0  0  0  0  0  0  0  0
  145.9571  142.3535  153.0113 H   0  0  0  0  0  0  0  0  0  0  0  0
  147.0724  143.2837  153.9914 H   0  0  0  0  0  0  0  0  0  0  0  0
  146.4879  140.0277  152.5510 H   0  0  0  0  0  0  0  0  0  0  0  0
  147.9571  139.3588  153.2280 H   0  0  0  0  0  0  0  0  0  0  0  0
  147.0441  139.4820  155.5237 H   0  0  0  0  0  0  0  0  0  0  0  0
  145.9276  138.5958  154.4986 H   0  0  0  0  0  0  0  0  0  0  0  0
  143.2677  137.7745  157.9488 H   0  0  0  0  0  0  0  0  0  0  0  0
  144.3101  139.2196  160.7419 H   0  0  0  0  0  0  0  0  0  0  0  0
  143.3268  137.9483  160.0908 H   0  0  0  0  0  0  0  0  0  0  0  0
  147.3743  134.7625  162.7844 H   0  0  0  0  0  0  0  0  0  0  0  0
  144.9936  134.6560  163.0614 H   0  0  0  0  0  0  0  0  0  0  0  0
  144.6607  140.5677  154.2264 H   0  0  0  0  0  0  0  0  0  0  0  0
  1  2  1  0  0  0  0
  1 22  1  0  0  0  0
  1 23  1  0  0  0  0
  1 24  1  0  0  0  0
  2  3  1  0  0  0  0
  2 10  1  0  0  0  0
  2 25  1  0  0  0  0
  3  4  1  0  0  0  0
  3 26  1  0  0  0  0
  3 27  1  0  0  0  0
  4  9  1  0  0  0  0
  4  5  1  0  0  0  0
  4 41  1  0  0  0  0
  5  6  1  0  0  0  0
  5 28  1  0  0  0  0
  5 29  1  0  0  0  0
  6  7  1  0  0  0  0
  6 30  1  0  0  0  0
  6 31  1  0  0  0  0
  7  8  1  0  0  0  0
  8  9  1  0  0  0  0
  8 32  1  0  0  0  0
  8 33  1  0  0  0  0
  9 34  1  0  0  0  0
  9 35  1  0  0  0  0
 10 11  1  0  0  0  0
 10 36  1  0  0  0  0
 11 12  2  0  0  0  0
 11 13  1  0  0  0  0
 13 37  1  0  0  0  0
 13 38  1  0  0  0  0
 13 14  1  0  0  0  0
 14 15  1  0  0  0  0
 14 20  1  0  0  0  0
 15 16  1  0  0  0  0
 16 17  2  0  0  0  0
 16 18  1  0  0  0  0
 18 39  1  0  0  0  0
 18 19  2  0  0  0  0
 19 40  1  0  0  0  0
 19 20  1  0  0  0  0
 20 21  2  0  0  0  0
M  CHG  1   4   1
M  CHG  1  15  -1
M  END
> <s_m_source_file>
AV-unprocessed.smi

> <i_m_source_file_index>
1199

> <i_lp_mmshare_version>
43012

> <i_f3d_flags>
0

> <s_epik_input>
W0NIMl0xW0NIMl1PW0NIMl1bQ0gyXU4xW0NIMl1bQ0BASF0oW0NIM10pW05IXUMoPU8pW0NIMl1uMltuSF1jKD1PKVtjSF1bY0hdYzI9Tw==

> <s_epik_cmdline>
J2VwaWtfcHl0aG9uJywgJy1waCcsICc3LjAnLCAnLXRuJywgJzgnLCAnLW1hJywgJzIwMCcsICctbWV0YWxfYmluZGluZycsICctaW1hZScsICc8aW5maWxlLm1hZT4nLCAnLW9tYWUnLCAnPG91dGZpbGUubWFlPic=

> <r_lp_tautomer_probability>
1

> <r_epik_Ionization_Penalty>
0.741876

> <r_epik_Ionization_Penalty_Charging>
0.741876

> <r_epik_Ionization_Penalty_Neutral>
9.12373e-08

> <r_epik_State_Penalty>
0.692284

> <r_epik_Charging_Adjusted_Penalty>
1.43416

> <i_epik_Tot_Q>
0

> <i_epik_Tot_abs_Q>
2

> <r_epik_Metal_State_Penalty>
0.692284

> <b_epik_Metal_Only>
0

> <s_lp_Force_Field>
OPLS_2005

> <r_lp_Energy>
27.3091

> <b_lp_Chiralities_Consistent>
1

> <s_lp_Variant>
AV-unprocessed.smi:1199-4

> <Gold.Version>
5.8.1

> <Gold.Id.Protein>
6NUR|6NUR_protein|mol2

> <Gold.PLP.Fitness>
38.4365

> <Gold.PLP.PLP>
-25.1828

> <Gold.PLP.part.hbond>
-4.0000

> <Gold.PLP.part.metal>
0.0000

> <Gold.PLP.part.buried>
-4.5758

> <Gold.PLP.part.nonpolar>
-17.0913

> <Gold.PLP.part.repulsive>
0.1989

> <Gold.PLP.ligand.clash>
0.0000

> <Gold.PLP.ligand.torsion>
0.8935

> <Gold.PLP.Chemscore.Hbond>
5.0000

> <Gold.PLP.Chemscore.CHOScore>
0.0000

> <Gold.PLP.Chemscore.Metal>
0.0000

> <Gold.Chemscore.Hbonds>
donor molecule, donor type, donor heavy atom, donor atom, acceptor molecule, acceptor atom, score
      L1  H     4    41       P1 10175  2.00
      P1  H  6931  6943       L1    17  1.00
      P1  H  6934  6947       L1    15  2.00

> <Gold.PLP.Chemscore.Internal.Correction>
0.0407

> <Gold.Rescore>
     Score         DG    S(hbond)    S(metal)    S(lipo)     H(rot)  DE(clash)    DE(int)     intcor
     11.27     -13.27       2.81        0.00      38.18       2.37       0.05       1.95       ----

> <Gold.Chemscore.Fitness>
11.2680

> <Gold.Chemscore.DG>
-13.2697

> <Gold.Chemscore.ZeroCoef>
-5.4800

> <Gold.Chemscore.Hbond>
2.8147

> <Gold.Chemscore.Metal>
0.0000

> <Gold.Chemscore.Lipo>
38.1843

> <Gold.Chemscore.Internal_Hbond>
0.0000

> <Gold.Chemscore.DEClash>
0.0528

> <Gold.Chemscore.DEInternal>
1.9489

> <Gold.Chemscore.Rot>
2.3747

> <Gold.Chemscore.Internal.Correction>
   9.000000E+99

> <Gold.Chemscore.Hbonds>
donor molecule, donor type, donor heavy atom, donor atom, acceptor molecule, acceptor atom, score
      L1  H     4    41       P1 10175  0.97
      P1  H  6931  6943       L1    17  0.40
      P1  H  6934  6947       L1    15  0.75

> <Gold.Chemscore.Hbond.Weighted>
-9.4012

> <Gold.Chemscore.Metal.Weighted>
-0.0000

> <Gold.Chemscore.Lipo.Weighted>
-4.4676

> <Gold.Chemscore.Internal_Hbond.Weighted>
0.0000

> <Gold.Chemscore.DEClash.Weighted>
0.0528

> <Gold.Chemscore.DEInternal.Weighted>
1.9489

> <Gold.Chemscore.Rot.Weighted>
6.0791

> <Gold.Chemscore.Internal.Correction.Weighted>
   9.000000E+99

> <Gold.Protein.RotatedTorsions>
[ 6907 6896 6895 6894 ] final -147.56 input  -60.11 | X-H torsion
[ 7974 7965 7964 7962 ] final  -70.28 input  175.53 | X-H torsion
[ 8008 7997 7996 7995 ] final  -74.52 input   59.86 | X-H torsion
[ 10167 10162 10161 10158 ] final -122.78 input  -65.29 | X-H torsion
[ 10718 10713 10712 10709 ] final -129.19 input   66.30 | X-H torsion
[ 10763 10752 10751 10750 ] final  122.95 input  -60.55 | X-H torsion
[ 11005 11000 10999 10996 ] final   70.27 input  -57.11 | X-H torsion

> <Gold.Protein.ActiveResidues>
 VAL166  LYS551  ARG553  GLY616  TRP617  ASP618  TYR619  PRO620  LYS621  CYS622 
 ASP623  PHE694  ASN695  SER759  ASP760  ASP761  ALA762  ILE779  LEU786  VAL792 
 PHE793  MET794  SER795  GLU796  ALA797  LYS798  CYS799  TRP800  GLU811  SER814 

> <Gold.Protein.RotatedAtoms>
  151.1574  133.4867  159.2594 H   0  0  0  0  0  0  0  0  0  0  0  0  # atno 6907 bound_to 6896
  151.1489  135.0217  159.8669 H   0  0  0  0  0  0  0  0  0  0  0  0  # atno 6908 bound_to 6896
  152.5463  134.1460  159.8552 H   0  0  0  0  0  0  0  0  0  0  0  0  # atno 6909 bound_to 6896
  145.6930  140.9146  143.0771 H   0  0  0  0  0  0  0  0  0  0  0  0  # atno 7974 bound_to 7965
  154.5338  140.0760  156.8391 H   0  0  0  0  0  0  0  0  0  0  0  0  # atno 8008 bound_to 7997
  155.3321  140.3402  155.4221 H   0  0  0  0  0  0  0  0  0  0  0  0  # atno 8009 bound_to 7997
  156.1807  140.1651  156.8265 H   0  0  0  0  0  0  0  0  0  0  0  0  # atno 8010 bound_to 7997
  140.0106  143.5446  152.2265 H   0  0  0  0  0  0  0  0  0  0  0  0  # atno 10167 bound_to 10162
  156.2023  130.6865  151.0554 H   0  0  0  0  0  0  0  0  0  0  0  0  # atno 10718 bound_to 10713
  153.6379  135.3384  155.3062 H   0  0  0  0  0  0  0  0  0  0  0  0  # atno 10763 bound_to 10752
  154.8566  135.4311  154.2036 H   0  0  0  0  0  0  0  0  0  0  0  0  # atno 10764 bound_to 10752
  153.2948  135.7020  153.7332 H   0  0  0  0  0  0  0  0  0  0  0  0  # atno 10765 bound_to 10752
  139.9607  134.7066  156.0653 H   0  0  0  0  0  0  0  0  0  0  0  0  # atno 11005 bound_to 11000
  144.6991  139.8847  143.7449 LP  0  0  0  0  0  0  0  0  0  0  0  0  # atno 17320 bound_to 7965
  146.0865  139.3853  143.0432 LP  0  0  0  0  0  0  0  0  0  0  0  0  # atno 17321 bound_to 7965
  139.6208  144.7628  151.2745 LP  0  0  0  0  0  0  0  0  0  0  0  0  # atno 17342 bound_to 10162
  140.7383  143.6653  150.8129 LP  0  0  0  0  0  0  0  0  0  0  0  0  # atno 17343 bound_to 10162
  157.6993  131.0782  150.6872 LP  0  0  0  0  0  0  0  0  0  0  0  0  # atno 17370 bound_to 10713
  156.6929  130.4600  149.5594 LP  0  0  0  0  0  0  0  0  0  0  0  0  # atno 17371 bound_to 10713
  141.1283  133.6593  156.3397 LP  0  0  0  0  0  0  0  0  0  0  0  0  # atno 17394 bound_to 11000
  140.5507  134.6030  157.5407 LP  0  0  0  0  0  0  0  0  0  0  0  0  # atno 17395 bound_to 11000

$$$$
