AV-unprocessed.smi:3148|AV-procd|sdf|11998|dock3
  -GOLD-   2272017403D 1   1.00000     0.00000
 Structure written by MMmdl.
 35 37  0  0  0  0  0  0  0  0  2 V2000
  151.5791  137.7471  154.5187 C   0  0  0  0  0  0  0  0  0  0  0  0
  151.7970  138.7945  155.4580 O   0  0  0  0  0  0  0  0  0  0  0  0
  150.9715  139.8990  155.4090 C   0  0  0  0  0  0  0  0  0  0  0  0
  149.8961  139.9210  154.5060 C   0  0  0  0  0  0  0  0  0  0  0  0
  149.0893  141.0752  154.4993 C   0  0  0  0  0  0  0  0  0  0  0  0
  147.9049  141.2238  153.5683 C   0  0  0  0  0  0  0  0  0  0  0  0
  149.3645  142.1023  155.3413 N   0  3  0  0  0  0  0  0  0  0  0  0
  150.4083  142.0197  156.1796 C   0  0  0  0  0  0  0  0  0  0  0  0
  150.6496  143.0988  157.0105 N   0  0  0  0  0  0  0  0  0  0  0  0
  151.7421  143.1595  157.9732 C   0  0  1  0  0  0  0  0  0  0  0  0
  151.8635  144.5283  158.6555 C   0  0  0  0  0  0  0  0  0  0  0  0
  151.7605  144.1519  160.1387 C   0  0  2  0  0  0  0  0  0  0  0  0
  152.9945  143.3831  160.6301 C   0  0  0  0  0  0  0  0  0  0  0  0
  152.7936  142.0175  159.9740 C   0  0  0  0  0  0  0  0  0  0  0  0
  151.4995  142.2357  159.1780 C   0  0  1  0  0  0  0  0  0  0  0  0
  150.8103  143.1041  160.0629 O   0  0  0  0  0  0  0  0  0  0  0  0
  151.2106  140.9471  156.2311 N   0  0  0  0  0  0  0  0  0  0  0  0
  152.3023  136.9505  154.6924 H   0  0  0  0  0  0  0  0  0  0  0  0
  151.7115  138.0960  153.4935 H   0  0  0  0  0  0  0  0  0  0  0  0
  150.5818  137.3170  154.6241 H   0  0  0  0  0  0  0  0  0  0  0  0
  149.7020  139.0875  153.8466 H   0  0  0  0  0  0  0  0  0  0  0  0
  147.7158  140.2999  153.0210 H   0  0  0  0  0  0  0  0  0  0  0  0
  148.0909  142.0175  152.8443 H   0  0  0  0  0  0  0  0  0  0  0  0
  147.0058  141.4747  154.1319 H   0  0  0  0  0  0  0  0  0  0  0  0
  150.1262  143.9448  156.8379 H   0  0  0  0  0  0  0  0  0  0  0  0
  152.6700  142.8814  157.4713 H   0  0  0  0  0  0  0  0  0  0  0  0
  152.7999  145.0342  158.4180 H   0  0  0  0  0  0  0  0  0  0  0  0
  151.0428  145.1925  158.3795 H   0  0  0  0  0  0  0  0  0  0  0  0
  151.4665  144.9791  160.7853 H   0  0  0  0  0  0  0  0  0  0  0  0
  153.9268  143.8642  160.3328 H   0  0  0  0  0  0  0  0  0  0  0  0
  152.9888  143.2896  161.7167 H   0  0  0  0  0  0  0  0  0  0  0  0
  153.6307  141.7239  159.3396 H   0  0  0  0  0  0  0  0  0  0  0  0
  152.6548  141.2464  160.7328 H   0  0  0  0  0  0  0  0  0  0  0  0
  150.9715  141.3107  158.9434 H   0  0  0  0  0  0  0  0  0  0  0  0
  148.7741  142.9342  155.3248 H   0  0  0  0  0  0  0  0  0  0  0  0
  1  2  1  0  0  0  0
  1 18  1  0  0  0  0
  1 19  1  0  0  0  0
  1 20  1  0  0  0  0
  2  3  1  0  0  0  0
  3 17  1  0  0  0  0
  3  4  2  0  0  0  0
  4  5  1  0  0  0  0
  4 21  1  0  0  0  0
  5  6  1  0  0  0  0
  5  7  2  0  0  0  0
  6 22  1  0  0  0  0
  6 23  1  0  0  0  0
  6 24  1  0  0  0  0
  7  8  1  0  0  0  0
  7 35  1  0  0  0  0
  8  9  1  0  0  0  0
  8 17  2  0  0  0  0
  9 10  1  0  0  0  0
  9 25  1  0  0  0  0
 10 15  1  0  0  0  0
 10 11  1  0  0  0  0
 10 26  1  0  0  0  0
 11 12  1  0  0  0  0
 11 27  1  0  0  0  0
 11 28  1  0  0  0  0
 12 16  1  0  0  0  0
 12 13  1  0  0  0  0
 12 29  1  0  0  0  0
 13 14  1  0  0  0  0
 13 30  1  0  0  0  0
 13 31  1  0  0  0  0
 14 15  1  0  0  0  0
 14 32  1  0  0  0  0
 14 33  1  0  0  0  0
 15 16  1  0  0  0  0
 15 34  1  0  0  0  0
M  CHG  1   7   1
M  END
> <s_m_source_file>
AV-unprocessed.smi

> <i_m_source_file_index>
3148

> <i_lp_mmshare_version>
43012

> <i_f3d_flags>
0

> <s_epik_input>
W0NIM11PYzFbY0hdYyhbQ0gzXSluYyhuMSlbTkhdW0NASF0oW0NIMl1bQ0BASF0yMylbQ0BASF0oTzMpW0NIMl1bQ0gyXTI=

> <s_epik_cmdline>
J2VwaWtfcHl0aG9uJywgJy1waCcsICc3LjAnLCAnLXRuJywgJzgnLCAnLW1hJywgJzIwMCcsICctbWV0YWxfYmluZGluZycsICctaW1hZScsICc8aW5maWxlLm1hZT4nLCAnLW9tYWUnLCAnPG91dGZpbGUubWFlPic=

> <r_lp_tautomer_probability>
0.999985

> <r_epik_Ionization_Penalty>
1.09461

> <r_epik_Ionization_Penalty_Charging>
1.0946

> <r_epik_Ionization_Penalty_Neutral>
6.69406e-06

> <r_epik_State_Penalty>
1.15119

> <r_epik_Charging_Adjusted_Penalty>
2.24579

> <i_epik_Tot_Q>
1

> <i_epik_Tot_abs_Q>
1

> <r_epik_Metal_State_Penalty>
1.2392

> <b_epik_Metal_Only>
0

> <s_lp_Force_Field>
OPLS_2005

> <r_lp_Energy>
35.8621

> <b_lp_Chiralities_Consistent>
1

> <s_lp_Variant>
AV-unprocessed.smi:3148-8

> <Gold.Version>
5.8.1

> <Gold.Id.Protein>
6NUR|6NUR_protein|mol2

> <Gold.PLP.Fitness>
51.0448

> <Gold.PLP.PLP>
-40.7958

> <Gold.PLP.part.hbond>
-3.0000

> <Gold.PLP.part.metal>
0.0000

> <Gold.PLP.part.buried>
-2.9753

> <Gold.PLP.part.nonpolar>
-33.6172

> <Gold.PLP.part.repulsive>
0.2786

> <Gold.PLP.ligand.clash>
0.0266

> <Gold.PLP.ligand.torsion>
0.1037

> <Gold.PLP.Chemscore.Hbond>
3.4880

> <Gold.PLP.Chemscore.CHOScore>
0.0000

> <Gold.PLP.Chemscore.Metal>
0.0000

> <Gold.Chemscore.Hbonds>
donor molecule, donor type, donor heavy atom, donor atom, acceptor molecule, acceptor atom, score
      L1  H     7    35       P1  8028  1.63
      L1  H     9    25       P1  8028  1.76

> <Gold.PLP.Chemscore.Internal.Correction>
0.0189

> <Gold.Rescore>
     Score         DG    S(hbond)    S(metal)    S(lipo)     H(rot)  DE(clash)    DE(int)     intcor
     19.68     -19.95       1.81        0.00      99.24       1.24       0.08       0.18       ----

> <Gold.Chemscore.Fitness>
19.6841

> <Gold.Chemscore.DG>
-19.9521

> <Gold.Chemscore.ZeroCoef>
-5.4800

> <Gold.Chemscore.Hbond>
1.8051

> <Gold.Chemscore.Metal>
0.0000

> <Gold.Chemscore.Lipo>
99.2401

> <Gold.Chemscore.Internal_Hbond>
0.0000

> <Gold.Chemscore.DEClash>
0.0850

> <Gold.Chemscore.DEInternal>
0.1830

> <Gold.Chemscore.Rot>
1.2376

> <Gold.Chemscore.Internal.Correction>
   9.000000E+99

> <Gold.Chemscore.Hbonds>
donor molecule, donor type, donor heavy atom, donor atom, acceptor molecule, acceptor atom, score
      L1  H     7    35       P1  8028  0.81
      L1  H     9    25       P1  8028  0.86

> <Gold.Chemscore.Hbond.Weighted>
-6.0291

> <Gold.Chemscore.Metal.Weighted>
-0.0000

> <Gold.Chemscore.Lipo.Weighted>
-11.6111

> <Gold.Chemscore.Internal_Hbond.Weighted>
0.0000

> <Gold.Chemscore.DEClash.Weighted>
0.0850

> <Gold.Chemscore.DEInternal.Weighted>
0.1830

> <Gold.Chemscore.Rot.Weighted>
3.1681

> <Gold.Chemscore.Internal.Correction.Weighted>
   9.000000E+99

> <Gold.Protein.RotatedTorsions>
[ 6907 6896 6895 6894 ] final  -21.51 input  -60.11 | X-H torsion
[ 7974 7965 7964 7962 ] final  -44.23 input  175.53 | X-H torsion
[ 8008 7997 7996 7995 ] final -178.26 input   59.86 | X-H torsion
[ 10167 10162 10161 10158 ] final  -38.71 input  -65.29 | X-H torsion
[ 10718 10713 10712 10709 ] final -104.93 input   66.30 | X-H torsion
[ 10763 10752 10751 10750 ] final   55.78 input  -60.55 | X-H torsion
[ 11005 11000 10999 10996 ] final  -83.84 input  -57.11 | X-H torsion

> <Gold.Protein.ActiveResidues>
 VAL166  LYS551  ARG553  GLY616  TRP617  ASP618  TYR619  PRO620  LYS621  CYS622 
 ASP623  PHE694  ASN695  SER759  ASP760  ASP761  ALA762  ILE779  LEU786  VAL792 
 PHE793  MET794  SER795  GLU796  ALA797  LYS798  CYS799  TRP800  GLU811  SER814 

> <Gold.Protein.RotatedAtoms>
  151.2323  135.0559  159.8992 H   0  0  0  0  0  0  0  0  0  0  0  0  # atno 6907 bound_to 6896
  152.5403  134.0524  159.8126 H   0  0  0  0  0  0  0  0  0  0  0  0  # atno 6908 bound_to 6896
  151.0705  133.5421  159.2659 H   0  0  0  0  0  0  0  0  0  0  0  0  # atno 6909 bound_to 6896
  145.9941  140.7148  142.9302 H   0  0  0  0  0  0  0  0  0  0  0  0  # atno 7974 bound_to 7965
  156.0167  140.1252  157.0399 H   0  0  0  0  0  0  0  0  0  0  0  0  # atno 8008 bound_to 7997
  154.4296  140.1077  156.5976 H   0  0  0  0  0  0  0  0  0  0  0  0  # atno 8009 bound_to 7997
  155.6002  140.3470  155.4594 H   0  0  0  0  0  0  0  0  0  0  0  0  # atno 8010 bound_to 7997
  140.7084  143.3260  151.2679 H   0  0  0  0  0  0  0  0  0  0  0  0  # atno 10167 bound_to 10162
  156.0324  130.5539  150.7466 H   0  0  0  0  0  0  0  0  0  0  0  0  # atno 10718 bound_to 10713
  152.9822  135.5699  154.5121 H   0  0  0  0  0  0  0  0  0  0  0  0  # atno 10763 bound_to 10752
  154.4624  135.2782  155.1705 H   0  0  0  0  0  0  0  0  0  0  0  0  # atno 10764 bound_to 10752
  154.3288  135.6253  153.5595 H   0  0  0  0  0  0  0  0  0  0  0  0  # atno 10765 bound_to 10752
  141.1655  133.7315  156.8779 H   0  0  0  0  0  0  0  0  0  0  0  0  # atno 11005 bound_to 11000
  144.6898  140.3120  143.7246 LP  0  0  0  0  0  0  0  0  0  0  0  0  # atno 17320 bound_to 7965
  145.7586  139.1817  143.2280 LP  0  0  0  0  0  0  0  0  0  0  0  0  # atno 17321 bound_to 7965
  139.6728  143.9990  152.2763 LP  0  0  0  0  0  0  0  0  0  0  0  0  # atno 17342 bound_to 10162
  139.9594  144.6568  150.8094 LP  0  0  0  0  0  0  0  0  0  0  0  0  # atno 17343 bound_to 10162
  157.5021  131.0919  151.0301 LP  0  0  0  0  0  0  0  0  0  0  0  0  # atno 17370 bound_to 10713
  157.0679  130.5852  149.5397 LP  0  0  0  0  0  0  0  0  0  0  0  0  # atno 17371 bound_to 10713
  140.1735  134.9083  157.2863 LP  0  0  0  0  0  0  0  0  0  0  0  0  # atno 17394 bound_to 11000
  140.2475  134.3723  155.7455 LP  0  0  0  0  0  0  0  0  0  0  0  0  # atno 17395 bound_to 11000

$$$$
