AV-unprocessed.smi:332|AV-procd|sdf|2355|dock2
  -GOLD-   2262022263D 1   1.00000     0.00000
 Structure written by MMmdl.
 42 44  0  0  0  0  0  0  0  0  1 V2000
  151.1611  141.4365  158.2799 C   0  0  0  0  0  0  0  0  0  0  0  0
  151.1903  142.6131  157.2895 C   0  0  1  0  0  0  0  0  0  0  0  0
  150.0586  142.5163  156.3738 N   0  0  0  0  0  0  0  0  0  0  0  0
  149.8562  141.5490  155.4634 C   0  0  0  0  0  0  0  0  0  0  0  0
  150.6098  140.5848  155.3356 O   0  0  0  0  0  0  0  0  0  0  0  0
  148.6358  141.6736  154.5346 C   0  0  0  0  0  0  0  0  0  0  0  0
  147.5420  140.7288  154.8252 N   0  0  0  0  0  0  0  0  0  0  0  0
  147.1966  139.8230  153.8024 C   0  0  0  0  0  0  0  0  0  0  0  0
  146.2050  138.9305  153.9489 C   0  0  0  0  0  0  0  0  0  0  0  0
  145.4841  138.9110  155.1993 C   0  0  0  0  0  0  0  0  0  0  0  0
  145.8032  139.7760  156.1827 C   0  0  0  0  0  0  0  0  0  0  0  0
  146.8812  140.7590  156.0238 C   0  0  0  0  0  0  0  0  0  0  0  0
  147.1659  141.5650  156.9096 O   0  0  0  0  0  0  0  0  0  0  0  0
  151.1475  143.9800  158.0124 C   0  0  1  0  0  0  0  0  0  0  0  0
  150.1807  144.0476  159.2157 C   0  0  0  0  0  0  0  0  0  0  0  0
  151.0593  144.6422  160.3325 C   0  0  1  0  0  0  0  0  0  0  0  0
  152.0491  143.5679  160.8196 C   0  0  0  0  0  0  0  0  0  0  0  0
  153.0472  143.4735  159.6513 C   0  0  0  0  0  0  0  0  0  0  0  0
  152.4769  144.4815  158.6326 C   0  0  2  0  0  0  0  0  0  0  0  0
  151.9735  145.5845  159.5578 C   0  0  0  0  0  0  0  0  0  0  0  0
  152.0055  141.4769  158.9681 H   0  0  0  0  0  0  0  0  0  0  0  0
  151.2135  140.4803  157.7585 H   0  0  0  0  0  0  0  0  0  0  0  0
  150.2472  141.4404  158.8746 H   0  0  0  0  0  0  0  0  0  0  0  0
  152.1164  142.5479  156.7162 H   0  0  0  0  0  0  0  0  0  0  0  0
  149.3868  143.2689  156.4117 H   0  0  0  0  0  0  0  0  0  0  0  0
  148.2638  142.6970  154.6023 H   0  0  0  0  0  0  0  0  0  0  0  0
  148.9750  141.5679  153.5028 H   0  0  0  0  0  0  0  0  0  0  0  0
  147.7796  139.9089  152.8965 H   0  0  0  0  0  0  0  0  0  0  0  0
  145.9508  138.2478  153.1513 H   0  0  0  0  0  0  0  0  0  0  0  0
  144.6851  138.1996  155.3471 H   0  0  0  0  0  0  0  0  0  0  0  0
  145.2521  139.7468  157.1112 H   0  0  0  0  0  0  0  0  0  0  0  0
  150.8333  144.7297  157.2834 H   0  0  0  0  0  0  0  0  0  0  0  0
  149.3371  144.7010  158.9908 H   0  0  0  0  0  0  0  0  0  0  0  0
  149.7778  143.0739  159.4966 H   0  0  0  0  0  0  0  0  0  0  0  0
  150.4891  145.1077  161.1368 H   0  0  0  0  0  0  0  0  0  0  0  0
  152.5555  143.8881  161.7311 H   0  0  0  0  0  0  0  0  0  0  0  0
  151.5584  142.6157  161.0257 H   0  0  0  0  0  0  0  0  0  0  0  0
  154.0402  143.7854  159.9773 H   0  0  0  0  0  0  0  0  0  0  0  0
  153.1411  142.4632  159.2549 H   0  0  0  0  0  0  0  0  0  0  0  0
  153.2074  144.8132  157.8936 H   0  0  0  0  0  0  0  0  0  0  0  0
  151.4360  146.3789  159.0368 H   0  0  0  0  0  0  0  0  0  0  0  0
  152.7590  146.0282  160.1721 H   0  0  0  0  0  0  0  0  0  0  0  0
  1  2  1  0  0  0  0
  1 21  1  0  0  0  0
  1 22  1  0  0  0  0
  1 23  1  0  0  0  0
  2  3  1  0  0  0  0
  2 14  1  0  0  0  0
  2 24  1  0  0  0  0
  3  4  1  0  0  0  0
  3 25  1  0  0  0  0
  4  5  2  0  0  0  0
  4  6  1  0  0  0  0
  6  7  1  0  0  0  0
  6 26  1  0  0  0  0
  6 27  1  0  0  0  0
  7 12  1  0  0  0  0
  7  8  1  0  0  0  0
  8  9  2  0  0  0  0
  8 28  1  0  0  0  0
  9 10  1  0  0  0  0
  9 29  1  0  0  0  0
 10 11  2  0  0  0  0
 10 30  1  0  0  0  0
 11 12  1  0  0  0  0
 11 31  1  0  0  0  0
 12 13  2  0  0  0  0
 14 19  1  0  0  0  0
 14 15  1  0  0  0  0
 14 32  1  0  0  0  0
 15 16  1  0  0  0  0
 15 33  1  0  0  0  0
 15 34  1  0  0  0  0
 16 20  1  0  0  0  0
 16 17  1  0  0  0  0
 16 35  1  0  0  0  0
 17 18  1  0  0  0  0
 17 36  1  0  0  0  0
 17 37  1  0  0  0  0
 18 19  1  0  0  0  0
 18 38  1  0  0  0  0
 18 39  1  0  0  0  0
 19 20  1  0  0  0  0
 19 40  1  0  0  0  0
 20 41  1  0  0  0  0
 20 42  1  0  0  0  0
M  END
> <s_m_source_file>
AV-unprocessed.smi

> <i_m_source_file_index>
332

> <i_lp_mmshare_version>
43012

> <i_f3d_flags>
0

> <s_epik_input>
W0NIMl0xW0NIMl1bQ0BIXShbQ0gyXTIpW0NAQEhdKFtDSDJdW0NAQEhdMTIpW0NASF0oW0NIM10pW05IXUMoPU8pW0NIMl1uM1tjSF1bY0hdW2NIXVtjSF1jMz1P

> <s_epik_cmdline>
J2VwaWtfcHl0aG9uJywgJy1waCcsICc3LjAnLCAnLXRuJywgJzgnLCAnLW1hJywgJzIwMCcsICctbWV0YWxfYmluZGluZycsICctaW1hZScsICc8aW5maWxlLm1hZT4nLCAnLW9tYWUnLCAnPG91dGZpbGUubWFlPic=

> <r_lp_tautomer_probability>
1

> <r_epik_Ionization_Penalty>
4.05802e-07

> <r_epik_Ionization_Penalty_Charging>
3.84175e-07

> <r_epik_Ionization_Penalty_Neutral>
2.16269e-08

> <r_epik_State_Penalty>
-0

> <r_epik_Charging_Adjusted_Penalty>
3.84175e-07

> <i_epik_Tot_Q>
0

> <i_epik_Tot_abs_Q>
0

> <r_epik_Metal_State_Penalty>
-0

> <b_epik_Metal_Only>
0

> <s_lp_Force_Field>
OPLS_2005

> <r_lp_Energy>
59.7758

> <b_lp_Chiralities_Consistent>
1

> <s_lp_Variant>
AV-unprocessed.smi:332-4

> <Gold.Version>
5.8.1

> <Gold.Id.Protein>
6NUR|6NUR_protein|mol2

> <Gold.PLP.Fitness>
50.1955

> <Gold.PLP.PLP>
-42.3846

> <Gold.PLP.part.hbond>
-2.0000

> <Gold.PLP.part.metal>
0.0000

> <Gold.PLP.part.buried>
-3.7637

> <Gold.PLP.part.nonpolar>
-36.4707

> <Gold.PLP.part.repulsive>
0.2415

> <Gold.PLP.ligand.clash>
0.0000

> <Gold.PLP.ligand.torsion>
0.5656

> <Gold.PLP.Chemscore.Hbond>
1.9600

> <Gold.PLP.Chemscore.CHOScore>
1.0000

> <Gold.PLP.Chemscore.Metal>
0.0000

> <Gold.Chemscore.Hbonds>
donor molecule, donor type, donor heavy atom, donor atom, acceptor molecule, acceptor atom, score
      L1  H     3    25       P1  8028  0.90
      P1  H  7989  7998       L1     5  0.74
      L1  C     8    28       P1  7957  1.00

> <Gold.PLP.Chemscore.Internal.Correction>
0.0621

> <Gold.Rescore>
     Score         DG    S(hbond)    S(metal)    S(lipo)     H(rot)  DE(clash)    DE(int)     intcor
     17.29     -18.84       1.00        0.00     119.27       1.54       0.10       1.46       ----

> <Gold.Chemscore.Fitness>
17.2850

> <Gold.Chemscore.DG>
-18.8426

> <Gold.Chemscore.ZeroCoef>
-5.4800

> <Gold.Chemscore.Hbond>
1.0029

> <Gold.Chemscore.Metal>
0.0000

> <Gold.Chemscore.Lipo>
119.2710

> <Gold.Chemscore.Internal_Hbond>
0.0000

> <Gold.Chemscore.DEClash>
0.1024

> <Gold.Chemscore.DEInternal>
1.4552

> <Gold.Chemscore.Rot>
1.5398

> <Gold.Chemscore.Internal.Correction>
   9.000000E+99

> <Gold.Chemscore.Hbonds>
donor molecule, donor type, donor heavy atom, donor atom, acceptor molecule, acceptor atom, score
      L1  H     3    25       P1  8028  0.88
      P1  H  7989  7998       L1     5  0.39

> <Gold.Chemscore.Hbond.Weighted>
-3.3497

> <Gold.Chemscore.Metal.Weighted>
-0.0000

> <Gold.Chemscore.Lipo.Weighted>
-13.9547

> <Gold.Chemscore.Internal_Hbond.Weighted>
0.0000

> <Gold.Chemscore.DEClash.Weighted>
0.1024

> <Gold.Chemscore.DEInternal.Weighted>
1.4552

> <Gold.Chemscore.Rot.Weighted>
3.9419

> <Gold.Chemscore.Internal.Correction.Weighted>
   9.000000E+99

> <Gold.Protein.RotatedTorsions>
[ 6907 6896 6895 6894 ] final -173.12 input  -60.11 | X-H torsion
[ 7974 7965 7964 7962 ] final   61.97 input  175.53 | X-H torsion
[ 8008 7997 7996 7995 ] final   20.35 input   59.86 | X-H torsion
[ 10167 10162 10161 10158 ] final   82.65 input  -65.29 | X-H torsion
[ 10718 10713 10712 10709 ] final   33.67 input   66.30 | X-H torsion
[ 10763 10752 10751 10750 ] final  120.79 input  -60.55 | X-H torsion
[ 11005 11000 10999 10996 ] final   20.68 input  -57.11 | X-H torsion

> <Gold.Protein.ActiveResidues>
 VAL166  LYS551  ARG553  GLY616  TRP617  ASP618  TYR619  PRO620  LYS621  CYS622 
 ASP623  PHE694  ASN695  SER759  ASP760  ASP761  ALA762  ILE779  LEU786  VAL792 
 PHE793  MET794  SER795  GLU796  ALA797  LYS798  CYS799  TRP800  GLU811  SER814 

> <Gold.Protein.RotatedAtoms>
  151.5511  133.3417  159.2952 H   0  0  0  0  0  0  0  0  0  0  0  0  # atno 6907 bound_to 6896
  150.8478  134.7796  159.6996 H   0  0  0  0  0  0  0  0  0  0  0  0  # atno 6908 bound_to 6896
  152.4532  134.5357  159.9876 H   0  0  0  0  0  0  0  0  0  0  0  0  # atno 6909 bound_to 6896
  145.8787  139.3428  143.0719 H   0  0  0  0  0  0  0  0  0  0  0  0  # atno 7974 bound_to 7965
  154.9343  140.3044  155.5152 H   0  0  0  0  0  0  0  0  0  0  0  0  # atno 8008 bound_to 7997
  156.3001  140.2348  156.4343 H   0  0  0  0  0  0  0  0  0  0  0  0  # atno 8009 bound_to 7997
  154.8207  140.0423  157.1397 H   0  0  0  0  0  0  0  0  0  0  0  0  # atno 8010 bound_to 7997
  139.9265  144.6179  150.8387 H   0  0  0  0  0  0  0  0  0  0  0  0  # atno 10167 bound_to 10162
  157.3008  130.7350  149.6666 H   0  0  0  0  0  0  0  0  0  0  0  0  # atno 10718 bound_to 10713
  153.6040  135.3443  155.2955 H   0  0  0  0  0  0  0  0  0  0  0  0  # atno 10763 bound_to 10752
  154.8631  135.4234  154.2382 H   0  0  0  0  0  0  0  0  0  0  0  0  # atno 10764 bound_to 10752
  153.3217  135.7038  153.7096 H   0  0  0  0  0  0  0  0  0  0  0  0  # atno 10765 bound_to 10752
  140.4000  134.1729  155.7663 H   0  0  0  0  0  0  0  0  0  0  0  0  # atno 11005 bound_to 11000
  145.9049  140.9218  143.0484 LP  0  0  0  0  0  0  0  0  0  0  0  0  # atno 17320 bound_to 7965
  144.6727  140.1082  143.7457 LP  0  0  0  0  0  0  0  0  0  0  0  0  # atno 17321 bound_to 7965
  140.7648  143.3260  151.2516 LP  0  0  0  0  0  0  0  0  0  0  0  0  # atno 17342 bound_to 10162
  139.6817  143.9842  152.2812 LP  0  0  0  0  0  0  0  0  0  0  0  0  # atno 17343 bound_to 10162
  155.9671  130.4280  150.4771 LP  0  0  0  0  0  0  0  0  0  0  0  0  # atno 17370 bound_to 10713
  157.2751  131.0595  151.2234 LP  0  0  0  0  0  0  0  0  0  0  0  0  # atno 17371 bound_to 10713
  141.1860  133.8311  157.1083 LP  0  0  0  0  0  0  0  0  0  0  0  0  # atno 17394 bound_to 11000
  140.0343  134.9886  157.0842 LP  0  0  0  0  0  0  0  0  0  0  0  0  # atno 17395 bound_to 11000

$$$$
