AV-unprocessed.smi:1830|AV-procd|sdf|7446|dock7
  -GOLD-   22720 9133D 1   1.00000     0.00000
 Structure written by MMmdl.
 54 57  0  0  0  0  0  0  0  0  3 V2000
  146.8427  138.5532  155.1270 O   0  0  0  0  0  0  0  0  0  0  0  0
  147.3169  137.8309  154.2512 C   0  0  0  0  0  0  0  0  0  0  0  0
  148.1469  138.2764  153.2997 N   0  0  0  0  0  0  0  0  0  0  0  0
  148.5897  139.6612  153.1828 C   0  0  0  0  0  0  0  0  0  0  0  0
  149.1609  140.2007  154.5055 C   0  0  2  0  0  0  0  0  0  0  0  0
  148.9129  141.7097  154.7174 C   0  0  0  0  0  0  0  0  0  0  0  0
  149.5643  142.2067  155.9518 N   0  3  1  0  0  0  0  0  0  0  0  0
  148.8461  141.9627  157.2220 C   0  0  0  0  0  0  0  0  0  0  0  0
  149.9249  141.8289  158.3083 C   0  0  0  0  0  0  0  0  0  0  0  0
  151.2585  142.0738  157.5940 C   0  0  0  0  0  0  0  0  0  0  0  0
  150.9626  141.7618  156.1261 C   0  0  1  0  0  0  0  0  0  0  0  0
  151.1234  140.2581  155.8050 C   0  0  0  0  0  0  0  0  0  0  0  0
  150.5625  139.9575  154.5343 O   0  0  0  0  0  0  0  0  0  0  0  0
  147.0941  136.5116  154.1270 N   0  0  0  0  0  0  0  0  0  0  0  0
  146.3068  135.6658  154.9608 C   0  0  0  0  0  0  0  0  0  0  0  0
  146.2504  135.8122  156.3709 C   0  0  0  0  0  0  0  0  0  0  0  0
  145.4385  134.9476  157.1315 C   0  0  0  0  0  0  0  0  0  0  0  0
  144.6883  133.9562  156.4732 C   0  0  0  0  0  0  0  0  0  0  0  0
  144.7497  133.8534  155.1292 N   0  3  0  0  0  0  0  0  0  0  0  0
  145.5137  134.6597  154.3516 C   0  0  0  0  0  0  0  0  0  0  0  0
  145.4958  134.4762  152.9579 N   0  0  0  0  0  0  0  0  0  0  0  0
  146.0234  133.2095  152.4789 C   0  0  0  0  0  0  0  0  0  0  0  0
  145.5512  133.0981  151.0275 C   0  0  0  0  0  0  0  0  0  0  0  0
  144.3198  134.0084  150.9436 C   0  0  0  0  0  0  0  0  0  0  0  0
  144.1904  134.6300  152.3373 C   0  0  0  0  0  0  0  0  0  0  0  0
  148.5040  137.6201  152.6210 H   0  0  0  0  0  0  0  0  0  0  0  0
  149.3493  139.7324  152.4026 H   0  0  0  0  0  0  0  0  0  0  0  0
  147.7496  140.2797  152.8630 H   0  0  0  0  0  0  0  0  0  0  0  0
  148.6907  139.6369  155.3132 H   0  0  0  0  0  0  0  0  0  0  0  0
  149.3303  142.2754  153.8840 H   0  0  0  0  0  0  0  0  0  0  0  0
  147.8456  141.9331  154.7417 H   0  0  0  0  0  0  0  0  0  0  0  0
  148.1643  142.7890  157.4252 H   0  0  0  0  0  0  0  0  0  0  0  0
  148.2529  141.0490  157.1713 H   0  0  0  0  0  0  0  0  0  0  0  0
  149.7722  142.5299  159.1298 H   0  0  0  0  0  0  0  0  0  0  0  0
  149.9029  140.8226  158.7283 H   0  0  0  0  0  0  0  0  0  0  0  0
  151.5340  143.1247  157.6932 H   0  0  0  0  0  0  0  0  0  0  0  0
  152.0759  141.4800  158.0047 H   0  0  0  0  0  0  0  0  0  0  0  0
  151.6099  142.3394  155.4649 H   0  0  0  0  0  0  0  0  0  0  0  0
  152.1804  139.9910  155.7945 H   0  0  0  0  0  0  0  0  0  0  0  0
  150.6541  139.6337  156.5673 H   0  0  0  0  0  0  0  0  0  0  0  0
  147.6208  136.0396  153.4067 H   0  0  0  0  0  0  0  0  0  0  0  0
  146.8044  136.5819  156.8854 H   0  0  0  0  0  0  0  0  0  0  0  0
  145.3888  135.0476  158.2060 H   0  0  0  0  0  0  0  0  0  0  0  0
  144.0396  133.2532  156.9755 H   0  0  0  0  0  0  0  0  0  0  0  0
  147.1113  133.1847  152.5501 H   0  0  0  0  0  0  0  0  0  0  0  0
  145.6277  132.3791  153.0650 H   0  0  0  0  0  0  0  0  0  0  0  0
  146.3255  133.4604  150.3500 H   0  0  0  0  0  0  0  0  0  0  0  0
  145.3267  132.0667  150.7538 H   0  0  0  0  0  0  0  0  0  0  0  0
  144.4791  134.7831  150.1925 H   0  0  0  0  0  0  0  0  0  0  0  0
  143.4188  133.4594  150.6680 H   0  0  0  0  0  0  0  0  0  0  0  0
  143.4284  134.1030  152.9134 H   0  0  0  0  0  0  0  0  0  0  0  0
  143.9035  135.6805  152.2830 H   0  0  0  0  0  0  0  0  0  0  0  0
  149.6060  143.2127  155.8707 H   0  0  0  0  0  0  0  0  0  0  0  0
  144.1898  133.1318  154.6748 H   0  0  0  0  0  0  0  0  0  0  0  0
  1  2  2  0  0  0  0
  2  3  1  0  0  0  0
  2 14  1  0  0  0  0
  3  4  1  0  0  0  0
  3 26  1  0  0  0  0
  4  5  1  0  0  0  0
  4 27  1  0  0  0  0
  4 28  1  0  0  0  0
  5 13  1  0  0  0  0
  5  6  1  0  0  0  0
  5 29  1  0  0  0  0
  6  7  1  0  0  0  0
  6 30  1  0  0  0  0
  6 31  1  0  0  0  0
  7 11  1  0  0  0  0
  7  8  1  0  0  0  0
  7 53  1  0  0  0  0
  8  9  1  0  0  0  0
  8 32  1  0  0  0  0
  8 33  1  0  0  0  0
  9 10  1  0  0  0  0
  9 34  1  0  0  0  0
  9 35  1  0  0  0  0
 10 11  1  0  0  0  0
 10 36  1  0  0  0  0
 10 37  1  0  0  0  0
 11 12  1  0  0  0  0
 11 38  1  0  0  0  0
 12 13  1  0  0  0  0
 12 39  1  0  0  0  0
 12 40  1  0  0  0  0
 14 15  1  0  0  0  0
 14 41  1  0  0  0  0
 15 20  1  0  0  0  0
 15 16  2  0  0  0  0
 16 17  1  0  0  0  0
 16 42  1  0  0  0  0
 17 18  2  0  0  0  0
 17 43  1  0  0  0  0
 18 19  1  0  0  0  0
 18 44  1  0  0  0  0
 19 20  2  0  0  0  0
 19 54  1  0  0  0  0
 20 21  1  0  0  0  0
 21 25  1  0  0  0  0
 21 22  1  0  0  0  0
 22 23  1  0  0  0  0
 22 45  1  0  0  0  0
 22 46  1  0  0  0  0
 23 24  1  0  0  0  0
 23 47  1  0  0  0  0
 23 48  1  0  0  0  0
 24 25  1  0  0  0  0
 24 49  1  0  0  0  0
 24 50  1  0  0  0  0
 25 51  1  0  0  0  0
 25 52  1  0  0  0  0
M  CHG  1   7   1
M  CHG  1  19   1
M  END
> <s_m_source_file>
AV-unprocessed.smi

> <i_m_source_file_index>
1830

> <i_lp_mmshare_version>
43012

> <i_f3d_flags>
0

> <s_epik_input>
W0NIMl0xW0NIMl1bQ0gyXVtDQEhdKE4xMilbQ0gyXU9bQ0BASF0oW0NIMl0yKVtDSDJdW05IXUMoPU8pW05IXWMzW2NIXVtjSF1bY0hdbmMzTjRbQ0gyXVtDSDJdW0NIMl1bQ0gyXTQ=

> <s_epik_cmdline>
J2VwaWtfcHl0aG9uJywgJy1waCcsICc3LjAnLCAnLXRuJywgJzgnLCAnLW1hJywgJzIwMCcsICctbWV0YWxfYmluZGluZycsICctaW1hZScsICc8aW5maWxlLm1hZT4nLCAnLW9tYWUnLCAnPG91dGZpbGUubWFlPic=

> <r_lp_tautomer_probability>
0.999994

> <r_epik_Ionization_Penalty>
1.29113

> <r_epik_Ionization_Penalty_Charging>
1.29111

> <r_epik_Ionization_Penalty_Neutral>
1.88144e-05

> <r_epik_State_Penalty>
1.32676

> <r_epik_Charging_Adjusted_Penalty>
2.61787

> <i_epik_Tot_Q>
2

> <i_epik_Tot_abs_Q>
2

> <r_epik_Metal_State_Penalty>
1.40425

> <b_epik_Metal_Only>
0

> <s_lp_Force_Field>
OPLS_2005

> <r_lp_Energy>
78.9005

> <b_lp_Chiralities_Consistent>
1

> <s_lp_Variant>
AV-unprocessed.smi:1830-15

> <Gold.Version>
5.8.1

> <Gold.Id.Protein>
6NUR|6NUR_protein|mol2

> <Gold.PLP.Fitness>
48.8434

> <Gold.PLP.PLP>
-29.7509

> <Gold.PLP.part.hbond>
-5.6705

> <Gold.PLP.part.metal>
0.0000

> <Gold.PLP.part.buried>
0.3425

> <Gold.PLP.part.nonpolar>
-24.3281

> <Gold.PLP.part.repulsive>
0.3816

> <Gold.PLP.ligand.clash>
0.0000

> <Gold.PLP.ligand.torsion>
0.7523

> <Gold.PLP.Chemscore.Hbond>
6.8564

> <Gold.PLP.Chemscore.CHOScore>
0.0000

> <Gold.PLP.Chemscore.Metal>
0.0000

> <Gold.Chemscore.Hbonds>
donor molecule, donor type, donor heavy atom, donor atom, acceptor molecule, acceptor atom, score
      L1  H     3    26       P1  7948  1.00
      L1  H     7    53       P1  8028  2.00
      L1  H    14    41       P1  7948  0.91
      L1  H    19    54       P1 10957  1.87
      P1  H  7989  7998       L1    13  1.00

> <Gold.PLP.Chemscore.Internal.Correction>
0.0279

> <Gold.Rescore>
     Score         DG    S(hbond)    S(metal)    S(lipo)     H(rot)  DE(clash)    DE(int)     intcor
     20.27     -24.81       4.33        0.00      72.94       1.43       1.75       2.79       ----

> <Gold.Chemscore.Fitness>
20.2659

> <Gold.Chemscore.DG>
-24.8087

> <Gold.Chemscore.ZeroCoef>
-5.4800

> <Gold.Chemscore.Hbond>
4.3263

> <Gold.Chemscore.Metal>
0.0000

> <Gold.Chemscore.Lipo>
72.9404

> <Gold.Chemscore.Internal_Hbond>
0.0000

> <Gold.Chemscore.DEClash>
1.7507

> <Gold.Chemscore.DEInternal>
2.7921

> <Gold.Chemscore.Rot>
1.4278

> <Gold.Chemscore.Internal.Correction>
   9.000000E+99

> <Gold.Chemscore.Hbonds>
donor molecule, donor type, donor heavy atom, donor atom, acceptor molecule, acceptor atom, score
      L1  H     3    26       P1  7948  0.99
      L1  H     7    53       P1  8028  0.96
      L1  H    14    41       P1  7948  0.83
      L1  H    19    54       P1 10957  0.85
      P1  H  7989  7998       L1    13  0.29

> <Gold.Chemscore.Hbond.Weighted>
-14.4498

> <Gold.Chemscore.Metal.Weighted>
-0.0000

> <Gold.Chemscore.Lipo.Weighted>
-8.5340

> <Gold.Chemscore.Internal_Hbond.Weighted>
0.0000

> <Gold.Chemscore.DEClash.Weighted>
1.7507

> <Gold.Chemscore.DEInternal.Weighted>
2.7921

> <Gold.Chemscore.Rot.Weighted>
3.6551

> <Gold.Chemscore.Internal.Correction.Weighted>
   9.000000E+99

> <Gold.Protein.RotatedTorsions>
[ 6907 6896 6895 6894 ] final   70.06 input  -60.11 | X-H torsion
[ 7974 7965 7964 7962 ] final   13.88 input  175.53 | X-H torsion
[ 8008 7997 7996 7995 ] final    1.97 input   59.86 | X-H torsion
[ 10167 10162 10161 10158 ] final  141.19 input  -65.29 | X-H torsion
[ 10718 10713 10712 10709 ] final  133.34 input   66.30 | X-H torsion
[ 10763 10752 10751 10750 ] final -141.89 input  -60.55 | X-H torsion
[ 11005 11000 10999 10996 ] final  158.08 input  -57.11 | X-H torsion

> <Gold.Protein.ActiveResidues>
 VAL166  LYS551  ARG553  GLY616  TRP617  ASP618  TYR619  PRO620  LYS621  CYS622 
 ASP623  PHE694  ASN695  SER759  ASP760  ASP761  ALA762  ILE779  LEU786  VAL792 
 PHE793  MET794  SER795  GLU796  ALA797  LYS798  CYS799  TRP800  GLU811  SER814 

> <Gold.Protein.RotatedAtoms>
  152.4726  134.4924  159.9699 H   0  0  0  0  0  0  0  0  0  0  0  0  # atno 6907 bound_to 6896
  151.4947  133.3511  159.2867 H   0  0  0  0  0  0  0  0  0  0  0  0  # atno 6908 bound_to 6896
  150.8744  134.8152  159.7240 H   0  0  0  0  0  0  0  0  0  0  0  0  # atno 6909 bound_to 6896
  146.2318  139.9123  142.8522 H   0  0  0  0  0  0  0  0  0  0  0  0  # atno 7974 bound_to 7965
  154.6861  140.2643  155.6860 H   0  0  0  0  0  0  0  0  0  0  0  0  # atno 8008 bound_to 7997
  156.2715  140.2800  156.1345 H   0  0  0  0  0  0  0  0  0  0  0  0  # atno 8009 bound_to 7997
  155.0963  140.0374  157.2674 H   0  0  0  0  0  0  0  0  0  0  0  0  # atno 8010 bound_to 7997
  139.5027  144.6187  151.6103 H   0  0  0  0  0  0  0  0  0  0  0  0  # atno 10167 bound_to 10162
  157.4782  131.1084  150.9716 H   0  0  0  0  0  0  0  0  0  0  0  0  # atno 10718 bound_to 10713
  154.8529  135.3511  154.5940 H   0  0  0  0  0  0  0  0  0  0  0  0  # atno 10763 bound_to 10752
  153.6549  135.6992  153.5201 H   0  0  0  0  0  0  0  0  0  0  0  0  # atno 10764 bound_to 10752
  153.2864  135.4248  155.1084 H   0  0  0  0  0  0  0  0  0  0  0  0  # atno 10765 bound_to 10752
  140.1831  134.8461  157.2826 H   0  0  0  0  0  0  0  0  0  0  0  0  # atno 11005 bound_to 11000
  145.2218  140.9938  143.4041 LP  0  0  0  0  0  0  0  0  0  0  0  0  # atno 17320 bound_to 7965
  144.9604  139.3986  143.6359 LP  0  0  0  0  0  0  0  0  0  0  0  0  # atno 17321 bound_to 7965
  140.5882  143.9826  150.6309 LP  0  0  0  0  0  0  0  0  0  0  0  0  # atno 17342 bound_to 10162
  140.2997  143.3268  152.0983 LP  0  0  0  0  0  0  0  0  0  0  0  0  # atno 17343 bound_to 10162
  157.0458  130.5767  149.5363 LP  0  0  0  0  0  0  0  0  0  0  0  0  # atno 17370 bound_to 10713
  156.0108  130.5199  150.7981 LP  0  0  0  0  0  0  0  0  0  0  0  0  # atno 17371 bound_to 10713
  140.2244  134.3984  155.7550 LP  0  0  0  0  0  0  0  0  0  0  0  0  # atno 17394 bound_to 11000
  141.2224  133.7182  156.8542 LP  0  0  0  0  0  0  0  0  0  0  0  0  # atno 17395 bound_to 11000

$$$$
