AV-unprocessed.smi:95|AV-procd|sdf|857|dock4
  -GOLD-   2262017303D 1   1.00000     0.00000
 Structure written by MMmdl.
 42 45  0  0  0  0  0  0  0  0  2 V2000
  155.1071  138.6769  158.4299 O   0  0  0  0  0  0  0  0  0  0  0  0
  155.0517  138.4034  159.6300 C   0  0  0  0  0  0  0  0  0  0  0  0
  154.8257  137.0537  160.1357 C   0  0  0  0  0  0  0  0  0  0  0  0
  154.6451  136.0417  159.2707 F   0  0  0  0  0  0  0  0  0  0  0  0
  154.8017  136.8016  161.4622 C   0  0  0  0  0  0  0  0  0  0  0  0
  154.9861  137.7825  162.4213 N   0  0  0  0  0  0  0  0  0  0  0  0
  154.9620  137.4331  163.8905 C   0  0  2  0  0  0  0  0  0  0  0  0
  156.3229  137.7273  164.5349 C   0  0  0  0  0  0  0  0  0  0  0  0
  156.9343  136.3457  164.6449 C   0  0  0  0  0  0  0  0  0  0  0  0
  155.7004  135.4764  164.8522 C   0  0  0  0  0  0  0  0  0  0  0  0
  154.7094  136.0641  164.0179 O   0  0  0  0  0  0  0  0  0  0  0  0
  155.2245  139.1162  162.0246 C   0  0  0  0  0  0  0  0  0  0  0  0
  155.4412  140.0009  162.8560 O   0  0  0  0  0  0  0  0  0  0  0  0
  155.2267  139.3863  160.6358 N   0  0  0  0  0  0  0  0  0  0  0  0
  155.4714  140.7576  160.2185 C   0  0  0  0  0  0  0  0  0  0  0  0
  154.3307  141.7418  160.4494 C   0  0  0  0  0  0  0  0  0  0  0  0
  153.8230  142.0781  161.7262 C   0  0  0  0  0  0  0  0  0  0  0  0
  152.7640  143.0032  161.8281 C   0  0  0  0  0  0  0  0  0  0  0  0
  152.2326  143.5760  160.6535 C   0  0  0  0  0  0  0  0  0  0  0  0
  151.1733  144.5048  160.7122 C   0  0  0  0  0  0  0  0  0  0  0  0
  150.6619  145.0633  159.5236 C   0  0  0  0  0  0  0  0  0  0  0  0
  151.2056  144.6969  158.2759 C   0  0  0  0  0  0  0  0  0  0  0  0
  152.2640  143.7690  158.2104 C   0  0  0  0  0  0  0  0  0  0  0  0
  152.7763  143.2089  159.3972 C   0  0  0  0  0  0  0  0  0  0  0  0
  153.7908  142.3174  159.3513 N   0  3  0  0  0  0  0  0  0  0  0  0
  154.6350  135.7831  161.7798 H   0  0  0  0  0  0  0  0  0  0  0  0
  154.1391  137.9891  164.3411 H   0  0  0  0  0  0  0  0  0  0  0  0
  156.9176  138.4294  163.9490 H   0  0  0  0  0  0  0  0  0  0  0  0
  156.1531  138.1500  165.5259 H   0  0  0  0  0  0  0  0  0  0  0  0
  157.4344  136.0774  163.7138 H   0  0  0  0  0  0  0  0  0  0  0  0
  157.6567  136.2608  165.4572 H   0  0  0  0  0  0  0  0  0  0  0  0
  155.8717  134.4308  164.5964 H   0  0  0  0  0  0  0  0  0  0  0  0
  155.3673  135.5259  165.8900 H   0  0  0  0  0  0  0  0  0  0  0  0
  156.3756  141.1102  160.7163 H   0  0  0  0  0  0  0  0  0  0  0  0
  155.7399  140.7273  159.1606 H   0  0  0  0  0  0  0  0  0  0  0  0
  154.2323  141.6392  162.6240 H   0  0  0  0  0  0  0  0  0  0  0  0
  152.3688  143.2675  162.7983 H   0  0  0  0  0  0  0  0  0  0  0  0
  150.7497  144.7926  161.6635 H   0  0  0  0  0  0  0  0  0  0  0  0
  149.8506  145.7754  159.5684 H   0  0  0  0  0  0  0  0  0  0  0  0
  150.8103  145.1290  157.3683 H   0  0  0  0  0  0  0  0  0  0  0  0
  152.6761  143.4934  157.2504 H   0  0  0  0  0  0  0  0  0  0  0  0
  154.1700  142.0649  158.4389 H   0  0  0  0  0  0  0  0  0  0  0  0
  1  2  2  0  0  0  0
  2 14  1  0  0  0  0
  2  3  1  0  0  0  0
  3  4  1  0  0  0  0
  3  5  2  0  0  0  0
  5  6  1  0  0  0  0
  5 26  1  0  0  0  0
  6  7  1  0  0  0  0
  6 12  1  0  0  0  0
  7 11  1  0  0  0  0
  7  8  1  0  0  0  0
  7 27  1  0  0  0  0
  8  9  1  0  0  0  0
  8 28  1  0  0  0  0
  8 29  1  0  0  0  0
  9 10  1  0  0  0  0
  9 30  1  0  0  0  0
  9 31  1  0  0  0  0
 10 11  1  0  0  0  0
 10 32  1  0  0  0  0
 10 33  1  0  0  0  0
 12 13  2  0  0  0  0
 12 14  1  0  0  0  0
 14 15  1  0  0  0  0
 15 16  1  0  0  0  0
 15 34  1  0  0  0  0
 15 35  1  0  0  0  0
 16 25  1  0  0  0  0
 16 17  2  0  0  0  0
 17 18  1  0  0  0  0
 17 36  1  0  0  0  0
 18 19  2  0  0  0  0
 18 37  1  0  0  0  0
 19 24  1  0  0  0  0
 19 20  1  0  0  0  0
 20 21  2  0  0  0  0
 20 38  1  0  0  0  0
 21 22  1  0  0  0  0
 21 39  1  0  0  0  0
 22 23  2  0  0  0  0
 22 40  1  0  0  0  0
 23 24  1  0  0  0  0
 23 41  1  0  0  0  0
 24 25  2  0  0  0  0
 25 42  1  0  0  0  0
M  CHG  1  25   1
M  END
> <s_m_source_file>
AV-unprocessed.smi

> <i_m_source_file_index>
95

> <i_lp_mmshare_version>
43012

> <i_f3d_flags>
0

> <s_epik_input>
TzFbQ0gyXVtDSDJdW0NIMl1bQ0BIXTFuKFtjSF1jKEYpYzI9TyljKD1PKW4yW0NIMl1jKFtjSF1bY0hdMyluYyhjMzQpW2NIXVtjSF1bY0hdW2NIXTQ=

> <s_epik_cmdline>
J2VwaWtfcHl0aG9uJywgJy1waCcsICc3LjAnLCAnLXRuJywgJzgnLCAnLW1hJywgJzIwMCcsICctbWV0YWxfYmluZGluZycsICctaW1hZScsICc8aW5maWxlLm1hZT4nLCAnLW9tYWUnLCAnPG91dGZpbGUubWFlPic=

> <r_lp_tautomer_probability>
1

> <r_epik_Ionization_Penalty>
1.83445

> <r_epik_Ionization_Penalty_Charging>
1.83445

> <r_epik_Ionization_Penalty_Neutral>
6.33322e-12

> <r_epik_State_Penalty>
1.95069

> <r_epik_Charging_Adjusted_Penalty>
3.78513

> <i_epik_Tot_Q>
1

> <i_epik_Tot_abs_Q>
1

> <r_epik_Metal_State_Penalty>
6.02102

> <b_epik_Metal_Only>
0

> <s_epik_Chemistry_Notes>
This compound contains an acetal/aminal-like group ( X-CH(R)-Y where X, Y are N, S, or O) that may be acid/base labile, releasing an aldehyde.

> <s_lp_Force_Field>
OPLS_2005

> <r_lp_Energy>
36.4977

> <b_lp_Chiralities_Consistent>
1

> <s_lp_Variant>
AV-unprocessed.smi:95-3

> <Gold.Version>
5.8.1

> <Gold.Id.Protein>
6NUR|6NUR_protein|mol2

> <Gold.PLP.Fitness>
55.4373

> <Gold.PLP.PLP>
-52.7280

> <Gold.PLP.part.hbond>
-1.0000

> <Gold.PLP.part.metal>
0.0000

> <Gold.PLP.part.buried>
-5.2165

> <Gold.PLP.part.nonpolar>
-47.1970

> <Gold.PLP.part.repulsive>
0.1105

> <Gold.PLP.ligand.clash>
0.0000

> <Gold.PLP.ligand.torsion>
0.1495

> <Gold.PLP.Chemscore.Hbond>
1.0000

> <Gold.PLP.Chemscore.CHOScore>
0.0000

> <Gold.PLP.Chemscore.Metal>
0.0000

> <Gold.Chemscore.Hbonds>
donor molecule, donor type, donor heavy atom, donor atom, acceptor molecule, acceptor atom, score
      P1  H  7997  8008       L1     1  1.00

> <Gold.PLP.Chemscore.Internal.Correction>
0.0084

> <Gold.Rescore>
     Score         DG    S(hbond)    S(metal)    S(lipo)     H(rot)  DE(clash)    DE(int)     intcor
     20.02     -21.49       1.00        0.00     141.99       1.54       0.00       1.46       ----

> <Gold.Chemscore.Fitness>
20.0188

> <Gold.Chemscore.DG>
-21.4858

> <Gold.Chemscore.ZeroCoef>
-5.4800

> <Gold.Chemscore.Hbond>
0.9991

> <Gold.Chemscore.Metal>
0.0000

> <Gold.Chemscore.Lipo>
141.9922

> <Gold.Chemscore.Internal_Hbond>
0.0000

> <Gold.Chemscore.DEClash>
0.0038

> <Gold.Chemscore.DEInternal>
1.4632

> <Gold.Chemscore.Rot>
1.5407

> <Gold.Chemscore.Internal.Correction>
   9.000000E+99

> <Gold.Chemscore.Hbonds>
donor molecule, donor type, donor heavy atom, donor atom, acceptor molecule, acceptor atom, score
      P1  H  7997  8008       L1     1  0.94

> <Gold.Chemscore.Hbond.Weighted>
-3.3369

> <Gold.Chemscore.Metal.Weighted>
-0.0000

> <Gold.Chemscore.Lipo.Weighted>
-16.6131

> <Gold.Chemscore.Internal_Hbond.Weighted>
0.0000

> <Gold.Chemscore.DEClash.Weighted>
0.0038

> <Gold.Chemscore.DEInternal.Weighted>
1.4632

> <Gold.Chemscore.Rot.Weighted>
3.9443

> <Gold.Chemscore.Internal.Correction.Weighted>
   9.000000E+99

> <Gold.Protein.RotatedTorsions>
[ 6907 6896 6895 6894 ] final -166.05 input  -60.11 | X-H torsion
[ 7974 7965 7964 7962 ] final   16.94 input  175.53 | X-H torsion
[ 8008 7997 7996 7995 ] final -110.79 input   59.86 | X-H torsion
[ 10167 10162 10161 10158 ] final  175.77 input  -65.29 | X-H torsion
[ 10718 10713 10712 10709 ] final -132.87 input   66.30 | X-H torsion
[ 10763 10752 10751 10750 ] final   49.96 input  -60.55 | X-H torsion
[ 11005 11000 10999 10996 ] final   49.69 input  -57.11 | X-H torsion

> <Gold.Protein.ActiveResidues>
 VAL166  LYS551  ARG553  GLY616  TRP617  ASP618  TYR619  PRO620  LYS621  CYS622 
 ASP623  PHE694  ASN695  SER759  ASP760  ASP761  ALA762  ILE779  LEU786  VAL792 
 PHE793  MET794  SER795  GLU796  ALA797  LYS798  CYS799  TRP800  GLU811  SER814 

> <Gold.Protein.RotatedAtoms>
  151.4375  133.3653  159.2776 H   0  0  0  0  0  0  0  0  0  0  0  0  # atno 6907 bound_to 6896
  150.9181  134.8600  159.7481 H   0  0  0  0  0  0  0  0  0  0  0  0  # atno 6908 bound_to 6896
  152.4968  134.4310  159.9564 H   0  0  0  0  0  0  0  0  0  0  0  0  # atno 6909 bound_to 6896
  146.2234  139.8674  142.8593 H   0  0  0  0  0  0  0  0  0  0  0  0  # atno 7974 bound_to 7965
  154.9799  140.0396  157.2273 H   0  0  0  0  0  0  0  0  0  0  0  0  # atno 8008 bound_to 7997
  154.7723  140.2804  155.6105 H   0  0  0  0  0  0  0  0  0  0  0  0  # atno 8009 bound_to 7997
  156.2923  140.2607  156.2529 H   0  0  0  0  0  0  0  0  0  0  0  0  # atno 8010 bound_to 7997
  139.5189  144.2993  152.0393 H   0  0  0  0  0  0  0  0  0  0  0  0  # atno 10167 bound_to 10162
  156.2390  130.7084  151.0937 H   0  0  0  0  0  0  0  0  0  0  0  0  # atno 10718 bound_to 10713
  152.9785  135.5895  154.4174 H   0  0  0  0  0  0  0  0  0  0  0  0  # atno 10763 bound_to 10752
  154.3802  135.2767  155.2218 H   0  0  0  0  0  0  0  0  0  0  0  0  # atno 10764 bound_to 10752
  154.4135  135.6076  153.6021 H   0  0  0  0  0  0  0  0  0  0  0  0  # atno 10765 bound_to 10752
  140.1082  134.4990  155.8701 H   0  0  0  0  0  0  0  0  0  0  0  0  # atno 11005 bound_to 11000
  145.2643  141.0087  143.3808 LP  0  0  0  0  0  0  0  0  0  0  0  0  # atno 17320 bound_to 7965
  144.9274  139.4339  143.6512 LP  0  0  0  0  0  0  0  0  0  0  0  0  # atno 17321 bound_to 7965
  140.2441  144.4238  150.6248 LP  0  0  0  0  0  0  0  0  0  0  0  0  # atno 17342 bound_to 10162
  140.6270  143.2182  151.6575 LP  0  0  0  0  0  0  0  0  0  0  0  0  # atno 17343 bound_to 10162
  157.7167  131.0705  150.6299 LP  0  0  0  0  0  0  0  0  0  0  0  0  # atno 17370 bound_to 10713
  156.6371  130.4448  149.5765 LP  0  0  0  0  0  0  0  0  0  0  0  0  # atno 17371 bound_to 10713
  141.2123  133.6718  156.6652 LP  0  0  0  0  0  0  0  0  0  0  0  0  # atno 17394 bound_to 11000
  140.3127  134.8073  157.4189 LP  0  0  0  0  0  0  0  0  0  0  0  0  # atno 17395 bound_to 11000

$$$$
