AV-unprocessed.smi:282|AV-procd|sdf|2118|dock9
  -GOLD-   2262021413D 1   1.00000     0.00000
 Structure written by MMmdl.
 65 69  0  0  0  0  0  0  0  0  2 V2000
  147.4533  131.3295  156.4340 C   0  0  0  0  0  0  0  0  0  0  0  0
  148.6567  131.3611  155.4817 C   0  0  0  0  0  0  0  0  0  0  0  0
  148.3136  131.8138  154.0374 C   0  0  1  0  0  0  0  0  0  0  0  0
  147.2425  130.8923  153.4077 C   0  0  0  0  0  0  0  0  0  0  0  0
  146.8398  131.3389  152.0508 N   0  3  1  0  0  0  0  0  0  0  0  0
  145.8487  130.4181  151.4360 C   0  0  0  0  0  0  0  0  0  0  0  0
  145.5171  130.8333  149.9941 C   0  0  0  0  0  0  0  0  0  0  0  0
  145.0182  132.2819  149.9461 C   0  0  0  0  0  0  0  0  0  0  0  0
  146.0507  133.2094  150.5983 C   0  0  0  0  0  0  0  0  0  0  0  0
  146.3862  132.7575  152.0337 C   0  0  2  0  0  0  0  0  0  0  0  0
  147.4580  133.6696  152.6526 C   0  0  0  0  0  0  0  0  0  0  0  0
  147.8537  133.2080  153.9785 N   0  0  0  0  0  0  0  0  0  0  0  0
  148.6370  134.1290  154.5838 C   0  0  0  0  0  0  0  0  0  0  0  0
  149.9078  133.7607  154.8764 N   0  0  0  0  0  0  0  0  0  0  0  0
  150.7331  134.6286  155.4693 C   0  0  0  0  0  0  0  0  0  0  0  0
  150.4915  135.8858  155.8467 N   0  0  0  0  0  0  0  0  0  0  0  0
  149.2114  136.2573  155.5567 C   0  0  0  0  0  0  0  0  0  0  0  0
  148.2217  135.4439  154.9373 C   0  0  0  0  0  0  0  0  0  0  0  0
  147.0312  136.1498  154.8207 N   0  0  0  0  0  0  0  0  0  0  0  0
  147.3030  137.3156  155.3402 C   0  0  0  0  0  0  0  0  0  0  0  0
  148.5957  137.4756  155.7882 N   0  0  0  0  0  0  0  0  0  0  0  0
  149.1617  138.6669  156.4069 C   0  0  0  0  0  0  0  0  0  0  0  0
  149.7562  139.7117  155.4094 C   0  0  0  0  0  0  0  0  0  0  0  0
  148.6408  140.3547  154.5422 C   0  0  0  0  0  0  0  0  0  0  0  0
  149.1614  141.0355  153.4177 O   0  0  0  0  0  0  0  0  0  0  0  0
  150.5016  140.8268  156.1850 C   0  0  0  0  0  0  0  0  0  0  0  0
  151.8266  140.3442  156.8029 C   0  0  0  0  0  0  0  0  0  0  0  0
  152.6657  139.8018  155.7918 O   0  0  0  0  0  0  0  0  0  0  0  0
  152.0945  138.6671  155.1539 C   0  0  0  0  0  0  0  0  0  0  0  0
  150.7863  139.0672  154.4476 C   0  0  0  0  0  0  0  0  0  0  0  0
  147.7404  130.9110  157.3991 H   0  0  0  0  0  0  0  0  0  0  0  0
  146.6495  130.7118  156.0327 H   0  0  0  0  0  0  0  0  0  0  0  0
  147.0549  132.3259  156.6221 H   0  0  0  0  0  0  0  0  0  0  0  0
  149.4341  132.0037  155.8968 H   0  0  0  0  0  0  0  0  0  0  0  0
  149.0737  130.3540  155.4752 H   0  0  0  0  0  0  0  0  0  0  0  0
  149.2159  131.7366  153.4302 H   0  0  0  0  0  0  0  0  0  0  0  0
  147.6202  129.8728  153.3327 H   0  0  0  0  0  0  0  0  0  0  0  0
  146.3595  130.8582  154.0483 H   0  0  0  0  0  0  0  0  0  0  0  0
  146.2437  129.4015  151.4383 H   0  0  0  0  0  0  0  0  0  0  0  0
  144.9395  130.4057  152.0394 H   0  0  0  0  0  0  0  0  0  0  0  0
  146.4037  130.7279  149.3674 H   0  0  0  0  0  0  0  0  0  0  0  0
  144.7620  130.1657  149.5781 H   0  0  0  0  0  0  0  0  0  0  0  0
  144.8368  132.5849  148.9145 H   0  0  0  0  0  0  0  0  0  0  0  0
  144.0644  132.3636  150.4692 H   0  0  0  0  0  0  0  0  0  0  0  0
  146.9581  133.2229  149.9925 H   0  0  0  0  0  0  0  0  0  0  0  0
  145.6716  134.2318  150.6071 H   0  0  0  0  0  0  0  0  0  0  0  0
  145.4817  132.8277  152.6410 H   0  0  0  0  0  0  0  0  0  0  0  0
  148.3375  133.6970  152.0072 H   0  0  0  0  0  0  0  0  0  0  0  0
  147.0779  134.6909  152.7138 H   0  0  0  0  0  0  0  0  0  0  0  0
  151.7305  134.2650  155.6679 H   0  0  0  0  0  0  0  0  0  0  0  0
  146.5629  138.0999  155.4065 H   0  0  0  0  0  0  0  0  0  0  0  0
  148.3764  139.1300  157.0053 H   0  0  0  0  0  0  0  0  0  0  0  0
  149.9104  138.3395  157.1269 H   0  0  0  0  0  0  0  0  0  0  0  0
  147.9526  139.5910  154.1781 H   0  0  0  0  0  0  0  0  0  0  0  0
  148.0376  141.0495  155.1265 H   0  0  0  0  0  0  0  0  0  0  0  0
  149.1246  140.4558  152.6724 H   0  0  0  0  0  0  0  0  0  0  0  0
  150.7263  141.6535  155.5097 H   0  0  0  0  0  0  0  0  0  0  0  0
  149.8634  141.2424  156.9656 H   0  0  0  0  0  0  0  0  0  0  0  0
  152.3437  141.1835  157.2681 H   0  0  0  0  0  0  0  0  0  0  0  0
  151.6590  139.6085  157.5898 H   0  0  0  0  0  0  0  0  0  0  0  0
  152.8069  138.2847  154.4228 H   0  0  0  0  0  0  0  0  0  0  0  0
  151.9363  137.8699  155.8800 H   0  0  0  0  0  0  0  0  0  0  0  0
  150.3585  138.2073  153.9330 H   0  0  0  0  0  0  0  0  0  0  0  0
  151.0412  139.7787  153.6610 H   0  0  0  0  0  0  0  0  0  0  0  0
  147.6699  131.2969  151.4769 H   0  0  0  0  0  0  0  0  0  0  0  0
  1  2  1  0  0  0  0
  1 31  1  0  0  0  0
  1 32  1  0  0  0  0
  1 33  1  0  0  0  0
  2  3  1  0  0  0  0
  2 34  1  0  0  0  0
  2 35  1  0  0  0  0
  3 12  1  0  0  0  0
  3  4  1  0  0  0  0
  3 36  1  0  0  0  0
  4  5  1  0  0  0  0
  4 37  1  0  0  0  0
  4 38  1  0  0  0  0
  5 10  1  0  0  0  0
  5  6  1  0  0  0  0
  5 65  1  0  0  0  0
  6  7  1  0  0  0  0
  6 39  1  0  0  0  0
  6 40  1  0  0  0  0
  7  8  1  0  0  0  0
  7 41  1  0  0  0  0
  7 42  1  0  0  0  0
  8  9  1  0  0  0  0
  8 43  1  0  0  0  0
  8 44  1  0  0  0  0
  9 10  1  0  0  0  0
  9 45  1  0  0  0  0
  9 46  1  0  0  0  0
 10 11  1  0  0  0  0
 10 47  1  0  0  0  0
 11 12  1  0  0  0  0
 11 48  1  0  0  0  0
 11 49  1  0  0  0  0
 12 13  1  0  0  0  0
 13 18  1  0  0  0  0
 13 14  2  0  0  0  0
 14 15  1  0  0  0  0
 15 16  2  0  0  0  0
 15 50  1  0  0  0  0
 16 17  1  0  0  0  0
 17 21  1  0  0  0  0
 17 18  2  0  0  0  0
 18 19  1  0  0  0  0
 19 20  2  0  0  0  0
 20 21  1  0  0  0  0
 20 51  1  0  0  0  0
 21 22  1  0  0  0  0
 22 23  1  0  0  0  0
 22 52  1  0  0  0  0
 22 53  1  0  0  0  0
 23 30  1  0  0  0  0
 23 24  1  0  0  0  0
 23 26  1  0  0  0  0
 24 25  1  0  0  0  0
 24 54  1  0  0  0  0
 24 55  1  0  0  0  0
 25 56  1  0  0  0  0
 26 27  1  0  0  0  0
 26 57  1  0  0  0  0
 26 58  1  0  0  0  0
 27 28  1  0  0  0  0
 27 59  1  0  0  0  0
 27 60  1  0  0  0  0
 28 29  1  0  0  0  0
 29 30  1  0  0  0  0
 29 61  1  0  0  0  0
 29 62  1  0  0  0  0
 30 63  1  0  0  0  0
 30 64  1  0  0  0  0
M  CHG  1   5   1
M  END
> <s_m_source_file>
AV-unprocessed.smi

> <i_m_source_file_index>
282

> <i_lp_mmshare_version>
43012

> <i_f3d_flags>
0

> <s_epik_input>
W0NIMl0xW0NIMl1bQ0gyXVtDSDJdW0NAQEhdKE4xMilbQ0gyXU4oW0NAQEhdKFtDSDJdMilbQ0gyXVtDSDNdKWMobltjSF1uMyljKGMzNCluW2NIXW40W0NIMl1DNShbQ0gyXVtPSF0pW0NIMl1bQ0gyXU9bQ0gyXVtDSDJdNQ==

> <s_epik_cmdline>
J2VwaWtfcHl0aG9uJywgJy1waCcsICc3LjAnLCAnLXRuJywgJzgnLCAnLW1hJywgJzIwMCcsICctbWV0YWxfYmluZGluZycsICctaW1hZScsICc8aW5maWxlLm1hZT4nLCAnLW9tYWUnLCAnPG91dGZpbGUubWFlPic=

> <r_lp_tautomer_probability>
1

> <r_epik_Ionization_Penalty>
0.00308583

> <r_epik_Ionization_Penalty_Charging>
0.00300384

> <r_epik_Ionization_Penalty_Neutral>
8.19894e-05

> <r_epik_State_Penalty>
-0

> <r_epik_Charging_Adjusted_Penalty>
0.00300384

> <i_epik_Tot_Q>
1

> <i_epik_Tot_abs_Q>
1

> <r_epik_Metal_State_Penalty>
-0

> <b_epik_Metal_Only>
0

> <s_lp_Force_Field>
OPLS_2005

> <r_lp_Energy>
55.6254

> <b_lp_Chiralities_Consistent>
1

> <s_lp_Variant>
AV-unprocessed.smi:282-2

> <Gold.Version>
5.8.1

> <Gold.Id.Protein>
6NUR|6NUR_protein|mol2

> <Gold.PLP.Fitness>
49.2236

> <Gold.PLP.PLP>
-39.2658

> <Gold.PLP.part.hbond>
-4.3992

> <Gold.PLP.part.metal>
0.0000

> <Gold.PLP.part.buried>
-4.5715

> <Gold.PLP.part.nonpolar>
-32.1383

> <Gold.PLP.part.repulsive>
0.3002

> <Gold.PLP.ligand.clash>
0.0000

> <Gold.PLP.ligand.torsion>
0.8192

> <Gold.PLP.Chemscore.Hbond>
3.7843

> <Gold.PLP.Chemscore.CHOScore>
0.0000

> <Gold.PLP.Chemscore.Metal>
0.0000

> <Gold.Chemscore.Hbonds>
donor molecule, donor type, donor heavy atom, donor atom, acceptor molecule, acceptor atom, score
      L1  H     5    65       P1 10747  1.00
      L1  H    25    56       P1  7957  1.00
      P1  H  7997  8008       L1    28  0.90
      P1  H  8011  8017       L1    25  0.50

> <Gold.PLP.Chemscore.Internal.Correction>
0.2432

> <Gold.Rescore>
     Score         DG    S(hbond)    S(metal)    S(lipo)     H(rot)  DE(clash)    DE(int)     intcor
     18.05     -21.52       2.96        0.00     106.21       2.46       1.40       2.07       ----

> <Gold.Chemscore.Fitness>
18.0505

> <Gold.Chemscore.DG>
-21.5167

> <Gold.Chemscore.ZeroCoef>
-5.4800

> <Gold.Chemscore.Hbond>
2.9645

> <Gold.Chemscore.Metal>
0.0000

> <Gold.Chemscore.Lipo>
106.2103

> <Gold.Chemscore.Internal_Hbond>
0.0000

> <Gold.Chemscore.DEClash>
1.4002

> <Gold.Chemscore.DEInternal>
2.0660

> <Gold.Chemscore.Rot>
2.4576

> <Gold.Chemscore.Internal.Correction>
   9.000000E+99

> <Gold.Chemscore.Hbonds>
donor molecule, donor type, donor heavy atom, donor atom, acceptor molecule, acceptor atom, score
      L1  H     5    65       P1 10747  1.00
      L1  H    25    56       P1  7957  0.94
      P1  H  7997  8008       L1    28  0.26
      P1  H  8011  8017       L1    25  0.02

> <Gold.Chemscore.Hbond.Weighted>
-9.9016

> <Gold.Chemscore.Metal.Weighted>
-0.0000

> <Gold.Chemscore.Lipo.Weighted>
-12.4266

> <Gold.Chemscore.Internal_Hbond.Weighted>
0.0000

> <Gold.Chemscore.DEClash.Weighted>
1.4002

> <Gold.Chemscore.DEInternal.Weighted>
2.0660

> <Gold.Chemscore.Rot.Weighted>
6.2915

> <Gold.Chemscore.Internal.Correction.Weighted>
   9.000000E+99

> <Gold.Protein.RotatedTorsions>
[ 6907 6896 6895 6894 ] final   60.85 input  -60.11 | X-H torsion
[ 7974 7965 7964 7962 ] final -133.80 input  175.53 | X-H torsion
[ 8008 7997 7996 7995 ] final  -56.49 input   59.86 | X-H torsion
[ 10167 10162 10161 10158 ] final   48.91 input  -65.29 | X-H torsion
[ 10718 10713 10712 10709 ] final  130.17 input   66.30 | X-H torsion
[ 10763 10752 10751 10750 ] final  -84.55 input  -60.55 | X-H torsion
[ 11005 11000 10999 10996 ] final -105.97 input  -57.11 | X-H torsion

> <Gold.Protein.ActiveResidues>
 VAL166  LYS551  ARG553  GLY616  TRP617  ASP618  TYR619  PRO620  LYS621  CYS622 
 ASP623  PHE694  ASN695  SER759  ASP760  ASP761  ALA762  ILE779  LEU786  VAL792 
 PHE793  MET794  SER795  GLU796  ALA797  LYS798  CYS799  TRP800  GLU811  SER814 

> <Gold.Protein.RotatedAtoms>
  152.4039  134.6240  160.0058 H   0  0  0  0  0  0  0  0  0  0  0  0  # atno 6907 bound_to 6896
  151.6438  133.3319  159.3144 H   0  0  0  0  0  0  0  0  0  0  0  0  # atno 6908 bound_to 6896
  150.7936  134.7020  159.6600 H   0  0  0  0  0  0  0  0  0  0  0  0  # atno 6909 bound_to 6896
  144.9160  140.6955  143.4995 H   0  0  0  0  0  0  0  0  0  0  0  0  # atno 7974 bound_to 7965
  154.4232  140.1128  156.5645 H   0  0  0  0  0  0  0  0  0  0  0  0  # atno 8008 bound_to 7997
  155.6276  140.3495  155.4653 H   0  0  0  0  0  0  0  0  0  0  0  0  # atno 8009 bound_to 7997
  155.9974  140.1192  157.0570 H   0  0  0  0  0  0  0  0  0  0  0  0  # atno 8010 bound_to 7997
  140.2884  144.3075  150.6246 H   0  0  0  0  0  0  0  0  0  0  0  0  # atno 10167 bound_to 10162
  157.5086  131.1096  150.9325 H   0  0  0  0  0  0  0  0  0  0  0  0  # atno 10718 bound_to 10713
  154.6008  135.5516  153.7372 H   0  0  0  0  0  0  0  0  0  0  0  0  # atno 10763 bound_to 10752
  153.0154  135.6366  154.1717 H   0  0  0  0  0  0  0  0  0  0  0  0  # atno 10764 bound_to 10752
  154.1657  135.2895  155.3076 H   0  0  0  0  0  0  0  0  0  0  0  0  # atno 10765 bound_to 10752
  141.1027  133.8853  157.1799 H   0  0  0  0  0  0  0  0  0  0  0  0  # atno 11005 bound_to 11000
  145.3374  139.1742  143.4504 LP  0  0  0  0  0  0  0  0  0  0  0  0  # atno 17320 bound_to 7965
  146.3182  140.3412  142.8648 LP  0  0  0  0  0  0  0  0  0  0  0  0  # atno 17321 bound_to 7965
  140.5753  143.2177  151.7526 LP  0  0  0  0  0  0  0  0  0  0  0  0  # atno 17342 bound_to 10162
  139.4944  144.4158  152.0031 LP  0  0  0  0  0  0  0  0  0  0  0  0  # atno 17343 bound_to 10162
  156.9972  130.5586  149.5308 LP  0  0  0  0  0  0  0  0  0  0  0  0  # atno 17370 bound_to 10713
  156.0274  130.5368  150.8445 LP  0  0  0  0  0  0  0  0  0  0  0  0  # atno 17371 bound_to 10713
  139.9885  135.0073  156.9919 LP  0  0  0  0  0  0  0  0  0  0  0  0  # atno 17394 bound_to 11000
  140.4980  134.1126  155.7245 LP  0  0  0  0  0  0  0  0  0  0  0  0  # atno 17395 bound_to 11000

$$$$
