AV-unprocessed.smi:243|AV-procd|sdf|1853|dock5
  -GOLD-   2262020483D 1   1.00000     0.00000
 Structure written by MMmdl.
 58 61  0  0  0  0  0  0  0  0  2 V2000
  150.8430  144.5184  158.6549 C   0  0  0  0  0  0  0  0  0  0  0  0
  151.2549  143.1751  158.0353 C   0  0  0  0  0  0  0  0  0  0  0  0
  150.1912  142.5924  157.1780 N   0  3  1  0  0  0  0  0  0  0  0  0
  150.7032  141.5815  156.2167 C   0  0  0  0  0  0  0  0  0  0  0  0
  149.5957  141.0788  155.2694 C   0  0  0  0  0  0  0  0  0  0  0  0
  148.2976  140.6357  155.9777 C   0  0  1  0  0  0  0  0  0  0  0  0
  148.3114  139.2280  156.4172 N   0  0  0  0  0  0  0  0  0  0  0  0
  149.1966  138.7011  157.4520 C   0  0  0  0  0  0  0  0  0  0  0  0
  147.2831  138.4328  156.0247 C   0  0  0  0  0  0  0  0  0  0  0  0
  146.6419  137.6964  156.9694 N   0  0  0  0  0  0  0  0  0  0  0  0
  145.6224  136.9025  156.6301 C   0  0  0  0  0  0  0  0  0  0  0  0
  145.0920  136.6961  155.4237 N   0  0  0  0  0  0  0  0  0  0  0  0
  145.7339  137.4274  154.4682 C   0  0  0  0  0  0  0  0  0  0  0  0
  146.8256  138.3174  154.6796 C   0  0  0  0  0  0  0  0  0  0  0  0
  147.2154  138.8777  153.4682 N   0  0  0  0  0  0  0  0  0  0  0  0
  146.3977  138.3564  152.5953 C   0  0  0  0  0  0  0  0  0  0  0  0
  145.4826  137.4647  153.1076 N   0  0  0  0  0  0  0  0  0  0  0  0
  144.4657  136.7364  152.3637 C   0  0  0  0  0  0  0  0  0  0  0  0
  145.0476  135.7462  151.3269 C   0  0  2  0  0  0  0  0  0  0  0  0
  145.5762  136.4798  150.2353 O   0  0  0  0  0  0  0  0  0  0  0  0
  144.0066  134.7727  150.7880 C   0  0  0  0  0  0  0  0  0  0  0  0
  144.8400  133.5463  150.4414 C   0  0  0  0  0  0  0  0  0  0  0  0
  145.7697  133.4849  151.5094 O   0  0  0  0  0  0  0  0  0  0  0  0
  146.1501  134.8107  151.8671 C   0  0  0  0  0  0  0  0  0  0  0  0
  147.8807  141.6567  157.0655 C   0  0  1  0  0  0  0  0  0  0  0  0
  146.6347  141.2350  157.8633 C   0  0  0  0  0  0  0  0  0  0  0  0
  149.0558  142.0636  157.9757 C   0  0  0  0  0  0  0  0  0  0  0  0
  151.6073  144.8699  159.3482 H   0  0  0  0  0  0  0  0  0  0  0  0
  149.9109  144.4259  159.2131 H   0  0  0  0  0  0  0  0  0  0  0  0
  150.7106  145.2950  157.9024 H   0  0  0  0  0  0  0  0  0  0  0  0
  152.1798  143.2802  157.4665 H   0  0  0  0  0  0  0  0  0  0  0  0
  151.4739  142.4889  158.8543 H   0  0  0  0  0  0  0  0  0  0  0  0
  151.4960  142.0162  155.6090 H   0  0  0  0  0  0  0  0  0  0  0  0
  151.1656  140.7610  156.7610 H   0  0  0  0  0  0  0  0  0  0  0  0
  149.3443  141.8980  154.5946 H   0  0  0  0  0  0  0  0  0  0  0  0
  149.9737  140.2792  154.6309 H   0  0  0  0  0  0  0  0  0  0  0  0
  147.5207  140.7183  155.2168 H   0  0  0  0  0  0  0  0  0  0  0  0
  149.1927  137.6102  157.4513 H   0  0  0  0  0  0  0  0  0  0  0  0
  148.8832  139.0343  158.4407 H   0  0  0  0  0  0  0  0  0  0  0  0
  150.2272  139.0031  157.2930 H   0  0  0  0  0  0  0  0  0  0  0  0
  145.1672  136.3529  157.4410 H   0  0  0  0  0  0  0  0  0  0  0  0
  146.4449  138.6035  151.5445 H   0  0  0  0  0  0  0  0  0  0  0  0
  143.8363  136.2038  153.0777 H   0  0  0  0  0  0  0  0  0  0  0  0
  143.8180  137.4626  151.8704 H   0  0  0  0  0  0  0  0  0  0  0  0
  144.9156  137.0847  149.9337 H   0  0  0  0  0  0  0  0  0  0  0  0
  143.2953  134.5070  151.5713 H   0  0  0  0  0  0  0  0  0  0  0  0
  143.4381  135.1598  149.9414 H   0  0  0  0  0  0  0  0  0  0  0  0
  144.2450  132.6355  150.3723 H   0  0  0  0  0  0  0  0  0  0  0  0
  145.3714  133.6856  149.4987 H   0  0  0  0  0  0  0  0  0  0  0  0
  147.1315  135.0449  151.4514 H   0  0  0  0  0  0  0  0  0  0  0  0
  146.2385  134.8537  152.9520 H   0  0  0  0  0  0  0  0  0  0  0  0
  147.5944  142.5630  156.5289 H   0  0  0  0  0  0  0  0  0  0  0  0
  146.8354  140.3768  158.5041 H   0  0  0  0  0  0  0  0  0  0  0  0
  145.8133  140.9688  157.1971 H   0  0  0  0  0  0  0  0  0  0  0  0
  146.2880  142.0461  158.5044 H   0  0  0  0  0  0  0  0  0  0  0  0
  149.3928  141.2305  158.5917 H   0  0  0  0  0  0  0  0  0  0  0  0
  148.7118  142.8369  158.6640 H   0  0  0  0  0  0  0  0  0  0  0  0
  149.8162  143.3551  156.6321 H   0  0  0  0  0  0  0  0  0  0  0  0
  1  2  1  0  0  0  0
  1 28  1  0  0  0  0
  1 29  1  0  0  0  0
  1 30  1  0  0  0  0
  2  3  1  0  0  0  0
  2 31  1  0  0  0  0
  2 32  1  0  0  0  0
  3 27  1  0  0  0  0
  3  4  1  0  0  0  0
  3 58  1  0  0  0  0
  4  5  1  0  0  0  0
  4 33  1  0  0  0  0
  4 34  1  0  0  0  0
  5  6  1  0  0  0  0
  5 35  1  0  0  0  0
  5 36  1  0  0  0  0
  6  7  1  0  0  0  0
  6 25  1  0  0  0  0
  6 37  1  0  0  0  0
  7  8  1  0  0  0  0
  7  9  1  0  0  0  0
  8 38  1  0  0  0  0
  8 39  1  0  0  0  0
  8 40  1  0  0  0  0
  9 14  1  0  0  0  0
  9 10  2  0  0  0  0
 10 11  1  0  0  0  0
 11 12  2  0  0  0  0
 11 41  1  0  0  0  0
 12 13  1  0  0  0  0
 13 17  1  0  0  0  0
 13 14  2  0  0  0  0
 14 15  1  0  0  0  0
 15 16  2  0  0  0  0
 16 17  1  0  0  0  0
 16 42  1  0  0  0  0
 17 18  1  0  0  0  0
 18 19  1  0  0  0  0
 18 43  1  0  0  0  0
 18 44  1  0  0  0  0
 19 24  1  0  0  0  0
 19 20  1  0  0  0  0
 19 21  1  0  0  0  0
 20 45  1  0  0  0  0
 21 22  1  0  0  0  0
 21 46  1  0  0  0  0
 21 47  1  0  0  0  0
 22 23  1  0  0  0  0
 22 48  1  0  0  0  0
 22 49  1  0  0  0  0
 23 24  1  0  0  0  0
 24 50  1  0  0  0  0
 24 51  1  0  0  0  0
 25 26  1  0  0  0  0
 25 27  1  0  0  0  0
 25 52  1  0  0  0  0
 26 53  1  0  0  0  0
 26 54  1  0  0  0  0
 26 55  1  0  0  0  0
 27 56  1  0  0  0  0
 27 57  1  0  0  0  0
M  CHG  1   3   1
M  END
> <s_m_source_file>
AV-unprocessed.smi

> <i_m_source_file_index>
243

> <i_lp_mmshare_version>
43012

> <i_f3d_flags>
0

> <s_epik_input>
W0NIM11bQ0gyXU4xW0NIMl1bQ0gyXVtDQEhdKFtDQEBIXShbQ0gzXSlbQ0gyXTEpTihbQ0gzXSljKG5bY0hdbjIpYyhjMjMpbltjSF1uM1tDSDJdW0NAQF00KFtPSF0pW0NIMl1bQ0gyXU9bQ0gyXTQ=

> <s_epik_cmdline>
J2VwaWtfcHl0aG9uJywgJy1waCcsICc3LjAnLCAnLXRuJywgJzgnLCAnLW1hJywgJzIwMCcsICctbWV0YWxfYmluZGluZycsICctaW1hZScsICc8aW5maWxlLm1hZT4nLCAnLW9tYWUnLCAnPG91dGZpbGUubWFlPic=

> <r_lp_tautomer_probability>
1

> <r_epik_Ionization_Penalty>
0.00253099

> <r_epik_Ionization_Penalty_Charging>
0.00137877

> <r_epik_Ionization_Penalty_Neutral>
0.00115221

> <r_epik_State_Penalty>
-0

> <r_epik_Charging_Adjusted_Penalty>
0.00137877

> <i_epik_Tot_Q>
1

> <i_epik_Tot_abs_Q>
1

> <r_epik_Metal_State_Penalty>
-0

> <b_epik_Metal_Only>
0

> <s_lp_Force_Field>
OPLS_2005

> <r_lp_Energy>
51.4738

> <b_lp_Chiralities_Consistent>
1

> <s_lp_Variant>
AV-unprocessed.smi:243-6

> <Gold.Version>
5.8.1

> <Gold.Id.Protein>
6NUR|6NUR_protein|mol2

> <Gold.PLP.Fitness>
41.7432

> <Gold.PLP.PLP>
-34.7106

> <Gold.PLP.part.hbond>
-3.0000

> <Gold.PLP.part.metal>
0.0000

> <Gold.PLP.part.buried>
-4.1501

> <Gold.PLP.part.nonpolar>
-26.8209

> <Gold.PLP.part.repulsive>
0.3844

> <Gold.PLP.ligand.clash>
0.0000

> <Gold.PLP.ligand.torsion>
1.1443

> <Gold.PLP.Chemscore.Hbond>
3.0000

> <Gold.PLP.Chemscore.CHOScore>
0.0000

> <Gold.PLP.Chemscore.Metal>
0.0000

> <Gold.Chemscore.Hbonds>
donor molecule, donor type, donor heavy atom, donor atom, acceptor molecule, acceptor atom, score
      L1  H     3    58       P1  8028  2.00
      L1  H    20    45       P1 10171  1.00

> <Gold.PLP.Chemscore.Internal.Correction>
0.3212

> <Gold.Rescore>
     Score         DG    S(hbond)    S(metal)    S(lipo)     H(rot)  DE(clash)    DE(int)     intcor
     14.37     -15.76       2.00        0.00      79.83       2.24       0.15       1.24       ----

> <Gold.Chemscore.Fitness>
14.3703

> <Gold.Chemscore.DG>
-15.7563

> <Gold.Chemscore.ZeroCoef>
-5.4800

> <Gold.Chemscore.Hbond>
1.9954

> <Gold.Chemscore.Metal>
0.0000

> <Gold.Chemscore.Lipo>
79.8341

> <Gold.Chemscore.Internal_Hbond>
0.0000

> <Gold.Chemscore.DEClash>
0.1493

> <Gold.Chemscore.DEInternal>
1.2367

> <Gold.Chemscore.Rot>
2.2379

> <Gold.Chemscore.Internal.Correction>
   9.000000E+99

> <Gold.Chemscore.Hbonds>
donor molecule, donor type, donor heavy atom, donor atom, acceptor molecule, acceptor atom, score
      L1  H     3    58       P1  8028  1.00
      L1  H    20    45       P1 10171  1.00

> <Gold.Chemscore.Hbond.Weighted>
-6.6648

> <Gold.Chemscore.Metal.Weighted>
-0.0000

> <Gold.Chemscore.Lipo.Weighted>
-9.3406

> <Gold.Chemscore.Internal_Hbond.Weighted>
0.0000

> <Gold.Chemscore.DEClash.Weighted>
0.1493

> <Gold.Chemscore.DEInternal.Weighted>
1.2367

> <Gold.Chemscore.Rot.Weighted>
5.7291

> <Gold.Chemscore.Internal.Correction.Weighted>
   9.000000E+99

> <Gold.Protein.RotatedTorsions>
[ 6907 6896 6895 6894 ] final   73.88 input  -60.11 | X-H torsion
[ 7974 7965 7964 7962 ] final  -56.43 input  175.53 | X-H torsion
[ 8008 7997 7996 7995 ] final -176.01 input   59.86 | X-H torsion
[ 10167 10162 10161 10158 ] final  134.65 input  -65.29 | X-H torsion
[ 10718 10713 10712 10709 ] final  123.68 input   66.30 | X-H torsion
[ 10763 10752 10751 10750 ] final  129.04 input  -60.55 | X-H torsion
[ 11005 11000 10999 10996 ] final  -91.52 input  -57.11 | X-H torsion

> <Gold.Protein.ActiveResidues>
 VAL166  LYS551  ARG553  GLY616  TRP617  ASP618  TYR619  PRO620  LYS621  CYS622 
 ASP623  PHE694  ASN695  SER759  ASP760  ASP761  ALA762  ILE779  LEU786  VAL792 
 PHE793  MET794  SER795  GLU796  ALA797  LYS798  CYS799  TRP800  GLU811  SER814 

> <Gold.Protein.RotatedAtoms>
  152.4947  134.4355  159.9526 H   0  0  0  0  0  0  0  0  0  0  0  0  # atno 6907 bound_to 6896
  151.4336  133.3657  159.2780 H   0  0  0  0  0  0  0  0  0  0  0  0  # atno 6908 bound_to 6896
  150.9137  134.8577  159.7502 H   0  0  0  0  0  0  0  0  0  0  0  0  # atno 6909 bound_to 6896
  145.8627  140.8273  142.9928 H   0  0  0  0  0  0  0  0  0  0  0  0  # atno 7974 bound_to 7965
  155.9896  140.1198  157.0650 H   0  0  0  0  0  0  0  0  0  0  0  0  # atno 8008 bound_to 7997
  154.4207  140.1128  156.5616 H   0  0  0  0  0  0  0  0  0  0  0  0  # atno 8009 bound_to 7997
  155.6360  140.3473  155.4701 H   0  0  0  0  0  0  0  0  0  0  0  0  # atno 8010 bound_to 7997
  139.5248  144.6557  151.5170 H   0  0  0  0  0  0  0  0  0  0  0  0  # atno 10167 bound_to 10162
  157.5646  131.1087  150.8478 H   0  0  0  0  0  0  0  0  0  0  0  0  # atno 10718 bound_to 10713
  153.7353  135.3232  155.3294 H   0  0  0  0  0  0  0  0  0  0  0  0  # atno 10763 bound_to 10752
  154.8312  135.4532  154.1080 H   0  0  0  0  0  0  0  0  0  0  0  0  # atno 10764 bound_to 10752
  153.2240  135.6951  153.8048 H   0  0  0  0  0  0  0  0  0  0  0  0  # atno 10765 bound_to 10752
  141.1543  133.7761  156.9890 H   0  0  0  0  0  0  0  0  0  0  0  0  # atno 11005 bound_to 11000
  144.6726  140.1120  143.7455 LP  0  0  0  0  0  0  0  0  0  0  0  0  # atno 17320 bound_to 7965
  145.9229  139.2557  143.1371 LP  0  0  0  0  0  0  0  0  0  0  0  0  # atno 17321 bound_to 7965
  140.6381  143.8943  150.6666 LP  0  0  0  0  0  0  0  0  0  0  0  0  # atno 17342 bound_to 10162
  140.2269  143.3765  152.1597 LP  0  0  0  0  0  0  0  0  0  0  0  0  # atno 17343 bound_to 10162
  156.8966  130.5232  149.5284 LP  0  0  0  0  0  0  0  0  0  0  0  0  # atno 17370 bound_to 10713
  156.0695  130.5731  150.9355 LP  0  0  0  0  0  0  0  0  0  0  0  0  # atno 17371 bound_to 10713
  140.1015  134.9532  157.1930 LP  0  0  0  0  0  0  0  0  0  0  0  0  # atno 17394 bound_to 11000
  140.3312  134.2807  155.7228 LP  0  0  0  0  0  0  0  0  0  0  0  0  # atno 17395 bound_to 11000

$$$$
