AV-unprocessed.smi:1648|AV-procd|sdf|6634|dock5
  -GOLD-   22720 7333D 1   1.00000     0.00000
 Structure written by MMmdl.
 41 41  0  0  0  0  0  0  0  0  1 V2000
  147.6182  134.7919  161.9892 C   0  0  0  0  0  0  0  0  0  0  0  0
  147.7831  135.9882  161.0499 C   0  0  0  0  0  0  0  0  0  0  0  0
  147.6143  137.1245  161.4856 O   0  0  0  0  0  0  0  0  0  0  0  0
  148.1208  135.7762  159.7660 N   0  0  0  0  0  0  0  0  0  0  0  0
  148.3235  136.7842  158.7222 C   0  0  1  0  0  0  0  0  0  0  0  0
  149.5875  137.5854  159.0836 C   0  0  0  0  0  0  0  0  0  0  0  0
  150.4243  137.1144  159.8553 O   0  0  0  0  0  0  0  0  0  0  0  0
  149.7080  138.7951  158.5136 N   0  0  0  0  0  0  0  0  0  0  0  0
  150.8079  139.7343  158.7278 C   0  0  1  0  0  0  0  0  0  0  0  0
  152.1303  139.0340  158.3881 C   0  0  0  0  0  0  0  0  0  0  0  0
  150.6149  141.0124  157.8831 C   0  0  0  0  0  0  0  0  0  0  0  0
  151.3232  142.1587  158.4247 N   0  0  0  0  0  0  0  0  0  0  0  0
  151.2518  143.4739  157.9837 C   0  0  0  0  0  0  0  0  0  0  0  0
  152.0984  144.2045  158.7863 C   0  0  0  0  0  0  0  0  0  0  0  0
  152.6842  143.3682  159.7338 N   0  0  0  0  0  0  0  0  0  0  0  0
  152.1715  142.1755  159.4621 C   0  0  0  0  0  0  0  0  0  0  0  0
  148.5254  136.0620  157.3573 C   0  0  0  0  0  0  0  0  0  0  0  0
  149.7231  135.0889  157.3638 C   0  0  0  0  0  0  0  0  0  0  0  0
  148.6969  137.0645  156.1990 C   0  0  0  0  0  0  0  0  0  0  0  0
  146.9395  134.0499  161.5700 H   0  0  0  0  0  0  0  0  0  0  0  0
  147.2109  135.1115  162.9488 H   0  0  0  0  0  0  0  0  0  0  0  0
  148.5823  134.3173  162.1731 H   0  0  0  0  0  0  0  0  0  0  0  0
  148.2912  134.8194  159.4921 H   0  0  0  0  0  0  0  0  0  0  0  0
  147.4599  137.4476  158.6491 H   0  0  0  0  0  0  0  0  0  0  0  0
  148.9724  139.0955  157.8906 H   0  0  0  0  0  0  0  0  0  0  0  0
  150.8563  140.0134  159.7819 H   0  0  0  0  0  0  0  0  0  0  0  0
  152.9799  139.6952  158.5614 H   0  0  0  0  0  0  0  0  0  0  0  0
  152.1592  138.7220  157.3436 H   0  0  0  0  0  0  0  0  0  0  0  0
  152.2741  138.1467  159.0057 H   0  0  0  0  0  0  0  0  0  0  0  0
  150.9795  140.8491  156.8680 H   0  0  0  0  0  0  0  0  0  0  0  0
  149.5554  141.2587  157.7975 H   0  0  0  0  0  0  0  0  0  0  0  0
  150.6312  143.7701  157.1510 H   0  0  0  0  0  0  0  0  0  0  0  0
  152.3266  145.2596  158.7574 H   0  0  0  0  0  0  0  0  0  0  0  0
  152.4250  141.2920  160.0290 H   0  0  0  0  0  0  0  0  0  0  0  0
  147.6322  135.4742  157.1374 H   0  0  0  0  0  0  0  0  0  0  0  0
  150.6478  135.6037  157.6258 H   0  0  0  0  0  0  0  0  0  0  0  0
  149.8648  134.6358  156.3823 H   0  0  0  0  0  0  0  0  0  0  0  0
  149.5852  134.2699  158.0701 H   0  0  0  0  0  0  0  0  0  0  0  0
  149.5581  137.7128  156.3626 H   0  0  0  0  0  0  0  0  0  0  0  0
  147.8201  137.7004  156.0762 H   0  0  0  0  0  0  0  0  0  0  0  0
  148.8474  136.5471  155.2511 H   0  0  0  0  0  0  0  0  0  0  0  0
  1  2  1  0  0  0  0
  1 20  1  0  0  0  0
  1 21  1  0  0  0  0
  1 22  1  0  0  0  0
  2  3  2  0  0  0  0
  2  4  1  0  0  0  0
  4  5  1  0  0  0  0
  4 23  1  0  0  0  0
  5  6  1  0  0  0  0
  5 17  1  0  0  0  0
  5 24  1  0  0  0  0
  6  7  2  0  0  0  0
  6  8  1  0  0  0  0
  8  9  1  0  0  0  0
  8 25  1  0  0  0  0
  9 10  1  0  0  0  0
  9 11  1  0  0  0  0
  9 26  1  0  0  0  0
 10 27  1  0  0  0  0
 10 28  1  0  0  0  0
 10 29  1  0  0  0  0
 11 12  1  0  0  0  0
 11 30  1  0  0  0  0
 11 31  1  0  0  0  0
 12 16  1  0  0  0  0
 12 13  1  0  0  0  0
 13 14  2  0  0  0  0
 13 32  1  0  0  0  0
 14 15  1  0  0  0  0
 14 33  1  0  0  0  0
 15 16  2  0  0  0  0
 16 34  1  0  0  0  0
 17 18  1  0  0  0  0
 17 19  1  0  0  0  0
 17 35  1  0  0  0  0
 18 36  1  0  0  0  0
 18 37  1  0  0  0  0
 18 38  1  0  0  0  0
 19 39  1  0  0  0  0
 19 40  1  0  0  0  0
 19 41  1  0  0  0  0
M  END
> <s_m_source_file>
AV-unprocessed.smi

> <i_m_source_file_index>
1648

> <i_lp_mmshare_version>
43012

> <i_f3d_flags>
0

> <s_epik_input>
W0NIM11DKD1PKVtOSF1bQ0BASF0oW0NIXShbQ0gzXSlbQ0gzXSlDKD1PKVtOSF1bQ0BIXShbQ0gzXSlbQ0gyXW4xW2NIXVtjSF1uW2NIXTE=

> <s_epik_cmdline>
J2VwaWtfcHl0aG9uJywgJy1waCcsICc3LjAnLCAnLXRuJywgJzgnLCAnLW1hJywgJzIwMCcsICctbWV0YWxfYmluZGluZycsICctaW1hZScsICc8aW5maWxlLm1hZT4nLCAnLW9tYWUnLCAnPG91dGZpbGUubWFlPic=

> <r_lp_tautomer_probability>
1

> <r_epik_Ionization_Penalty>
0.628885

> <r_epik_Ionization_Penalty_Charging>
0.628884

> <r_epik_Ionization_Penalty_Neutral>
4.35155e-07

> <r_epik_State_Penalty>
0.64556

> <r_epik_Charging_Adjusted_Penalty>
1.27444

> <i_epik_Tot_Q>
0

> <i_epik_Tot_abs_Q>
0

> <r_epik_Metal_State_Penalty>
0.30874

> <b_epik_Metal_Only>
0

> <s_lp_Force_Field>
OPLS_2005

> <r_lp_Energy>
9.11872

> <b_lp_Chiralities_Consistent>
1

> <s_lp_Variant>
AV-unprocessed.smi:1648-8

> <Gold.Version>
5.8.1

> <Gold.Id.Protein>
6NUR|6NUR_protein|mol2

> <Gold.PLP.Fitness>
39.4682

> <Gold.PLP.PLP>
-30.0107

> <Gold.PLP.part.hbond>
-2.8813

> <Gold.PLP.part.metal>
0.0000

> <Gold.PLP.part.buried>
-5.6089

> <Gold.PLP.part.nonpolar>
-22.1897

> <Gold.PLP.part.repulsive>
0.2839

> <Gold.PLP.ligand.clash>
0.0000

> <Gold.PLP.ligand.torsion>
0.9525

> <Gold.PLP.Chemscore.Hbond>
2.7422

> <Gold.PLP.Chemscore.CHOScore>
1.0000

> <Gold.PLP.Chemscore.Metal>
0.0000

> <Gold.Chemscore.Hbonds>
donor molecule, donor type, donor heavy atom, donor atom, acceptor molecule, acceptor atom, score
      P1  H  6896  6909       L1     7  0.70
      P1  H  6931  6943       L1     3  1.00
      P1  H  6934  6947       L1     3  0.83
      L1  C    13    32       P1  8028  1.00

> <Gold.PLP.Chemscore.Internal.Correction>
0.1356

> <Gold.Rescore>
     Score         DG    S(hbond)    S(metal)    S(lipo)     H(rot)  DE(clash)    DE(int)     intcor
     13.50     -14.57       2.76        0.00      54.14       2.52       0.00       1.08       ----

> <Gold.Chemscore.Fitness>
13.4992

> <Gold.Chemscore.DG>
-14.5745

> <Gold.Chemscore.ZeroCoef>
-5.4800

> <Gold.Chemscore.Hbond>
2.7591

> <Gold.Chemscore.Metal>
0.0000

> <Gold.Chemscore.Lipo>
54.1397

> <Gold.Chemscore.Internal_Hbond>
0.0000

> <Gold.Chemscore.DEClash>
0.0000

> <Gold.Chemscore.DEInternal>
1.0753

> <Gold.Chemscore.Rot>
2.5216

> <Gold.Chemscore.Internal.Correction>
   9.000000E+99

> <Gold.Chemscore.Hbonds>
donor molecule, donor type, donor heavy atom, donor atom, acceptor molecule, acceptor atom, score
      P1  H  6896  6909       L1     7  0.69
      P1  H  6931  6943       L1     3  0.94
      P1  H  6934  6947       L1     3  0.77

> <Gold.Chemscore.Hbond.Weighted>
-9.2155

> <Gold.Chemscore.Metal.Weighted>
-0.0000

> <Gold.Chemscore.Lipo.Weighted>
-6.3343

> <Gold.Chemscore.Internal_Hbond.Weighted>
0.0000

> <Gold.Chemscore.DEClash.Weighted>
0.0000

> <Gold.Chemscore.DEInternal.Weighted>
1.0753

> <Gold.Chemscore.Rot.Weighted>
6.4553

> <Gold.Chemscore.Internal.Correction.Weighted>
   9.000000E+99

> <Gold.Protein.RotatedTorsions>
[ 6907 6896 6895 6894 ] final   89.78 input  -60.11 | X-H torsion
[ 7974 7965 7964 7962 ] final  176.97 input  175.53 | X-H torsion
[ 8008 7997 7996 7995 ] final  151.08 input   59.86 | X-H torsion
[ 10167 10162 10161 10158 ] final  -98.16 input  -65.29 | X-H torsion
[ 10718 10713 10712 10709 ] final   33.97 input   66.30 | X-H torsion
[ 10763 10752 10751 10750 ] final  141.59 input  -60.55 | X-H torsion
[ 11005 11000 10999 10996 ] final  -17.34 input  -57.11 | X-H torsion

> <Gold.Protein.ActiveResidues>
 VAL166  LYS551  ARG553  GLY616  TRP617  ASP618  TYR619  PRO620  LYS621  CYS622 
 ASP623  PHE694  ASN695  SER759  ASP760  ASP761  ALA762  ILE779  LEU786  VAL792 
 PHE793  MET794  SER795  GLU796  ALA797  LYS798  CYS799  TRP800  GLU811  SER814 

> <Gold.Protein.RotatedAtoms>
  152.5439  134.1913  159.8674 H   0  0  0  0  0  0  0  0  0  0  0  0  # atno 6907 bound_to 6896
  151.1908  133.4661  159.2602 H   0  0  0  0  0  0  0  0  0  0  0  0  # atno 6908 bound_to 6896
  151.1085  135.0025  159.8538 H   0  0  0  0  0  0  0  0  0  0  0  0  # atno 6909 bound_to 6896
  144.7176  140.0176  143.6440 H   0  0  0  0  0  0  0  0  0  0  0  0  # atno 7974 bound_to 7965
  156.2689  140.2057  156.6119 H   0  0  0  0  0  0  0  0  0  0  0  0  # atno 8008 bound_to 7997
  154.6825  140.0538  157.0304 H   0  0  0  0  0  0  0  0  0  0  0  0  # atno 8009 bound_to 7997
  155.0980  140.3203  155.4558 H   0  0  0  0  0  0  0  0  0  0  0  0  # atno 8010 bound_to 7997
  140.2758  143.3314  152.0489 H   0  0  0  0  0  0  0  0  0  0  0  0  # atno 10167 bound_to 10162
  157.3045  130.7367  149.6686 H   0  0  0  0  0  0  0  0  0  0  0  0  # atno 10718 bound_to 10713
  153.9417  135.2979  155.3442 H   0  0  0  0  0  0  0  0  0  0  0  0  # atno 10763 bound_to 10752
  154.7473  135.4997  153.9230 H   0  0  0  0  0  0  0  0  0  0  0  0  # atno 10764 bound_to 10752
  153.1039  135.6741  153.9729 H   0  0  0  0  0  0  0  0  0  0  0  0  # atno 10765 bound_to 10752
  140.8158  133.8106  155.9609 H   0  0  0  0  0  0  0  0  0  0  0  0  # atno 11005 bound_to 11000
  146.0207  139.3248  143.0814 LP  0  0  0  0  0  0  0  0  0  0  0  0  # atno 17320 bound_to 7965
  145.8572  140.9496  143.0719 LP  0  0  0  0  0  0  0  0  0  0  0  0  # atno 17321 bound_to 7965
  139.4976  144.6625  151.6432 LP  0  0  0  0  0  0  0  0  0  0  0  0  # atno 17342 bound_to 10162
  140.5852  143.9876  150.6291 LP  0  0  0  0  0  0  0  0  0  0  0  0  # atno 17343 bound_to 10162
  155.9673  130.4270  150.4724 LP  0  0  0  0  0  0  0  0  0  0  0  0  # atno 17370 bound_to 10713
  157.2711  131.0587  151.2259 LP  0  0  0  0  0  0  0  0  0  0  0  0  # atno 17371 bound_to 10713
  140.9150  134.2213  157.4962 LP  0  0  0  0  0  0  0  0  0  0  0  0  # atno 17394 bound_to 11000
  139.8711  134.9767  156.4931 LP  0  0  0  0  0  0  0  0  0  0  0  0  # atno 17395 bound_to 11000

$$$$
