AV-unprocessed.smi:1419|AV-procd|sdf|5778|dock9
  -GOLD-   22720 5423D 1   1.00000     0.00000
 Structure written by MMmdl.
 42 43  0  0  0  0  0  0  0  0  2 V2000
  151.0316  140.0267  155.5758 C   0  0  0  0  0  0  0  0  0  0  0  0
  150.1457  141.1607  156.1084 C   0  0  2  0  0  0  0  0  0  0  0  0
  149.5309  141.9773  154.9508 C   0  0  0  0  0  0  0  0  0  0  0  0
  148.4087  141.2934  154.2989 N   0  0  0  0  0  0  0  0  0  0  0  0
  148.4228  140.0593  153.7006 C   0  0  0  0  0  0  0  0  0  0  0  0
  147.1509  139.8323  153.2422 C   0  0  0  0  0  0  0  0  0  0  0  0
  146.4176  140.9416  153.5687 N   0  3  0  0  0  0  0  0  0  0  0  0
  147.1861  141.8320  154.2040 C   0  0  0  0  0  0  0  0  0  0  0  0
  150.9483  142.0111  156.9868 N   0  0  0  0  0  0  0  0  0  0  0  0
  151.6048  141.6154  158.0918 C   0  0  0  0  0  0  0  0  0  0  0  0
  151.5782  140.4500  158.4894 O   0  0  0  0  0  0  0  0  0  0  0  0
  152.2694  142.6041  158.7390 N   0  0  0  0  0  0  0  0  0  0  0  0
  152.2205  144.0435  158.4479 C   0  0  0  0  0  0  0  0  0  0  0  0
  151.5084  144.7676  159.6095 C   0  0  1  0  0  0  0  0  0  0  0  0
  149.9958  144.4936  159.6802 C   0  0  0  0  0  0  0  0  0  0  0  0
  152.1550  144.4505  160.8466 O   0  0  0  0  0  0  0  0  0  0  0  0
  152.3113  143.0572  161.1303 C   0  0  2  0  0  0  0  0  0  0  0  0
  153.0827  142.9269  162.4478 C   0  0  0  0  0  0  0  0  0  0  0  0
  153.0427  142.3705  159.9599 C   0  0  0  0  0  0  0  0  0  0  0  0
  150.4611  139.3482  154.9410 H   0  0  0  0  0  0  0  0  0  0  0  0
  151.4494  139.4369  156.3924 H   0  0  0  0  0  0  0  0  0  0  0  0
  151.8623  140.4145  154.9849 H   0  0  0  0  0  0  0  0  0  0  0  0
  149.3417  140.6964  156.6826 H   0  0  0  0  0  0  0  0  0  0  0  0
  149.1937  142.9546  155.3004 H   0  0  0  0  0  0  0  0  0  0  0  0
  150.2797  142.1604  154.1789 H   0  0  0  0  0  0  0  0  0  0  0  0
  149.3112  139.4459  153.6564 H   0  0  0  0  0  0  0  0  0  0  0  0
  146.7245  138.9877  152.7208 H   0  0  0  0  0  0  0  0  0  0  0  0
  146.8765  142.7932  154.5735 H   0  0  0  0  0  0  0  0  0  0  0  0
  151.0183  142.9850  156.7296 H   0  0  0  0  0  0  0  0  0  0  0  0
  153.2421  144.4158  158.3575 H   0  0  0  0  0  0  0  0  0  0  0  0
  151.7419  144.2923  157.5008 H   0  0  0  0  0  0  0  0  0  0  0  0
  151.6340  145.8407  159.4634 H   0  0  0  0  0  0  0  0  0  0  0  0
  149.5022  144.8094  158.7609 H   0  0  0  0  0  0  0  0  0  0  0  0
  149.5409  145.0426  160.5048 H   0  0  0  0  0  0  0  0  0  0  0  0
  149.7739  143.4373  159.8227 H   0  0  0  0  0  0  0  0  0  0  0  0
  151.3299  142.6011  161.2652 H   0  0  0  0  0  0  0  0  0  0  0  0
  153.2187  141.8805  162.7220 H   0  0  0  0  0  0  0  0  0  0  0  0
  152.5486  143.4169  163.2623 H   0  0  0  0  0  0  0  0  0  0  0  0
  154.0696  143.3847  162.3742 H   0  0  0  0  0  0  0  0  0  0  0  0
  153.1799  141.3100  160.1761 H   0  0  0  0  0  0  0  0  0  0  0  0
  154.0453  142.7840  159.8410 H   0  0  0  0  0  0  0  0  0  0  0  0
  145.4361  141.0724  153.3584 H   0  0  0  0  0  0  0  0  0  0  0  0
  1  2  1  0  0  0  0
  1 20  1  0  0  0  0
  1 21  1  0  0  0  0
  1 22  1  0  0  0  0
  2  3  1  0  0  0  0
  2  9  1  0  0  0  0
  2 23  1  0  0  0  0
  3  4  1  0  0  0  0
  3 24  1  0  0  0  0
  3 25  1  0  0  0  0
  4  8  1  0  0  0  0
  4  5  1  0  0  0  0
  5  6  2  0  0  0  0
  5 26  1  0  0  0  0
  6  7  1  0  0  0  0
  6 27  1  0  0  0  0
  7  8  2  0  0  0  0
  7 42  1  0  0  0  0
  8 28  1  0  0  0  0
  9 10  1  0  0  0  0
  9 29  1  0  0  0  0
 10 11  2  0  0  0  0
 10 12  1  0  0  0  0
 12 19  1  0  0  0  0
 12 13  1  0  0  0  0
 13 14  1  0  0  0  0
 13 30  1  0  0  0  0
 13 31  1  0  0  0  0
 14 15  1  0  0  0  0
 14 16  1  0  0  0  0
 14 32  1  0  0  0  0
 15 33  1  0  0  0  0
 15 34  1  0  0  0  0
 15 35  1  0  0  0  0
 16 17  1  0  0  0  0
 17 18  1  0  0  0  0
 17 19  1  0  0  0  0
 17 36  1  0  0  0  0
 18 37  1  0  0  0  0
 18 38  1  0  0  0  0
 18 39  1  0  0  0  0
 19 40  1  0  0  0  0
 19 41  1  0  0  0  0
M  CHG  1   7   1
M  END
> <s_m_source_file>
AV-unprocessed.smi

> <i_m_source_file_index>
1419

> <i_lp_mmshare_version>
43012

> <i_f3d_flags>
0

> <s_epik_input>
W2NIXTFuW2NIXVtjSF1uMVtDSDJdW0NAQEhdKFtDSDNdKVtOSF1DKD1PKU4yW0NIMl1bQ0BASF0oW0NIM10pT1tDQEBIXShbQ0gzXSlbQ0gyXTI=

> <s_epik_cmdline>
J2VwaWtfcHl0aG9uJywgJy1waCcsICc3LjAnLCAnLXRuJywgJzgnLCAnLW1hJywgJzIwMCcsICctbWV0YWxfYmluZGluZycsICctaW1hZScsICc8aW5maWxlLm1hZT4nLCAnLW9tYWUnLCAnPG91dGZpbGUubWFlPic=

> <r_lp_tautomer_probability>
1

> <r_epik_Ionization_Penalty>
0.253607

> <r_epik_Ionization_Penalty_Charging>
0

> <r_epik_Ionization_Penalty_Neutral>
0.253607

> <r_epik_State_Penalty>
0.245018

> <r_epik_Charging_Adjusted_Penalty>
0.245018

> <i_epik_Tot_Q>
1

> <i_epik_Tot_abs_Q>
1

> <r_epik_Metal_State_Penalty>
0.535379

> <b_epik_Metal_Only>
0

> <s_lp_Force_Field>
OPLS_2005

> <r_lp_Energy>
31.638

> <b_lp_Chiralities_Consistent>
1

> <s_lp_Variant>
AV-unprocessed.smi:1419-5

> <Gold.Version>
5.8.1

> <Gold.Id.Protein>
6NUR|6NUR_protein|mol2

> <Gold.PLP.Fitness>
52.6045

> <Gold.PLP.PLP>
-46.3083

> <Gold.PLP.part.hbond>
-1.0000

> <Gold.PLP.part.metal>
0.0000

> <Gold.PLP.part.buried>
-1.3818

> <Gold.PLP.part.nonpolar>
-43.2677

> <Gold.PLP.part.repulsive>
0.2002

> <Gold.PLP.ligand.clash>
0.0000

> <Gold.PLP.ligand.torsion>
0.1641

> <Gold.PLP.Chemscore.Hbond>
1.9825

> <Gold.PLP.Chemscore.CHOScore>
0.2162

> <Gold.PLP.Chemscore.Metal>
0.0000

> <Gold.Chemscore.Hbonds>
donor molecule, donor type, donor heavy atom, donor atom, acceptor molecule, acceptor atom, score
      L1  H     7    42       P1 10175  1.95
      L1  C     5    26       P1  7957  0.18

> <Gold.PLP.Chemscore.Internal.Correction>
0.0284

> <Gold.Rescore>
     Score         DG    S(hbond)    S(metal)    S(lipo)     H(rot)  DE(clash)    DE(int)     intcor
     15.96     -16.30       0.98        0.00     100.05       1.63       0.02       0.32       ----

> <Gold.Chemscore.Fitness>
15.9554

> <Gold.Chemscore.DG>
-16.2991

> <Gold.Chemscore.ZeroCoef>
-5.4800

> <Gold.Chemscore.Hbond>
0.9819

> <Gold.Chemscore.Metal>
0.0000

> <Gold.Chemscore.Lipo>
100.0462

> <Gold.Chemscore.Internal_Hbond>
0.0000

> <Gold.Chemscore.DEClash>
0.0195

> <Gold.Chemscore.DEInternal>
0.3242

> <Gold.Chemscore.Rot>
1.6273

> <Gold.Chemscore.Internal.Correction>
   9.000000E+99

> <Gold.Chemscore.Hbonds>
donor molecule, donor type, donor heavy atom, donor atom, acceptor molecule, acceptor atom, score
      L1  H     7    42       P1 10175  0.40

> <Gold.Chemscore.Hbond.Weighted>
-3.2795

> <Gold.Chemscore.Metal.Weighted>
-0.0000

> <Gold.Chemscore.Lipo.Weighted>
-11.7054

> <Gold.Chemscore.Internal_Hbond.Weighted>
0.0000

> <Gold.Chemscore.DEClash.Weighted>
0.0195

> <Gold.Chemscore.DEInternal.Weighted>
0.3242

> <Gold.Chemscore.Rot.Weighted>
4.1658

> <Gold.Chemscore.Internal.Correction.Weighted>
   9.000000E+99

> <Gold.Protein.RotatedTorsions>
[ 6907 6896 6895 6894 ] final  -73.37 input  -60.11 | X-H torsion
[ 7974 7965 7964 7962 ] final -170.50 input  175.53 | X-H torsion
[ 8008 7997 7996 7995 ] final  -82.23 input   59.86 | X-H torsion
[ 10167 10162 10161 10158 ] final -111.93 input  -65.29 | X-H torsion
[ 10718 10713 10712 10709 ] final   46.38 input   66.30 | X-H torsion
[ 10763 10752 10751 10750 ] final  -97.16 input  -60.55 | X-H torsion
[ 11005 11000 10999 10996 ] final   -5.52 input  -57.11 | X-H torsion

> <Gold.Protein.ActiveResidues>
 VAL166  LYS551  ARG553  GLY616  TRP617  ASP618  TYR619  PRO620  LYS621  CYS622 
 ASP623  PHE694  ASN695  SER759  ASP760  ASP761  ALA762  ILE779  LEU786  VAL792 
 PHE793  MET794  SER795  GLU796  ALA797  LYS798  CYS799  TRP800  GLU811  SER814 

> <Gold.Protein.RotatedAtoms>
  150.7133  134.5027  159.5568 H   0  0  0  0  0  0  0  0  0  0  0  0  # atno 6907 bound_to 6896
  152.2621  134.8020  160.0438 H   0  0  0  0  0  0  0  0  0  0  0  0  # atno 6908 bound_to 6896
  151.8730  133.3444  159.3778 H   0  0  0  0  0  0  0  0  0  0  0  0  # atno 6909 bound_to 6896
  144.7169  140.2063  143.6332 H   0  0  0  0  0  0  0  0  0  0  0  0  # atno 7974 bound_to 7965
  154.6064  140.0636  156.9437 H   0  0  0  0  0  0  0  0  0  0  0  0  # atno 8008 bound_to 7997
  155.2046  140.3317  155.4319 H   0  0  0  0  0  0  0  0  0  0  0  0  # atno 8009 bound_to 7997
  156.2350  140.1858  156.7126 H   0  0  0  0  0  0  0  0  0  0  0  0  # atno 8010 bound_to 7997
  140.1282  143.4383  152.1645 H   0  0  0  0  0  0  0  0  0  0  0  0  # atno 10167 bound_to 10162
  157.4475  130.8118  149.7755 H   0  0  0  0  0  0  0  0  0  0  0  0  # atno 10718 bound_to 10713
  154.7304  135.5057  153.8954 H   0  0  0  0  0  0  0  0  0  0  0  0  # atno 10763 bound_to 10752
  153.0944  135.6668  153.9800 H   0  0  0  0  0  0  0  0  0  0  0  0  # atno 10764 bound_to 10752
  153.9602  135.3048  155.3413 H   0  0  0  0  0  0  0  0  0  0  0  0  # atno 10765 bound_to 10752
  140.6921  133.9062  155.8625 H   0  0  0  0  0  0  0  0  0  0  0  0  # atno 11005 bound_to 11000
  145.8633  139.2234  143.1704 LP  0  0  0  0  0  0  0  0  0  0  0  0  # atno 17320 bound_to 7965
  146.0153  140.8398  142.9950 LP  0  0  0  0  0  0  0  0  0  0  0  0  # atno 17321 bound_to 7965
  139.5533  144.7354  151.4370 LP  0  0  0  0  0  0  0  0  0  0  0  0  # atno 17342 bound_to 10162
  140.6832  143.8034  150.7150 LP  0  0  0  0  0  0  0  0  0  0  0  0  # atno 17343 bound_to 10162
  155.9973  130.3900  150.2744 LP  0  0  0  0  0  0  0  0  0  0  0  0  # atno 17370 bound_to 10713
  157.0913  131.0170  151.3120 LP  0  0  0  0  0  0  0  0  0  0  0  0  # atno 17371 bound_to 10713
  141.0233  134.0858  157.4096 LP  0  0  0  0  0  0  0  0  0  0  0  0  # atno 17394 bound_to 11000
  139.8920  135.0122  156.6825 LP  0  0  0  0  0  0  0  0  0  0  0  0  # atno 17395 bound_to 11000

$$$$
