#       Name:                AV-unprocessed.smi:728
#       Creating user name   scv26
#       Creation time:       Fri Mar 27 00:51:20 2020


#       File generated by GOLD software.
#

@<TRIPOS>MOLECULE
AV-unprocessed.smi:728
    45    46     1
SMALL
NO_CHARGES


@<TRIPOS>ATOM
      1 ****        -3.2027   3.4306   1.2079 C.3            1 S1                 0.0000
      2 ****        -2.8579   3.0067  -0.2280 C.3            1 S1                 0.0000
      3 ****        -3.4448   1.6331  -0.5833 C.3            1 S1                 0.0000
      4 ****        -1.3853   3.0537  -0.4900 C.2            1 S1                 0.0000
      5 ****        -0.4193   2.5106   0.2485 N.2            1 S1                 0.0000
      6 ****         0.6741   2.7509  -0.5278 C.2            1 S1                 0.0000
      7 ****         2.0552   2.3324  -0.1347 C.3            1 S1                 0.0000
      8 ****         2.3043   0.8749  -0.5262 C.2            1 S1                 0.0000
      9 ****         2.9727   0.6105  -1.5254 O.2            1 S1                 0.0000
     10 ****         1.7556  -0.0589   0.2675 N.am           1 S1                 0.0000
     11 ****         1.8249  -1.5003   0.0523 C.3            1 S1                 0.0000
     12 ****         0.7227  -1.9501  -0.9294 C.3            1 S1                 0.0000
     13 ****         0.7150  -3.4770  -1.1077 C.3            1 S1                 0.0000
     14 ****         0.5798  -4.1970   0.2433 C.3            1 S1                 0.0000
     15 ****         1.6823  -3.7562   1.2190 C.3            1 S1                 0.0000
     16 ****         1.6863  -2.2299   1.4021 C.3            1 S1                 0.0000
     17 ****         0.4419   3.3779  -1.6749 N.2            1 S1                 0.0000
     18 ****        -0.9484   3.5593  -1.6691 O.3            1 S1                 0.0000
     19 ****        -2.8265   4.4314   1.4227 H              1 S1                 0.0000
     20 ****        -2.7697   2.7474   1.9396 H              1 S1                 0.0000
     21 ****        -4.2815   3.4436   1.3647 H              1 S1                 0.0000
     22 ****        -3.3209   3.7369  -0.8935 H              1 S1                 0.0000
     23 ****        -3.2520   1.3829  -1.6272 H              1 S1                 0.0000
     24 ****        -4.5245   1.6155  -0.4334 H              1 S1                 0.0000
     25 ****        -3.0097   0.8454   0.0330 H              1 S1                 0.0000
     26 ****         2.7909   2.9772  -0.6183 H              1 S1                 0.0000
     27 ****         2.1841   2.4551   0.9415 H              1 S1                 0.0000
     28 ****         1.2221   0.2554   1.0652 H              1 S1                 0.0000
     29 ****         2.7994  -1.7530  -0.3702 H              1 S1                 0.0000
     30 ****        -0.2525  -1.6243  -0.5640 H              1 S1                 0.0000
     31 ****         0.8636  -1.4713  -1.8993 H              1 S1                 0.0000
     32 ****        -0.1014  -3.7698  -1.7686 H              1 S1                 0.0000
     33 ****         1.6373  -3.7909  -1.5981 H              1 S1                 0.0000
     34 ****        -0.3983  -3.9830   0.6759 H              1 S1                 0.0000
     35 ****         0.6236  -5.2764   0.0954 H              1 S1                 0.0000
     36 ****         1.5430  -4.2461   2.1832 H              1 S1                 0.0000
     37 ****         2.6535  -4.0817   0.8442 H              1 S1                 0.0000
     38 ****         2.5008  -1.9424   2.0679 H              1 S1                 0.0000
     39 ****         0.7621  -1.9242   1.8949 H              1 S1                 0.0000
     40 ****        -0.4801   2.0504   1.1342 LP             1 S1                 0.0000
     41 ****         3.3534   1.3489  -2.0820 LP             1 S1                 0.0000
     42 ****         3.1350  -0.3427  -1.7805 LP             1 S1                 0.0000
     43 ****         1.1004   3.6544  -2.3748 LP             1 S1                 0.0000
     44 ****        -1.1724   4.5317  -1.7347 LP             1 S1                 0.0000
     45 ****        -1.3662   3.0687  -2.4338 LP             1 S1                 0.0000
@<TRIPOS>BOND
    1    1    2 1     
    2    1   19 1     
    3    1   20 1     
    4    1   21 1     
    5    2    3 1     
    6    2    4 1     
    7    2   22 1     
    8    3   23 1     
    9    3   24 1     
   10    3   25 1     
   11    4   18 1     
   12    4    5 2     
   13    5    6 1     
   14    6    7 1     
   15    6   17 2     
   16    7    8 1     
   17    7   26 1     
   18    7   27 1     
   19    8    9 2     
   20    8   10 am    
   21   10   11 1     
   22   10   28 1     
   23   11   16 1     
   24   11   12 1     
   25   11   29 1     
   26   12   13 1     
   27   12   30 1     
   28   12   31 1     
   29   13   14 1     
   30   13   32 1     
   31   13   33 1     
   32   14   15 1     
   33   14   34 1     
   34   14   35 1     
   35   15   16 1     
   36   15   36 1     
   37   15   37 1     
   38   16   38 1     
   39   16   39 1     
   40   17   18 1     
   41    5   40 1     
   42    9   41 1     
   43    9   42 1     
   44   17   43 1     
   45   18   44 1     
   46   18   45 1     
@<TRIPOS>SUBSTRUCTURE
      1 S1             1
@<TRIPOS>SET
LONE_PAIRS      STATIC     ATOMS    <user>   **** ""
6 40 41 42 43 44 45
DONOR_HYDROGENS      STATIC     ATOMS    <user>   **** ""
1 28
ATOM$BLUE        STATIC     ATOMS    COLORGROUP SYSTEM
6 40 41 42 43 44 45
ATOM$RED        STATIC     ATOMS    COLORGROUP SYSTEM
1 28
