#       Name:                AV-unprocessed.smi:282
#       Creating user name   scv26
#       Creation time:       Thu Mar 26 21:41:31 2020


#       File generated by GOLD software.
#

@<TRIPOS>MOLECULE
AV-unprocessed.smi:282
    72    76     1
SMALL
NO_CHARGES


@<TRIPOS>ATOM
      1 ****        -3.1490  -2.6908  -1.4235 C.3            1 S1                 0.0000
      2 ****        -3.5738  -1.7999  -0.2489 C.3            1 S1                 0.0000
      3 ****        -2.4601  -0.8408   0.2255 C.3            1 S1                 0.0000
      4 ****        -2.8544  -0.0926   1.5163 C.3            1 S1                 0.0000
      5 ****        -3.8932   0.9403   1.2668 N.4            1 S1                 1.0000
      6 ****        -4.3168   1.6161   2.5197 C.3            1 S1                 0.0000
      7 ****        -5.4756   2.5923   2.2630 C.3            1 S1                 0.0000
      8 ****        -5.0959   3.6193   1.1897 C.3            1 S1                 0.0000
      9 ****        -4.6449   2.8982  -0.0870 C.3            1 S1                 0.0000
     10 ****        -3.4992   1.9089   0.2023 C.3            1 S1                 0.0000
     11 ****        -3.0768   1.1685  -1.0847 C.3            1 S1                 0.0000
     12 ****        -2.0839   0.1286  -0.8079 N.pl3          1 S1                 0.0000
     13 ****        -0.7626   0.4445  -0.8949 C.ar           1 S1                 0.0000
     14 ****        -0.3718   1.7439  -0.8035 N.ar           1 S1                 0.0000
     15 ****         0.9200   2.0725  -0.8908 C.ar           1 S1                 0.0000
     16 ****         1.9725   1.2733  -1.0667 N.ar           1 S1                 0.0000
     17 ****         1.5937  -0.0330  -1.1592 C.ar           1 S1                 0.0000
     18 ****         0.2601  -0.5290  -1.0892 C.ar           1 S1                 0.0000
     19 ****         0.2645  -1.9090  -1.2513 N.2            1 S1                 0.0000
     20 ****         1.5247  -2.2113  -1.4000 C.2            1 S1                 0.0000
     21 ****         2.3963  -1.1470  -1.3411 N.pl3          1 S1                 0.0000
     22 ****         3.8449  -1.2016  -1.4882 C.3            1 S1                 0.0000
     23 ****         4.6424  -1.3956  -0.1586 C.3            1 S1                 0.0000
     24 ****         4.1467  -2.6476   0.6134 C.3            1 S1                 0.0000
     25 ****         4.2644  -3.8306  -0.1518 O.3            1 S1                 0.0000
     26 ****         6.1546  -1.5482  -0.4601 C.3            1 S1                 0.0000
     27 ****         6.8076  -0.2332  -0.9235 C.3            1 S1                 0.0000
     28 ****         6.6020   0.7817   0.0507 O.3            1 S1                 0.0000
     29 ****         5.2266   1.0759   0.2583 C.3            1 S1                 0.0000
     30 ****         4.4972  -0.1745   0.7839 C.3            1 S1                 0.0000
     31 ****        -3.9607  -3.3558  -1.7189 H              1 S1                 0.0000
     32 ****        -2.2933  -3.3113  -1.1567 H              1 S1                 0.0000
     33 ****        -2.8741  -2.0978  -2.2961 H              1 S1                 0.0000
     34 ****        -4.4738  -1.2474  -0.5189 H              1 S1                 0.0000
     35 ****        -3.8623  -2.4475   0.5796 H              1 S1                 0.0000
     36 ****        -1.6039  -1.4626   0.4843 H              1 S1                 0.0000
     37 ****        -3.2075  -0.8013   2.2667 H              1 S1                 0.0000
     38 ****        -1.9723   0.3923   1.9381 H              1 S1                 0.0000
     39 ****        -4.6289   0.8684   3.2500 H              1 S1                 0.0000
     40 ****        -3.4676   2.1472   2.9531 H              1 S1                 0.0000
     41 ****        -6.3603   2.0384   1.9461 H              1 S1                 0.0000
     42 ****        -5.7446   3.1028   3.1883 H              1 S1                 0.0000
     43 ****        -5.9422   4.2725   0.9754 H              1 S1                 0.0000
     44 ****        -4.2922   4.2589   1.5569 H              1 S1                 0.0000
     45 ****        -5.4926   2.3666  -0.5221 H              1 S1                 0.0000
     46 ****        -4.3261   3.6313  -0.8289 H              1 S1                 0.0000
     47 ****        -2.6439   2.4749   0.5746 H              1 S1                 0.0000
     48 ****        -3.9460   0.6976  -1.5440 H              1 S1                 0.0000
     49 ****        -2.7058   1.8745  -1.8291 H              1 S1                 0.0000
     50 ****         1.1421   3.1265  -0.8101 H              1 S1                 0.0000
     51 ****         1.8555  -3.2276  -1.5573 H              1 S1                 0.0000
     52 ****         4.0722  -2.0177  -2.1753 H              1 S1                 0.0000
     53 ****         4.1574  -0.2981  -2.0097 H              1 S1                 0.0000
     54 ****         4.7229  -2.7854   1.5291 H              1 S1                 0.0000
     55 ****         3.1083  -2.5327   0.9251 H              1 S1                 0.0000
     56 ****         3.9831  -4.5604   0.3788 H              1 S1                 0.0000
     57 ****         6.6738  -1.8844   0.4384 H              1 S1                 0.0000
     58 ****         6.3201  -2.3228  -1.2098 H              1 S1                 0.0000
     59 ****         7.8804  -0.3785  -1.0507 H              1 S1                 0.0000
     60 ****         6.4211   0.0878  -1.8913 H              1 S1                 0.0000
     61 ****         5.1511   1.8818   0.9883 H              1 S1                 0.0000
     62 ****         4.7794   1.4495  -0.6628 H              1 S1                 0.0000
     63 ****         3.4486   0.0520   0.9732 H              1 S1                 0.0000
     64 ****         4.9217  -0.4184   1.7590 H              1 S1                 0.0000
     65 ****        -4.7028   0.4482   0.9173 H              1 S1                 0.0000
     66 ****        -1.0573   2.4595  -0.6698 LP             1 S1                 0.0000
     67 ****         2.9189   1.5914  -1.1235 LP             1 S1                 0.0000
     68 ****        -0.5198  -2.5293  -1.2535 LP             1 S1                 0.0000
     69 ****         5.2170  -3.9610  -0.4269 LP             1 S1                 0.0000
     70 ****         3.6883  -3.7641  -0.9665 LP             1 S1                 0.0000
     71 ****         7.0646   1.6146  -0.2532 LP             1 S1                 0.0000
     72 ****         6.9980   0.4777   0.9172 LP             1 S1                 0.0000
@<TRIPOS>BOND
    1    1    2 1     
    2    1   31 1     
    3    1   32 1     
    4    1   33 1     
    5    2    3 1     
    6    2   34 1     
    7    2   35 1     
    8    3   12 1     
    9    3    4 1     
   10    3   36 1     
   11    4    5 1     
   12    4   37 1     
   13    4   38 1     
   14    5   10 1     
   15    5    6 1     
   16    5   65 1     
   17    6    7 1     
   18    6   39 1     
   19    6   40 1     
   20    7    8 1     
   21    7   41 1     
   22    7   42 1     
   23    8    9 1     
   24    8   43 1     
   25    8   44 1     
   26    9   10 1     
   27    9   45 1     
   28    9   46 1     
   29   10   11 1     
   30   10   47 1     
   31   11   12 1     
   32   11   48 1     
   33   11   49 1     
   34   12   13 1     
   35   13   18 ar    
   36   13   14 ar    
   37   14   15 ar    
   38   15   16 ar    
   39   15   50 1     
   40   16   17 ar    
   41   17   21 1     
   42   17   18 ar    
   43   18   19 1     
   44   19   20 2     
   45   20   21 1     
   46   20   51 1     
   47   21   22 1     
   48   22   23 1     
   49   22   52 1     
   50   22   53 1     
   51   23   30 1     
   52   23   24 1     
   53   23   26 1     
   54   24   25 1     
   55   24   54 1     
   56   24   55 1     
   57   25   56 1     
   58   26   27 1     
   59   26   57 1     
   60   26   58 1     
   61   27   28 1     
   62   27   59 1     
   63   27   60 1     
   64   28   29 1     
   65   29   30 1     
   66   29   61 1     
   67   29   62 1     
   68   30   63 1     
   69   30   64 1     
   70   14   66 1     
   71   16   67 1     
   72   19   68 1     
   73   25   69 1     
   74   25   70 1     
   75   28   71 1     
   76   28   72 1     
@<TRIPOS>SUBSTRUCTURE
      1 S1             1
@<TRIPOS>SET
LONE_PAIRS      STATIC     ATOMS    <user>   **** ""
7 66 67 68 69 70 71 72
DONOR_HYDROGENS      STATIC     ATOMS    <user>   **** ""
2 65 56
ATOM$BLUE        STATIC     ATOMS    COLORGROUP SYSTEM
7 66 67 68 69 70 71 72
ATOM$RED        STATIC     ATOMS    COLORGROUP SYSTEM
2 65 56
