AV-unprocessed.smi:1230|AV-procd|sdf|5158|dock1
  -GOLD-   22720 4233D 1   1.00000     0.00000
 Structure written by MMmdl.
 39 40  0  0  0  0  0  0  0  0  1 V2000
  153.8830  140.9643  160.4698 C   0  0  0  0  0  0  0  0  0  0  0  0
  153.4656  142.4409  160.3930 C   0  0  2  0  0  0  0  0  0  0  0  0
  152.5259  142.8240  161.5539 C   0  0  0  0  0  0  0  0  0  0  0  0
  152.1488  144.3131  161.5055 C   0  0  0  0  0  0  0  0  0  0  0  0
  151.5252  144.6874  160.1527 C   0  0  0  0  0  0  0  0  0  0  0  0
  152.4512  144.3048  158.9856 C   0  0  0  0  0  0  0  0  0  0  0  0
  152.8443  142.8162  159.0264 C   0  0  2  0  0  0  0  0  0  0  0  0
  151.6661  142.0501  158.8118 O   0  0  0  0  0  0  0  0  0  0  0  0
  151.0739  142.2140  157.5324 C   0  0  0  0  0  0  0  0  0  0  0  0
  150.2429  140.9592  157.2248 C   0  0  0  0  0  0  0  0  0  0  0  0
  151.0562  139.7695  157.1705 N   0  0  0  0  0  0  0  0  0  0  0  0
  151.4332  139.0816  158.3135 C   0  0  0  0  0  0  0  0  0  0  0  0
  152.2524  138.0043  158.2841 C   0  0  0  0  0  0  0  0  0  0  0  0
  152.6392  137.3139  159.4694 C   0  0  0  0  0  0  0  0  0  0  0  0
  152.9764  136.7498  160.4220 N   0  0  0  0  0  0  0  0  0  0  0  0
  152.7875  137.5075  157.0178 C   0  0  0  0  0  0  0  0  0  0  0  0
  153.5330  136.5387  156.8851 O   0  0  0  0  0  0  0  0  0  0  0  0
  152.3854  138.2390  155.8954 N   0  0  0  0  0  0  0  0  0  0  0  0
  151.5475  139.3558  155.9097 C   0  0  0  0  0  0  0  0  0  0  0  0
  151.2803  139.9348  154.8567 O   0  0  0  0  0  0  0  0  0  0  0  0
  152.7369  137.9377  154.9981 H   0  0  0  0  0  0  0  0  0  0  0  0
  153.0175  140.3035  160.4308 H   0  0  0  0  0  0  0  0  0  0  0  0
  154.4126  140.7555  161.3996 H   0  0  0  0  0  0  0  0  0  0  0  0
  154.5458  140.6982  159.6463 H   0  0  0  0  0  0  0  0  0  0  0  0
  154.3770  143.0302  160.5038 H   0  0  0  0  0  0  0  0  0  0  0  0
  151.6209  142.2158  161.5149 H   0  0  0  0  0  0  0  0  0  0  0  0
  153.0037  142.6018  162.5086 H   0  0  0  0  0  0  0  0  0  0  0  0
  151.4544  144.5475  162.3129 H   0  0  0  0  0  0  0  0  0  0  0  0
  153.0384  144.9205  161.6771 H   0  0  0  0  0  0  0  0  0  0  0  0
  150.5646  144.1827  160.0411 H   0  0  0  0  0  0  0  0  0  0  0  0
  151.3152  145.7569  160.1241 H   0  0  0  0  0  0  0  0  0  0  0  0
  151.9685  144.5369  158.0359 H   0  0  0  0  0  0  0  0  0  0  0  0
  153.3531  144.9167  159.0280 H   0  0  0  0  0  0  0  0  0  0  0  0
  153.5754  142.6383  158.2351 H   0  0  0  0  0  0  0  0  0  0  0  0
  150.4382  143.1000  157.5383 H   0  0  0  0  0  0  0  0  0  0  0  0
  151.8339  142.3629  156.7639 H   0  0  0  0  0  0  0  0  0  0  0  0
  149.4933  140.7845  157.9981 H   0  0  0  0  0  0  0  0  0  0  0  0
  149.6977  141.0386  156.2821 H   0  0  0  0  0  0  0  0  0  0  0  0
  151.0686  139.4234  159.2724 H   0  0  0  0  0  0  0  0  0  0  0  0
  1  2  1  0  0  0  0
  1 22  1  0  0  0  0
  1 23  1  0  0  0  0
  1 24  1  0  0  0  0
  2  7  1  0  0  0  0
  2  3  1  0  0  0  0
  2 25  1  0  0  0  0
  3  4  1  0  0  0  0
  3 26  1  0  0  0  0
  3 27  1  0  0  0  0
  4  5  1  0  0  0  0
  4 28  1  0  0  0  0
  4 29  1  0  0  0  0
  5  6  1  0  0  0  0
  5 30  1  0  0  0  0
  5 31  1  0  0  0  0
  6  7  1  0  0  0  0
  6 32  1  0  0  0  0
  6 33  1  0  0  0  0
  7  8  1  0  0  0  0
  7 34  1  0  0  0  0
  8  9  1  0  0  0  0
  9 10  1  0  0  0  0
  9 35  1  0  0  0  0
  9 36  1  0  0  0  0
 10 11  1  0  0  0  0
 10 37  1  0  0  0  0
 10 38  1  0  0  0  0
 11 19  1  0  0  0  0
 11 12  1  0  0  0  0
 12 13  2  0  0  0  0
 12 39  1  0  0  0  0
 13 14  1  0  0  0  0
 13 16  1  0  0  0  0
 14 15  3  0  0  0  0
 16 17  2  0  0  0  0
 16 18  1  0  0  0  0
 18 21  1  0  0  0  0
 18 19  1  0  0  0  0
 19 20  2  0  0  0  0
M  END
> <s_m_source_file>
AV-unprocessed.smi

> <i_m_source_file_index>
1230

> <i_lp_mmshare_version>
43012

> <i_f3d_flags>
0

> <s_epik_input>
W0NIM11bQ0BASF0xW0NIMl1bQ0gyXVtDSDJdW0NIMl1bQ0BIXTFPW0NIMl1bQ0gyXW4yW2NIXWMoQyNOKWMoPU8pW25IXWMyPU8=

> <s_epik_cmdline>
J2VwaWtfcHl0aG9uJywgJy1waCcsICc3LjAnLCAnLXRuJywgJzgnLCAnLW1hJywgJzIwMCcsICctbWV0YWxfYmluZGluZycsICctaW1hZScsICc8aW5maWxlLm1hZT4nLCAnLW9tYWUnLCAnPG91dGZpbGUubWFlPic=

> <r_epik_Ionization_Penalty>
0.421541

> <r_epik_Ionization_Penalty_Charging>
0.421541

> <r_epik_Ionization_Penalty_Neutral>
2.29267e-11

> <r_epik_State_Penalty>
0.422277

> <r_epik_Charging_Adjusted_Penalty>
0.843818

> <i_epik_Tot_Q>
0

> <i_epik_Tot_abs_Q>
0

> <r_epik_Metal_State_Penalty>
4.11629

> <b_epik_Metal_Only>
0

> <s_lp_Force_Field>
OPLS_2005

> <r_lp_Energy>
14.6453

> <b_lp_Chiralities_Consistent>
1

> <s_lp_Variant>
AV-unprocessed.smi:1230-7

> <Gold.Version>
5.8.1

> <Gold.Id.Protein>
6NUR|6NUR_protein|mol2

> <Gold.PLP.Fitness>
50.6659

> <Gold.PLP.PLP>
-43.1707

> <Gold.PLP.part.hbond>
-2.9756

> <Gold.PLP.part.metal>
0.0000

> <Gold.PLP.part.buried>
-6.9756

> <Gold.PLP.part.nonpolar>
-34.5545

> <Gold.PLP.part.repulsive>
0.2528

> <Gold.PLP.ligand.clash>
0.0000

> <Gold.PLP.ligand.torsion>
0.4829

> <Gold.PLP.Chemscore.Hbond>
2.8000

> <Gold.PLP.Chemscore.CHOScore>
0.0000

> <Gold.PLP.Chemscore.Metal>
0.0000

> <Gold.Chemscore.Hbonds>
donor molecule, donor type, donor heavy atom, donor atom, acceptor molecule, acceptor atom, score
      P1  H  6896  6909       L1    15  0.95
      P1  H  7989  7998       L1    20  1.00
      P1  H 10752 10763       L1    17  1.00

> <Gold.PLP.Chemscore.Internal.Correction>
0.0610

> <Gold.Rescore>
     Score         DG    S(hbond)    S(metal)    S(lipo)     H(rot)  DE(clash)    DE(int)     intcor
     21.12     -22.34       2.88        0.00     104.19       1.94       0.04       1.18       ----

> <Gold.Chemscore.Fitness>
21.1223

> <Gold.Chemscore.DG>
-22.3363

> <Gold.Chemscore.ZeroCoef>
-5.4800

> <Gold.Chemscore.Hbond>
2.8829

> <Gold.Chemscore.Metal>
0.0000

> <Gold.Chemscore.Lipo>
104.1885

> <Gold.Chemscore.Internal_Hbond>
0.0000

> <Gold.Chemscore.DEClash>
0.0353

> <Gold.Chemscore.DEInternal>
1.1787

> <Gold.Chemscore.Rot>
1.9385

> <Gold.Chemscore.Internal.Correction>
   9.000000E+99

> <Gold.Chemscore.Hbonds>
donor molecule, donor type, donor heavy atom, donor atom, acceptor molecule, acceptor atom, score
      P1  H  6896  6909       L1    15  0.21
      P1  H  7989  7998       L1    20  1.00
      P1  H 10752 10763       L1    17  0.94

> <Gold.Chemscore.Hbond.Weighted>
-9.6288

> <Gold.Chemscore.Metal.Weighted>
-0.0000

> <Gold.Chemscore.Lipo.Weighted>
-12.1901

> <Gold.Chemscore.Internal_Hbond.Weighted>
0.0000

> <Gold.Chemscore.DEClash.Weighted>
0.0353

> <Gold.Chemscore.DEInternal.Weighted>
1.1787

> <Gold.Chemscore.Rot.Weighted>
4.9625

> <Gold.Chemscore.Internal.Correction.Weighted>
   9.000000E+99

> <Gold.Protein.RotatedTorsions>
[ 6907 6896 6895 6894 ] final  152.38 input  -60.11 | X-H torsion
[ 7974 7965 7964 7962 ] final   60.09 input  175.53 | X-H torsion
[ 8008 7997 7996 7995 ] final  152.47 input   59.86 | X-H torsion
[ 10167 10162 10161 10158 ] final   38.63 input  -65.29 | X-H torsion
[ 10718 10713 10712 10709 ] final  -21.45 input   66.30 | X-H torsion
[ 10763 10752 10751 10750 ] final  120.72 input  -60.55 | X-H torsion
[ 11005 11000 10999 10996 ] final  -95.72 input  -57.11 | X-H torsion

> <Gold.Protein.ActiveResidues>
 VAL166  LYS551  ARG553  GLY616  TRP617  ASP618  TYR619  PRO620  LYS621  CYS622 
 ASP623  PHE694  ASN695  SER759  ASP760  ASP761  ALA762  ILE779  LEU786  VAL792 
 PHE793  MET794  SER795  GLU796  ALA797  LYS798  CYS799  TRP800  GLU811  SER814 

> <Gold.Protein.RotatedAtoms>
  152.0875  133.4183  159.4528 H   0  0  0  0  0  0  0  0  0  0  0  0  # atno 6907 bound_to 6896
  150.6862  134.2911  159.4676 H   0  0  0  0  0  0  0  0  0  0  0  0  # atno 6908 bound_to 6896
  152.0759  134.9503  160.0624 H   0  0  0  0  0  0  0  0  0  0  0  0  # atno 6909 bound_to 6896
  145.8999  139.3573  143.0599 H   0  0  0  0  0  0  0  0  0  0  0  0  # atno 7974 bound_to 7965
  156.2627  140.2020  156.6338 H   0  0  0  0  0  0  0  0  0  0  0  0  # atno 8008 bound_to 7997
  154.6662  140.0555  157.0140 H   0  0  0  0  0  0  0  0  0  0  0  0  # atno 8009 bound_to 7997
  155.1204  140.3224  155.4501 H   0  0  0  0  0  0  0  0  0  0  0  0  # atno 8010 bound_to 7997
  140.3918  144.1842  150.6131 H   0  0  0  0  0  0  0  0  0  0  0  0  # atno 10167 bound_to 10162
  156.5179  130.4625  149.6612 H   0  0  0  0  0  0  0  0  0  0  0  0  # atno 10718 bound_to 10713
  153.6029  135.3444  155.2952 H   0  0  0  0  0  0  0  0  0  0  0  0  # atno 10763 bound_to 10752
  154.8633  135.4232  154.2393 H   0  0  0  0  0  0  0  0  0  0  0  0  # atno 10764 bound_to 10752
  153.3226  135.7039  153.7089 H   0  0  0  0  0  0  0  0  0  0  0  0  # atno 10765 bound_to 10752
  141.1433  133.8046  157.0474 H   0  0  0  0  0  0  0  0  0  0  0  0  # atno 11005 bound_to 11000
  145.8804  140.9366  143.0604 LP  0  0  0  0  0  0  0  0  0  0  0  0  # atno 17320 bound_to 7965
  144.6735  140.0772  143.7470 LP  0  0  0  0  0  0  0  0  0  0  0  0  # atno 17321 bound_to 7965
  140.4832  143.2372  151.8926 LP  0  0  0  0  0  0  0  0  0  0  0  0  # atno 17342 bound_to 10162
  139.4788  144.5247  151.8752 LP  0  0  0  0  0  0  0  0  0  0  0  0  # atno 17343 bound_to 10162
  156.3177  130.7263  151.2169 LP  0  0  0  0  0  0  0  0  0  0  0  0  # atno 17370 bound_to 10713
  157.7441  131.0464  150.4892 LP  0  0  0  0  0  0  0  0  0  0  0  0  # atno 17371 bound_to 10713
  140.0654  134.9732  157.1376 LP  0  0  0  0  0  0  0  0  0  0  0  0  # atno 17394 bound_to 11000
  140.3788  134.2310  155.7172 LP  0  0  0  0  0  0  0  0  0  0  0  0  # atno 17395 bound_to 11000

$$$$
