AV-unprocessed.smi:13|AV-procd|sdf|72|dock1
  -GOLD-   2262015193D 1   1.00000     0.00000
 Structure written by MMmdl.
 54 58  0  0  0  0  0  0  0  0  1 V2000
  149.6908  130.9611  160.0813 C   0  0  0  0  0  0  0  0  0  0  0  0
  149.6291  130.7704  158.5661 C   0  0  0  0  0  0  0  0  0  0  0  0
  150.5196  129.5641  158.2365 C   0  0  0  0  0  0  0  0  0  0  0  0
  148.2186  130.7387  157.9529 C   0  0  0  0  0  0  0  0  0  0  0  0
  148.7638  131.5173  156.8546 N   0  0  0  0  0  0  0  0  0  0  0  0
  147.8487  132.4471  156.2908 C   0  0  0  0  0  0  0  0  0  0  0  0
  146.9734  133.1454  157.0640 N   0  0  0  0  0  0  0  0  0  0  0  0
  146.1276  134.0244  156.5190 C   0  0  0  0  0  0  0  0  0  0  0  0
  145.9824  134.3553  155.2353 N   0  0  0  0  0  0  0  0  0  0  0  0
  146.8468  133.6539  154.4485 C   0  0  0  0  0  0  0  0  0  0  0  0
  147.8001  132.6949  154.8928 C   0  0  0  0  0  0  0  0  0  0  0  0
  148.5101  132.1953  153.8091 N   0  0  0  0  0  0  0  0  0  0  0  0
  148.0076  132.8253  152.7826 C   0  0  0  0  0  0  0  0  0  0  0  0
  146.9924  133.7101  153.0727 N   0  0  0  0  0  0  0  0  0  0  0  0
  146.2649  134.5502  152.1322 C   0  0  0  0  0  0  0  0  0  0  0  0
  145.4832  133.7819  151.0351 C   0  0  2  0  0  0  0  0  0  0  0  0
  145.0250  134.7514  150.1100 O   0  0  0  0  0  0  0  0  0  0  0  0
  144.2726  132.9859  151.5252 C   0  0  0  0  0  0  0  0  0  0  0  0
  144.2013  131.8290  150.5382 C   0  0  0  0  0  0  0  0  0  0  0  0
  145.5680  131.5097  150.3473 O   0  0  0  0  0  0  0  0  0  0  0  0
  146.2990  132.7273  150.2553 C   0  0  0  0  0  0  0  0  0  0  0  0
  149.8103  132.0498  157.7204 C   0  0  2  0  0  0  0  0  0  0  0  0
  151.0901  132.3466  156.9383 C   0  0  2  0  0  0  0  0  0  0  0  0
  151.4582  131.2687  155.9160 C   0  0  0  0  0  0  0  0  0  0  0  0
  152.9803  131.2916  155.8807 C   0  0  0  0  0  0  0  0  0  0  0  0
  153.3679  132.2579  157.0010 C   0  0  0  0  0  0  0  0  0  0  0  0
  152.2078  132.3367  157.8128 O   0  0  0  0  0  0  0  0  0  0  0  0
  149.3491  130.0717  160.6114 H   0  0  0  0  0  0  0  0  0  0  0  0
  149.0618  131.7909  160.4051 H   0  0  0  0  0  0  0  0  0  0  0  0
  150.7060  131.1770  160.4155 H   0  0  0  0  0  0  0  0  0  0  0  0
  150.5673  129.3767  157.1633 H   0  0  0  0  0  0  0  0  0  0  0  0
  150.1416  128.6534  158.7019 H   0  0  0  0  0  0  0  0  0  0  0  0
  151.5420  129.7085  158.5857 H   0  0  0  0  0  0  0  0  0  0  0  0
  147.8704  129.7481  157.6594 H   0  0  0  0  0  0  0  0  0  0  0  0
  147.4739  131.2818  158.5387 H   0  0  0  0  0  0  0  0  0  0  0  0
  145.4750  134.5354  157.2111 H   0  0  0  0  0  0  0  0  0  0  0  0
  148.3728  132.6611  151.7795 H   0  0  0  0  0  0  0  0  0  0  0  0
  145.5787  135.1757  152.7053 H   0  0  0  0  0  0  0  0  0  0  0  0
  146.9792  135.2331  151.6704 H   0  0  0  0  0  0  0  0  0  0  0  0
  145.6693  134.8389  149.4243 H   0  0  0  0  0  0  0  0  0  0  0  0
  144.4450  132.5675  152.5150 H   0  0  0  0  0  0  0  0  0  0  0  0
  143.3515  133.5684  151.5721 H   0  0  0  0  0  0  0  0  0  0  0  0
  143.6378  130.9785  150.9226 H   0  0  0  0  0  0  0  0  0  0  0  0
  143.7570  132.1427  149.5922 H   0  0  0  0  0  0  0  0  0  0  0  0
  146.4114  132.9956  149.2035 H   0  0  0  0  0  0  0  0  0  0  0  0
  147.3018  132.5772  150.6503 H   0  0  0  0  0  0  0  0  0  0  0  0
  149.4751  132.9112  158.3010 H   0  0  0  0  0  0  0  0  0  0  0  0
  151.0403  133.3186  156.4431 H   0  0  0  0  0  0  0  0  0  0  0  0
  151.1152  130.2893  156.2527 H   0  0  0  0  0  0  0  0  0  0  0  0
  151.0152  131.4586  154.9383 H   0  0  0  0  0  0  0  0  0  0  0  0
  153.3765  130.2936  156.0721 H   0  0  0  0  0  0  0  0  0  0  0  0
  153.3660  131.6277  154.9178 H   0  0  0  0  0  0  0  0  0  0  0  0
  154.2330  131.9184  157.5712 H   0  0  0  0  0  0  0  0  0  0  0  0
  153.5911  133.2468  156.5975 H   0  0  0  0  0  0  0  0  0  0  0  0
  1  2  1  0  0  0  0
  1 28  1  0  0  0  0
  1 29  1  0  0  0  0
  1 30  1  0  0  0  0
  2 22  1  0  0  0  0
  2  3  1  0  0  0  0
  2  4  1  0  0  0  0
  3 31  1  0  0  0  0
  3 32  1  0  0  0  0
  3 33  1  0  0  0  0
  4  5  1  0  0  0  0
  4 34  1  0  0  0  0
  4 35  1  0  0  0  0
  5  6  1  0  0  0  0
  5 22  1  0  0  0  0
  6 11  1  0  0  0  0
  6  7  2  0  0  0  0
  7  8  1  0  0  0  0
  8  9  2  0  0  0  0
  8 36  1  0  0  0  0
  9 10  1  0  0  0  0
 10 14  1  0  0  0  0
 10 11  2  0  0  0  0
 11 12  1  0  0  0  0
 12 13  2  0  0  0  0
 13 14  1  0  0  0  0
 13 37  1  0  0  0  0
 14 15  1  0  0  0  0
 15 16  1  0  0  0  0
 15 38  1  0  0  0  0
 15 39  1  0  0  0  0
 16 21  1  0  0  0  0
 16 17  1  0  0  0  0
 16 18  1  0  0  0  0
 17 40  1  0  0  0  0
 18 19  1  0  0  0  0
 18 41  1  0  0  0  0
 18 42  1  0  0  0  0
 19 20  1  0  0  0  0
 19 43  1  0  0  0  0
 19 44  1  0  0  0  0
 20 21  1  0  0  0  0
 21 45  1  0  0  0  0
 21 46  1  0  0  0  0
 22 23  1  0  0  0  0
 22 47  1  0  0  0  0
 23 27  1  0  0  0  0
 23 24  1  0  0  0  0
 23 48  1  0  0  0  0
 24 25  1  0  0  0  0
 24 49  1  0  0  0  0
 24 50  1  0  0  0  0
 25 26  1  0  0  0  0
 25 51  1  0  0  0  0
 25 52  1  0  0  0  0
 26 27  1  0  0  0  0
 26 53  1  0  0  0  0
 26 54  1  0  0  0  0
M  END
> <s_m_source_file>
AV-unprocessed.smi

> <i_m_source_file_index>
13

> <i_lp_mmshare_version>
43012

> <i_f3d_flags>
0

> <s_epik_input>
TzFbQ0gyXVtDSDJdW0NIMl1bQ0BIXTFbQ0BASF0yTihbQ0gyXUMyKFtDSDNdKVtDSDNdKWMobltjSF1uMyljKGMzNCluW2NIXW40W0NIMl1bQ0BAXTUoW09IXSlbQ0gyXVtDSDJdT1tDSDJdNQ==

> <s_epik_cmdline>
J2VwaWtfcHl0aG9uJywgJy1waCcsICc3LjAnLCAnLXRuJywgJzgnLCAnLW1hJywgJzIwMCcsICctbWV0YWxfYmluZGluZycsICctaW1hZScsICc8aW5maWxlLm1hZT4nLCAnLW9tYWUnLCAnPG91dGZpbGUubWFlPic=

> <r_lp_tautomer_probability>
1

> <r_epik_Ionization_Penalty>
0.00202764

> <r_epik_Ionization_Penalty_Charging>
0

> <r_epik_Ionization_Penalty_Neutral>
0.00202764

> <r_epik_State_Penalty>
0.00134017

> <r_epik_Charging_Adjusted_Penalty>
0.00134017

> <i_epik_Tot_Q>
0

> <i_epik_Tot_abs_Q>
0

> <r_epik_Metal_State_Penalty>
-0

> <b_epik_Metal_Only>
0

> <s_lp_Force_Field>
OPLS_2005

> <r_lp_Energy>
64.4217

> <b_lp_Chiralities_Consistent>
1

> <s_lp_Variant>
AV-unprocessed.smi:13-4

> <Gold.Version>
5.8.1

> <Gold.Id.Protein>
6NUR|6NUR_protein|mol2

> <Gold.PLP.Fitness>
37.6329

> <Gold.PLP.PLP>
-29.4193

> <Gold.PLP.part.hbond>
-2.0000

> <Gold.PLP.part.metal>
0.0000

> <Gold.PLP.part.buried>
-5.8734

> <Gold.PLP.part.nonpolar>
-22.0920

> <Gold.PLP.part.repulsive>
0.2516

> <Gold.PLP.ligand.clash>
0.0000

> <Gold.PLP.ligand.torsion>
0.6110

> <Gold.PLP.Chemscore.Hbond>
1.9920

> <Gold.PLP.Chemscore.CHOScore>
1.0000

> <Gold.PLP.Chemscore.Metal>
0.0000

> <Gold.Chemscore.Hbonds>
donor molecule, donor type, donor heavy atom, donor atom, acceptor molecule, acceptor atom, score
      L1  H    17    40       P1  7921  1.00
      P1  H  6896  6908       L1    27  1.00
      L1  C    13    37       P1 10747  1.00

> <Gold.PLP.Chemscore.Internal.Correction>
0.4595

> <Gold.Rescore>
     Score         DG    S(hbond)    S(metal)    S(lipo)     H(rot)  DE(clash)    DE(int)     intcor
     13.20     -14.08       1.86        0.00      70.73       2.30       0.17       0.72       ----

> <Gold.Chemscore.Fitness>
13.1983

> <Gold.Chemscore.DG>
-14.0800

> <Gold.Chemscore.ZeroCoef>
-5.4800

> <Gold.Chemscore.Hbond>
1.8597

> <Gold.Chemscore.Metal>
0.0000

> <Gold.Chemscore.Lipo>
70.7310

> <Gold.Chemscore.Internal_Hbond>
0.0000

> <Gold.Chemscore.DEClash>
0.1656

> <Gold.Chemscore.DEInternal>
0.7161

> <Gold.Chemscore.Rot>
2.2996

> <Gold.Chemscore.Internal.Correction>
   9.000000E+99

> <Gold.Chemscore.Hbonds>
donor molecule, donor type, donor heavy atom, donor atom, acceptor molecule, acceptor atom, score
      L1  H    17    40       P1  7921  0.92
      P1  H  6896  6908       L1    27  0.88

> <Gold.Chemscore.Hbond.Weighted>
-6.2114

> <Gold.Chemscore.Metal.Weighted>
-0.0000

> <Gold.Chemscore.Lipo.Weighted>
-8.2755

> <Gold.Chemscore.Internal_Hbond.Weighted>
0.0000

> <Gold.Chemscore.DEClash.Weighted>
0.1656

> <Gold.Chemscore.DEInternal.Weighted>
0.7161

> <Gold.Chemscore.Rot.Weighted>
5.8869

> <Gold.Chemscore.Internal.Correction.Weighted>
   9.000000E+99

> <Gold.Protein.RotatedTorsions>
[ 6907 6896 6895 6894 ] final   39.10 input  -60.11 | X-H torsion
[ 7974 7965 7964 7962 ] final  157.22 input  175.53 | X-H torsion
[ 8008 7997 7996 7995 ] final  -42.17 input   59.86 | X-H torsion
[ 10167 10162 10161 10158 ] final -127.45 input  -65.29 | X-H torsion
[ 10718 10713 10712 10709 ] final  112.02 input   66.30 | X-H torsion
[ 10763 10752 10751 10750 ] final  175.02 input  -60.55 | X-H torsion
[ 11005 11000 10999 10996 ] final   37.59 input  -57.11 | X-H torsion

> <Gold.Protein.ActiveResidues>
 VAL166  LYS551  ARG553  GLY616  TRP617  ASP618  TYR619  PRO620  LYS621  CYS622 
 ASP623  PHE694  ASN695  SER759  ASP760  ASP761  ALA762  ILE779  LEU786  VAL792 
 PHE793  MET794  SER795  GLU796  ALA797  LYS798  CYS799  TRP800  GLU811  SER814 

> <Gold.Protein.RotatedAtoms>
  152.1652  134.8879  160.0538 H   0  0  0  0  0  0  0  0  0  0  0  0  # atno 6907 bound_to 6896
  151.9860  133.3769  159.4134 H   0  0  0  0  0  0  0  0  0  0  0  0  # atno 6908 bound_to 6896
  150.6893  134.3910  159.5120 H   0  0  0  0  0  0  0  0  0  0  0  0  # atno 6909 bound_to 6896
  144.7916  139.7310  143.6219 H   0  0  0  0  0  0  0  0  0  0  0  0  # atno 7974 bound_to 7965
  154.4000  140.1480  156.3310 H   0  0  0  0  0  0  0  0  0  0  0  0  # atno 8008 bound_to 7997
  155.8443  140.3460  155.5631 H   0  0  0  0  0  0  0  0  0  0  0  0  # atno 8009 bound_to 7997
  155.8053  140.0876  157.1925 H   0  0  0  0  0  0  0  0  0  0  0  0  # atno 8010 bound_to 7997
  139.9607  143.5953  152.2446 H   0  0  0  0  0  0  0  0  0  0  0  0  # atno 10167 bound_to 10162
  157.6414  131.0960  150.6834 H   0  0  0  0  0  0  0  0  0  0  0  0  # atno 10718 bound_to 10713
  154.4619  135.2768  155.1706 H   0  0  0  0  0  0  0  0  0  0  0  0  # atno 10763 bound_to 10752
  154.3491  135.6154  153.5637 H   0  0  0  0  0  0  0  0  0  0  0  0  # atno 10764 bound_to 10752
  152.9855  135.5807  154.4983 H   0  0  0  0  0  0  0  0  0  0  0  0  # atno 10765 bound_to 10752
  140.2210  134.3641  155.8005 H   0  0  0  0  0  0  0  0  0  0  0  0  # atno 11005 bound_to 11000
  146.2170  139.5567  142.9643 LP  0  0  0  0  0  0  0  0  0  0  0  0  # atno 17320 bound_to 7965
  145.5779  141.0386  143.2138 LP  0  0  0  0  0  0  0  0  0  0  0  0  # atno 17321 bound_to 7965
  139.6556  144.7662  151.2062 LP  0  0  0  0  0  0  0  0  0  0  0  0  # atno 17342 bound_to 10162
  140.7554  143.6091  150.8623 LP  0  0  0  0  0  0  0  0  0  0  0  0  # atno 17343 bound_to 10162
  156.7157  130.4665  149.5535 LP  0  0  0  0  0  0  0  0  0  0  0  0  # atno 17370 bound_to 10713
  156.1699  130.6430  151.0825 LP  0  0  0  0  0  0  0  0  0  0  0  0  # atno 17371 bound_to 10713
  141.2223  133.7193  156.8575 LP  0  0  0  0  0  0  0  0  0  0  0  0  # atno 17394 bound_to 11000
  140.1850  134.9006  157.2993 LP  0  0  0  0  0  0  0  0  0  0  0  0  # atno 17395 bound_to 11000

$$$$
