AV-unprocessed.smi:740|AV-procd|sdf|3546|dock8
  -GOLD-   22720 0543D 1   1.00000     0.00000
 Structure written by MMmdl.
 44 46  0  0  0  0  0  0  0  0  1 V2000
  153.2117  142.5605  161.1844 C   0  0  0  0  0  0  0  0  0  0  0  0
  152.4839  142.3503  159.8684 C   0  0  0  0  0  0  0  0  0  0  0  0
  152.8166  141.2327  159.0704 C   0  0  0  0  0  0  0  0  0  0  0  0
  152.1670  141.0032  157.8380 C   0  0  0  0  0  0  0  0  0  0  0  0
  152.3343  139.9897  156.9099 N   0  0  0  0  0  0  0  0  0  0  0  0
  151.4496  140.3320  155.9779 C   0  0  0  0  0  0  0  0  0  0  0  0
  150.7271  141.4479  156.1932 N   0  0  0  0  0  0  0  0  0  0  0  0
  149.7172  142.0131  155.3167 C   0  0  0  0  0  0  0  0  0  0  0  0
  149.0065  140.9384  154.4716 C   0  0  2  0  0  0  0  0  0  0  0  0
  149.7960  140.6667  153.3293 O   0  0  0  0  0  0  0  0  0  0  0  0
  147.6105  141.4062  154.0111 C   0  0  0  0  0  0  0  0  0  0  0  0
  146.7188  141.6722  155.1460 N   0  0  0  0  0  0  0  0  0  0  0  0
  146.7209  140.9646  156.2840 C   0  0  0  0  0  0  0  0  0  0  0  0
  147.4573  140.0152  156.5499 O   0  0  0  0  0  0  0  0  0  0  0  0
  145.6620  141.4789  157.2491 C   0  0  0  0  0  0  0  0  0  0  0  0
  145.0176  142.6415  156.4794 C   0  0  1  0  0  0  0  0  0  0  0  0
  145.1182  143.9943  157.2034 C   0  0  0  0  0  0  0  0  0  0  0  0
  145.7932  142.6418  155.1634 C   0  0  0  0  0  0  0  0  0  0  0  0
  145.5662  143.4449  154.2583 O   0  0  0  0  0  0  0  0  0  0  0  0
  151.1671  141.9301  157.4215 C   0  0  0  0  0  0  0  0  0  0  0  0
  150.8256  143.0449  158.2077 C   0  0  0  0  0  0  0  0  0  0  0  0
  151.4846  143.2592  159.4365 C   0  0  0  0  0  0  0  0  0  0  0  0
  151.1104  144.4669  160.2773 C   0  0  0  0  0  0  0  0  0  0  0  0
  153.9191  141.7545  161.3816 H   0  0  0  0  0  0  0  0  0  0  0  0
  152.5042  142.5935  162.0132 H   0  0  0  0  0  0  0  0  0  0  0  0
  153.7684  143.4976  161.1660 H   0  0  0  0  0  0  0  0  0  0  0  0
  153.5781  140.5403  159.3979 H   0  0  0  0  0  0  0  0  0  0  0  0
  151.3202  139.7395  155.0840 H   0  0  0  0  0  0  0  0  0  0  0  0
  148.9926  142.5433  155.9363 H   0  0  0  0  0  0  0  0  0  0  0  0
  150.1849  142.7621  154.6763 H   0  0  0  0  0  0  0  0  0  0  0  0
  148.9224  140.0253  155.0626 H   0  0  0  0  0  0  0  0  0  0  0  0
  149.2907  140.1354  152.7331 H   0  0  0  0  0  0  0  0  0  0  0  0
  147.7079  142.3292  153.4370 H   0  0  0  0  0  0  0  0  0  0  0  0
  147.1710  140.6862  153.3181 H   0  0  0  0  0  0  0  0  0  0  0  0
  144.9398  140.6934  157.4741 H   0  0  0  0  0  0  0  0  0  0  0  0
  146.1275  141.8004  158.1815 H   0  0  0  0  0  0  0  0  0  0  0  0
  143.9721  142.4141  156.2675 H   0  0  0  0  0  0  0  0  0  0  0  0
  144.6462  144.7884  156.6237 H   0  0  0  0  0  0  0  0  0  0  0  0
  146.1561  144.2801  157.3789 H   0  0  0  0  0  0  0  0  0  0  0  0
  144.6179  143.9539  158.1712 H   0  0  0  0  0  0  0  0  0  0  0  0
  150.0653  143.7310  157.8653 H   0  0  0  0  0  0  0  0  0  0  0  0
  150.3369  145.0645  159.7938 H   0  0  0  0  0  0  0  0  0  0  0  0
  151.9785  145.1070  160.4346 H   0  0  0  0  0  0  0  0  0  0  0  0
  150.7307  144.1519  161.2495 H   0  0  0  0  0  0  0  0  0  0  0  0
  1  2  1  0  0  0  0
  1 24  1  0  0  0  0
  1 25  1  0  0  0  0
  1 26  1  0  0  0  0
  2 22  1  0  0  0  0
  2  3  2  0  0  0  0
  3  4  1  0  0  0  0
  3 27  1  0  0  0  0
  4 20  2  0  0  0  0
  4  5  1  0  0  0  0
  5  6  2  0  0  0  0
  6  7  1  0  0  0  0
  6 28  1  0  0  0  0
  7  8  1  0  0  0  0
  7 20  1  0  0  0  0
  8  9  1  0  0  0  0
  8 29  1  0  0  0  0
  8 30  1  0  0  0  0
  9 10  1  0  0  0  0
  9 11  1  0  0  0  0
  9 31  1  0  0  0  0
 10 32  1  0  0  0  0
 11 12  1  0  0  0  0
 11 33  1  0  0  0  0
 11 34  1  0  0  0  0
 12 18  1  0  0  0  0
 12 13  1  0  0  0  0
 13 14  2  0  0  0  0
 13 15  1  0  0  0  0
 15 16  1  0  0  0  0
 15 35  1  0  0  0  0
 15 36  1  0  0  0  0
 16 17  1  0  0  0  0
 16 18  1  0  0  0  0
 16 37  1  0  0  0  0
 17 38  1  0  0  0  0
 17 39  1  0  0  0  0
 17 40  1  0  0  0  0
 18 19  2  0  0  0  0
 20 21  1  0  0  0  0
 21 22  2  0  0  0  0
 21 41  1  0  0  0  0
 22 23  1  0  0  0  0
 23 42  1  0  0  0  0
 23 43  1  0  0  0  0
 23 44  1  0  0  0  0
M  END
> <s_m_source_file>
AV-unprocessed.smi

> <i_m_source_file_index>
740

> <i_lp_mmshare_version>
43012

> <i_f3d_flags>
0

> <s_epik_input>
W0NIM11jKFtjSF0xKWMoW0NIM10pW2NIXWMoYzEyKW4oW2NIXW4yKVtDSDJdW0NASF0oW09IXSlbQ0gyXU4zQyg9TylbQ0gyXVtDQEBIXShbQ0gzXSlDMz1P

> <s_epik_cmdline>
J2VwaWtfcHl0aG9uJywgJy1waCcsICc3LjAnLCAnLXRuJywgJzgnLCAnLW1hJywgJzIwMCcsICctbWV0YWxfYmluZGluZycsICctaW1hZScsICc8aW5maWxlLm1hZT4nLCAnLW9tYWUnLCAnPG91dGZpbGUubWFlPic=

> <r_lp_tautomer_probability>
1

> <r_epik_Ionization_Penalty>
0.104021

> <r_epik_Ionization_Penalty_Charging>
0

> <r_epik_Ionization_Penalty_Neutral>
0.104021

> <r_epik_State_Penalty>
0.0939354

> <r_epik_Charging_Adjusted_Penalty>
0.0939354

> <i_epik_Tot_Q>
0

> <i_epik_Tot_abs_Q>
0

> <r_epik_Metal_State_Penalty>
0.000101783

> <b_epik_Metal_Only>
0

> <s_lp_Force_Field>
OPLS_2005

> <r_lp_Energy>
16.4677

> <b_lp_Chiralities_Consistent>
1

> <s_lp_Variant>
AV-unprocessed.smi:740-1

> <Gold.Version>
5.8.1

> <Gold.Id.Protein>
6NUR|6NUR_protein|mol2

> <Gold.PLP.Fitness>
49.7588

> <Gold.PLP.PLP>
-43.3646

> <Gold.PLP.part.hbond>
-2.8256

> <Gold.PLP.part.metal>
0.0000

> <Gold.PLP.part.buried>
-3.3851

> <Gold.PLP.part.nonpolar>
-36.8996

> <Gold.PLP.part.repulsive>
0.2169

> <Gold.PLP.ligand.clash>
0.0000

> <Gold.PLP.ligand.torsion>
0.9735

> <Gold.PLP.Chemscore.Hbond>
2.7753

> <Gold.PLP.Chemscore.CHOScore>
0.0000

> <Gold.PLP.Chemscore.Metal>
0.0000

> <Gold.Chemscore.Hbonds>
donor molecule, donor type, donor heavy atom, donor atom, acceptor molecule, acceptor atom, score
      L1  H    10    32       P1  7957  0.46
      P1  H  7989  7998       L1    10  0.34
      P1  H  7997  8008       L1     5  0.94
      P1  H  8011  8017       L1    10  1.00

> <Gold.PLP.Chemscore.Internal.Correction>
0.0155

> <Gold.Rescore>
     Score         DG    S(hbond)    S(metal)    S(lipo)     H(rot)  DE(clash)    DE(int)     intcor
     15.44     -17.88       1.99        0.00      99.86       2.31       0.33       2.10       ----

> <Gold.Chemscore.Fitness>
15.4401

> <Gold.Chemscore.DG>
-17.8771

> <Gold.Chemscore.ZeroCoef>
-5.4800

> <Gold.Chemscore.Hbond>
1.9877

> <Gold.Chemscore.Metal>
0.0000

> <Gold.Chemscore.Lipo>
99.8619

> <Gold.Chemscore.Internal_Hbond>
0.0000

> <Gold.Chemscore.DEClash>
0.3334

> <Gold.Chemscore.DEInternal>
2.1037

> <Gold.Chemscore.Rot>
2.3147

> <Gold.Chemscore.Internal.Correction>
   9.000000E+99

> <Gold.Chemscore.Hbonds>
donor molecule, donor type, donor heavy atom, donor atom, acceptor molecule, acceptor atom, score
      L1  H    10    32       P1  7957  0.46
      P1  H  7989  7998       L1    10  0.33
      P1  H  7997  8008       L1     5  0.30
      P1  H  8011  8017       L1    10  0.11

> <Gold.Chemscore.Hbond.Weighted>
-6.6389

> <Gold.Chemscore.Metal.Weighted>
-0.0000

> <Gold.Chemscore.Lipo.Weighted>
-11.6838

> <Gold.Chemscore.Internal_Hbond.Weighted>
0.0000

> <Gold.Chemscore.DEClash.Weighted>
0.3334

> <Gold.Chemscore.DEInternal.Weighted>
2.1037

> <Gold.Chemscore.Rot.Weighted>
5.9256

> <Gold.Chemscore.Internal.Correction.Weighted>
   9.000000E+99

> <Gold.Protein.RotatedTorsions>
[ 6907 6896 6895 6894 ] final   57.12 input  -60.11 | X-H torsion
[ 7974 7965 7964 7962 ] final  101.61 input  175.53 | X-H torsion
[ 8008 7997 7996 7995 ] final  -52.27 input   59.86 | X-H torsion
[ 10167 10162 10161 10158 ] final -151.71 input  -65.29 | X-H torsion
[ 10718 10713 10712 10709 ] final   51.10 input   66.30 | X-H torsion
[ 10763 10752 10751 10750 ] final  115.65 input  -60.55 | X-H torsion
[ 11005 11000 10999 10996 ] final  144.36 input  -57.11 | X-H torsion

> <Gold.Protein.ActiveResidues>
 VAL166  LYS551  ARG553  GLY616  TRP617  ASP618  TYR619  PRO620  LYS621  CYS622 
 ASP623  PHE694  ASN695  SER759  ASP760  ASP761  ALA762  ILE779  LEU786  VAL792 
 PHE793  MET794  SER795  GLU796  ALA797  LYS798  CYS799  TRP800  GLU811  SER814 

> <Gold.Protein.RotatedAtoms>
  152.3701  134.6746  160.0178 H   0  0  0  0  0  0  0  0  0  0  0  0  # atno 6907 bound_to 6896
  151.7041  133.3306  159.3282 H   0  0  0  0  0  0  0  0  0  0  0  0  # atno 6908 bound_to 6896
  150.7667  134.6524  159.6340 H   0  0  0  0  0  0  0  0  0  0  0  0  # atno 6909 bound_to 6896
  145.3701  139.2400  143.3460 H   0  0  0  0  0  0  0  0  0  0  0  0  # atno 7974 bound_to 7965
  154.4102  140.1228  156.4965 H   0  0  0  0  0  0  0  0  0  0  0  0  # atno 8008 bound_to 7997
  155.6938  140.3495  155.4885 H   0  0  0  0  0  0  0  0  0  0  0  0  # atno 8009 bound_to 7997
  155.9445  140.1093  157.1018 H   0  0  0  0  0  0  0  0  0  0  0  0  # atno 8010 bound_to 7997
  139.7244  143.8906  152.2514 H   0  0  0  0  0  0  0  0  0  0  0  0  # atno 10167 bound_to 10162
  157.4949  130.8400  149.8246 H   0  0  0  0  0  0  0  0  0  0  0  0  # atno 10718 bound_to 10713
  153.5254  135.3589  155.2651 H   0  0  0  0  0  0  0  0  0  0  0  0  # atno 10763 bound_to 10752
  154.8731  135.4055  154.3212 H   0  0  0  0  0  0  0  0  0  0  0  0  # atno 10764 bound_to 10752
  153.3891  135.7071  153.6575 H   0  0  0  0  0  0  0  0  0  0  0  0  # atno 10765 bound_to 10752
  140.0626  134.9196  157.1211 H   0  0  0  0  0  0  0  0  0  0  0  0  # atno 11005 bound_to 11000
  146.2889  140.4350  142.8747 LP  0  0  0  0  0  0  0  0  0  0  0  0  # atno 17320 bound_to 7965
  144.8583  140.7102  143.6124 LP  0  0  0  0  0  0  0  0  0  0  0  0  # atno 17321 bound_to 7965
  139.8811  144.7017  150.8876 LP  0  0  0  0  0  0  0  0  0  0  0  0  # atno 17342 bound_to 10162
  140.7760  143.3660  151.1738 LP  0  0  0  0  0  0  0  0  0  0  0  0  # atno 17343 bound_to 10162
  156.0194  130.3801  150.2007 LP  0  0  0  0  0  0  0  0  0  0  0  0  # atno 17370 bound_to 10713
  157.0196  130.9975  151.3343 LP  0  0  0  0  0  0  0  0  0  0  0  0  # atno 17371 bound_to 10713
  140.3746  134.2352  155.7175 LP  0  0  0  0  0  0  0  0  0  0  0  0  # atno 17394 bound_to 11000
  141.1979  133.8047  157.0604 LP  0  0  0  0  0  0  0  0  0  0  0  0  # atno 17395 bound_to 11000

$$$$
