#       Name:                AV-unprocessed.smi:2079
#       Creating user name   scv26
#       Creation time:       Fri Mar 27 11:18:38 2020


#       File generated by GOLD software.
#

@<TRIPOS>MOLECULE
AV-unprocessed.smi:2079
    47    48     1
SMALL
NO_CHARGES


@<TRIPOS>ATOM
      1 ****        -7.4836   1.5081   0.3973 C.3            1 S1                 0.0000
      2 ****        -6.2536   1.0014   1.0694 C.2            1 S1                 0.0000
      3 ****        -5.1975   0.2534   0.6319 C.2            1 S1                 0.0000
      4 ****        -4.3796   0.1388   1.7890 C.2            1 S1                 0.0000
      5 ****        -3.2174  -0.5267   1.8709 N.pl3          1 S1                -1.0000
      6 ****        -2.0602   0.0785   1.5206 C.2            1 S1                 0.0000
      7 ****        -1.9336   1.2298   1.0970 O.2            1 S1                 0.0000
      8 ****        -0.9801  -0.7022   1.6653 N.am           1 S1                 0.0000
      9 ****         0.3930  -0.3205   1.3602 C.3            1 S1                 0.0000
     10 ****         0.6760  -0.4120  -0.1514 C.3            1 S1                 0.0000
     11 ****         2.0402   0.0498  -0.5240 N.4            1 S1                 1.0000
     12 ****         2.1820   0.2382  -1.9932 C.3            1 S1                 0.0000
     13 ****         3.5119   0.9237  -2.3456 C.3            1 S1                 0.0000
     14 ****         4.7028   0.1448  -1.7768 C.3            1 S1                 0.0000
     15 ****         4.5226  -0.0516  -0.2653 C.3            1 S1                 0.0000
     16 ****         3.1743  -0.7193   0.0801 C.3            1 S1                 0.0000
     17 ****         3.1612  -2.2223  -0.2727 C.3            1 S1                 0.0000
     18 ****        -4.9006   0.7503   2.8393 N.2            1 S1                 0.0000
     19 ****        -6.1001   1.3109   2.3848 O.3            1 S1                 0.0000
     20 ****        -8.2311   0.7189   0.3178 H              1 S1                 0.0000
     21 ****        -7.2559   1.8625  -0.6080 H              1 S1                 0.0000
     22 ****        -7.9227   2.3355   0.9551 H              1 S1                 0.0000
     23 ****        -5.0338  -0.1463  -0.3573 H              1 S1                 0.0000
     24 ****        -1.1289  -1.6361   2.0196 H              1 S1                 0.0000
     25 ****         0.5961   0.6847   1.7331 H              1 S1                 0.0000
     26 ****         1.0360  -0.9997   1.9182 H              1 S1                 0.0000
     27 ****         0.5024  -1.4248  -0.5153 H              1 S1                 0.0000
     28 ****        -0.0455   0.2183  -0.6730 H              1 S1                 0.0000
     29 ****         2.1001  -0.7218  -2.5039 H              1 S1                 0.0000
     30 ****         1.3622   0.8549  -2.3634 H              1 S1                 0.0000
     31 ****         3.6094   1.0150  -3.4279 H              1 S1                 0.0000
     32 ****         3.5159   1.9396  -1.9482 H              1 S1                 0.0000
     33 ****         4.7890  -0.8213  -2.2751 H              1 S1                 0.0000
     34 ****         5.6311   0.6803  -1.9776 H              1 S1                 0.0000
     35 ****         5.3500  -0.6371   0.1369 H              1 S1                 0.0000
     36 ****         4.5762   0.9208   0.2262 H              1 S1                 0.0000
     37 ****         3.0841  -0.6484   1.1634 H              1 S1                 0.0000
     38 ****         4.0170  -2.7288   0.1744 H              1 S1                 0.0000
     39 ****         3.2074  -2.3974  -1.3471 H              1 S1                 0.0000
     40 ****         2.2701  -2.7203   0.1086 H              1 S1                 0.0000
     41 ****         2.1140   0.9790  -0.1349 H              1 S1                 0.0000
     42 ****        -3.2071  -1.4737   2.1922 LP             1 S1                 0.0000
     43 ****        -2.7385   1.8124   0.9843 LP             1 S1                 0.0000
     44 ****        -1.0261   1.5807   0.8663 LP             1 S1                 0.0000
     45 ****        -4.5189   0.8014   3.7622 LP             1 S1                 0.0000
     46 ****        -6.8658   0.9392   2.9098 LP             1 S1                 0.0000
     47 ****        -6.0709   2.3043   2.4959 LP             1 S1                 0.0000
@<TRIPOS>BOND
    1    1    2 1     
    2    1   20 1     
    3    1   21 1     
    4    1   22 1     
    5    2   19 1     
    6    2    3 2     
    7    3    4 1     
    8    3   23 1     
    9    4    5 1     
   10    4   18 2     
   11    5    6 1     
   12    6    7 2     
   13    6    8 am    
   14    8    9 1     
   15    8   24 1     
   16    9   10 1     
   17    9   25 1     
   18    9   26 1     
   19   10   11 1     
   20   10   27 1     
   21   10   28 1     
   22   11   16 1     
   23   11   12 1     
   24   11   41 1     
   25   12   13 1     
   26   12   29 1     
   27   12   30 1     
   28   13   14 1     
   29   13   31 1     
   30   13   32 1     
   31   14   15 1     
   32   14   33 1     
   33   14   34 1     
   34   15   16 1     
   35   15   35 1     
   36   15   36 1     
   37   16   17 1     
   38   16   37 1     
   39   17   38 1     
   40   17   39 1     
   41   17   40 1     
   42   18   19 1     
   43    5   42 1     
   44    7   43 1     
   45    7   44 1     
   46   18   45 1     
   47   19   46 1     
   48   19   47 1     
@<TRIPOS>SUBSTRUCTURE
      1 S1             1
@<TRIPOS>SET
LONE_PAIRS      STATIC     ATOMS    <user>   **** ""
6 42 43 44 45 46 47
DONOR_HYDROGENS      STATIC     ATOMS    <user>   **** ""
2 24 41
ATOM$BLUE        STATIC     ATOMS    COLORGROUP SYSTEM
6 42 43 44 45 46 47
ATOM$RED        STATIC     ATOMS    COLORGROUP SYSTEM
2 24 41
