#       Name:                AV-unprocessed.smi:74
#       Creating user name   scv26
#       Creation time:       Thu Mar 26 17:10:12 2020


#       File generated by GOLD software.
#

@<TRIPOS>MOLECULE
AV-unprocessed.smi:74
    70    74     1
SMALL
NO_CHARGES


@<TRIPOS>ATOM
      1 ****        -6.9016  -1.4667  -2.2417 O.3            1 S1                 0.0000
      2 ****        -6.3529  -1.0486  -1.0085 C.3            1 S1                 0.0000
      3 ****        -5.7425   0.3582  -1.1197 C.3            1 S1                 0.0000
      4 ****        -6.8716   1.3838  -1.3476 C.3            1 S1                 0.0000
      5 ****        -7.7179   1.4801  -0.2198 O.3            1 S1                 0.0000
      6 ****        -4.7256   0.7314  -0.0173 C.3            1 S1                 0.0000
      7 ****        -3.8314   1.3853  -1.0727 C.3            1 S1                 0.0000
      8 ****        -2.4042   1.3765  -0.9404 N.pl3          1 S1                 0.0000
      9 ****        -1.4851   1.1514  -1.9401 C.2            1 S1                 0.0000
     10 ****        -0.2349   1.2425  -1.5773 N.2            1 S1                 0.0000
     11 ****        -0.2948   1.5880  -0.2321 C.ar           1 S1                 0.0000
     12 ****         0.6830   1.8597   0.7669 C.ar           1 S1                 0.0000
     13 ****         2.0174   1.7815   0.5287 N.3            1 S1                 0.0000
     14 ****         2.9192   2.4675   1.4512 C.3            1 S1                 0.0000
     15 ****         4.3428   2.5019   0.8723 C.3            1 S1                 0.0000
     16 ****         4.7735   1.1769   0.5785 O.3            1 S1                 0.0000
     17 ****         3.9375   0.5374  -0.3829 C.3            1 S1                 0.0000
     18 ****         4.5317  -0.8369  -0.7210 C.3            1 S1                 0.0000
     19 ****         4.4404  -1.6921   0.4072 O.3            1 S1                 0.0000
     20 ****         4.9614  -2.9856   0.1590 C.3            1 S1                 0.0000
     21 ****         4.8134  -3.8224   1.4115 C.3            1 S1                 0.0000
     22 ****         5.9202  -3.8764   2.4401 C.3            1 S1                 0.0000
     23 ****         5.6285  -5.0837   1.5860 C.3            1 S1                 0.0000
     24 ****         2.4919   0.4553   0.1465 C.3            1 S1                 0.0000
     25 ****         0.2319   2.2125   2.0010 N.ar           1 S1                 0.0000
     26 ****        -1.0792   2.2854   2.2472 C.ar           1 S1                 0.0000
     27 ****        -2.0975   2.0497   1.4183 N.ar           1 S1                 0.0000
     28 ****        -1.6542   1.6993   0.1771 C.ar           1 S1                 0.0000
     29 ****        -4.5405   0.4793  -2.0823 C.3            1 S1                 0.0000
     30 ****        -6.2102  -1.4882  -2.8856 H              1 S1                 0.0000
     31 ****        -7.1273  -1.0924  -0.2424 H              1 S1                 0.0000
     32 ****        -5.5960  -1.7776  -0.7175 H              1 S1                 0.0000
     33 ****        -6.4683   2.3772  -1.5446 H              1 S1                 0.0000
     34 ****        -7.4755   1.1257  -2.2178 H              1 S1                 0.0000
     35 ****        -8.3962   2.1110  -0.4062 H              1 S1                 0.0000
     36 ****        -5.0972   1.4184   0.7437 H              1 S1                 0.0000
     37 ****        -4.2549  -0.1393   0.4433 H              1 S1                 0.0000
     38 ****        -4.1133   2.4286  -1.2239 H              1 S1                 0.0000
     39 ****        -1.7713   0.9102  -2.9537 H              1 S1                 0.0000
     40 ****         2.5719   3.4861   1.6291 H              1 S1                 0.0000
     41 ****         2.9218   1.9500   2.4117 H              1 S1                 0.0000
     42 ****         4.3817   3.1169  -0.0282 H              1 S1                 0.0000
     43 ****         5.0299   2.9475   1.5917 H              1 S1                 0.0000
     44 ****         3.9486   1.1374  -1.2947 H              1 S1                 0.0000
     45 ****         3.9848  -1.2758  -1.5572 H              1 S1                 0.0000
     46 ****         5.5717  -0.7288  -1.0328 H              1 S1                 0.0000
     47 ****         4.4147  -3.4658  -0.6537 H              1 S1                 0.0000
     48 ****         6.0126  -2.9295  -0.1284 H              1 S1                 0.0000
     49 ****         3.7957  -3.8636   1.7952 H              1 S1                 0.0000
     50 ****         6.8339  -3.3230   2.2323 H              1 S1                 0.0000
     51 ****         5.6287  -3.9173   3.4876 H              1 S1                 0.0000
     52 ****         5.1438  -5.9326   2.0639 H              1 S1                 0.0000
     53 ****         6.3489  -5.3345   0.8098 H              1 S1                 0.0000
     54 ****         2.4443  -0.1945   1.0215 H              1 S1                 0.0000
     55 ****         1.8540   0.0066  -0.6139 H              1 S1                 0.0000
     56 ****        -1.3502   2.5715   3.2528 H              1 S1                 0.0000
     57 ****        -4.0201  -0.4690  -2.2309 H              1 S1                 0.0000
     58 ****        -4.7641   0.9555  -3.0374 H              1 S1                 0.0000
     59 ****        -7.6114  -0.8242  -2.5303 LP             1 S1                 0.0000
     60 ****        -7.2985  -2.3792  -2.1423 LP             1 S1                 0.0000
     61 ****        -7.1887   1.7787   0.5743 LP             1 S1                 0.0000
     62 ****        -8.1295   0.5887  -0.0300 LP             1 S1                 0.0000
     63 ****         0.5798   1.0970  -2.1386 LP             1 S1                 0.0000
     64 ****         2.0781   2.3540  -0.2890 LP             1 S1                 0.0000
     65 ****         4.7620   0.6404   1.4223 LP             1 S1                 0.0000
     66 ****         5.7062   1.2139   0.2197 LP             1 S1                 0.0000
     67 ****         3.4781  -1.7793   0.6650 LP             1 S1                 0.0000
     68 ****         4.9517  -1.2811   1.1619 LP             1 S1                 0.0000
     69 ****         0.8861   2.4186   2.7287 LP             1 S1                 0.0000
     70 ****        -3.0616   2.1208   1.6741 LP             1 S1                 0.0000
@<TRIPOS>BOND
    1    1    2 1     
    2    1   30 1     
    3    2    3 1     
    4    2   31 1     
    5    2   32 1     
    6    3   29 1     
    7    3    4 1     
    8    3    6 1     
    9    4    5 1     
   10    4   33 1     
   11    4   34 1     
   12    5   35 1     
   13    6    7 1     
   14    6   36 1     
   15    6   37 1     
   16    7    8 1     
   17    7   29 1     
   18    7   38 1     
   19    8   28 1     
   20    8    9 1     
   21    9   10 2     
   22    9   39 1     
   23   10   11 1     
   24   11   28 ar    
   25   11   12 ar    
   26   12   13 1     
   27   12   25 ar    
   28   13   24 1     
   29   13   14 1     
   30   14   15 1     
   31   14   40 1     
   32   14   41 1     
   33   15   16 1     
   34   15   42 1     
   35   15   43 1     
   36   16   17 1     
   37   17   18 1     
   38   17   24 1     
   39   17   44 1     
   40   18   19 1     
   41   18   45 1     
   42   18   46 1     
   43   19   20 1     
   44   20   21 1     
   45   20   47 1     
   46   20   48 1     
   47   21   23 1     
   48   21   22 1     
   49   21   49 1     
   50   22   23 1     
   51   22   50 1     
   52   22   51 1     
   53   23   52 1     
   54   23   53 1     
   55   24   54 1     
   56   24   55 1     
   57   25   26 ar    
   58   26   27 ar    
   59   26   56 1     
   60   27   28 ar    
   61   29   57 1     
   62   29   58 1     
   63    1   59 1     
   64    1   60 1     
   65    5   61 1     
   66    5   62 1     
   67   10   63 1     
   68   13   64 1     
   69   16   65 1     
   70   16   66 1     
   71   19   67 1     
   72   19   68 1     
   73   25   69 1     
   74   27   70 1     
@<TRIPOS>SUBSTRUCTURE
      1 S1             1
@<TRIPOS>SET
LONE_PAIRS      STATIC     ATOMS    <user>   **** ""
12 59 60 61 62 63 64 65 66 67 68 69 70
DONOR_HYDROGENS      STATIC     ATOMS    <user>   **** ""
2 30 35
ATOM$BLUE        STATIC     ATOMS    COLORGROUP SYSTEM
12 59 60 61 62 63 64 65 66 67 68 69 70
ATOM$RED        STATIC     ATOMS    COLORGROUP SYSTEM
2 30 35
