AV-unprocessed.smi:2222|AV-procd|sdf|8986|dock9
  -GOLD-   2272012203D 1   1.00000     0.00000
 Structure written by MMmdl.
 34 35  0  0  0  0  0  0  0  0  1 V2000
  150.9389  145.1157  160.7023 C   0  0  0  0  0  0  0  0  0  0  0  0
  150.7775  144.0244  159.8081 O   0  0  0  0  0  0  0  0  0  0  0  0
  151.6810  142.9818  159.8791 C   0  0  0  0  0  0  0  0  0  0  0  0
  152.6955  142.8886  160.8658 C   0  0  0  0  0  0  0  0  0  0  0  0
  153.5705  141.7885  160.8555 C   0  0  0  0  0  0  0  0  0  0  0  0
  153.4012  140.8145  159.8556 C   0  0  0  0  0  0  0  0  0  0  0  0
  154.3091  139.6052  159.7813 C   0  0  0  0  0  0  0  0  0  0  0  0
  152.4409  140.8921  158.9128 N   0  0  0  0  0  0  0  0  0  0  0  0
  151.5894  141.9476  158.9119 C   0  0  0  0  0  0  0  0  0  0  0  0
  150.5522  142.1018  157.9516 N   0  0  0  0  0  0  0  0  0  0  0  0
  150.3959  141.4724  156.7699 C   0  0  0  0  0  0  0  0  0  0  0  0
  151.1396  140.5915  156.3415 O   0  0  0  0  0  0  0  0  0  0  0  0
  149.3083  141.8576  156.0786 N   0  0  0  0  0  0  0  0  0  0  0  0
  148.8635  141.3854  154.8003 C   0  0  1  0  0  0  0  0  0  0  0  0
  148.3665  139.9577  154.7308 C   0  0  0  0  0  0  0  0  0  0  0  0
  147.3886  141.0942  154.5921 C   0  0  1  0  0  0  0  0  0  0  0  0
  146.3547  141.3613  155.6686 C   0  0  0  0  0  0  0  0  0  0  0  0
  150.1566  145.8511  160.5155 H   0  0  0  0  0  0  0  0  0  0  0  0
  151.8992  145.6121  160.5564 H   0  0  0  0  0  0  0  0  0  0  0  0
  150.8497  144.7971  161.7417 H   0  0  0  0  0  0  0  0  0  0  0  0
  152.8214  143.6388  161.6314 H   0  0  0  0  0  0  0  0  0  0  0  0
  154.3506  141.6993  161.5973 H   0  0  0  0  0  0  0  0  0  0  0  0
  154.9660  139.5498  160.6496 H   0  0  0  0  0  0  0  0  0  0  0  0
  154.9296  139.6538  158.8860 H   0  0  0  0  0  0  0  0  0  0  0  0
  153.7202  138.6884  159.7422 H   0  0  0  0  0  0  0  0  0  0  0  0
  149.8476  142.7850  158.1875 H   0  0  0  0  0  0  0  0  0  0  0  0
  148.6947  142.5143  156.5389 H   0  0  0  0  0  0  0  0  0  0  0  0
  149.4206  141.7131  153.9238 H   0  0  0  0  0  0  0  0  0  0  0  0
  148.6007  139.3874  153.8343 H   0  0  0  0  0  0  0  0  0  0  0  0
  148.3477  139.3813  155.6542 H   0  0  0  0  0  0  0  0  0  0  0  0
  147.0172  141.2826  153.5865 H   0  0  0  0  0  0  0  0  0  0  0  0
  146.7317  141.0874  156.6542 H   0  0  0  0  0  0  0  0  0  0  0  0
  145.4540  140.7796  155.4721 H   0  0  0  0  0  0  0  0  0  0  0  0
  146.0901  142.4187  155.6783 H   0  0  0  0  0  0  0  0  0  0  0  0
  1  2  1  0  0  0  0
  1 18  1  0  0  0  0
  1 19  1  0  0  0  0
  1 20  1  0  0  0  0
  2  3  1  0  0  0  0
  3  9  1  0  0  0  0
  3  4  2  0  0  0  0
  4  5  1  0  0  0  0
  4 21  1  0  0  0  0
  5  6  2  0  0  0  0
  5 22  1  0  0  0  0
  6  7  1  0  0  0  0
  6  8  1  0  0  0  0
  7 23  1  0  0  0  0
  7 24  1  0  0  0  0
  7 25  1  0  0  0  0
  8  9  2  0  0  0  0
  9 10  1  0  0  0  0
 10 11  1  0  0  0  0
 10 26  1  0  0  0  0
 11 12  2  0  0  0  0
 11 13  1  0  0  0  0
 13 14  1  0  0  0  0
 13 27  1  0  0  0  0
 14 16  1  0  0  0  0
 14 15  1  0  0  0  0
 14 28  1  0  0  0  0
 15 16  1  0  0  0  0
 15 29  1  0  0  0  0
 15 30  1  0  0  0  0
 16 17  1  0  0  0  0
 16 31  1  0  0  0  0
 17 32  1  0  0  0  0
 17 33  1  0  0  0  0
 17 34  1  0  0  0  0
M  END
> <s_m_source_file>
AV-unprocessed.smi

> <i_m_source_file_index>
2222

> <i_lp_mmshare_version>
43012

> <i_f3d_flags>
0

> <s_epik_input>
W0NIM11PYzFbY0hdW2NIXWMoW0NIM10pbmMxW05IXUMoPU8pW05IXVtDQEBIXTJbQ0gyXVtDQEhdMltDSDNd

> <s_epik_cmdline>
J2VwaWtfcHl0aG9uJywgJy1waCcsICc3LjAnLCAnLXRuJywgJzgnLCAnLW1hJywgJzIwMCcsICctbWV0YWxfYmluZGluZycsICctaW1hZScsICc8aW5maWxlLm1hZT4nLCAnLW9tYWUnLCAnPG91dGZpbGUubWFlPic=

> <r_lp_tautomer_probability>
1

> <r_epik_Ionization_Penalty>
6.59103e-05

> <r_epik_Ionization_Penalty_Charging>
0

> <r_epik_Ionization_Penalty_Neutral>
6.59103e-05

> <r_epik_State_Penalty>
-0

> <r_epik_Charging_Adjusted_Penalty>
0

> <i_epik_Tot_Q>
0

> <i_epik_Tot_abs_Q>
0

> <r_epik_Metal_State_Penalty>
-0

> <b_epik_Metal_Only>
0

> <s_lp_Force_Field>
OPLS_2005

> <r_lp_Energy>
34.1661

> <b_lp_Chiralities_Consistent>
1

> <s_lp_Variant>
AV-unprocessed.smi:2222-2

> <Gold.Version>
5.8.1

> <Gold.Id.Protein>
6NUR|6NUR_protein|mol2

> <Gold.PLP.Fitness>
41.2530

> <Gold.PLP.PLP>
-38.6733

> <Gold.PLP.part.hbond>
-1.0000

> <Gold.PLP.part.metal>
0.0000

> <Gold.PLP.part.buried>
-4.9828

> <Gold.PLP.part.nonpolar>
-32.8663

> <Gold.PLP.part.repulsive>
0.2695

> <Gold.PLP.ligand.clash>
0.0000

> <Gold.PLP.ligand.torsion>
0.2289

> <Gold.PLP.Chemscore.Hbond>
1.0000

> <Gold.PLP.Chemscore.CHOScore>
0.0000

> <Gold.PLP.Chemscore.Metal>
0.0000

> <Gold.Chemscore.Hbonds>
donor molecule, donor type, donor heavy atom, donor atom, acceptor molecule, acceptor atom, score
      L1  H    13    27       P1  8028  0.04

> <Gold.PLP.Chemscore.Internal.Correction>
0.0376

> <Gold.Rescore>
     Score         DG    S(hbond)    S(metal)    S(lipo)     H(rot)  DE(clash)    DE(int)     intcor
     14.51     -16.00       1.00        0.00      87.96       1.22       0.10       1.38       ----

> <Gold.Chemscore.Fitness>
14.5110

> <Gold.Chemscore.DG>
-15.9967

> <Gold.Chemscore.ZeroCoef>
-5.4800

> <Gold.Chemscore.Hbond>
1.0000

> <Gold.Chemscore.Metal>
0.0000

> <Gold.Chemscore.Lipo>
87.9630

> <Gold.Chemscore.Internal_Hbond>
0.0000

> <Gold.Chemscore.DEClash>
0.1045

> <Gold.Chemscore.DEInternal>
1.3812

> <Gold.Chemscore.Rot>
1.2168

> <Gold.Chemscore.Internal.Correction>
   9.000000E+99

> <Gold.Chemscore.Hbonds>
donor molecule, donor type, donor heavy atom, donor atom, acceptor molecule, acceptor atom, score
      L1  H    13    27       P1  8028  0.04

> <Gold.Chemscore.Hbond.Weighted>
-3.3400

> <Gold.Chemscore.Metal.Weighted>
-0.0000

> <Gold.Chemscore.Lipo.Weighted>
-10.2917

> <Gold.Chemscore.Internal_Hbond.Weighted>
0.0000

> <Gold.Chemscore.DEClash.Weighted>
0.1045

> <Gold.Chemscore.DEInternal.Weighted>
1.3812

> <Gold.Chemscore.Rot.Weighted>
3.1150

> <Gold.Chemscore.Internal.Correction.Weighted>
   9.000000E+99

> <Gold.Protein.RotatedTorsions>
[ 6907 6896 6895 6894 ] final   41.13 input  -60.11 | X-H torsion
[ 7974 7965 7964 7962 ] final -172.14 input  175.53 | X-H torsion
[ 8008 7997 7996 7995 ] final  -23.36 input   59.86 | X-H torsion
[ 10167 10162 10161 10158 ] final -100.78 input  -65.29 | X-H torsion
[ 10718 10713 10712 10709 ] final   20.68 input   66.30 | X-H torsion
[ 10763 10752 10751 10750 ] final  -83.95 input  -60.55 | X-H torsion
[ 11005 11000 10999 10996 ] final  119.61 input  -57.11 | X-H torsion

> <Gold.Protein.ActiveResidues>
 VAL166  LYS551  ARG553  GLY616  TRP617  ASP618  TYR619  PRO620  LYS621  CYS622 
 ASP623  PHE694  ASN695  SER759  ASP760  ASP761  ALA762  ILE779  LEU786  VAL792 
 PHE793  MET794  SER795  GLU796  ALA797  LYS798  CYS799  TRP800  GLU811  SER814 

> <Gold.Protein.RotatedAtoms>
  152.1914  134.8669  160.0516 H   0  0  0  0  0  0  0  0  0  0  0  0  # atno 6907 bound_to 6896
  151.9556  133.3674  159.4024 H   0  0  0  0  0  0  0  0  0  0  0  0  # atno 6908 bound_to 6896
  150.6936  134.4218  159.5252 H   0  0  0  0  0  0  0  0  0  0  0  0  # atno 6909 bound_to 6896
  144.7149  140.1816  143.6357 H   0  0  0  0  0  0  0  0  0  0  0  0  # atno 7974 bound_to 7965
  154.4590  140.1983  156.0298 H   0  0  0  0  0  0  0  0  0  0  0  0  # atno 8008 bound_to 7997
  156.0803  140.3272  155.7657 H   0  0  0  0  0  0  0  0  0  0  0  0  # atno 8009 bound_to 7997
  155.5122  140.0562  157.2912 H   0  0  0  0  0  0  0  0  0  0  0  0  # atno 8010 bound_to 7997
  140.2483  143.3490  152.0738 H   0  0  0  0  0  0  0  0  0  0  0  0  # atno 10167 bound_to 10162
  157.1279  130.6578  149.5943 H   0  0  0  0  0  0  0  0  0  0  0  0  # atno 10718 bound_to 10713
  154.5937  135.5538  153.7304 H   0  0  0  0  0  0  0  0  0  0  0  0  # atno 10763 bound_to 10752
  153.0127  135.6349  154.1812 H   0  0  0  0  0  0  0  0  0  0  0  0  # atno 10764 bound_to 10752
  154.1753  135.2890  155.3048 H   0  0  0  0  0  0  0  0  0  0  0  0  # atno 10765 bound_to 10752
  139.9153  134.9629  156.7682 H   0  0  0  0  0  0  0  0  0  0  0  0  # atno 11005 bound_to 11000
  145.8851  139.2344  143.1582 LP  0  0  0  0  0  0  0  0  0  0  0  0  # atno 17320 bound_to 7965
  145.9958  140.8563  143.0043 LP  0  0  0  0  0  0  0  0  0  0  0  0  # atno 17321 bound_to 7965
  139.5054  144.6795  151.6044 LP  0  0  0  0  0  0  0  0  0  0  0  0  # atno 17342 bound_to 10162
  140.6060  143.9523  150.6419 LP  0  0  0  0  0  0  0  0  0  0  0  0  # atno 17343 bound_to 10162
  155.9814  130.4821  150.6827 LP  0  0  0  0  0  0  0  0  0  0  0  0  # atno 17370 bound_to 10713
  157.4419  131.0862  151.0935 LP  0  0  0  0  0  0  0  0  0  0  0  0  # atno 17371 bound_to 10713
  140.6642  133.9617  155.7821 LP  0  0  0  0  0  0  0  0  0  0  0  0  # atno 17394 bound_to 11000
  141.0622  134.0329  157.3643 LP  0  0  0  0  0  0  0  0  0  0  0  0  # atno 17395 bound_to 11000

$$$$
