AV-unprocessed.smi:193|AV-procd|sdf|1496|dock9
  -GOLD-   2262019323D 1   1.00000     0.00000
 Structure written by MMmdl.
 62 66  0  0  0  0  0  0  0  0  2 V2000
  147.5185  127.6095  153.0491 C   0  0  0  0  0  0  0  0  0  0  0  0
  147.7774  129.1201  152.9302 C   0  0  2  0  0  0  0  0  0  0  0  0
  148.2713  129.6611  154.2876 C   0  0  0  0  0  0  0  0  0  0  0  0
  148.9917  130.9306  154.2075 N   0  0  0  0  0  0  0  0  0  0  0  0
  149.3920  131.4560  155.3854 C   0  0  0  0  0  0  0  0  0  0  0  0
  150.5904  132.0898  155.4103 N   0  0  0  0  0  0  0  0  0  0  0  0
  151.0375  132.6274  156.5496 C   0  0  0  0  0  0  0  0  0  0  0  0
  150.4511  132.6499  157.7484 N   0  0  0  0  0  0  0  0  0  0  0  0
  149.2364  132.0301  157.7196 C   0  0  0  0  0  0  0  0  0  0  0  0
  148.6332  131.4121  156.5884 C   0  0  0  0  0  0  0  0  0  0  0  0
  147.3881  130.9012  156.9352 N   0  0  0  0  0  0  0  0  0  0  0  0
  147.2677  131.1900  158.2024 C   0  0  0  0  0  0  0  0  0  0  0  0
  148.3299  131.8709  158.7530 N   0  0  0  0  0  0  0  0  0  0  0  0
  148.4582  132.3134  160.1329 C   0  0  0  0  0  0  0  0  0  0  0  0
  147.9763  133.7650  160.3763 C   0  0  0  0  0  0  0  0  0  0  0  0
  146.6272  133.8487  159.9491 O   0  0  0  0  0  0  0  0  0  0  0  0
  148.0333  134.1028  161.8796 C   0  0  0  0  0  0  0  0  0  0  0  0
  147.7275  135.5858  162.1540 C   0  0  0  0  0  0  0  0  0  0  0  0
  148.6114  136.4111  161.4053 O   0  0  0  0  0  0  0  0  0  0  0  0
  148.4577  136.2496  160.0005 C   0  0  0  0  0  0  0  0  0  0  0  0
  148.8036  134.8068  159.5915 C   0  0  0  0  0  0  0  0  0  0  0  0
  148.7453  131.9091  153.1527 C   0  0  0  0  0  0  0  0  0  0  0  0
  147.2530  132.1566  152.8960 C   0  0  0  0  0  0  0  0  0  0  0  0
  146.7101  131.1902  151.9113 N   0  3  2  0  0  0  0  0  0  0  0  0
  145.4908  131.7130  151.2544 C   0  0  2  0  0  0  0  0  0  0  0  0
  145.6316  131.8815  149.7590 C   0  0  0  0  0  0  0  0  0  0  0  0
  145.6617  133.0952  150.6627 C   0  0  1  0  0  0  0  0  0  0  0  0
  144.5120  134.0785  150.6579 C   0  0  0  0  0  0  0  0  0  0  0  0
  146.4852  129.8324  152.4677 C   0  0  0  0  0  0  0  0  0  0  0  0
  146.7434  127.3961  153.7862 H   0  0  0  0  0  0  0  0  0  0  0  0
  148.4205  127.0766  153.3519 H   0  0  0  0  0  0  0  0  0  0  0  0
  147.1981  127.1860  152.0967 H   0  0  0  0  0  0  0  0  0  0  0  0
  148.5566  129.2457  152.1770 H   0  0  0  0  0  0  0  0  0  0  0  0
  147.4320  129.7292  154.9786 H   0  0  0  0  0  0  0  0  0  0  0  0
  148.9640  128.9419  154.7275 H   0  0  0  0  0  0  0  0  0  0  0  0
  152.0025  133.1094  156.4930 H   0  0  0  0  0  0  0  0  0  0  0  0
  146.3927  130.9175  158.7749 H   0  0  0  0  0  0  0  0  0  0  0  0
  147.9022  131.6195  160.7651 H   0  0  0  0  0  0  0  0  0  0  0  0
  149.5049  132.2137  160.4233 H   0  0  0  0  0  0  0  0  0  0  0  0
  146.0749  133.5007  160.6325 H   0  0  0  0  0  0  0  0  0  0  0  0
  147.3463  133.4684  162.4415 H   0  0  0  0  0  0  0  0  0  0  0  0
  149.0315  133.8825  162.2603 H   0  0  0  0  0  0  0  0  0  0  0  0
  146.6917  135.8266  161.9104 H   0  0  0  0  0  0  0  0  0  0  0  0
  147.8597  135.8028  163.2142 H   0  0  0  0  0  0  0  0  0  0  0  0
  147.4412  136.5100  159.7019 H   0  0  0  0  0  0  0  0  0  0  0  0
  149.1226  136.9491  159.4933 H   0  0  0  0  0  0  0  0  0  0  0  0
  149.8644  134.6391  159.7819 H   0  0  0  0  0  0  0  0  0  0  0  0
  148.6630  134.6880  158.5166 H   0  0  0  0  0  0  0  0  0  0  0  0
  149.2095  132.8572  153.4304 H   0  0  0  0  0  0  0  0  0  0  0  0
  149.2487  131.5951  152.2377 H   0  0  0  0  0  0  0  0  0  0  0  0
  146.6681  132.1626  153.8170 H   0  0  0  0  0  0  0  0  0  0  0  0
  147.1609  133.1576  152.4724 H   0  0  0  0  0  0  0  0  0  0  0  0
  144.5399  131.4055  151.6870 H   0  0  0  0  0  0  0  0  0  0  0  0
  146.5678  131.5835  149.2906 H   0  0  0  0  0  0  0  0  0  0  0  0
  144.7411  131.7259  149.1530 H   0  0  0  0  0  0  0  0  0  0  0  0
  146.6348  133.5665  150.7914 H   0  0  0  0  0  0  0  0  0  0  0  0
  143.5606  133.5618  150.5276 H   0  0  0  0  0  0  0  0  0  0  0  0
  144.6338  134.7933  149.8438 H   0  0  0  0  0  0  0  0  0  0  0  0
  144.4840  134.6255  151.6005 H   0  0  0  0  0  0  0  0  0  0  0  0
  146.0225  129.2321  151.6831 H   0  0  0  0  0  0  0  0  0  0  0  0
  145.7573  129.8786  153.2795 H   0  0  0  0  0  0  0  0  0  0  0  0
  147.4025  131.0993  151.1817 H   0  0  0  0  0  0  0  0  0  0  0  0
  1  2  1  0  0  0  0
  1 30  1  0  0  0  0
  1 31  1  0  0  0  0
  1 32  1  0  0  0  0
  2 29  1  0  0  0  0
  2  3  1  0  0  0  0
  2 33  1  0  0  0  0
  3  4  1  0  0  0  0
  3 34  1  0  0  0  0
  3 35  1  0  0  0  0
  4  5  1  0  0  0  0
  4 22  1  0  0  0  0
  5 10  1  0  0  0  0
  5  6  2  0  0  0  0
  6  7  1  0  0  0  0
  7  8  2  0  0  0  0
  7 36  1  0  0  0  0
  8  9  1  0  0  0  0
  9 13  1  0  0  0  0
  9 10  2  0  0  0  0
 10 11  1  0  0  0  0
 11 12  2  0  0  0  0
 12 13  1  0  0  0  0
 12 37  1  0  0  0  0
 13 14  1  0  0  0  0
 14 15  1  0  0  0  0
 14 38  1  0  0  0  0
 14 39  1  0  0  0  0
 15 21  1  0  0  0  0
 15 16  1  0  0  0  0
 15 17  1  0  0  0  0
 16 40  1  0  0  0  0
 17 18  1  0  0  0  0
 17 41  1  0  0  0  0
 17 42  1  0  0  0  0
 18 19  1  0  0  0  0
 18 43  1  0  0  0  0
 18 44  1  0  0  0  0
 19 20  1  0  0  0  0
 20 21  1  0  0  0  0
 20 45  1  0  0  0  0
 20 46  1  0  0  0  0
 21 47  1  0  0  0  0
 21 48  1  0  0  0  0
 22 23  1  0  0  0  0
 22 49  1  0  0  0  0
 22 50  1  0  0  0  0
 23 24  1  0  0  0  0
 23 51  1  0  0  0  0
 23 52  1  0  0  0  0
 24 25  1  0  0  0  0
 24 29  1  0  0  0  0
 24 62  1  0  0  0  0
 25 27  1  0  0  0  0
 25 26  1  0  0  0  0
 25 53  1  0  0  0  0
 26 27  1  0  0  0  0
 26 54  1  0  0  0  0
 26 55  1  0  0  0  0
 27 28  1  0  0  0  0
 27 56  1  0  0  0  0
 28 57  1  0  0  0  0
 28 58  1  0  0  0  0
 28 59  1  0  0  0  0
 29 60  1  0  0  0  0
 29 61  1  0  0  0  0
M  CHG  1  24   1
M  END
> <s_m_source_file>
AV-unprocessed.smi

> <i_m_source_file_index>
193

> <i_lp_mmshare_version>
43012

> <i_f3d_flags>
0

> <s_epik_input>
W0NIM11bQ0BASF0xW0NIMl1bQ0BIXTFOKFtDSDJdMilbQ0gyXVtDSDJdTihbQ0gyXVtDQEhdMltDSDNdKWMobltjSF1uMyljKGMzNCluW2NIXW40W0NIMl1DNShbT0hdKVtDSDJdW0NIMl1PW0NIMl1bQ0gyXTU=

> <s_epik_cmdline>
J2VwaWtfcHl0aG9uJywgJy1waCcsICc3LjAnLCAnLXRuJywgJzgnLCAnLW1hJywgJzIwMCcsICctbWV0YWxfYmluZGluZycsICctaW1hZScsICc8aW5maWxlLm1hZT4nLCAnLW9tYWUnLCAnPG91dGZpbGUubWFlPic=

> <r_lp_tautomer_probability>
1

> <r_epik_Ionization_Penalty>
0.0540825

> <r_epik_Ionization_Penalty_Charging>
0.0538476

> <r_epik_Ionization_Penalty_Neutral>
0.000234891

> <r_epik_State_Penalty>
0.0200719

> <r_epik_Charging_Adjusted_Penalty>
0.0739194

> <i_epik_Tot_Q>
1

> <i_epik_Tot_abs_Q>
1

> <r_epik_Metal_State_Penalty>
0.0199414

> <b_epik_Metal_Only>
0

> <s_lp_Force_Field>
OPLS_2005

> <r_lp_Energy>
53.912

> <b_lp_Chiralities_Consistent>
1

> <s_lp_Variant>
AV-unprocessed.smi:193-1

> <Gold.Version>
5.8.1

> <Gold.Id.Protein>
6NUR|6NUR_protein|mol2

> <Gold.PLP.Fitness>
51.2643

> <Gold.PLP.PLP>
-44.8491

> <Gold.PLP.part.hbond>
-3.0000

> <Gold.PLP.part.metal>
0.0000

> <Gold.PLP.part.buried>
-5.1272

> <Gold.PLP.part.nonpolar>
-36.5395

> <Gold.PLP.part.repulsive>
0.0125

> <Gold.PLP.ligand.clash>
0.0000

> <Gold.PLP.ligand.torsion>
2.0261

> <Gold.PLP.Chemscore.Hbond>
3.0000

> <Gold.PLP.Chemscore.CHOScore>
0.0000

> <Gold.PLP.Chemscore.Metal>
0.0000

> <Gold.Chemscore.Hbonds>
donor molecule, donor type, donor heavy atom, donor atom, acceptor molecule, acceptor atom, score
      L1  H    24    62       P1 10747  1.00
      P1  H  6896  6909       L1     8  1.00
      P1  H  6931  6943       L1    19  1.00

> <Gold.PLP.Chemscore.Internal.Correction>
1.4674

> <Gold.Rescore>
     Score         DG    S(hbond)    S(metal)    S(lipo)     H(rot)  DE(clash)    DE(int)     intcor
     20.86     -23.08       2.96        0.00     108.12       1.93       0.08       2.15       ----

> <Gold.Chemscore.Fitness>
20.8553

> <Gold.Chemscore.DG>
-23.0850

> <Gold.Chemscore.ZeroCoef>
-5.4800

> <Gold.Chemscore.Hbond>
2.9620

> <Gold.Chemscore.Metal>
0.0000

> <Gold.Chemscore.Lipo>
108.1204

> <Gold.Chemscore.Internal_Hbond>
0.0000

> <Gold.Chemscore.DEClash>
0.0778

> <Gold.Chemscore.DEInternal>
2.1519

> <Gold.Chemscore.Rot>
1.9290

> <Gold.Chemscore.Internal.Correction>
   9.000000E+99

> <Gold.Chemscore.Hbonds>
donor molecule, donor type, donor heavy atom, donor atom, acceptor molecule, acceptor atom, score
      L1  H    24    62       P1 10747  1.00
      P1  H  6896  6909       L1     8  0.99
      P1  H  6931  6943       L1    19  0.84

> <Gold.Chemscore.Hbond.Weighted>
-9.8932

> <Gold.Chemscore.Metal.Weighted>
-0.0000

> <Gold.Chemscore.Lipo.Weighted>
-12.6501

> <Gold.Chemscore.Internal_Hbond.Weighted>
0.0000

> <Gold.Chemscore.DEClash.Weighted>
0.0778

> <Gold.Chemscore.DEInternal.Weighted>
2.1519

> <Gold.Chemscore.Rot.Weighted>
4.9383

> <Gold.Chemscore.Internal.Correction.Weighted>
   9.000000E+99

> <Gold.Protein.RotatedTorsions>
[ 6907 6896 6895 6894 ] final  -23.23 input  -60.11 | X-H torsion
[ 7974 7965 7964 7962 ] final   32.34 input  175.53 | X-H torsion
[ 8008 7997 7996 7995 ] final  -69.84 input   59.86 | X-H torsion
[ 10167 10162 10161 10158 ] final -143.58 input  -65.29 | X-H torsion
[ 10718 10713 10712 10709 ] final -117.71 input   66.30 | X-H torsion
[ 10763 10752 10751 10750 ] final  -38.62 input  -60.55 | X-H torsion
[ 11005 11000 10999 10996 ] final   39.72 input  -57.11 | X-H torsion

> <Gold.Protein.ActiveResidues>
 VAL166  LYS551  ARG553  GLY616  TRP617  ASP618  TYR619  PRO620  LYS621  CYS622 
 ASP623  PHE694  ASN695  SER759  ASP760  ASP761  ALA762  ILE779  LEU786  VAL792 
 PHE793  MET794  SER795  GLU796  ALA797  LYS798  CYS799  TRP800  GLU811  SER814 

> <Gold.Protein.RotatedAtoms>
  151.2070  135.0466  159.8895 H   0  0  0  0  0  0  0  0  0  0  0  0  # atno 6907 bound_to 6896
  152.5428  134.0786  159.8236 H   0  0  0  0  0  0  0  0  0  0  0  0  # atno 6908 bound_to 6896
  151.0935  133.5250  159.2645 H   0  0  0  0  0  0  0  0  0  0  0  0  # atno 6909 bound_to 6896
  146.1493  139.6539  142.9110 H   0  0  0  0  0  0  0  0  0  0  0  0  # atno 7974 bound_to 7965
  154.4968  140.0846  156.7713 H   0  0  0  0  0  0  0  0  0  0  0  0  # atno 8008 bound_to 7997
  155.4098  140.3441  155.4244 H   0  0  0  0  0  0  0  0  0  0  0  0  # atno 8009 bound_to 7997
  156.1404  140.1528  156.8917 H   0  0  0  0  0  0  0  0  0  0  0  0  # atno 8010 bound_to 7997
  139.7980  143.7873  152.2656 H   0  0  0  0  0  0  0  0  0  0  0  0  # atno 10167 bound_to 10162
  156.1053  130.6205  150.9198 H   0  0  0  0  0  0  0  0  0  0  0  0  # atno 10718 bound_to 10713
  153.9159  135.6787  153.4749 H   0  0  0  0  0  0  0  0  0  0  0  0  # atno 10763 bound_to 10752
  153.1054  135.4808  154.8938 H   0  0  0  0  0  0  0  0  0  0  0  0  # atno 10764 bound_to 10752
  154.7503  135.3183  154.8526 H   0  0  0  0  0  0  0  0  0  0  0  0  # atno 10765 bound_to 10752
  140.2000  134.3882  155.8101 H   0  0  0  0  0  0  0  0  0  0  0  0  # atno 11005 bound_to 11000
  145.4863  141.0438  143.2618 LP  0  0  0  0  0  0  0  0  0  0  0  0  # atno 17320 bound_to 7965
  144.7884  139.6379  143.7124 LP  0  0  0  0  0  0  0  0  0  0  0  0  # atno 17321 bound_to 7965
  139.7984  144.7383  150.9858 LP  0  0  0  0  0  0  0  0  0  0  0  0  # atno 17342 bound_to 10162
  140.7820  143.4370  151.0609 LP  0  0  0  0  0  0  0  0  0  0  0  0  # atno 17343 bound_to 10162
  157.6229  131.0928  150.8589 LP  0  0  0  0  0  0  0  0  0  0  0  0  # atno 17370 bound_to 10713
  156.8709  130.5146  149.5297 LP  0  0  0  0  0  0  0  0  0  0  0  0  # atno 17371 bound_to 10713
  141.2227  133.7089  156.8241 LP  0  0  0  0  0  0  0  0  0  0  0  0  # atno 17394 bound_to 11000
  140.2065  134.8859  157.3227 LP  0  0  0  0  0  0  0  0  0  0  0  0  # atno 17395 bound_to 11000

$$$$
