AV-unprocessed.smi:362|AV-procd|sdf|2422|dock7
  -GOLD-   2262022363D 1   1.00000     0.00000
 Structure written by MMmdl.
 35 37  0  0  0  0  0  0  0  0  2 V2000
  150.2933  140.6191  157.8247 O   0  0  0  0  0  0  0  0  0  0  0  0
  151.1071  141.2589  157.1573 C   0  0  0  0  0  0  0  0  0  0  0  0
  151.4319  140.8381  155.7181 C   0  0  0  0  0  0  0  0  0  0  0  0
  151.3548  139.3812  155.5258 N   0  0  0  0  0  0  0  0  0  0  0  0
  150.1252  138.7502  155.7838 C   0  0  0  0  0  0  0  0  0  0  0  0
  149.9652  137.4208  155.6402 C   0  0  0  0  0  0  0  0  0  0  0  0
  151.1098  136.6310  155.2029 C   0  0  0  0  0  0  0  0  0  0  0  0
  150.9800  135.4168  155.0596 O   0  0  0  0  0  0  0  0  0  0  0  0
  152.2835  137.2887  154.9707 N   0  5  0  0  0  0  0  0  0  0  0  0
  152.4324  138.6411  155.1245 C   0  0  0  0  0  0  0  0  0  0  0  0
  153.5018  139.2147  154.9126 O   0  0  0  0  0  0  0  0  0  0  0  0
  151.7403  142.3539  157.6083 N   0  0  0  0  0  0  0  0  0  0  0  0
  151.6328  142.9386  158.9431 C   0  0  0  0  0  0  0  0  0  0  0  0
  151.1209  144.3715  158.9404 C   0  0  0  0  0  0  0  0  0  0  0  0
  152.0663  145.5435  159.0517 C   0  0  0  0  0  0  0  0  0  0  0  0
  151.1377  145.2068  160.1974 C   0  0  0  0  0  0  0  0  0  0  0  0
  152.9002  142.8153  159.7761 C   0  0  0  0  0  0  0  0  0  0  0  0
  153.2627  141.5206  160.4627 C   0  0  0  0  0  0  0  0  0  0  0  0
  152.8407  142.7197  161.2822 C   0  0  0  0  0  0  0  0  0  0  0  0
  150.7382  141.3502  155.0503 H   0  0  0  0  0  0  0  0  0  0  0  0
  152.4224  141.2006  155.4354 H   0  0  0  0  0  0  0  0  0  0  0  0
  149.3309  139.4055  156.1098 H   0  0  0  0  0  0  0  0  0  0  0  0
  149.0151  136.9503  155.8464 H   0  0  0  0  0  0  0  0  0  0  0  0
  152.3849  142.8053  156.9758 H   0  0  0  0  0  0  0  0  0  0  0  0
  150.8715  142.3362  159.4403 H   0  0  0  0  0  0  0  0  0  0  0  0
  150.2637  144.5273  158.2879 H   0  0  0  0  0  0  0  0  0  0  0  0
  153.1252  145.3348  159.1900 H   0  0  0  0  0  0  0  0  0  0  0  0
  151.8383  146.4287  158.4616 H   0  0  0  0  0  0  0  0  0  0  0  0
  150.2883  145.8641  160.3710 H   0  0  0  0  0  0  0  0  0  0  0  0
  151.5780  144.7681  161.0905 H   0  0  0  0  0  0  0  0  0  0  0  0
  153.7376  143.3897  159.3843 H   0  0  0  0  0  0  0  0  0  0  0  0
  152.5609  140.6923  160.3870 H   0  0  0  0  0  0  0  0  0  0  0  0
  154.3141  141.2411  160.4817 H   0  0  0  0  0  0  0  0  0  0  0  0
  153.6107  143.2400  161.8481 H   0  0  0  0  0  0  0  0  0  0  0  0
  151.8607  142.6824  161.7534 H   0  0  0  0  0  0  0  0  0  0  0  0
  1  2  2  0  0  0  0
  2  3  1  0  0  0  0
  2 12  1  0  0  0  0
  3  4  1  0  0  0  0
  3 20  1  0  0  0  0
  3 21  1  0  0  0  0
  4 10  1  0  0  0  0
  4  5  1  0  0  0  0
  5  6  2  0  0  0  0
  5 22  1  0  0  0  0
  6  7  1  0  0  0  0
  6 23  1  0  0  0  0
  7  8  2  0  0  0  0
  7  9  1  0  0  0  0
  9 10  1  0  0  0  0
 10 11  2  0  0  0  0
 12 13  1  0  0  0  0
 12 24  1  0  0  0  0
 13 14  1  0  0  0  0
 13 17  1  0  0  0  0
 13 25  1  0  0  0  0
 14 16  1  0  0  0  0
 14 15  1  0  0  0  0
 14 26  1  0  0  0  0
 15 16  1  0  0  0  0
 15 27  1  0  0  0  0
 15 28  1  0  0  0  0
 16 29  1  0  0  0  0
 16 30  1  0  0  0  0
 17 19  1  0  0  0  0
 17 18  1  0  0  0  0
 17 31  1  0  0  0  0
 18 19  1  0  0  0  0
 18 32  1  0  0  0  0
 18 33  1  0  0  0  0
 19 34  1  0  0  0  0
 19 35  1  0  0  0  0
M  CHG  1   9  -1
M  END
> <s_m_source_file>
AV-unprocessed.smi

> <i_m_source_file_index>
362

> <i_lp_mmshare_version>
43012

> <i_f3d_flags>
0

> <s_epik_input>
W0NIMl0xW0NIMl1bQ0hdMVtDSF0oW0NIXTJbQ0gyXVtDSDJdMilbTkhdQyg9TylbQ0gyXW4zW2NIXVtjSF1jKD1PKVtuSF1jMz1P

> <s_epik_cmdline>
J2VwaWtfcHl0aG9uJywgJy1waCcsICc3LjAnLCAnLXRuJywgJzgnLCAnLW1hJywgJzIwMCcsICctbWV0YWxfYmluZGluZycsICctaW1hZScsICc8aW5maWxlLm1hZT4nLCAnLW9tYWUnLCAnPG91dGZpbGUubWFlPic=

> <r_lp_tautomer_probability>
0.999537

> <r_epik_Ionization_Penalty>
3.10326

> <r_epik_Ionization_Penalty_Charging>
2.95532e-08

> <r_epik_Ionization_Penalty_Neutral>
3.10326

> <r_epik_State_Penalty>
3.10233

> <r_epik_Charging_Adjusted_Penalty>
3.10233

> <i_epik_Tot_Q>
-1

> <i_epik_Tot_abs_Q>
1

> <r_epik_Metal_State_Penalty>
0.461987

> <b_epik_Metal_Only>
1

> <s_lp_Force_Field>
OPLS_2005

> <r_lp_Energy>
32.875

> <b_lp_Chiralities_Consistent>
1

> <s_lp_Variant>
AV-unprocessed.smi:362-2

> <Gold.Version>
5.8.1

> <Gold.Id.Protein>
6NUR|6NUR_protein|mol2

> <Gold.PLP.Fitness>
48.5204

> <Gold.PLP.PLP>
-40.3882

> <Gold.PLP.part.hbond>
-2.0000

> <Gold.PLP.part.metal>
0.0000

> <Gold.PLP.part.buried>
-4.5635

> <Gold.PLP.part.nonpolar>
-33.4795

> <Gold.PLP.part.repulsive>
0.2794

> <Gold.PLP.ligand.clash>
0.0000

> <Gold.PLP.ligand.torsion>
1.4988

> <Gold.PLP.Chemscore.Hbond>
2.9840

> <Gold.PLP.Chemscore.CHOScore>
0.0000

> <Gold.PLP.Chemscore.Metal>
0.0000

> <Gold.Chemscore.Hbonds>
donor molecule, donor type, donor heavy atom, donor atom, acceptor molecule, acceptor atom, score
      P1  H  7997  8009       L1    11  0.86
      P1  H 10752 10765       L1     9  0.45

> <Gold.PLP.Chemscore.Internal.Correction>
2.1779

> <Gold.Rescore>
     Score         DG    S(hbond)    S(metal)    S(lipo)     H(rot)  DE(clash)    DE(int)     intcor
     13.36     -16.33       1.72        0.00      89.55       2.09       0.06       2.91       ----

> <Gold.Chemscore.Fitness>
13.3586

> <Gold.Chemscore.DG>
-16.3303

> <Gold.Chemscore.ZeroCoef>
-5.4800

> <Gold.Chemscore.Hbond>
1.7157

> <Gold.Chemscore.Metal>
0.0000

> <Gold.Chemscore.Lipo>
89.5528

> <Gold.Chemscore.Internal_Hbond>
0.0000

> <Gold.Chemscore.DEClash>
0.0603

> <Gold.Chemscore.DEInternal>
2.9114

> <Gold.Chemscore.Rot>
2.0929

> <Gold.Chemscore.Internal.Correction>
   9.000000E+99

> <Gold.Chemscore.Hbonds>
donor molecule, donor type, donor heavy atom, donor atom, acceptor molecule, acceptor atom, score
      P1  H  7997  8009       L1    11  0.84

> <Gold.Chemscore.Hbond.Weighted>
-5.7306

> <Gold.Chemscore.Metal.Weighted>
-0.0000

> <Gold.Chemscore.Lipo.Weighted>
-10.4777

> <Gold.Chemscore.Internal_Hbond.Weighted>
0.0000

> <Gold.Chemscore.DEClash.Weighted>
0.0603

> <Gold.Chemscore.DEInternal.Weighted>
2.9114

> <Gold.Chemscore.Rot.Weighted>
5.3579

> <Gold.Chemscore.Internal.Correction.Weighted>
   9.000000E+99

> <Gold.Protein.RotatedTorsions>
[ 6907 6896 6895 6894 ] final  -18.87 input  -60.11 | X-H torsion
[ 7974 7965 7964 7962 ] final -142.64 input  175.53 | X-H torsion
[ 8008 7997 7996 7995 ] final -152.23 input   59.86 | X-H torsion
[ 10167 10162 10161 10158 ] final  -85.34 input  -65.29 | X-H torsion
[ 10718 10713 10712 10709 ] final   43.60 input   66.30 | X-H torsion
[ 10763 10752 10751 10750 ] final  178.53 input  -60.55 | X-H torsion
[ 11005 11000 10999 10996 ] final  179.64 input  -57.11 | X-H torsion

> <Gold.Protein.ActiveResidues>
 VAL166  LYS551  ARG553  GLY616  TRP617  ASP618  TYR619  PRO620  LYS621  CYS622 
 ASP623  PHE694  ASN695  SER759  ASP760  ASP761  ALA762  ILE779  LEU786  VAL792 
 PHE793  MET794  SER795  GLU796  ALA797  LYS798  CYS799  TRP800  GLU811  SER814 

> <Gold.Protein.RotatedAtoms>
  151.2716  135.0686  159.9135 H   0  0  0  0  0  0  0  0  0  0  0  0  # atno 6907 bound_to 6896
  152.5349  134.0124  159.7955 H   0  0  0  0  0  0  0  0  0  0  0  0  # atno 6908 bound_to 6896
  151.0363  133.5695  159.2686 H   0  0  0  0  0  0  0  0  0  0  0  0  # atno 6909 bound_to 6896
  144.8428  140.5933  143.5441 H   0  0  0  0  0  0  0  0  0  0  0  0  # atno 7974 bound_to 7965
  155.6519  140.0713  157.2584 H   0  0  0  0  0  0  0  0  0  0  0  0  # atno 8008 bound_to 7997
  154.4160  140.1732  156.1734 H   0  0  0  0  0  0  0  0  0  0  0  0  # atno 8009 bound_to 7997
  155.9770  140.3357  155.6631 H   0  0  0  0  0  0  0  0  0  0  0  0  # atno 8010 bound_to 7997
  140.4047  143.2648  151.9097 H   0  0  0  0  0  0  0  0  0  0  0  0  # atno 10167 bound_to 10162
  157.4177  130.7951  149.7487 H   0  0  0  0  0  0  0  0  0  0  0  0  # atno 10718 bound_to 10713
  154.5089  135.2787  155.1359 H   0  0  0  0  0  0  0  0  0  0  0  0  # atno 10763 bound_to 10752
  154.2962  135.6257  153.5409 H   0  0  0  0  0  0  0  0  0  0  0  0  # atno 10764 bound_to 10752
  152.9915  135.5686  154.5550 H   0  0  0  0  0  0  0  0  0  0  0  0  # atno 10765 bound_to 10752
  140.4084  134.6714  157.4601 H   0  0  0  0  0  0  0  0  0  0  0  0  # atno 11005 bound_to 11000
  145.4659  139.1508  143.3841 LP  0  0  0  0  0  0  0  0  0  0  0  0  # atno 17320 bound_to 7965
  146.2718  140.4790  142.8811 LP  0  0  0  0  0  0  0  0  0  0  0  0  # atno 17321 bound_to 7965
  139.4784  144.5598  151.8256 LP  0  0  0  0  0  0  0  0  0  0  0  0  # atno 17342 bound_to 10162
  140.4703  144.1597  150.5917 LP  0  0  0  0  0  0  0  0  0  0  0  0  # atno 17343 bound_to 10162
  155.9870  130.3970  150.3184 LP  0  0  0  0  0  0  0  0  0  0  0  0  # atno 17370 bound_to 10713
  157.1329  131.0276  151.2961 LP  0  0  0  0  0  0  0  0  0  0  0  0  # atno 17371 bound_to 10713
  140.0285  134.6441  155.9139 LP  0  0  0  0  0  0  0  0  0  0  0  0  # atno 17394 bound_to 11000
  141.1830  133.6550  156.5100 LP  0  0  0  0  0  0  0  0  0  0  0  0  # atno 17395 bound_to 11000

$$$$
