AV-unprocessed.smi:2743|AV-procd|sdf|10566|dock9
  -GOLD-   2272015 23D 1   1.00000     0.00000
 Structure written by MMmdl.
 38 39  0  0  0  0  0  0  0  0  1 V2000
  148.5593  136.6993  160.9217 N   0  0  0  0  0  0  0  0  0  0  0  0
  148.1875  136.7363  159.8262 C   0  0  0  0  0  0  0  0  0  0  0  0
  147.7130  136.7863  158.4331 C   0  0  0  0  0  0  0  0  0  0  0  0
  147.4061  138.2018  157.9438 C   0  0  0  0  0  0  0  0  0  0  0  0
  146.5894  138.9072  158.5359 O   0  0  0  0  0  0  0  0  0  0  0  0
  148.0669  138.5990  156.8456 N   0  0  0  0  0  0  0  0  0  0  0  0
  147.9226  139.8955  156.1835 C   0  0  0  0  0  0  0  0  0  0  0  0
  148.7750  140.0201  154.8847 C   0  0  0  0  0  0  0  0  0  0  0  0
  150.2603  139.7955  155.2478 C   0  0  0  0  0  0  0  0  0  0  0  0
  150.8465  140.5204  156.3133 C   0  0  0  0  0  0  0  0  0  0  0  0
  152.1978  140.2964  156.6416 C   0  0  0  0  0  0  0  0  0  0  0  0
  152.9807  139.4101  155.9943 N   0  0  0  0  0  0  0  0  0  0  0  0
  152.4271  138.7086  154.9845 C   0  0  0  0  0  0  0  0  0  0  0  0
  151.0867  138.8589  154.5767 C   0  0  0  0  0  0  0  0  0  0  0  0
  148.2879  139.0039  153.8039 C   0  0  0  0  0  0  0  0  0  0  0  0
  146.8820  139.2925  153.2473 C   0  0  0  0  0  0  0  0  0  0  0  0
  146.7967  140.7095  152.6710 C   0  0  0  0  0  0  0  0  0  0  0  0
  147.2148  141.7473  153.7181 C   0  0  0  0  0  0  0  0  0  0  0  0
  148.6161  141.4474  154.2823 C   0  0  0  0  0  0  0  0  0  0  0  0
  148.4757  136.3307  157.8008 H   0  0  0  0  0  0  0  0  0  0  0  0
  146.8132  136.1752  158.3592 H   0  0  0  0  0  0  0  0  0  0  0  0
  148.7153  137.9491  156.4251 H   0  0  0  0  0  0  0  0  0  0  0  0
  146.8715  140.1175  156.0020 H   0  0  0  0  0  0  0  0  0  0  0  0
  148.2455  140.6466  156.9048 H   0  0  0  0  0  0  0  0  0  0  0  0
  150.2766  141.2379  156.8839 H   0  0  0  0  0  0  0  0  0  0  0  0
  152.6598  140.8423  157.4508 H   0  0  0  0  0  0  0  0  0  0  0  0
  153.0718  138.0000  154.4860 H   0  0  0  0  0  0  0  0  0  0  0  0
  150.7280  138.2481  153.7632 H   0  0  0  0  0  0  0  0  0  0  0  0
  148.9747  139.0258  152.9565 H   0  0  0  0  0  0  0  0  0  0  0  0
  148.3127  137.9837  154.1868 H   0  0  0  0  0  0  0  0  0  0  0  0
  146.6411  138.5671  152.4698 H   0  0  0  0  0  0  0  0  0  0  0  0
  146.1283  139.1603  154.0231 H   0  0  0  0  0  0  0  0  0  0  0  0
  147.4450  140.7893  151.7972 H   0  0  0  0  0  0  0  0  0  0  0  0
  145.7831  140.9129  152.3251 H   0  0  0  0  0  0  0  0  0  0  0  0
  147.2063  142.7411  153.2697 H   0  0  0  0  0  0  0  0  0  0  0  0
  146.4816  141.7756  154.5242 H   0  0  0  0  0  0  0  0  0  0  0  0
  148.8574  142.2116  155.0207 H   0  0  0  0  0  0  0  0  0  0  0  0
  149.3402  141.5739  153.4757 H   0  0  0  0  0  0  0  0  0  0  0  0
  1  2  3  0  0  0  0
  2  3  1  0  0  0  0
  3  4  1  0  0  0  0
  3 20  1  0  0  0  0
  3 21  1  0  0  0  0
  4  5  2  0  0  0  0
  4  6  1  0  0  0  0
  6  7  1  0  0  0  0
  6 22  1  0  0  0  0
  7  8  1  0  0  0  0
  7 23  1  0  0  0  0
  7 24  1  0  0  0  0
  8 19  1  0  0  0  0
  8  9  1  0  0  0  0
  8 15  1  0  0  0  0
  9 14  1  0  0  0  0
  9 10  2  0  0  0  0
 10 11  1  0  0  0  0
 10 25  1  0  0  0  0
 11 12  2  0  0  0  0
 11 26  1  0  0  0  0
 12 13  1  0  0  0  0
 13 14  2  0  0  0  0
 13 27  1  0  0  0  0
 14 28  1  0  0  0  0
 15 16  1  0  0  0  0
 15 29  1  0  0  0  0
 15 30  1  0  0  0  0
 16 17  1  0  0  0  0
 16 31  1  0  0  0  0
 16 32  1  0  0  0  0
 17 18  1  0  0  0  0
 17 33  1  0  0  0  0
 17 34  1  0  0  0  0
 18 19  1  0  0  0  0
 18 35  1  0  0  0  0
 18 36  1  0  0  0  0
 19 37  1  0  0  0  0
 19 38  1  0  0  0  0
M  END
> <s_m_source_file>
AV-unprocessed.smi

> <i_m_source_file_index>
2743

> <i_lp_mmshare_version>
43012

> <i_f3d_flags>
0

> <s_epik_input>
TiNDW0NIMl1DKD1PKVtOSF1bQ0gyXUMxKFtDSDJdW0NIMl1bQ0gyXVtDSDJdW0NIMl0xKWMyW2NIXVtjSF1uW2NIXVtjSF0y

> <s_epik_cmdline>
J2VwaWtfcHl0aG9uJywgJy1waCcsICc3LjAnLCAnLXRuJywgJzgnLCAnLW1hJywgJzIwMCcsICctbWV0YWxfYmluZGluZycsICctaW1hZScsICc8aW5maWxlLm1hZT4nLCAnLW9tYWUnLCAnPG91dGZpbGUubWFlPic=

> <r_epik_Ionization_Penalty>
0.0541122

> <r_epik_Ionization_Penalty_Charging>
0

> <r_epik_Ionization_Penalty_Neutral>
0.0541122

> <r_epik_State_Penalty>
0.0465294

> <r_epik_Charging_Adjusted_Penalty>
0.0465294

> <i_epik_Tot_Q>
0

> <i_epik_Tot_abs_Q>
0

> <r_epik_Metal_State_Penalty>
0.042555

> <b_epik_Metal_Only>
0

> <s_lp_Force_Field>
OPLS_2005

> <r_lp_Energy>
19.5313

> <b_lp_Chiralities_Consistent>
1

> <s_lp_Variant>
AV-unprocessed.smi:2743-1

> <Gold.Version>
5.8.1

> <Gold.Id.Protein>
6NUR|6NUR_protein|mol2

> <Gold.PLP.Fitness>
36.0456

> <Gold.PLP.PLP>
-30.3775

> <Gold.PLP.part.hbond>
-3.0000

> <Gold.PLP.part.metal>
0.0000

> <Gold.PLP.part.buried>
-1.5147

> <Gold.PLP.part.nonpolar>
-24.9022

> <Gold.PLP.part.repulsive>
0.0286

> <Gold.PLP.ligand.clash>
0.0000

> <Gold.PLP.ligand.torsion>
0.1899

> <Gold.PLP.Chemscore.Hbond>
2.0091

> <Gold.PLP.Chemscore.CHOScore>
0.0000

> <Gold.PLP.Chemscore.Metal>
0.0000

> <Gold.Chemscore.Hbonds>
donor molecule, donor type, donor heavy atom, donor atom, acceptor molecule, acceptor atom, score
      P1  H  6931  6943       L1     1  1.00
      P1  H  6934  6947       L1     5  0.01
      P1  H  7997  8009       L1    12  1.00

> <Gold.PLP.Chemscore.Internal.Correction>
0.0207

> <Gold.Rescore>
     Score         DG    S(hbond)    S(metal)    S(lipo)     H(rot)  DE(clash)    DE(int)     intcor
     15.91     -16.34       1.86        0.00      78.83       1.79       0.20       0.22       ----

> <Gold.Chemscore.Fitness>
15.9140

> <Gold.Chemscore.DG>
-16.3366

> <Gold.Chemscore.ZeroCoef>
-5.4800

> <Gold.Chemscore.Hbond>
1.8606

> <Gold.Chemscore.Metal>
0.0000

> <Gold.Chemscore.Lipo>
78.8314

> <Gold.Chemscore.Internal_Hbond>
0.0000

> <Gold.Chemscore.DEClash>
0.2032

> <Gold.Chemscore.DEInternal>
0.2195

> <Gold.Chemscore.Rot>
1.7895

> <Gold.Chemscore.Internal.Correction>
   9.000000E+99

> <Gold.Chemscore.Hbonds>
donor molecule, donor type, donor heavy atom, donor atom, acceptor molecule, acceptor atom, score
      P1  H  6931  6943       L1     1  0.97
      P1  H  6934  6947       L1     5  0.01
      P1  H  7997  8009       L1    12  0.25

> <Gold.Chemscore.Hbond.Weighted>
-6.2145

> <Gold.Chemscore.Metal.Weighted>
-0.0000

> <Gold.Chemscore.Lipo.Weighted>
-9.2233

> <Gold.Chemscore.Internal_Hbond.Weighted>
0.0000

> <Gold.Chemscore.DEClash.Weighted>
0.2032

> <Gold.Chemscore.DEInternal.Weighted>
0.2195

> <Gold.Chemscore.Rot.Weighted>
4.5812

> <Gold.Chemscore.Internal.Correction.Weighted>
   9.000000E+99

> <Gold.Protein.RotatedTorsions>
[ 6907 6896 6895 6894 ] final -105.96 input  -60.11 | X-H torsion
[ 7974 7965 7964 7962 ] final -106.32 input  175.53 | X-H torsion
[ 8008 7997 7996 7995 ] final -149.03 input   59.86 | X-H torsion
[ 10167 10162 10161 10158 ] final   88.29 input  -65.29 | X-H torsion
[ 10718 10713 10712 10709 ] final  123.67 input   66.30 | X-H torsion
[ 10763 10752 10751 10750 ] final   59.57 input  -60.55 | X-H torsion
[ 11005 11000 10999 10996 ] final  161.12 input  -57.11 | X-H torsion

> <Gold.Protein.ActiveResidues>
 VAL166  LYS551  ARG553  GLY616  TRP617  ASP618  TYR619  PRO620  LYS621  CYS622 
 ASP623  PHE694  ASN695  SER759  ASP760  ASP761  ALA762  ILE779  LEU786  VAL792 
 PHE793  MET794  SER795  GLU796  ALA797  LYS798  CYS799  TRP800  GLU811  SER814 

> <Gold.Protein.RotatedAtoms>
  150.7364  134.0048  159.3649 H   0  0  0  0  0  0  0  0  0  0  0  0  # atno 6907 bound_to 6896
  151.8004  135.0708  160.0409 H   0  0  0  0  0  0  0  0  0  0  0  0  # atno 6908 bound_to 6896
  152.3144  133.5751  159.5739 H   0  0  0  0  0  0  0  0  0  0  0  0  # atno 6909 bound_to 6896
  145.2194  140.9128  143.3268 H   0  0  0  0  0  0  0  0  0  0  0  0  # atno 7974 bound_to 7965
  155.6012  140.0662  157.2732 H   0  0  0  0  0  0  0  0  0  0  0  0  # atno 8008 bound_to 7997
  154.4278  140.1818  156.1222 H   0  0  0  0  0  0  0  0  0  0  0  0  # atno 8009 bound_to 7997
  156.0158  140.3322  155.6991 H   0  0  0  0  0  0  0  0  0  0  0  0  # atno 8010 bound_to 7997
  139.8688  144.6504  150.8973 H   0  0  0  0  0  0  0  0  0  0  0  0  # atno 10167 bound_to 10162
  157.5646  131.1087  150.8477 H   0  0  0  0  0  0  0  0  0  0  0  0  # atno 10718 bound_to 10713
  152.9898  135.5567  154.5734 H   0  0  0  0  0  0  0  0  0  0  0  0  # atno 10763 bound_to 10752
  154.5130  135.2803  155.1329 H   0  0  0  0  0  0  0  0  0  0  0  0  # atno 10764 bound_to 10752
  154.2713  135.6362  153.5364 H   0  0  0  0  0  0  0  0  0  0  0  0  # atno 10765 bound_to 10752
  140.2126  134.8256  157.3137 H   0  0  0  0  0  0  0  0  0  0  0  0  # atno 11005 bound_to 11000
  144.9780  139.3812  143.6276 LP  0  0  0  0  0  0  0  0  0  0  0  0  # atno 17320 bound_to 7965
  146.3379  139.8908  142.8809 LP  0  0  0  0  0  0  0  0  0  0  0  0  # atno 17321 bound_to 7965
  140.7764  143.3681  151.1700 LP  0  0  0  0  0  0  0  0  0  0  0  0  # atno 17342 bound_to 10162
  139.7304  143.9082  152.3017 LP  0  0  0  0  0  0  0  0  0  0  0  0  # atno 17343 bound_to 10162
  156.8965  130.5231  149.5284 LP  0  0  0  0  0  0  0  0  0  0  0  0  # atno 17370 bound_to 10713
  156.0696  130.5731  150.9356 LP  0  0  0  0  0  0  0  0  0  0  0  0  # atno 17371 bound_to 10713
  140.1934  134.4343  155.7702 LP  0  0  0  0  0  0  0  0  0  0  0  0  # atno 17394 bound_to 11000
  141.2226  133.7038  156.8065 LP  0  0  0  0  0  0  0  0  0  0  0  0  # atno 17395 bound_to 11000

$$$$
