AV-unprocessed.smi:2178|AV-procd|sdf|8852|dock5
  -GOLD-   2272012 43D 1   1.00000     0.00000
 Structure written by MMmdl.
 46 48  0  0  0  0  0  0  0  0  1 V2000
  147.5972  141.4769  154.7648 C   0  0  0  0  0  0  0  0  0  0  0  0
  148.9183  140.7645  154.9900 C   0  0  0  0  0  0  0  0  0  0  0  0
  150.0247  141.4978  155.4657 C   0  0  0  0  0  0  0  0  0  0  0  0
  151.2648  140.8632  155.6639 C   0  0  0  0  0  0  0  0  0  0  0  0
  151.4064  139.4922  155.3821 C   0  0  0  0  0  0  0  0  0  0  0  0
  150.3063  138.7477  154.9087 C   0  0  0  0  0  0  0  0  0  0  0  0
  150.4740  137.2714  154.6012 C   0  0  0  0  0  0  0  0  0  0  0  0
  149.0547  139.3802  154.7254 C   0  0  0  0  0  0  0  0  0  0  0  0
  147.9890  138.6507  154.2650 O   0  0  0  0  0  0  0  0  0  0  0  0
  147.5266  139.0602  152.9862 C   0  0  0  0  0  0  0  0  0  0  0  0
  146.4106  138.1071  152.5332 C   0  0  2  0  0  0  0  0  0  0  0  0
  145.6601  138.7441  151.5175 O   0  0  0  0  0  0  0  0  0  0  0  0
  145.4711  137.7286  153.6958 C   0  0  0  0  0  0  0  0  0  0  0  0
  144.4964  136.7118  153.3231 N   0  0  0  0  0  0  0  0  0  0  0  0
  143.1462  136.7617  153.4494 C   0  0  0  0  0  0  0  0  0  0  0  0
  142.4392  137.9535  154.0185 C   0  0  0  0  0  0  0  0  0  0  0  0
  141.5966  138.5866  153.0799 O   0  0  0  0  0  0  0  0  0  0  0  0
  142.4832  135.6844  153.0280 N   0  0  0  0  0  0  0  0  0  0  0  0
  143.4973  134.8585  152.5840 C   0  0  0  0  0  0  0  0  0  0  0  0
  143.4451  133.5644  152.0185 C   0  0  0  0  0  0  0  0  0  0  0  0
  144.6309  132.9050  151.6337 C   0  0  0  0  0  0  0  0  0  0  0  0
  145.8830  133.5294  151.8078 C   0  0  0  0  0  0  0  0  0  0  0  0
  145.9574  134.8189  152.3687 C   0  0  0  0  0  0  0  0  0  0  0  0
  144.7709  135.4724  152.7523 C   0  0  0  0  0  0  0  0  0  0  0  0
  147.7582  142.5312  154.5381 H   0  0  0  0  0  0  0  0  0  0  0  0
  146.9766  141.4121  155.6586 H   0  0  0  0  0  0  0  0  0  0  0  0
  147.0485  141.0379  153.9311 H   0  0  0  0  0  0  0  0  0  0  0  0
  149.9267  142.5525  155.6774 H   0  0  0  0  0  0  0  0  0  0  0  0
  152.1098  141.4300  156.0264 H   0  0  0  0  0  0  0  0  0  0  0  0
  152.3642  139.0147  155.5299 H   0  0  0  0  0  0  0  0  0  0  0  0
  150.0480  137.0312  153.6267 H   0  0  0  0  0  0  0  0  0  0  0  0
  149.9700  136.6680  155.3563 H   0  0  0  0  0  0  0  0  0  0  0  0
  151.5266  136.9869  154.5863 H   0  0  0  0  0  0  0  0  0  0  0  0
  147.1292  140.0723  153.0774 H   0  0  0  0  0  0  0  0  0  0  0  0
  148.3318  139.1029  152.2511 H   0  0  0  0  0  0  0  0  0  0  0  0
  146.8551  137.2007  152.1215 H   0  0  0  0  0  0  0  0  0  0  0  0
  144.9870  138.1498  151.2231 H   0  0  0  0  0  0  0  0  0  0  0  0
  146.0477  137.3635  154.5458 H   0  0  0  0  0  0  0  0  0  0  0  0
  144.9370  138.6096  154.0542 H   0  0  0  0  0  0  0  0  0  0  0  0
  141.8363  137.6404  154.8718 H   0  0  0  0  0  0  0  0  0  0  0  0
  143.1652  138.6726  154.3963 H   0  0  0  0  0  0  0  0  0  0  0  0
  142.0968  139.2474  152.6261 H   0  0  0  0  0  0  0  0  0  0  0  0
  142.4905  133.0786  151.8807 H   0  0  0  0  0  0  0  0  0  0  0  0
  144.5791  131.9158  151.2030 H   0  0  0  0  0  0  0  0  0  0  0  0
  146.7865  133.0172  151.5108 H   0  0  0  0  0  0  0  0  0  0  0  0
  146.9153  135.2983  152.5043 H   0  0  0  0  0  0  0  0  0  0  0  0
  1  2  1  0  0  0  0
  1 25  1  0  0  0  0
  1 26  1  0  0  0  0
  1 27  1  0  0  0  0
  2  8  1  0  0  0  0
  2  3  2  0  0  0  0
  3  4  1  0  0  0  0
  3 28  1  0  0  0  0
  4  5  2  0  0  0  0
  4 29  1  0  0  0  0
  5  6  1  0  0  0  0
  5 30  1  0  0  0  0
  6  7  1  0  0  0  0
  6  8  2  0  0  0  0
  7 31  1  0  0  0  0
  7 32  1  0  0  0  0
  7 33  1  0  0  0  0
  8  9  1  0  0  0  0
  9 10  1  0  0  0  0
 10 11  1  0  0  0  0
 10 34  1  0  0  0  0
 10 35  1  0  0  0  0
 11 12  1  0  0  0  0
 11 13  1  0  0  0  0
 11 36  1  0  0  0  0
 12 37  1  0  0  0  0
 13 14  1  0  0  0  0
 13 38  1  0  0  0  0
 13 39  1  0  0  0  0
 14 24  1  0  0  0  0
 14 15  1  0  0  0  0
 15 16  1  0  0  0  0
 15 18  2  0  0  0  0
 16 17  1  0  0  0  0
 16 40  1  0  0  0  0
 16 41  1  0  0  0  0
 17 42  1  0  0  0  0
 18 19  1  0  0  0  0
 19 24  2  0  0  0  0
 19 20  1  0  0  0  0
 20 21  2  0  0  0  0
 20 43  1  0  0  0  0
 21 22  1  0  0  0  0
 21 44  1  0  0  0  0
 22 23  2  0  0  0  0
 22 45  1  0  0  0  0
 23 24  1  0  0  0  0
 23 46  1  0  0  0  0
M  END
> <s_m_source_file>
AV-unprocessed.smi

> <i_m_source_file_index>
2178

> <i_lp_mmshare_version>
43012

> <i_f3d_flags>
0

> <s_epik_input>
W0NIM11jMVtjSF1bY0hdW2NIXWMoW0NIM10pYzFPW0NIMl1bQ0BIXShbT0hdKVtDSDJdbihjKG4yKVtDSDJdW09IXSljKGMyMylbY0hdW2NIXVtjSF1bY0hdMw==

> <s_epik_cmdline>
J2VwaWtfcHl0aG9uJywgJy1waCcsICc3LjAnLCAnLXRuJywgJzgnLCAnLW1hJywgJzIwMCcsICctbWV0YWxfYmluZGluZycsICctaW1hZScsICc8aW5maWxlLm1hZT4nLCAnLW9tYWUnLCAnPG91dGZpbGUubWFlPic=

> <r_lp_tautomer_probability>
1

> <r_epik_Ionization_Penalty>
0.0555874

> <r_epik_Ionization_Penalty_Charging>
0

> <r_epik_Ionization_Penalty_Neutral>
0.0555874

> <r_epik_State_Penalty>
0.0478234

> <r_epik_Charging_Adjusted_Penalty>
0.0478234

> <i_epik_Tot_Q>
0

> <i_epik_Tot_abs_Q>
0

> <r_epik_Metal_State_Penalty>
4.98044e-05

> <b_epik_Metal_Only>
0

> <s_lp_Force_Field>
OPLS_2005

> <r_lp_Energy>
19.7692

> <b_lp_Chiralities_Consistent>
1

> <s_lp_Variant>
AV-unprocessed.smi:2178-1

> <Gold.Version>
5.8.1

> <Gold.Id.Protein>
6NUR|6NUR_protein|mol2

> <Gold.PLP.Fitness>
43.6554

> <Gold.PLP.PLP>
-39.6030

> <Gold.PLP.part.hbond>
-3.6496

> <Gold.PLP.part.metal>
0.0000

> <Gold.PLP.part.buried>
-3.2786

> <Gold.PLP.part.nonpolar>
-35.0322

> <Gold.PLP.part.repulsive>
0.3247

> <Gold.PLP.ligand.clash>
0.0000

> <Gold.PLP.ligand.torsion>
0.2810

> <Gold.PLP.Chemscore.Hbond>
1.4960

> <Gold.PLP.Chemscore.CHOScore>
0.0000

> <Gold.PLP.Chemscore.Metal>
0.0000

> <Gold.Chemscore.Hbonds>
donor molecule, donor type, donor heavy atom, donor atom, acceptor molecule, acceptor atom, score
      L1  H    12    37       P1 10171  0.42
      L1  H    17    42       P1 10175  1.00

> <Gold.PLP.Chemscore.Internal.Correction>
0.1264

> <Gold.Rescore>
     Score         DG    S(hbond)    S(metal)    S(lipo)     H(rot)  DE(clash)    DE(int)     intcor
     13.05     -14.53       1.72        0.00      92.94       2.96       0.02       1.46       ----

> <Gold.Chemscore.Fitness>
13.0522

> <Gold.Chemscore.DG>
-14.5326

> <Gold.Chemscore.ZeroCoef>
-5.4800

> <Gold.Chemscore.Hbond>
1.7203

> <Gold.Chemscore.Metal>
0.0000

> <Gold.Chemscore.Lipo>
92.9439

> <Gold.Chemscore.Internal_Hbond>
0.0000

> <Gold.Chemscore.DEClash>
0.0240

> <Gold.Chemscore.DEInternal>
1.4563

> <Gold.Chemscore.Rot>
2.9561

> <Gold.Chemscore.Internal.Correction>
   9.000000E+99

> <Gold.Chemscore.Hbonds>
donor molecule, donor type, donor heavy atom, donor atom, acceptor molecule, acceptor atom, score
      L1  H    12    37       P1 10171  0.42
      L1  H    17    42       P1 10175  0.76

> <Gold.Chemscore.Hbond.Weighted>
-5.7458

> <Gold.Chemscore.Metal.Weighted>
-0.0000

> <Gold.Chemscore.Lipo.Weighted>
-10.8744

> <Gold.Chemscore.Internal_Hbond.Weighted>
0.0000

> <Gold.Chemscore.DEClash.Weighted>
0.0240

> <Gold.Chemscore.DEInternal.Weighted>
1.4563

> <Gold.Chemscore.Rot.Weighted>
7.5677

> <Gold.Chemscore.Internal.Correction.Weighted>
   9.000000E+99

> <Gold.Protein.RotatedTorsions>
[ 6907 6896 6895 6894 ] final   31.75 input  -60.11 | X-H torsion
[ 7974 7965 7964 7962 ] final  151.73 input  175.53 | X-H torsion
[ 8008 7997 7996 7995 ] final  -26.82 input   59.86 | X-H torsion
[ 10167 10162 10161 10158 ] final  -75.88 input  -65.29 | X-H torsion
[ 10718 10713 10712 10709 ] final  156.39 input   66.30 | X-H torsion
[ 10763 10752 10751 10750 ] final  -58.70 input  -60.55 | X-H torsion
[ 11005 11000 10999 10996 ] final   10.32 input  -57.11 | X-H torsion

> <Gold.Protein.ActiveResidues>
 VAL166  LYS551  ARG553  GLY616  TRP617  ASP618  TYR619  PRO620  LYS621  CYS622 
 ASP623  PHE694  ASN695  SER759  ASP760  ASP761  ALA762  ILE779  LEU786  VAL792 
 PHE793  MET794  SER795  GLU796  ALA797  LYS798  CYS799  TRP800  GLU811  SER814 

> <Gold.Protein.RotatedAtoms>
  152.0648  134.9571  160.0574 H   0  0  0  0  0  0  0  0  0  0  0  0  # atno 6907 bound_to 6896
  152.0921  133.4201  159.4556 H   0  0  0  0  0  0  0  0  0  0  0  0  # atno 6908 bound_to 6896
  150.6837  134.2779  159.4658 H   0  0  0  0  0  0  0  0  0  0  0  0  # atno 6909 bound_to 6896
  144.8272  139.6576  143.6075 H   0  0  0  0  0  0  0  0  0  0  0  0  # atno 7974 bound_to 7965
  154.4406  140.1889  156.0835 H   0  0  0  0  0  0  0  0  0  0  0  0  # atno 8008 bound_to 7997
  156.0420  140.3318  155.7228 H   0  0  0  0  0  0  0  0  0  0  0  0  # atno 8009 bound_to 7997
  155.5685  140.0610  157.2803 H   0  0  0  0  0  0  0  0  0  0  0  0  # atno 8010 bound_to 7997
  140.4905  143.2381  151.7915 H   0  0  0  0  0  0  0  0  0  0  0  0  # atno 10167 bound_to 10162
  157.2057  131.0686  151.1999 H   0  0  0  0  0  0  0  0  0  0  0  0  # atno 10718 bound_to 10713
  154.2422  135.6341  153.5211 H   0  0  0  0  0  0  0  0  0  0  0  0  # atno 10763 bound_to 10752
  152.9928  135.5545  154.5898 H   0  0  0  0  0  0  0  0  0  0  0  0  # atno 10764 bound_to 10752
  154.5406  135.2894  155.1073 H   0  0  0  0  0  0  0  0  0  0  0  0  # atno 10765 bound_to 10752
  140.5158  134.0607  155.7831 H   0  0  0  0  0  0  0  0  0  0  0  0  # atno 11005 bound_to 11000
  146.2577  139.6338  142.9384 LP  0  0  0  0  0  0  0  0  0  0  0  0  # atno 17320 bound_to 7965
  145.4975  141.0438  143.2559 LP  0  0  0  0  0  0  0  0  0  0  0  0  # atno 17321 bound_to 7965
  139.4850  144.4655  151.9489 LP  0  0  0  0  0  0  0  0  0  0  0  0  # atno 17342 bound_to 10162
  140.3742  144.2817  150.5916 LP  0  0  0  0  0  0  0  0  0  0  0  0  # atno 17343 bound_to 10162
  157.3723  130.7187  149.6573 LP  0  0  0  0  0  0  0  0  0  0  0  0  # atno 17370 bound_to 10713
  155.9696  130.4195  150.4380 LP  0  0  0  0  0  0  0  0  0  0  0  0  # atno 17371 bound_to 10713
  141.1361  133.9219  157.2431 LP  0  0  0  0  0  0  0  0  0  0  0  0  # atno 17394 bound_to 11000
  139.9633  135.0148  156.9320 LP  0  0  0  0  0  0  0  0  0  0  0  0  # atno 17395 bound_to 11000

$$$$
