AV-unprocessed.smi:1007|AV-procd|sdf|4405|dock9
  -GOLD-   22720 2343D 1   1.00000     0.00000
 Structure written by MMmdl.
 57 59  0  0  0  0  0  0  0  0  3 V2000
  147.4180  136.9626  163.2056 C   0  0  0  0  0  0  0  0  0  0  0  0
  147.7448  137.0376  161.8289 O   0  0  0  0  0  0  0  0  0  0  0  0
  147.6827  135.7759  161.1846 C   0  0  0  0  0  0  0  0  0  0  0  0
  147.4748  135.9978  159.6789 C   0  0  0  0  0  0  0  0  0  0  0  0
  148.0245  137.2968  159.2158 N   0  3  0  0  0  0  0  0  0  0  0  0
  147.2425  137.8769  158.0957 C   0  0  0  0  0  0  0  0  0  0  0  0
  147.7993  139.2651  157.7256 C   0  0  0  0  0  0  0  0  0  0  0  0
  149.2098  139.2378  157.3367 N   0  0  0  0  0  0  0  0  0  0  0  0
  149.4237  138.6046  156.0266 C   0  0  0  0  0  0  0  0  0  0  0  0
  150.8387  138.7352  155.4208 C   0  0  1  0  0  0  0  0  0  0  0  0
  150.7329  139.1833  154.0843 O   0  0  0  0  0  0  0  0  0  0  0  0
  151.8455  139.6025  156.2015 C   0  0  0  0  0  0  0  0  0  0  0  0
  151.2944  140.9181  156.5514 N   0  0  0  0  0  0  0  0  0  0  0  0
  150.4199  141.7087  155.8715 C   0  0  0  0  0  0  0  0  0  0  0  0
  150.2306  142.8388  156.6076 N   0  3  0  0  0  0  0  0  0  0  0  0
  150.9958  142.7689  157.7738 C   0  0  0  0  0  0  0  0  0  0  0  0
  151.1396  143.6673  158.8244 C   0  0  0  0  0  0  0  0  0  0  0  0
  152.0101  143.2975  159.8746 C   0  0  0  0  0  0  0  0  0  0  0  0
  152.1945  144.2593  161.0361 C   0  0  0  0  0  0  0  0  0  0  0  0
  152.7007  142.0579  159.8485 C   0  0  0  0  0  0  0  0  0  0  0  0
  153.6345  141.6711  160.9828 C   0  0  0  0  0  0  0  0  0  0  0  0
  152.5393  141.1567  158.7717 C   0  0  0  0  0  0  0  0  0  0  0  0
  151.6798  141.5382  157.7445 C   0  0  0  0  0  0  0  0  0  0  0  0
  149.9726  138.6432  158.4416 C   0  0  0  0  0  0  0  0  0  0  0  0
  149.4695  137.2469  158.8688 C   0  0  0  0  0  0  0  0  0  0  0  0
  147.4837  137.9545  163.6526 H   0  0  0  0  0  0  0  0  0  0  0  0
  148.1073  136.3071  163.7396 H   0  0  0  0  0  0  0  0  0  0  0  0
  146.4014  136.5946  163.3504 H   0  0  0  0  0  0  0  0  0  0  0  0
  148.5836  135.1952  161.3837 H   0  0  0  0  0  0  0  0  0  0  0  0
  146.8422  135.2060  161.5838 H   0  0  0  0  0  0  0  0  0  0  0  0
  147.9236  135.1841  159.1070 H   0  0  0  0  0  0  0  0  0  0  0  0
  146.4033  135.9604  159.4766 H   0  0  0  0  0  0  0  0  0  0  0  0
  147.2655  137.2052  157.2361 H   0  0  0  0  0  0  0  0  0  0  0  0
  146.1976  137.9770  158.3923 H   0  0  0  0  0  0  0  0  0  0  0  0
  147.2015  139.7034  156.9255 H   0  0  0  0  0  0  0  0  0  0  0  0
  147.6786  139.9329  158.5800 H   0  0  0  0  0  0  0  0  0  0  0  0
  149.1379  137.5540  156.0582 H   0  0  0  0  0  0  0  0  0  0  0  0
  148.7431  139.0557  155.3028 H   0  0  0  0  0  0  0  0  0  0  0  0
  151.2446  137.7246  155.3671 H   0  0  0  0  0  0  0  0  0  0  0  0
  150.2710  138.5266  153.5852 H   0  0  0  0  0  0  0  0  0  0  0  0
  152.1205  139.1209  157.1397 H   0  0  0  0  0  0  0  0  0  0  0  0
  152.7645  139.7518  155.6338 H   0  0  0  0  0  0  0  0  0  0  0  0
  149.9643  141.4836  154.9180 H   0  0  0  0  0  0  0  0  0  0  0  0
  150.6114  144.6095  158.8367 H   0  0  0  0  0  0  0  0  0  0  0  0
  151.9023  143.7879  161.9747 H   0  0  0  0  0  0  0  0  0  0  0  0
  151.5882  145.1570  160.9114 H   0  0  0  0  0  0  0  0  0  0  0  0
  153.2367  144.5701  161.1134 H   0  0  0  0  0  0  0  0  0  0  0  0
  154.0975  140.6998  160.8059 H   0  0  0  0  0  0  0  0  0  0  0  0
  153.0886  141.6129  161.9247 H   0  0  0  0  0  0  0  0  0  0  0  0
  154.4331  142.4055  161.0894 H   0  0  0  0  0  0  0  0  0  0  0  0
  153.0663  140.2144  158.7503 H   0  0  0  0  0  0  0  0  0  0  0  0
  151.0294  138.5804  158.1983 H   0  0  0  0  0  0  0  0  0  0  0  0
  149.9147  139.3096  159.3033 H   0  0  0  0  0  0  0  0  0  0  0  0
  150.0490  136.9153  159.7293 H   0  0  0  0  0  0  0  0  0  0  0  0
  149.6387  136.5122  158.0811 H   0  0  0  0  0  0  0  0  0  0  0  0
  147.9270  137.9410  159.9880 H   0  0  0  0  0  0  0  0  0  0  0  0
  149.6265  143.6017  156.3295 H   0  0  0  0  0  0  0  0  0  0  0  0
  1  2  1  0  0  0  0
  1 26  1  0  0  0  0
  1 27  1  0  0  0  0
  1 28  1  0  0  0  0
  2  3  1  0  0  0  0
  3  4  1  0  0  0  0
  3 29  1  0  0  0  0
  3 30  1  0  0  0  0
  4  5  1  0  0  0  0
  4 31  1  0  0  0  0
  4 32  1  0  0  0  0
  5 25  1  0  0  0  0
  5  6  1  0  0  0  0
  5 56  1  0  0  0  0
  6  7  1  0  0  0  0
  6 33  1  0  0  0  0
  6 34  1  0  0  0  0
  7  8  1  0  0  0  0
  7 35  1  0  0  0  0
  7 36  1  0  0  0  0
  8  9  1  0  0  0  0
  8 24  1  0  0  0  0
  9 10  1  0  0  0  0
  9 37  1  0  0  0  0
  9 38  1  0  0  0  0
 10 11  1  0  0  0  0
 10 12  1  0  0  0  0
 10 39  1  0  0  0  0
 11 40  1  0  0  0  0
 12 13  1  0  0  0  0
 12 41  1  0  0  0  0
 12 42  1  0  0  0  0
 13 23  1  0  0  0  0
 13 14  1  0  0  0  0
 14 15  2  0  0  0  0
 14 43  1  0  0  0  0
 15 16  1  0  0  0  0
 15 57  1  0  0  0  0
 16 23  2  0  0  0  0
 16 17  1  0  0  0  0
 17 18  2  0  0  0  0
 17 44  1  0  0  0  0
 18 19  1  0  0  0  0
 18 20  1  0  0  0  0
 19 45  1  0  0  0  0
 19 46  1  0  0  0  0
 19 47  1  0  0  0  0
 20 21  1  0  0  0  0
 20 22  2  0  0  0  0
 21 48  1  0  0  0  0
 21 49  1  0  0  0  0
 21 50  1  0  0  0  0
 22 23  1  0  0  0  0
 22 51  1  0  0  0  0
 24 25  1  0  0  0  0
 24 52  1  0  0  0  0
 24 53  1  0  0  0  0
 25 54  1  0  0  0  0
 25 55  1  0  0  0  0
M  CHG  1   5   1
M  CHG  1  15   1
M  END
> <s_m_source_file>
AV-unprocessed.smi

> <i_m_source_file_index>
1007

> <i_lp_mmshare_version>
43012

> <i_f3d_flags>
0

> <s_epik_input>
W0NIM11PW0NIMl1bQ0gyXU4xW0NIMl1bQ0gyXU4oW0NIMl1bQ0gyXTEpW0NIMl1bQ0BIXShbT0hdKVtDSDJdbihbY0hdbjIpYyhjMjMpW2NIXWMoW0NIM10pYyhbY0hdMylbQ0gzXQ==

> <s_epik_cmdline>
J2VwaWtfcHl0aG9uJywgJy1waCcsICc3LjAnLCAnLXRuJywgJzgnLCAnLW1hJywgJzIwMCcsICctbWV0YWxfYmluZGluZycsICctaW1hZScsICc8aW5maWxlLm1hZT4nLCAnLW9tYWUnLCAnPG91dGZpbGUubWFlPic=

> <r_epik_Ionization_Penalty>
1.34507

> <r_epik_Ionization_Penalty_Charging>
1.29906

> <r_epik_Ionization_Penalty_Neutral>
0.0460038

> <r_epik_State_Penalty>
2.55679

> <r_epik_Charging_Adjusted_Penalty>
3.85586

> <i_epik_Tot_Q>
2

> <i_epik_Tot_abs_Q>
2

> <r_epik_Metal_State_Penalty>
6.56928

> <b_epik_Metal_Only>
0

> <s_lp_Force_Field>
OPLS_2005

> <r_lp_Energy>
47.3521

> <b_lp_Chiralities_Consistent>
1

> <s_lp_Variant>
AV-unprocessed.smi:1007-8

> <Gold.Version>
5.8.1

> <Gold.Id.Protein>
6NUR|6NUR_protein|mol2

> <Gold.PLP.Fitness>
56.9399

> <Gold.PLP.PLP>
-47.4497

> <Gold.PLP.part.hbond>
-4.2966

> <Gold.PLP.part.metal>
0.0000

> <Gold.PLP.part.buried>
-6.6740

> <Gold.PLP.part.nonpolar>
-38.2273

> <Gold.PLP.part.repulsive>
0.2273

> <Gold.PLP.ligand.clash>
0.0000

> <Gold.PLP.ligand.torsion>
1.8834

> <Gold.PLP.Chemscore.Hbond>
4.3595

> <Gold.PLP.Chemscore.CHOScore>
0.0000

> <Gold.PLP.Chemscore.Metal>
0.0000

> <Gold.Chemscore.Hbonds>
donor molecule, donor type, donor heavy atom, donor atom, acceptor molecule, acceptor atom, score
      L1  H    15    57       P1  8028  1.82
      P1  H  6931  6943       L1     2  0.95
      P1  H  6934  6947       L1     2  0.32
      P1  H  7989  7998       L1    11  1.00

> <Gold.PLP.Chemscore.Internal.Correction>
0.1785

> <Gold.Rescore>
     Score         DG    S(hbond)    S(metal)    S(lipo)     H(rot)  DE(clash)    DE(int)     intcor
     18.83     -22.14       2.90        0.00     117.55       2.64       0.12       3.20       ----

> <Gold.Chemscore.Fitness>
18.8257

> <Gold.Chemscore.DG>
-22.1396

> <Gold.Chemscore.ZeroCoef>
-5.4800

> <Gold.Chemscore.Hbond>
2.8960

> <Gold.Chemscore.Metal>
0.0000

> <Gold.Chemscore.Lipo>
117.5525

> <Gold.Chemscore.Internal_Hbond>
0.0000

> <Gold.Chemscore.DEClash>
0.1183

> <Gold.Chemscore.DEInternal>
3.1955

> <Gold.Chemscore.Rot>
2.6432

> <Gold.Chemscore.Internal.Correction>
   9.000000E+99

> <Gold.Chemscore.Hbonds>
donor molecule, donor type, donor heavy atom, donor atom, acceptor molecule, acceptor atom, score
      L1  H    15    57       P1  8028  0.89
      P1  H  6931  6943       L1     2  0.21
      P1  H  6934  6947       L1     2  0.27
      P1  H  7989  7998       L1    11  0.96

> <Gold.Chemscore.Hbond.Weighted>
-9.6725

> <Gold.Chemscore.Metal.Weighted>
-0.0000

> <Gold.Chemscore.Lipo.Weighted>
-13.7536

> <Gold.Chemscore.Internal_Hbond.Weighted>
0.0000

> <Gold.Chemscore.DEClash.Weighted>
0.1183

> <Gold.Chemscore.DEInternal.Weighted>
3.1955

> <Gold.Chemscore.Rot.Weighted>
6.7665

> <Gold.Chemscore.Internal.Correction.Weighted>
   9.000000E+99

> <Gold.Protein.RotatedTorsions>
[ 6907 6896 6895 6894 ] final  102.81 input  -60.11 | X-H torsion
[ 7974 7965 7964 7962 ] final -102.60 input  175.53 | X-H torsion
[ 8008 7997 7996 7995 ] final  111.01 input   59.86 | X-H torsion
[ 10167 10162 10161 10158 ] final   48.02 input  -65.29 | X-H torsion
[ 10718 10713 10712 10709 ] final  -58.74 input   66.30 | X-H torsion
[ 10763 10752 10751 10750 ] final   68.50 input  -60.55 | X-H torsion
[ 11005 11000 10999 10996 ] final   82.68 input  -57.11 | X-H torsion

> <Gold.Protein.ActiveResidues>
 VAL166  LYS551  ARG553  GLY616  TRP617  ASP618  TYR619  PRO620  LYS621  CYS622 
 ASP623  PHE694  ASN695  SER759  ASP760  ASP761  ALA762  ILE779  LEU786  VAL792 
 PHE793  MET794  SER795  GLU796  ALA797  LYS798  CYS799  TRP800  GLU811  SER814 

> <Gold.Protein.RotatedAtoms>
  152.5313  133.9919  159.7854 H   0  0  0  0  0  0  0  0  0  0  0  0  # atno 6907 bound_to 6896
  151.0153  133.5919  159.2685 H   0  0  0  0  0  0  0  0  0  0  0  0  # atno 6908 bound_to 6896
  151.2978  135.0767  159.9281 H   0  0  0  0  0  0  0  0  0  0  0  0  # atno 6909 bound_to 6896
  145.2666  140.9286  143.3010 H   0  0  0  0  0  0  0  0  0  0  0  0  # atno 7974 bound_to 7965
  156.2094  140.3027  155.9698 H   0  0  0  0  0  0  0  0  0  0  0  0  # atno 8008 bound_to 7997
  155.2762  140.0436  157.3028 H   0  0  0  0  0  0  0  0  0  0  0  0  # atno 8009 bound_to 7997
  154.5678  140.2339  155.8246 H   0  0  0  0  0  0  0  0  0  0  0  0  # atno 8010 bound_to 7997
  140.2976  144.2972  150.6226 H   0  0  0  0  0  0  0  0  0  0  0  0  # atno 10167 bound_to 10162
  156.1113  130.4175  150.0619 H   0  0  0  0  0  0  0  0  0  0  0  0  # atno 10718 bound_to 10713
  153.0238  135.5245  154.7144 H   0  0  0  0  0  0  0  0  0  0  0  0  # atno 10763 bound_to 10752
  154.6217  135.2890  155.0320 H   0  0  0  0  0  0  0  0  0  0  0  0  # atno 10764 bound_to 10752
  154.1305  135.6594  153.4973 H   0  0  0  0  0  0  0  0  0  0  0  0  # atno 10765 bound_to 10752
  139.9055  134.8089  156.2208 H   0  0  0  0  0  0  0  0  0  0  0  0  # atno 11005 bound_to 11000
  144.9371  139.4231  143.6467 LP  0  0  0  0  0  0  0  0  0  0  0  0  # atno 17320 bound_to 7965
  146.3259  139.8312  142.8908 LP  0  0  0  0  0  0  0  0  0  0  0  0  # atno 17321 bound_to 7965
  140.5678  143.2184  151.7652 LP  0  0  0  0  0  0  0  0  0  0  0  0  # atno 17342 bound_to 10162
  139.4922  144.4259  151.9926 LP  0  0  0  0  0  0  0  0  0  0  0  0  # atno 17343 bound_to 10162
  156.8582  130.9482  151.3620 LP  0  0  0  0  0  0  0  0  0  0  0  0  # atno 17370 bound_to 10713
  157.6294  130.8717  149.9246 LP  0  0  0  0  0  0  0  0  0  0  0  0  # atno 17371 bound_to 10713
  141.0407  133.6939  156.1593 LP  0  0  0  0  0  0  0  0  0  0  0  0  # atno 17394 bound_to 11000
  140.6960  134.4615  157.5587 LP  0  0  0  0  0  0  0  0  0  0  0  0  # atno 17395 bound_to 11000

$$$$
