AV-unprocessed.smi:249|AV-procd|sdf|1926|dock1
  -GOLD-   2262021 33D 1   1.00000     0.00000
 Structure written by MMmdl.
 64 67  0  0  0  0  0  0  0  0  2 V2000
  141.7114  132.6987  160.2095 C   0  0  0  0  0  0  0  0  0  0  0  0
  141.7001  134.2326  160.2700 C   0  0  0  0  0  0  0  0  0  0  0  0
  142.1548  134.8483  158.9968 N   0  3  2  0  0  0  0  0  0  0  0  0
  143.5104  134.4065  158.5712 C   0  0  0  0  0  0  0  0  0  0  0  0
  143.8302  134.9041  157.1531 C   0  0  0  0  0  0  0  0  0  0  0  0
  143.7058  136.4389  157.0559 C   0  0  1  0  0  0  0  0  0  0  0  0
  144.0544  136.9792  155.7352 N   0  0  0  0  0  0  0  0  0  0  0  0
  144.0555  138.4281  155.5733 C   0  0  0  0  0  0  0  0  0  0  0  0
  143.6281  136.3028  154.6429 C   0  0  0  0  0  0  0  0  0  0  0  0
  142.4250  135.6818  154.7254 N   0  0  0  0  0  0  0  0  0  0  0  0
  141.9488  135.0018  153.6785 C   0  0  0  0  0  0  0  0  0  0  0  0
  142.5052  134.8191  152.4794 N   0  0  0  0  0  0  0  0  0  0  0  0
  143.7207  135.4323  152.3968 C   0  0  0  0  0  0  0  0  0  0  0  0
  144.3530  136.1900  153.4223 C   0  0  0  0  0  0  0  0  0  0  0  0
  145.5744  136.6735  152.9683 N   0  0  0  0  0  0  0  0  0  0  0  0
  145.6579  136.2300  151.7439 C   0  0  0  0  0  0  0  0  0  0  0  0
  144.5968  135.4585  151.3258 N   0  0  0  0  0  0  0  0  0  0  0  0
  144.4289  134.8520  150.0164 C   0  0  0  0  0  0  0  0  0  0  0  0
  144.2262  133.3138  150.0338 C   0  0  1  0  0  0  0  0  0  0  0  0
  143.8645  132.8314  148.6100 C   0  0  0  0  0  0  0  0  0  0  0  0
  142.7337  133.5101  148.1020 O   0  0  0  0  0  0  0  0  0  0  0  0
  145.4114  132.5122  150.6474 C   0  0  1  0  0  0  0  0  0  0  0  0
  145.9703  133.0473  151.9578 C   0  0  0  0  0  0  0  0  0  0  0  0
  146.6826  131.8383  152.5599 C   0  0  0  0  0  0  0  0  0  0  0  0
  146.0677  130.6891  151.9914 O   0  0  0  0  0  0  0  0  0  0  0  0
  145.0474  131.0903  151.0878 C   0  0  0  0  0  0  0  0  0  0  0  0
  142.3006  136.8615  157.5370 C   0  0  0  0  0  0  0  0  0  0  0  0
  141.9853  136.3309  158.9503 C   0  0  2  0  0  0  0  0  0  0  0  0
  142.7745  137.0747  160.0495 C   0  0  0  0  0  0  0  0  0  0  0  0
  141.3086  132.2766  161.1305 H   0  0  0  0  0  0  0  0  0  0  0  0
  142.7174  132.2998  160.0838 H   0  0  0  0  0  0  0  0  0  0  0  0
  141.0988  132.3331  159.3847 H   0  0  0  0  0  0  0  0  0  0  0  0
  140.6770  134.5472  160.4799 H   0  0  0  0  0  0  0  0  0  0  0  0
  142.3115  134.5887  161.1004 H   0  0  0  0  0  0  0  0  0  0  0  0
  144.2630  134.7573  159.2779 H   0  0  0  0  0  0  0  0  0  0  0  0
  143.5678  133.3188  158.5778 H   0  0  0  0  0  0  0  0  0  0  0  0
  144.8365  134.5914  156.8727 H   0  0  0  0  0  0  0  0  0  0  0  0
  143.1461  134.4195  156.4552 H   0  0  0  0  0  0  0  0  0  0  0  0
  144.4378  136.8641  157.7432 H   0  0  0  0  0  0  0  0  0  0  0  0
  144.4420  138.7104  154.5930 H   0  0  0  0  0  0  0  0  0  0  0  0
  144.6935  138.8896  156.3272 H   0  0  0  0  0  0  0  0  0  0  0  0
  143.0538  138.8443  155.6779 H   0  0  0  0  0  0  0  0  0  0  0  0
  140.9846  134.5369  153.8222 H   0  0  0  0  0  0  0  0  0  0  0  0
  146.5078  136.4442  151.1122 H   0  0  0  0  0  0  0  0  0  0  0  0
  143.5685  135.3347  149.5515 H   0  0  0  0  0  0  0  0  0  0  0  0
  145.2917  135.1097  149.4008 H   0  0  0  0  0  0  0  0  0  0  0  0
  143.3472  133.1040  150.6434 H   0  0  0  0  0  0  0  0  0  0  0  0
  144.6984  132.9700  147.9223 H   0  0  0  0  0  0  0  0  0  0  0  0
  143.6533  131.7616  148.6144 H   0  0  0  0  0  0  0  0  0  0  0  0
  142.0992  133.5993  148.7967 H   0  0  0  0  0  0  0  0  0  0  0  0
  146.2241  132.4504  149.9217 H   0  0  0  0  0  0  0  0  0  0  0  0
  146.6545  133.8842  151.8302 H   0  0  0  0  0  0  0  0  0  0  0  0
  145.1600  133.3663  152.6152 H   0  0  0  0  0  0  0  0  0  0  0  0
  147.7381  131.8361  152.2865 H   0  0  0  0  0  0  0  0  0  0  0  0
  146.6149  131.8254  153.6479 H   0  0  0  0  0  0  0  0  0  0  0  0
  144.0939  131.0826  151.6181 H   0  0  0  0  0  0  0  0  0  0  0  0
  144.9765  130.3941  150.2519 H   0  0  0  0  0  0  0  0  0  0  0  0
  142.1971  137.9467  157.5235 H   0  0  0  0  0  0  0  0  0  0  0  0
  141.5478  136.4752  156.8496 H   0  0  0  0  0  0  0  0  0  0  0  0
  140.9283  136.5349  159.1279 H   0  0  0  0  0  0  0  0  0  0  0  0
  142.6060  138.1498  159.9824 H   0  0  0  0  0  0  0  0  0  0  0  0
  143.8492  136.9121  159.9745 H   0  0  0  0  0  0  0  0  0  0  0  0
  142.4631  136.7672  161.0475 H   0  0  0  0  0  0  0  0  0  0  0  0
  141.5210  134.4965  158.2934 H   0  0  0  0  0  0  0  0  0  0  0  0
  1  2  1  0  0  0  0
  1 30  1  0  0  0  0
  1 31  1  0  0  0  0
  1 32  1  0  0  0  0
  2  3  1  0  0  0  0
  2 33  1  0  0  0  0
  2 34  1  0  0  0  0
  3 28  1  0  0  0  0
  3  4  1  0  0  0  0
  3 64  1  0  0  0  0
  4  5  1  0  0  0  0
  4 35  1  0  0  0  0
  4 36  1  0  0  0  0
  5  6  1  0  0  0  0
  5 37  1  0  0  0  0
  5 38  1  0  0  0  0
  6  7  1  0  0  0  0
  6 27  1  0  0  0  0
  6 39  1  0  0  0  0
  7  8  1  0  0  0  0
  7  9  1  0  0  0  0
  8 40  1  0  0  0  0
  8 41  1  0  0  0  0
  8 42  1  0  0  0  0
  9 14  1  0  0  0  0
  9 10  2  0  0  0  0
 10 11  1  0  0  0  0
 11 12  2  0  0  0  0
 11 43  1  0  0  0  0
 12 13  1  0  0  0  0
 13 17  1  0  0  0  0
 13 14  2  0  0  0  0
 14 15  1  0  0  0  0
 15 16  2  0  0  0  0
 16 17  1  0  0  0  0
 16 44  1  0  0  0  0
 17 18  1  0  0  0  0
 18 19  1  0  0  0  0
 18 45  1  0  0  0  0
 18 46  1  0  0  0  0
 19 20  1  0  0  0  0
 19 22  1  0  0  0  0
 19 47  1  0  0  0  0
 20 21  1  0  0  0  0
 20 48  1  0  0  0  0
 20 49  1  0  0  0  0
 21 50  1  0  0  0  0
 22 26  1  0  0  0  0
 22 23  1  0  0  0  0
 22 51  1  0  0  0  0
 23 24  1  0  0  0  0
 23 52  1  0  0  0  0
 23 53  1  0  0  0  0
 24 25  1  0  0  0  0
 24 54  1  0  0  0  0
 24 55  1  0  0  0  0
 25 26  1  0  0  0  0
 26 56  1  0  0  0  0
 26 57  1  0  0  0  0
 27 28  1  0  0  0  0
 27 58  1  0  0  0  0
 27 59  1  0  0  0  0
 28 29  1  0  0  0  0
 28 60  1  0  0  0  0
 29 61  1  0  0  0  0
 29 62  1  0  0  0  0
 29 63  1  0  0  0  0
M  CHG  1   3   1
M  END
> <s_m_source_file>
AV-unprocessed.smi

> <i_m_source_file_index>
249

> <i_lp_mmshare_version>
43012

> <i_f3d_flags>
0

> <s_epik_input>
W0NIM11bQ0gyXU4xW0NIMl1bQ0gyXVtDQEhdKFtDSDJdW0NASF0xW0NIM10pTihbQ0gzXSljKG5bY0hdbjIpYyhjMjMpbltjSF1uM1tDSDJdW0NASF0oW0NIMl1bT0hdKVtDQEBIXTRbQ0gyXVtDSDJdT1tDSDJdNA==

> <s_epik_cmdline>
J2VwaWtfcHl0aG9uJywgJy1waCcsICc3LjAnLCAnLXRuJywgJzgnLCAnLW1hJywgJzIwMCcsICctbWV0YWxfYmluZGluZycsICctaW1hZScsICc8aW5maWxlLm1hZT4nLCAnLW9tYWUnLCAnPG91dGZpbGUubWFlPic=

> <r_lp_tautomer_probability>
1

> <r_epik_Ionization_Penalty>
0.00294688

> <r_epik_Ionization_Penalty_Charging>
0.00169971

> <r_epik_Ionization_Penalty_Neutral>
0.00124717

> <r_epik_State_Penalty>
-0

> <r_epik_Charging_Adjusted_Penalty>
0.00169971

> <i_epik_Tot_Q>
1

> <i_epik_Tot_abs_Q>
1

> <r_epik_Metal_State_Penalty>
-0

> <b_epik_Metal_Only>
0

> <s_lp_Force_Field>
OPLS_2005

> <r_lp_Energy>
54.3628

> <b_lp_Chiralities_Consistent>
1

> <s_lp_Variant>
AV-unprocessed.smi:249-29

> <Gold.Version>
5.8.1

> <Gold.Id.Protein>
6NUR|6NUR_protein|mol2

> <Gold.PLP.Fitness>
47.4964

> <Gold.PLP.PLP>
-37.5188

> <Gold.PLP.part.hbond>
-3.9253

> <Gold.PLP.part.metal>
0.0000

> <Gold.PLP.part.buried>
-5.7947

> <Gold.PLP.part.nonpolar>
-28.9276

> <Gold.PLP.part.repulsive>
0.6156

> <Gold.PLP.ligand.clash>
0.0000

> <Gold.PLP.ligand.torsion>
0.9248

> <Gold.PLP.Chemscore.Hbond>
2.6000

> <Gold.PLP.Chemscore.CHOScore>
0.9122

> <Gold.PLP.Chemscore.Metal>
0.0000

> <Gold.Chemscore.Hbonds>
donor molecule, donor type, donor heavy atom, donor atom, acceptor molecule, acceptor atom, score
      L1  H     3    64       P1 11000  1.00
      L1  H    21    50       P1 10186  1.00
      P1  H 10192 10197       L1    21  0.60
      L1  C    16    44       P1  7948  0.91

> <Gold.PLP.Chemscore.Internal.Correction>
1.2907

> <Gold.Rescore>
     Score         DG    S(hbond)    S(metal)    S(lipo)     H(rot)  DE(clash)    DE(int)     intcor
      9.37     -13.96       1.92        0.00      80.99       2.90       1.05       3.54       ----

> <Gold.Chemscore.Fitness>
9.3662

> <Gold.Chemscore.DG>
-13.9584

> <Gold.Chemscore.ZeroCoef>
-5.4800

> <Gold.Chemscore.Hbond>
1.9245

> <Gold.Chemscore.Metal>
0.0000

> <Gold.Chemscore.Lipo>
80.9942

> <Gold.Chemscore.Internal_Hbond>
0.0000

> <Gold.Chemscore.DEClash>
1.0515

> <Gold.Chemscore.DEInternal>
3.5408

> <Gold.Chemscore.Rot>
2.9006

> <Gold.Chemscore.Internal.Correction>
   9.000000E+99

> <Gold.Chemscore.Hbonds>
donor molecule, donor type, donor heavy atom, donor atom, acceptor molecule, acceptor atom, score
      L1  H     3    64       P1 11000  0.84
      L1  H    21    50       P1 10186  0.89
      P1  H 10192 10197       L1    21  0.04

> <Gold.Chemscore.Hbond.Weighted>
-6.4277

> <Gold.Chemscore.Metal.Weighted>
-0.0000

> <Gold.Chemscore.Lipo.Weighted>
-9.4763

> <Gold.Chemscore.Internal_Hbond.Weighted>
0.0000

> <Gold.Chemscore.DEClash.Weighted>
1.0515

> <Gold.Chemscore.DEInternal.Weighted>
3.5408

> <Gold.Chemscore.Rot.Weighted>
7.4256

> <Gold.Chemscore.Internal.Correction.Weighted>
   9.000000E+99

> <Gold.Protein.RotatedTorsions>
[ 6907 6896 6895 6894 ] final   79.83 input  -60.11 | X-H torsion
[ 7974 7965 7964 7962 ] final   35.52 input  175.53 | X-H torsion
[ 8008 7997 7996 7995 ] final   80.34 input   59.86 | X-H torsion
[ 10167 10162 10161 10158 ] final  106.52 input  -65.29 | X-H torsion
[ 10718 10713 10712 10709 ] final  168.62 input   66.30 | X-H torsion
[ 10763 10752 10751 10750 ] final -119.12 input  -60.55 | X-H torsion
[ 11005 11000 10999 10996 ] final   11.63 input  -57.11 | X-H torsion

> <Gold.Protein.ActiveResidues>
 VAL166  LYS551  ARG553  GLY616  TRP617  ASP618  TYR619  PRO620  LYS621  CYS622 
 ASP623  PHE694  ASN695  SER759  ASP760  ASP761  ALA762  ILE779  LEU786  VAL792 
 PHE793  MET794  SER795  GLU796  ALA797  LYS798  CYS799  TRP800  GLU811  SER814 

> <Gold.Protein.RotatedAtoms>
  152.5213  134.3451  159.9230 H   0  0  0  0  0  0  0  0  0  0  0  0  # atno 6907 bound_to 6896
  151.3401  133.3959  159.2678 H   0  0  0  0  0  0  0  0  0  0  0  0  # atno 6908 bound_to 6896
  150.9810  134.9183  159.7902 H   0  0  0  0  0  0  0  0  0  0  0  0  # atno 6909 bound_to 6896
  146.1277  139.6133  142.9247 H   0  0  0  0  0  0  0  0  0  0  0  0  # atno 7974 bound_to 7965
  155.8822  140.3443  155.5896 H   0  0  0  0  0  0  0  0  0  0  0  0  # atno 8008 bound_to 7997
  155.7707  140.0845  157.2128 H   0  0  0  0  0  0  0  0  0  0  0  0  # atno 8009 bound_to 7997
  154.4025  140.1519  156.2926 H   0  0  0  0  0  0  0  0  0  0  0  0  # atno 8010 bound_to 7997
  139.7003  144.7095  151.1197 H   0  0  0  0  0  0  0  0  0  0  0  0  # atno 10167 bound_to 10162
  157.0345  131.0269  151.2734 H   0  0  0  0  0  0  0  0  0  0  0  0  # atno 10718 bound_to 10713
  154.8608  135.4249  154.2249 H   0  0  0  0  0  0  0  0  0  0  0  0  # atno 10763 bound_to 10752
  153.3246  135.6984  153.7006 H   0  0  0  0  0  0  0  0  0  0  0  0  # atno 10764 bound_to 10752
  153.6047  135.3530  155.2931 H   0  0  0  0  0  0  0  0  0  0  0  0  # atno 10765 bound_to 10752
  140.5010  134.0746  155.7794 H   0  0  0  0  0  0  0  0  0  0  0  0  # atno 11005 bound_to 11000
  145.5329  141.0426  143.2373 LP  0  0  0  0  0  0  0  0  0  0  0  0  # atno 17320 bound_to 7965
  144.7659  139.6846  143.7215 LP  0  0  0  0  0  0  0  0  0  0  0  0  # atno 17321 bound_to 7965
  140.7707  143.5434  150.9287 LP  0  0  0  0  0  0  0  0  0  0  0  0  # atno 17342 bound_to 10162
  139.9115  143.6714  152.3114 LP  0  0  0  0  0  0  0  0  0  0  0  0  # atno 17343 bound_to 10162
  157.5152  130.7963  149.7748 LP  0  0  0  0  0  0  0  0  0  0  0  0  # atno 17370 bound_to 10713
  156.0058  130.3856  150.2436 LP  0  0  0  0  0  0  0  0  0  0  0  0  # atno 17371 bound_to 10713
  141.1435  133.9096  157.2270 LP  0  0  0  0  0  0  0  0  0  0  0  0  # atno 17394 bound_to 11000
  139.9713  135.0127  156.9519 LP  0  0  0  0  0  0  0  0  0  0  0  0  # atno 17395 bound_to 11000

$$$$
