AV-unprocessed.smi:227|AV-procd|sdf|1733|dock1
  -GOLD-   2262020223D 1   1.00000     0.00000
 Structure written by MMmdl.
 54 58  0  0  0  0  0  0  0  0  1 V2000
  148.9583  136.3353  156.5764 O   0  0  0  0  0  0  0  0  0  0  0  0
  147.9899  136.2370  157.6014 C   0  0  0  0  0  0  0  0  0  0  0  0
  148.3877  135.1889  158.6666 C   0  0  2  0  0  0  0  0  0  0  0  0
  148.4391  133.7843  158.0117 C   0  0  0  0  0  0  0  0  0  0  0  0
  147.5424  133.6190  156.8810 N   0  0  0  0  0  0  0  0  0  0  0  0
  146.1758  133.4681  156.9319 C   0  0  0  0  0  0  0  0  0  0  0  0
  145.5894  133.3307  155.7749 N   0  0  0  0  0  0  0  0  0  0  0  0
  146.6305  133.3640  154.8539 C   0  0  0  0  0  0  0  0  0  0  0  0
  146.7101  133.2727  153.4339 C   0  0  0  0  0  0  0  0  0  0  0  0
  145.6265  133.1104  152.6262 N   0  0  0  0  0  0  0  0  0  0  0  0
  144.6436  134.1741  152.4622 C   0  0  1  0  0  0  0  0  0  0  0  0
  145.3491  135.2053  151.5561 C   0  0  0  0  0  0  0  0  0  0  0  0
  146.2094  134.2880  150.6749 C   0  0  0  0  0  0  0  0  0  0  0  0
  145.8018  132.8928  151.1980 C   0  0  2  0  0  0  0  0  0  0  0  0
  144.3628  132.5175  150.7731 C   0  0  2  0  0  0  0  0  0  0  0  0
  144.0323  132.5668  149.2697 C   0  0  0  0  0  0  0  0  0  0  0  0
  142.7484  132.0293  149.0337 O   0  0  0  0  0  0  0  0  0  0  0  0
  143.5378  133.4803  151.6472 C   0  0  0  0  0  0  0  0  0  0  0  0
  147.9434  133.3863  152.8722 N   0  0  0  0  0  0  0  0  0  0  0  0
  149.0261  133.5468  153.6375 C   0  0  0  0  0  0  0  0  0  0  0  0
  149.1023  133.6320  154.9661 N   0  0  0  0  0  0  0  0  0  0  0  0
  147.8679  133.5417  155.5378 C   0  0  0  0  0  0  0  0  0  0  0  0
  147.4929  135.2671  159.9383 C   0  0  2  0  0  0  0  0  0  0  0  0
  147.6524  136.5441  160.7491 C   0  0  0  0  0  0  0  0  0  0  0  0
  147.0575  136.1477  162.0918 C   0  0  0  0  0  0  0  0  0  0  0  0
  147.4844  134.8080  162.2823 O   0  0  0  0  0  0  0  0  0  0  0  0
  147.7668  134.2092  161.0203 C   0  0  0  0  0  0  0  0  0  0  0  0
  148.9810  137.2282  156.2675 H   0  0  0  0  0  0  0  0  0  0  0  0
  147.8693  137.2189  158.0601 H   0  0  0  0  0  0  0  0  0  0  0  0
  147.0268  135.9951  157.1522 H   0  0  0  0  0  0  0  0  0  0  0  0
  149.4038  135.4463  158.9683 H   0  0  0  0  0  0  0  0  0  0  0  0
  149.4561  133.5536  157.6932 H   0  0  0  0  0  0  0  0  0  0  0  0
  148.1702  133.0219  158.7439 H   0  0  0  0  0  0  0  0  0  0  0  0
  145.6225  133.4739  157.8599 H   0  0  0  0  0  0  0  0  0  0  0  0
  144.2682  134.5999  153.3934 H   0  0  0  0  0  0  0  0  0  0  0  0
  144.6468  135.8088  150.9802 H   0  0  0  0  0  0  0  0  0  0  0  0
  145.9777  135.8824  152.1354 H   0  0  0  0  0  0  0  0  0  0  0  0
  146.0411  134.4294  149.6086 H   0  0  0  0  0  0  0  0  0  0  0  0
  147.2684  134.4704  150.8620 H   0  0  0  0  0  0  0  0  0  0  0  0
  146.5160  132.1161  150.9305 H   0  0  0  0  0  0  0  0  0  0  0  0
  144.1697  131.5009  151.1216 H   0  0  0  0  0  0  0  0  0  0  0  0
  144.0400  133.6007  148.9241 H   0  0  0  0  0  0  0  0  0  0  0  0
  144.7696  132.0349  148.6695 H   0  0  0  0  0  0  0  0  0  0  0  0
  142.1215  132.7362  149.0344 H   0  0  0  0  0  0  0  0  0  0  0  0
  142.8630  132.9219  152.2972 H   0  0  0  0  0  0  0  0  0  0  0  0
  142.9400  134.1873  151.0706 H   0  0  0  0  0  0  0  0  0  0  0  0
  149.9650  133.6193  153.1088 H   0  0  0  0  0  0  0  0  0  0  0  0
  146.4449  135.1887  159.6439 H   0  0  0  0  0  0  0  0  0  0  0  0
  148.7076  136.7954  160.8679 H   0  0  0  0  0  0  0  0  0  0  0  0
  147.1422  137.4011  160.3081 H   0  0  0  0  0  0  0  0  0  0  0  0
  147.3838  136.7940  162.9069 H   0  0  0  0  0  0  0  0  0  0  0  0
  145.9677  136.1713  162.0497 H   0  0  0  0  0  0  0  0  0  0  0  0
  147.1517  133.3203  160.8851 H   0  0  0  0  0  0  0  0  0  0  0  0
  148.8129  133.9013  161.0220 H   0  0  0  0  0  0  0  0  0  0  0  0
  1  2  1  0  0  0  0
  1 28  1  0  0  0  0
  2  3  1  0  0  0  0
  2 29  1  0  0  0  0
  2 30  1  0  0  0  0
  3  4  1  0  0  0  0
  3 23  1  0  0  0  0
  3 31  1  0  0  0  0
  4  5  1  0  0  0  0
  4 32  1  0  0  0  0
  4 33  1  0  0  0  0
  5 22  1  0  0  0  0
  5  6  1  0  0  0  0
  6  7  2  0  0  0  0
  6 34  1  0  0  0  0
  7  8  1  0  0  0  0
  8 22  2  0  0  0  0
  8  9  1  0  0  0  0
  9 10  1  0  0  0  0
  9 19  2  0  0  0  0
 10 14  1  0  0  0  0
 10 11  1  0  0  0  0
 11 18  1  0  0  0  0
 11 12  1  0  0  0  0
 11 35  1  0  0  0  0
 12 13  1  0  0  0  0
 12 36  1  0  0  0  0
 12 37  1  0  0  0  0
 13 14  1  0  0  0  0
 13 38  1  0  0  0  0
 13 39  1  0  0  0  0
 14 15  1  0  0  0  0
 14 40  1  0  0  0  0
 15 16  1  0  0  0  0
 15 18  1  0  0  0  0
 15 41  1  0  0  0  0
 16 17  1  0  0  0  0
 16 42  1  0  0  0  0
 16 43  1  0  0  0  0
 17 44  1  0  0  0  0
 18 45  1  0  0  0  0
 18 46  1  0  0  0  0
 19 20  1  0  0  0  0
 20 21  2  0  0  0  0
 20 47  1  0  0  0  0
 21 22  1  0  0  0  0
 23 27  1  0  0  0  0
 23 24  1  0  0  0  0
 23 48  1  0  0  0  0
 24 25  1  0  0  0  0
 24 49  1  0  0  0  0
 24 50  1  0  0  0  0
 25 26  1  0  0  0  0
 25 51  1  0  0  0  0
 25 52  1  0  0  0  0
 26 27  1  0  0  0  0
 27 53  1  0  0  0  0
 27 54  1  0  0  0  0
M  END
> <s_m_source_file>
AV-unprocessed.smi

> <i_m_source_file_index>
227

> <i_lp_mmshare_version>
43012

> <i_f3d_flags>
0

> <s_epik_input>
W0NIMl0xT1tDSDJdW0NIMl1bQ0BIXTFbQ0BIXShbQ0gyXVtPSF0pW0NIMl1uKFtjSF1uMiljKGMyMyluW2NIXW5jM04oW0NASF00NSlbQ0BASF0oW0NIMl1bQ0gyXTQpW0NASF0oW0NIMl01KVtDSDJdW09IXQ==

> <s_epik_cmdline>
J2VwaWtfcHl0aG9uJywgJy1waCcsICc3LjAnLCAnLXRuJywgJzgnLCAnLW1hJywgJzIwMCcsICctbWV0YWxfYmluZGluZycsICctaW1hZScsICc8aW5maWxlLm1hZT4nLCAnLW9tYWUnLCAnPG91dGZpbGUubWFlPic=

> <r_lp_tautomer_probability>
1

> <r_epik_Ionization_Penalty>
0.0055791

> <r_epik_Ionization_Penalty_Charging>
0

> <r_epik_Ionization_Penalty_Neutral>
0.0055791

> <r_epik_State_Penalty>
0.00401299

> <r_epik_Charging_Adjusted_Penalty>
0.00401299

> <i_epik_Tot_Q>
0

> <i_epik_Tot_abs_Q>
0

> <r_epik_Metal_State_Penalty>
-0

> <b_epik_Metal_Only>
0

> <s_lp_Force_Field>
OPLS_2005

> <r_lp_Energy>
89.6515

> <b_lp_Chiralities_Consistent>
1

> <s_lp_Variant>
AV-unprocessed.smi:227-7

> <Gold.Version>
5.8.1

> <Gold.Id.Protein>
6NUR|6NUR_protein|mol2

> <Gold.PLP.Fitness>
43.6205

> <Gold.PLP.PLP>
-39.3027

> <Gold.PLP.part.hbond>
-3.0000

> <Gold.PLP.part.metal>
0.0000

> <Gold.PLP.part.buried>
-8.6451

> <Gold.PLP.part.nonpolar>
-27.5076

> <Gold.PLP.part.repulsive>
0.4746

> <Gold.PLP.ligand.clash>
0.0000

> <Gold.PLP.ligand.torsion>
0.8970

> <Gold.PLP.Chemscore.Hbond>
2.0000

> <Gold.PLP.Chemscore.CHOScore>
0.0000

> <Gold.PLP.Chemscore.Metal>
0.0000

> <Gold.Chemscore.Hbonds>
donor molecule, donor type, donor heavy atom, donor atom, acceptor molecule, acceptor atom, score
      L1  H    17    44       P1 10186  0.91
      P1  H 10785 10796       L1    17  1.00

> <Gold.PLP.Chemscore.Internal.Correction>
0.1118

> <Gold.Rescore>
     Score         DG    S(hbond)    S(metal)    S(lipo)     H(rot)  DE(clash)    DE(int)     intcor
      9.47     -11.09       1.66        0.00      79.52       3.61       0.00       1.61       ----

> <Gold.Chemscore.Fitness>
9.4749

> <Gold.Chemscore.DG>
-11.0900

> <Gold.Chemscore.ZeroCoef>
-5.4800

> <Gold.Chemscore.Hbond>
1.6587

> <Gold.Chemscore.Metal>
0.0000

> <Gold.Chemscore.Lipo>
79.5237

> <Gold.Chemscore.Internal_Hbond>
0.0000

> <Gold.Chemscore.DEClash>
0.0015

> <Gold.Chemscore.DEInternal>
1.6137

> <Gold.Chemscore.Rot>
3.6071

> <Gold.Chemscore.Internal.Correction>
   9.000000E+99

> <Gold.Chemscore.Hbonds>
donor molecule, donor type, donor heavy atom, donor atom, acceptor molecule, acceptor atom, score
      L1  H    17    44       P1 10186  0.87
      P1  H 10785 10796       L1    17  0.29

> <Gold.Chemscore.Hbond.Weighted>
-5.5400

> <Gold.Chemscore.Metal.Weighted>
-0.0000

> <Gold.Chemscore.Lipo.Weighted>
-9.3043

> <Gold.Chemscore.Internal_Hbond.Weighted>
0.0000

> <Gold.Chemscore.DEClash.Weighted>
0.0015

> <Gold.Chemscore.DEInternal.Weighted>
1.6137

> <Gold.Chemscore.Rot.Weighted>
9.2342

> <Gold.Chemscore.Internal.Correction.Weighted>
   9.000000E+99

> <Gold.Protein.RotatedTorsions>
[ 6907 6896 6895 6894 ] final  131.31 input  -60.11 | X-H torsion
[ 7974 7965 7964 7962 ] final -149.87 input  175.53 | X-H torsion
[ 8008 7997 7996 7995 ] final   76.94 input   59.86 | X-H torsion
[ 10167 10162 10161 10158 ] final  -33.94 input  -65.29 | X-H torsion
[ 10718 10713 10712 10709 ] final  148.70 input   66.30 | X-H torsion
[ 10763 10752 10751 10750 ] final  -66.39 input  -60.55 | X-H torsion
[ 11005 11000 10999 10996 ] final   44.33 input  -57.11 | X-H torsion

> <Gold.Protein.ActiveResidues>
 VAL166  LYS551  ARG553  GLY616  TRP617  ASP618  TYR619  PRO620  LYS621  CYS622 
 ASP623  PHE694  ASN695  SER759  ASP760  ASP761  ALA762  ILE779  LEU786  VAL792 
 PHE793  MET794  SER795  GLU796  ALA797  LYS798  CYS799  TRP800  GLU811  SER814 

> <Gold.Protein.RotatedAtoms>
  152.3439  133.6099  159.5895 H   0  0  0  0  0  0  0  0  0  0  0  0  # atno 6907 bound_to 6896
  150.7495  133.9679  159.3545 H   0  0  0  0  0  0  0  0  0  0  0  0  # atno 6908 bound_to 6896
  151.7540  135.0827  160.0386 H   0  0  0  0  0  0  0  0  0  0  0  0  # atno 6909 bound_to 6896
  144.7941  140.5007  143.5752 H   0  0  0  0  0  0  0  0  0  0  0  0  # atno 7974 bound_to 7965
  155.8345  140.3465  155.5593 H   0  0  0  0  0  0  0  0  0  0  0  0  # atno 8008 bound_to 7997
  155.8207  140.0912  157.1870 H   0  0  0  0  0  0  0  0  0  0  0  0  # atno 8009 bound_to 7997
  154.4004  140.1430  156.3483 H   0  0  0  0  0  0  0  0  0  0  0  0  # atno 8010 bound_to 7997
  140.7195  143.3584  151.2013 H   0  0  0  0  0  0  0  0  0  0  0  0  # atno 10167 bound_to 10162
  157.3054  131.0878  151.1358 H   0  0  0  0  0  0  0  0  0  0  0  0  # atno 10718 bound_to 10713
  154.3591  135.6120  153.5681 H   0  0  0  0  0  0  0  0  0  0  0  0  # atno 10763 bound_to 10752
  152.9794  135.5811  154.4654 H   0  0  0  0  0  0  0  0  0  0  0  0  # atno 10764 bound_to 10752
  154.4389  135.2849  155.1839 H   0  0  0  0  0  0  0  0  0  0  0  0  # atno 10765 bound_to 10752
  140.1562  134.4399  155.8348 H   0  0  0  0  0  0  0  0  0  0  0  0  # atno 11005 bound_to 11000
  145.5718  139.1484  143.3284 LP  0  0  0  0  0  0  0  0  0  0  0  0  # atno 17320 bound_to 7965
  146.2203  140.5851  142.9020 LP  0  0  0  0  0  0  0  0  0  0  0  0  # atno 17321 bound_to 7965
  139.7130  143.9345  152.2955 LP  0  0  0  0  0  0  0  0  0  0  0  0  # atno 17342 bound_to 10162
  139.9077  144.6875  150.8596 LP  0  0  0  0  0  0  0  0  0  0  0  0  # atno 17343 bound_to 10162
  157.2701  130.6700  149.6015 LP  0  0  0  0  0  0  0  0  0  0  0  0  # atno 17370 bound_to 10713
  155.9674  130.4482  150.5609 LP  0  0  0  0  0  0  0  0  0  0  0  0  # atno 17371 bound_to 10713
  141.2204  133.6893  156.7511 LP  0  0  0  0  0  0  0  0  0  0  0  0  # atno 17394 bound_to 11000
  140.2545  134.8515  157.3699 LP  0  0  0  0  0  0  0  0  0  0  0  0  # atno 17395 bound_to 11000

$$$$
