AV-unprocessed.smi:1645|AV-procd|sdf|6621|dock2
  -GOLD-   22720 7323D 1   1.00000     0.00000
 Structure written by MMmdl.
 55 58  0  0  0  0  0  0  0  0  4 V2000
  149.7061  135.0747  156.1782 O   0  0  0  0  0  0  0  0  0  0  0  0
  149.7383  135.3072  154.9644 C   0  0  0  0  0  0  0  0  0  0  0  0
  150.0332  136.5405  154.5164 N   0  0  0  0  0  0  0  0  0  0  0  0
  150.4106  137.6943  155.2545 C   0  0  0  0  0  0  0  0  0  0  0  0
  151.0518  138.7405  154.5615 C   0  0  0  0  0  0  0  0  0  0  0  0
  151.4645  139.8944  155.2587 C   0  0  0  0  0  0  0  0  0  0  0  0
  151.2453  139.9916  156.6564 C   0  0  0  0  0  0  0  0  0  0  0  0
  151.6189  141.1085  157.4378 N   0  0  0  0  0  0  0  0  0  0  0  0
  151.6724  140.9388  158.8912 C   0  0  0  0  0  0  0  0  0  0  0  0
  152.4685  142.0712  159.5628 C   0  0  0  0  0  0  0  0  0  0  0  0
  151.9383  143.4484  159.1425 C   0  0  0  0  0  0  0  0  0  0  0  0
  151.9478  143.5642  157.6120 C   0  0  0  0  0  0  0  0  0  0  0  0
  151.1551  142.4165  156.9638 C   0  0  0  0  0  0  0  0  0  0  0  0
  150.6384  138.9519  157.2788 N   0  3  0  0  0  0  0  0  0  0  0  0
  150.2256  137.8306  156.6500 C   0  0  0  0  0  0  0  0  0  0  0  0
  149.4773  134.4421  153.9478 N   0  5  0  0  0  0  0  0  0  0  0  0
  148.3531  133.5036  153.9182 C   0  0  1  0  0  0  0  0  0  0  0  0
  147.4757  133.7114  152.6816 C   0  0  0  0  0  0  0  0  0  0  0  0
  146.8227  132.3435  152.4859 C   0  0  0  0  0  0  0  0  0  0  0  0
  147.8610  131.3657  152.8742 N   0  3  2  0  0  0  0  0  0  0  0  0
  147.3408  130.0564  153.3423 C   0  0  0  0  0  0  0  0  0  0  0  0
  148.4976  129.1539  153.8047 C   0  0  0  0  0  0  0  0  0  0  0  0
  149.3573  129.8056  154.9081 C   0  0  0  0  0  0  0  0  0  0  0  0
  149.0168  131.2908  155.1283 C   0  0  0  0  0  0  0  0  0  0  0  0
  148.8333  132.0400  153.7827 C   0  0  2  0  0  0  0  0  0  0  0  0
  149.9313  136.6738  153.5209 H   0  0  0  0  0  0  0  0  0  0  0  0
  151.2251  138.6640  153.4977 H   0  0  0  0  0  0  0  0  0  0  0  0
  151.9546  140.6799  154.7039 H   0  0  0  0  0  0  0  0  0  0  0  0
  150.6553  140.9101  159.2844 H   0  0  0  0  0  0  0  0  0  0  0  0
  152.1476  139.9905  159.1437 H   0  0  0  0  0  0  0  0  0  0  0  0
  152.4220  141.9675  160.6471 H   0  0  0  0  0  0  0  0  0  0  0  0
  153.5212  141.9882  159.2892 H   0  0  0  0  0  0  0  0  0  0  0  0
  150.9236  143.5850  159.5187 H   0  0  0  0  0  0  0  0  0  0  0  0
  152.5464  144.2380  159.5852 H   0  0  0  0  0  0  0  0  0  0  0  0
  151.5295  144.5237  157.3069 H   0  0  0  0  0  0  0  0  0  0  0  0
  152.9772  143.5466  157.2509 H   0  0  0  0  0  0  0  0  0  0  0  0
  151.2415  142.5078  155.8811 H   0  0  0  0  0  0  0  0  0  0  0  0
  150.0956  142.5161  157.2033 H   0  0  0  0  0  0  0  0  0  0  0  0
  149.7778  137.0865  157.2915 H   0  0  0  0  0  0  0  0  0  0  0  0
  147.7148  133.5779  154.8004 H   0  0  0  0  0  0  0  0  0  0  0  0
  146.7462  134.5116  152.8107 H   0  0  0  0  0  0  0  0  0  0  0  0
  148.0865  133.9513  151.8094 H   0  0  0  0  0  0  0  0  0  0  0  0
  145.9423  132.2423  153.1262 H   0  0  0  0  0  0  0  0  0  0  0  0
  146.4981  132.1840  151.4571 H   0  0  0  0  0  0  0  0  0  0  0  0
  146.6329  130.2054  154.1592 H   0  0  0  0  0  0  0  0  0  0  0  0
  146.7903  129.5788  152.5313 H   0  0  0  0  0  0  0  0  0  0  0  0
  148.1088  128.1962  154.1524 H   0  0  0  0  0  0  0  0  0  0  0  0
  149.1313  128.9270  152.9463 H   0  0  0  0  0  0  0  0  0  0  0  0
  149.2329  129.2663  155.8476 H   0  0  0  0  0  0  0  0  0  0  0  0
  150.4105  129.7076  154.6430 H   0  0  0  0  0  0  0  0  0  0  0  0
  148.1059  131.3476  155.7286 H   0  0  0  0  0  0  0  0  0  0  0  0
  149.8012  131.7557  155.7284 H   0  0  0  0  0  0  0  0  0  0  0  0
  149.7847  132.0168  153.2479 H   0  0  0  0  0  0  0  0  0  0  0  0
  148.3889  131.1777  152.0340 H   0  0  0  0  0  0  0  0  0  0  0  0
  150.4831  139.0182  158.2846 H   0  0  0  0  0  0  0  0  0  0  0  0
  1  2  2  0  0  0  0
  2  3  1  0  0  0  0
  2 16  1  0  0  0  0
  3  4  1  0  0  0  0
  3 26  1  0  0  0  0
  4 15  1  0  0  0  0
  4  5  2  0  0  0  0
  5  6  1  0  0  0  0
  5 27  1  0  0  0  0
  6  7  2  0  0  0  0
  6 28  1  0  0  0  0
  7  8  1  0  0  0  0
  7 14  1  0  0  0  0
  8 13  1  0  0  0  0
  8  9  1  0  0  0  0
  9 10  1  0  0  0  0
  9 29  1  0  0  0  0
  9 30  1  0  0  0  0
 10 11  1  0  0  0  0
 10 31  1  0  0  0  0
 10 32  1  0  0  0  0
 11 12  1  0  0  0  0
 11 33  1  0  0  0  0
 11 34  1  0  0  0  0
 12 13  1  0  0  0  0
 12 35  1  0  0  0  0
 12 36  1  0  0  0  0
 13 37  1  0  0  0  0
 13 38  1  0  0  0  0
 14 15  2  0  0  0  0
 14 55  1  0  0  0  0
 15 39  1  0  0  0  0
 16 17  1  0  0  0  0
 17 25  1  0  0  0  0
 17 18  1  0  0  0  0
 17 40  1  0  0  0  0
 18 19  1  0  0  0  0
 18 41  1  0  0  0  0
 18 42  1  0  0  0  0
 19 20  1  0  0  0  0
 19 43  1  0  0  0  0
 19 44  1  0  0  0  0
 20 25  1  0  0  0  0
 20 21  1  0  0  0  0
 20 54  1  0  0  0  0
 21 22  1  0  0  0  0
 21 45  1  0  0  0  0
 21 46  1  0  0  0  0
 22 23  1  0  0  0  0
 22 47  1  0  0  0  0
 22 48  1  0  0  0  0
 23 24  1  0  0  0  0
 23 49  1  0  0  0  0
 23 50  1  0  0  0  0
 24 25  1  0  0  0  0
 24 51  1  0  0  0  0
 24 52  1  0  0  0  0
 25 53  1  0  0  0  0
M  CHG  1  14   1
M  CHG  1  16  -1
M  CHG  1  20   1
M  END
> <s_m_source_file>
AV-unprocessed.smi

> <i_m_source_file_index>
1645

> <i_lp_mmshare_version>
43012

> <i_f3d_flags>
0

> <s_epik_input>
W0NIMl0xW0NIMl1bQ0gyXVtDSDJdW0NASF0oTjEyKVtDQEBIXShbQ0gyXVtDSDJdMilbTkhdQyg9TylbTkhdYzNbY0hdW2NIXWMobltjSF0zKU40W0NIMl1bQ0gyXVtDSDJdW0NIMl1bQ0gyXTQ=

> <s_epik_cmdline>
J2VwaWtfcHl0aG9uJywgJy1waCcsICc3LjAnLCAnLXRuJywgJzgnLCAnLW1hJywgJzIwMCcsICctbWV0YWxfYmluZGluZycsICctaW1hZScsICc8aW5maWxlLm1hZT4nLCAnLW9tYWUnLCAnPG91dGZpbGUubWFlPic=

> <r_lp_tautomer_probability>
0.999994

> <r_epik_Ionization_Penalty>
8.55589

> <r_epik_Ionization_Penalty_Charging>
8.55589

> <r_epik_Ionization_Penalty_Neutral>
3.8092e-06

> <r_epik_State_Penalty>
8.15703

> <r_epik_Charging_Adjusted_Penalty>
16.7129

> <i_epik_Tot_Q>
1

> <i_epik_Tot_abs_Q>
3

> <r_epik_Metal_State_Penalty>
4.13781

> <b_epik_Metal_Only>
1

> <s_lp_Force_Field>
OPLS_2005

> <r_lp_Energy>
56.4964

> <b_lp_Chiralities_Consistent>
1

> <s_lp_Variant>
AV-unprocessed.smi:1645-22

> <Gold.Version>
5.8.1

> <Gold.Id.Protein>
6NUR|6NUR_protein|mol2

> <Gold.PLP.Fitness>
49.4605

> <Gold.PLP.PLP>
-44.3372

> <Gold.PLP.part.hbond>
-2.0000

> <Gold.PLP.part.metal>
0.0000

> <Gold.PLP.part.buried>
-4.5920

> <Gold.PLP.part.nonpolar>
-38.6299

> <Gold.PLP.part.repulsive>
0.7421

> <Gold.PLP.ligand.clash>
0.0000

> <Gold.PLP.ligand.torsion>
0.7186

> <Gold.PLP.Chemscore.Hbond>
2.0000

> <Gold.PLP.Chemscore.CHOScore>
0.0000

> <Gold.PLP.Chemscore.Metal>
0.0000

> <Gold.Chemscore.Hbonds>
donor molecule, donor type, donor heavy atom, donor atom, acceptor molecule, acceptor atom, score
      L1  H     3    26       P1  7948  0.94
      L1  H    20    54       P1 10747  1.00

> <Gold.PLP.Chemscore.Internal.Correction>
0.5605

> <Gold.Rescore>
     Score         DG    S(hbond)    S(metal)    S(lipo)     H(rot)  DE(clash)    DE(int)     intcor
     18.92     -21.11       1.65        0.00     112.33       1.17       0.12       2.07       ----

> <Gold.Chemscore.Fitness>
18.9222

> <Gold.Chemscore.DG>
-21.1145

> <Gold.Chemscore.ZeroCoef>
-5.4800

> <Gold.Chemscore.Hbond>
1.6452

> <Gold.Chemscore.Metal>
0.0000

> <Gold.Chemscore.Lipo>
112.3318

> <Gold.Chemscore.Internal_Hbond>
0.0000

> <Gold.Chemscore.DEClash>
0.1224

> <Gold.Chemscore.DEInternal>
2.0698

> <Gold.Chemscore.Rot>
1.1731

> <Gold.Chemscore.Internal.Correction>
   9.000000E+99

> <Gold.Chemscore.Hbonds>
donor molecule, donor type, donor heavy atom, donor atom, acceptor molecule, acceptor atom, score
      L1  H     3    26       P1  7948  0.20
      L1  H    20    54       P1 10747  1.00

> <Gold.Chemscore.Hbond.Weighted>
-5.4949

> <Gold.Chemscore.Metal.Weighted>
-0.0000

> <Gold.Chemscore.Lipo.Weighted>
-13.1428

> <Gold.Chemscore.Internal_Hbond.Weighted>
0.0000

> <Gold.Chemscore.DEClash.Weighted>
0.1224

> <Gold.Chemscore.DEInternal.Weighted>
2.0698

> <Gold.Chemscore.Rot.Weighted>
3.0032

> <Gold.Chemscore.Internal.Correction.Weighted>
   9.000000E+99

> <Gold.Protein.RotatedTorsions>
[ 6907 6896 6895 6894 ] final -146.24 input  -60.11 | X-H torsion
[ 7974 7965 7964 7962 ] final -142.94 input  175.53 | X-H torsion
[ 8008 7997 7996 7995 ] final  -70.49 input   59.86 | X-H torsion
[ 10167 10162 10161 10158 ] final -126.68 input  -65.29 | X-H torsion
[ 10718 10713 10712 10709 ] final -135.64 input   66.30 | X-H torsion
[ 10763 10752 10751 10750 ] final  -20.72 input  -60.55 | X-H torsion
[ 11005 11000 10999 10996 ] final  104.23 input  -57.11 | X-H torsion

> <Gold.Protein.ActiveResidues>
 VAL166  LYS551  ARG553  GLY616  TRP617  ASP618  TYR619  PRO620  LYS621  CYS622 
 ASP623  PHE694  ASN695  SER759  ASP760  ASP761  ALA762  ILE779  LEU786  VAL792 
 PHE793  MET794  SER795  GLU796  ALA797  LYS798  CYS799  TRP800  GLU811  SER814 

> <Gold.Protein.RotatedAtoms>
  151.1389  133.4985  159.2597 H   0  0  0  0  0  0  0  0  0  0  0  0  # atno 6907 bound_to 6896
  151.1676  135.0302  159.8747 H   0  0  0  0  0  0  0  0  0  0  0  0  # atno 6908 bound_to 6896
  152.5462  134.1256  159.8470 H   0  0  0  0  0  0  0  0  0  0  0  0  # atno 6909 bound_to 6896
  144.8406  140.5896  143.5455 H   0  0  0  0  0  0  0  0  0  0  0  0  # atno 7974 bound_to 7965
  154.5016  140.0833  156.7809 H   0  0  0  0  0  0  0  0  0  0  0  0  # atno 8008 bound_to 7997
  155.3990  140.3436  155.4237 H   0  0  0  0  0  0  0  0  0  0  0  0  # atno 8009 bound_to 7997
  156.1463  140.1545  156.8829 H   0  0  0  0  0  0  0  0  0  0  0  0  # atno 8010 bound_to 7997
  139.9689  143.5868  152.2420 H   0  0  0  0  0  0  0  0  0  0  0  0  # atno 10167 bound_to 10162
  156.2684  130.7251  151.1209 H   0  0  0  0  0  0  0  0  0  0  0  0  # atno 10718 bound_to 10713
  153.6249  135.6991  153.5297 H   0  0  0  0  0  0  0  0  0  0  0  0  # atno 10763 bound_to 10752
  153.2907  135.4158  155.1164 H   0  0  0  0  0  0  0  0  0  0  0  0  # atno 10764 bound_to 10752
  154.8535  135.3624  154.5790 H   0  0  0  0  0  0  0  0  0  0  0  0  # atno 10765 bound_to 10752
  139.8790  134.9293  156.5330 H   0  0  0  0  0  0  0  0  0  0  0  0  # atno 11005 bound_to 11000
  145.4703  139.1504  143.3818 LP  0  0  0  0  0  0  0  0  0  0  0  0  # atno 17320 bound_to 7965
  146.2699  140.4836  142.8819 LP  0  0  0  0  0  0  0  0  0  0  0  0  # atno 17321 bound_to 7965
  139.6497  144.7660  151.2173 LP  0  0  0  0  0  0  0  0  0  0  0  0  # atno 17342 bound_to 10162
  140.7529  143.6182  150.8539 LP  0  0  0  0  0  0  0  0  0  0  0  0  # atno 17343 bound_to 10162
  157.7275  131.0638  150.5861 LP  0  0  0  0  0  0  0  0  0  0  0  0  # atno 17370 bound_to 10713
  156.5955  130.4340  149.5918 LP  0  0  0  0  0  0  0  0  0  0  0  0  # atno 17371 bound_to 10713
  140.8367  133.8237  155.9035 LP  0  0  0  0  0  0  0  0  0  0  0  0  # atno 17394 bound_to 11000
  140.9277  134.2061  157.4885 LP  0  0  0  0  0  0  0  0  0  0  0  0  # atno 17395 bound_to 11000

$$$$
