AV-unprocessed.smi:1929|AV-procd|sdf|7808|dock9
  -GOLD-   22720 9553D 1   1.00000     0.00000
 Structure written by MMmdl.
 43 44  0  0  0  0  0  0  0  0  4 V2000
  147.1458  128.4591  152.0841 C   0  0  0  0  0  0  0  0  0  0  0  0
  147.0012  129.7172  152.8067 N   0  5  0  0  0  0  0  0  0  0  0  0
  146.2270  130.7478  152.3724 C   0  0  0  0  0  0  0  0  0  0  0  0
  145.5931  130.8939  151.3220 O   0  0  0  0  0  0  0  0  0  0  0  0
  146.2038  131.8882  153.3967 C   0  0  0  0  0  0  0  0  0  0  0  0
  145.4802  133.0642  152.8507 N   0  3  2  0  0  0  0  0  0  0  0  0
  146.1193  133.6353  151.6337 C   0  0  0  0  0  0  0  0  0  0  0  0
  145.2719  134.7750  151.0418 C   0  0  0  0  0  0  0  0  0  0  0  0
  144.9993  135.8852  152.0753 C   0  0  2  0  0  0  0  0  0  0  0  0
  146.2131  136.6359  152.3980 N   0  0  0  0  0  0  0  0  0  0  0  0
  146.2489  137.8018  153.0599 C   0  0  0  0  0  0  0  0  0  0  0  0
  145.2442  138.3670  153.4903 O   0  0  0  0  0  0  0  0  0  0  0  0
  147.5062  138.2668  153.1625 N   0  0  0  0  0  0  0  0  0  0  0  0
  147.9525  139.4864  153.7408 C   0  0  0  0  0  0  0  0  0  0  0  0
  147.0888  140.6015  153.6619 C   0  0  0  0  0  0  0  0  0  0  0  0
  147.4926  141.8350  154.2125 C   0  0  0  0  0  0  0  0  0  0  0  0
  148.7033  141.9450  154.7998 N   0  3  0  0  0  0  0  0  0  0  0  0
  149.5691  140.9124  154.8860 C   0  0  0  0  0  0  0  0  0  0  0  0
  149.2202  139.6541  154.3545 C   0  0  0  0  0  0  0  0  0  0  0  0
  144.3939  135.2635  153.3455 C   0  0  0  0  0  0  0  0  0  0  0  0
  145.2489  134.1029  153.8872 C   0  0  0  0  0  0  0  0  0  0  0  0
  147.8948  127.8132  152.5421 H   0  0  0  0  0  0  0  0  0  0  0  0
  147.4560  128.6047  151.0488 H   0  0  0  0  0  0  0  0  0  0  0  0
  146.2182  127.8871  152.0590 H   0  0  0  0  0  0  0  0  0  0  0  0
  145.6826  131.5096  154.2771 H   0  0  0  0  0  0  0  0  0  0  0  0
  147.2027  132.1768  153.7319 H   0  0  0  0  0  0  0  0  0  0  0  0
  147.1194  133.9949  151.8803 H   0  0  0  0  0  0  0  0  0  0  0  0
  146.2445  132.8647  150.8729 H   0  0  0  0  0  0  0  0  0  0  0  0
  145.7608  135.1827  150.1565 H   0  0  0  0  0  0  0  0  0  0  0  0
  144.3212  134.3671  150.6959 H   0  0  0  0  0  0  0  0  0  0  0  0
  144.2710  136.5842  151.6599 H   0  0  0  0  0  0  0  0  0  0  0  0
  147.0874  136.2422  152.0820 H   0  0  0  0  0  0  0  0  0  0  0  0
  148.2183  137.7227  152.6975 H   0  0  0  0  0  0  0  0  0  0  0  0
  146.1201  140.5146  153.1910 H   0  0  0  0  0  0  0  0  0  0  0  0
  146.8882  142.7304  154.1998 H   0  0  0  0  0  0  0  0  0  0  0  0
  150.5116  141.1227  155.3703 H   0  0  0  0  0  0  0  0  0  0  0  0
  149.9358  138.8487  154.4187 H   0  0  0  0  0  0  0  0  0  0  0  0
  144.2642  136.0249  154.1157 H   0  0  0  0  0  0  0  0  0  0  0  0
  143.3941  134.8905  153.1184 H   0  0  0  0  0  0  0  0  0  0  0  0
  144.7411  133.6580  154.7439 H   0  0  0  0  0  0  0  0  0  0  0  0
  146.2086  134.4749  154.2490 H   0  0  0  0  0  0  0  0  0  0  0  0
  144.5699  132.7251  152.5734 H   0  0  0  0  0  0  0  0  0  0  0  0
  148.9774  142.8470  155.1909 H   0  0  0  0  0  0  0  0  0  0  0  0
  1  2  1  0  0  0  0
  1 22  1  0  0  0  0
  1 23  1  0  0  0  0
  1 24  1  0  0  0  0
  2  3  1  0  0  0  0
  3  4  2  0  0  0  0
  3  5  1  0  0  0  0
  5  6  1  0  0  0  0
  5 25  1  0  0  0  0
  5 26  1  0  0  0  0
  6 21  1  0  0  0  0
  6  7  1  0  0  0  0
  6 42  1  0  0  0  0
  7  8  1  0  0  0  0
  7 27  1  0  0  0  0
  7 28  1  0  0  0  0
  8  9  1  0  0  0  0
  8 29  1  0  0  0  0
  8 30  1  0  0  0  0
  9 10  1  0  0  0  0
  9 20  1  0  0  0  0
  9 31  1  0  0  0  0
 10 11  1  0  0  0  0
 10 32  1  0  0  0  0
 11 12  2  0  0  0  0
 11 13  1  0  0  0  0
 13 14  1  0  0  0  0
 13 33  1  0  0  0  0
 14 19  1  0  0  0  0
 14 15  2  0  0  0  0
 15 16  1  0  0  0  0
 15 34  1  0  0  0  0
 16 17  2  0  0  0  0
 16 35  1  0  0  0  0
 17 18  1  0  0  0  0
 17 43  1  0  0  0  0
 18 19  2  0  0  0  0
 18 36  1  0  0  0  0
 19 37  1  0  0  0  0
 20 21  1  0  0  0  0
 20 38  1  0  0  0  0
 20 39  1  0  0  0  0
 21 40  1  0  0  0  0
 21 41  1  0  0  0  0
M  CHG  1   2  -1
M  CHG  1   6   1
M  CHG  1  17   1
M  END
> <s_m_source_file>
AV-unprocessed.smi

> <i_m_source_file_index>
1929

> <i_lp_mmshare_version>
43012

> <i_f3d_flags>
0

> <s_epik_input>
W0NIM11bTkhdQyg9TylbQ0gyXU4xW0NIMl1bQ0gyXVtDSF0oW0NIMl1bQ0gyXTEpW05IXUMoPU8pW05IXWMyW2NIXVtjSF1uW2NIXVtjSF0y

> <s_epik_cmdline>
J2VwaWtfcHl0aG9uJywgJy1waCcsICc3LjAnLCAnLXRuJywgJzgnLCAnLW1hJywgJzIwMCcsICctbWV0YWxfYmluZGluZycsICctaW1hZScsICc8aW5maWxlLm1hZT4nLCAnLW9tYWUnLCAnPG91dGZpbGUubWFlPic=

> <r_epik_Ionization_Penalty>
7.25133

> <r_epik_Ionization_Penalty_Charging>
7.25131

> <r_epik_Ionization_Penalty_Neutral>
1.84563e-05

> <r_epik_State_Penalty>
8.093

> <r_epik_Charging_Adjusted_Penalty>
15.3443

> <i_epik_Tot_Q>
1

> <i_epik_Tot_abs_Q>
3

> <r_epik_Metal_State_Penalty>
4.12368

> <b_epik_Metal_Only>
1

> <s_lp_Force_Field>
OPLS_2005

> <r_lp_Energy>
20.7097

> <b_lp_Chiralities_Consistent>
1

> <s_lp_Variant>
AV-unprocessed.smi:1929-10

> <Gold.Version>
5.8.1

> <Gold.Id.Protein>
6NUR|6NUR_protein|mol2

> <Gold.PLP.Fitness>
42.7313

> <Gold.PLP.PLP>
-31.4627

> <Gold.PLP.part.hbond>
-3.1216

> <Gold.PLP.part.metal>
0.0000

> <Gold.PLP.part.buried>
-5.9928

> <Gold.PLP.part.nonpolar>
-26.9784

> <Gold.PLP.part.repulsive>
3.8703

> <Gold.PLP.ligand.clash>
0.0000

> <Gold.PLP.ligand.torsion>
0.3891

> <Gold.PLP.Chemscore.Hbond>
4.0000

> <Gold.PLP.Chemscore.CHOScore>
0.0000

> <Gold.PLP.Chemscore.Metal>
0.0000

> <Gold.Chemscore.Hbonds>
donor molecule, donor type, donor heavy atom, donor atom, acceptor molecule, acceptor atom, score
      L1  H    10    32       P1  7948  1.00
      L1  H    13    33       P1  7948  1.00
      L1  H    17    43       P1  8028  2.00

> <Gold.PLP.Chemscore.Internal.Correction>
0.0469

> <Gold.Rescore>
     Score         DG    S(hbond)    S(metal)    S(lipo)     H(rot)  DE(clash)    DE(int)     intcor
     15.14     -19.32       2.97        0.00      69.77       1.66       1.47       2.71       ----

> <Gold.Chemscore.Fitness>
15.1368

> <Gold.Chemscore.DG>
-19.3197

> <Gold.Chemscore.ZeroCoef>
-5.4800

> <Gold.Chemscore.Hbond>
2.9700

> <Gold.Chemscore.Metal>
0.0000

> <Gold.Chemscore.Lipo>
69.7679

> <Gold.Chemscore.Internal_Hbond>
0.0000

> <Gold.Chemscore.DEClash>
1.4739

> <Gold.Chemscore.DEInternal>
2.7090

> <Gold.Chemscore.Rot>
1.6574

> <Gold.Chemscore.Internal.Correction>
   9.000000E+99

> <Gold.Chemscore.Hbonds>
donor molecule, donor type, donor heavy atom, donor atom, acceptor molecule, acceptor atom, score
      L1  H    10    32       P1  7948  0.98
      L1  H    13    33       P1  7948  0.99
      L1  H    17    43       P1  8028  0.99

> <Gold.Chemscore.Hbond.Weighted>
-9.9199

> <Gold.Chemscore.Metal.Weighted>
-0.0000

> <Gold.Chemscore.Lipo.Weighted>
-8.1628

> <Gold.Chemscore.Internal_Hbond.Weighted>
0.0000

> <Gold.Chemscore.DEClash.Weighted>
1.4739

> <Gold.Chemscore.DEInternal.Weighted>
2.7090

> <Gold.Chemscore.Rot.Weighted>
4.2430

> <Gold.Chemscore.Internal.Correction.Weighted>
   9.000000E+99

> <Gold.Protein.RotatedTorsions>
[ 6907 6896 6895 6894 ] final -150.34 input  -60.11 | X-H torsion
[ 7974 7965 7964 7962 ] final -152.69 input  175.53 | X-H torsion
[ 8008 7997 7996 7995 ] final  -24.70 input   59.86 | X-H torsion
[ 10167 10162 10161 10158 ] final   13.30 input  -65.29 | X-H torsion
[ 10718 10713 10712 10709 ] final   27.82 input   66.30 | X-H torsion
[ 10763 10752 10751 10750 ] final  -75.48 input  -60.55 | X-H torsion
[ 11005 11000 10999 10996 ] final  -40.08 input  -57.11 | X-H torsion

> <Gold.Protein.ActiveResidues>
 VAL166  LYS551  ARG553  GLY616  TRP617  ASP618  TYR619  PRO620  LYS621  CYS622 
 ASP623  PHE694  ASN695  SER759  ASP760  ASP761  ALA762  ILE779  LEU786  VAL792 
 PHE793  MET794  SER795  GLU796  ALA797  LYS798  CYS799  TRP800  GLU811  SER814 

> <Gold.Protein.RotatedAtoms>
  151.1971  133.4632  159.2595 H   0  0  0  0  0  0  0  0  0  0  0  0  # atno 6907 bound_to 6896
  151.1106  135.0024  159.8502 H   0  0  0  0  0  0  0  0  0  0  0  0  # atno 6908 bound_to 6896
  152.5450  134.1891  159.8719 H   0  0  0  0  0  0  0  0  0  0  0  0  # atno 6909 bound_to 6896
  144.7780  140.4627  143.5859 H   0  0  0  0  0  0  0  0  0  0  0  0  # atno 7974 bound_to 7965
  154.4515  140.1946  156.0505 H   0  0  0  0  0  0  0  0  0  0  0  0  # atno 8008 bound_to 7997
  156.0658  140.3291  155.7488 H   0  0  0  0  0  0  0  0  0  0  0  0  # atno 8009 bound_to 7997
  155.5341  140.0580  157.2874 H   0  0  0  0  0  0  0  0  0  0  0  0  # atno 8010 bound_to 7997
  140.6012  143.8601  150.6967 H   0  0  0  0  0  0  0  0  0  0  0  0  # atno 10167 bound_to 10162
  157.2253  130.6998  149.6289 H   0  0  0  0  0  0  0  0  0  0  0  0  # atno 10718 bound_to 10713
  154.4871  135.5830  153.6431 H   0  0  0  0  0  0  0  0  0  0  0  0  # atno 10763 bound_to 10752
  152.9856  135.6103  154.3173 H   0  0  0  0  0  0  0  0  0  0  0  0  # atno 10764 bound_to 10752
  154.3069  135.2845  155.2564 H   0  0  0  0  0  0  0  0  0  0  0  0  # atno 10765 bound_to 10752
  141.0148  133.6890  156.2272 H   0  0  0  0  0  0  0  0  0  0  0  0  # atno 11005 bound_to 11000
  145.6130  139.1515  143.3065 LP  0  0  0  0  0  0  0  0  0  0  0  0  # atno 17320 bound_to 7965
  146.1972  140.6244  142.9119 LP  0  0  0  0  0  0  0  0  0  0  0  0  # atno 17321 bound_to 7965
  140.2148  143.3855  152.1690 LP  0  0  0  0  0  0  0  0  0  0  0  0  # atno 17342 bound_to 10162
  139.5292  144.7139  151.5117 LP  0  0  0  0  0  0  0  0  0  0  0  0  # atno 17343 bound_to 10162
  155.9679  130.4506  150.5705 LP  0  0  0  0  0  0  0  0  0  0  0  0  # atno 17370 bound_to 10713
  157.3534  131.0737  151.1695 LP  0  0  0  0  0  0  0  0  0  0  0  0  # atno 17371 bound_to 10713
  140.6672  134.4905  157.5586 LP  0  0  0  0  0  0  0  0  0  0  0  0  # atno 17394 bound_to 11000
  139.9111  134.8344  156.1527 LP  0  0  0  0  0  0  0  0  0  0  0  0  # atno 17395 bound_to 11000

$$$$
