AV-unprocessed.smi:2979|AV-procd|sdf|11370|dock9
  -GOLD-   2272016293D 1   1.00000     0.00000
 Structure written by MMmdl.
 35 36  0  0  0  0  0  0  0  0  1 V2000
  153.6189  137.7660  159.0102 C   0  0  0  0  0  0  0  0  0  0  0  0
  154.0230  139.0449  158.5554 O   0  0  0  0  0  0  0  0  0  0  0  0
  153.4395  140.0982  159.3054 C   0  0  0  0  0  0  0  0  0  0  0  0
  151.9823  140.3028  158.8670 C   0  0  0  0  0  0  0  0  0  0  0  0
  151.7025  141.6767  158.4685 N   0  0  0  0  0  0  0  0  0  0  0  0
  151.2701  142.1426  157.2676 C   0  0  0  0  0  0  0  0  0  0  0  0
  150.9666  141.2469  156.1032 C   0  0  0  0  0  0  0  0  0  0  0  0
  149.4899  141.3072  155.6827 C   0  0  0  0  0  0  0  0  0  0  0  0
  149.1749  140.3611  154.5172 C   0  0  0  0  0  0  0  0  0  0  0  0
  149.6601  140.9087  153.3106 O   0  0  0  0  0  0  0  0  0  0  0  0
  151.1157  143.4645  157.1811 N   0  0  0  0  0  0  0  0  0  0  0  0
  151.4658  143.8968  158.4446 C   0  0  0  0  0  0  0  0  0  0  0  0
  151.5033  145.1999  158.9903 C   0  0  0  0  0  0  0  0  0  0  0  0
  151.8969  145.4020  160.3292 C   0  0  0  0  0  0  0  0  0  0  0  0
  152.2571  144.3062  161.1398 C   0  0  0  0  0  0  0  0  0  0  0  0
  152.2277  142.9999  160.6150 C   0  0  0  0  0  0  0  0  0  0  0  0
  151.8356  142.8029  159.2768 C   0  0  0  0  0  0  0  0  0  0  0  0
  154.0879  136.9952  158.3986 H   0  0  0  0  0  0  0  0  0  0  0  0
  152.5375  137.6442  158.9363 H   0  0  0  0  0  0  0  0  0  0  0  0
  153.9205  137.6034  160.0458 H   0  0  0  0  0  0  0  0  0  0  0  0
  153.4745  139.8617  160.3698 H   0  0  0  0  0  0  0  0  0  0  0  0
  154.0069  141.0178  159.1648 H   0  0  0  0  0  0  0  0  0  0  0  0
  151.7639  139.6470  158.0240 H   0  0  0  0  0  0  0  0  0  0  0  0
  151.2926  140.0070  159.6571 H   0  0  0  0  0  0  0  0  0  0  0  0
  151.5972  141.5494  155.2663 H   0  0  0  0  0  0  0  0  0  0  0  0
  151.2468  140.2196  156.3291 H   0  0  0  0  0  0  0  0  0  0  0  0
  148.8548  141.0574  156.5330 H   0  0  0  0  0  0  0  0  0  0  0  0
  149.2343  142.3299  155.4020 H   0  0  0  0  0  0  0  0  0  0  0  0
  149.6367  139.3864  154.6767 H   0  0  0  0  0  0  0  0  0  0  0  0
  148.0995  140.2044  154.4281 H   0  0  0  0  0  0  0  0  0  0  0  0
  149.5431  140.2717  152.6225 H   0  0  0  0  0  0  0  0  0  0  0  0
  151.2272  146.0453  158.3775 H   0  0  0  0  0  0  0  0  0  0  0  0
  151.9211  146.4021  160.7365 H   0  0  0  0  0  0  0  0  0  0  0  0
  152.5552  144.4690  162.1653 H   0  0  0  0  0  0  0  0  0  0  0  0
  152.5006  142.1599  161.2360 H   0  0  0  0  0  0  0  0  0  0  0  0
  1  2  1  0  0  0  0
  1 18  1  0  0  0  0
  1 19  1  0  0  0  0
  1 20  1  0  0  0  0
  2  3  1  0  0  0  0
  3  4  1  0  0  0  0
  3 21  1  0  0  0  0
  3 22  1  0  0  0  0
  4  5  1  0  0  0  0
  4 23  1  0  0  0  0
  4 24  1  0  0  0  0
  5 17  1  0  0  0  0
  5  6  1  0  0  0  0
  6  7  1  0  0  0  0
  6 11  2  0  0  0  0
  7  8  1  0  0  0  0
  7 25  1  0  0  0  0
  7 26  1  0  0  0  0
  8  9  1  0  0  0  0
  8 27  1  0  0  0  0
  8 28  1  0  0  0  0
  9 10  1  0  0  0  0
  9 29  1  0  0  0  0
  9 30  1  0  0  0  0
 10 31  1  0  0  0  0
 11 12  1  0  0  0  0
 12 17  2  0  0  0  0
 12 13  1  0  0  0  0
 13 14  2  0  0  0  0
 13 32  1  0  0  0  0
 14 15  1  0  0  0  0
 14 33  1  0  0  0  0
 15 16  2  0  0  0  0
 15 34  1  0  0  0  0
 16 17  1  0  0  0  0
 16 35  1  0  0  0  0
M  END
> <s_m_source_file>
AV-unprocessed.smi

> <i_m_source_file_index>
2979

> <i_lp_mmshare_version>
43012

> <i_f3d_flags>
0

> <s_epik_input>
W2NIXTFbY0hdW2NIXVtjSF1jKGMxMiluKFtDSDJdW0NIMl1PW0NIM10pYyhuMilbQ0gyXVtDSDJdW0NIMl1bT0hd

> <s_epik_cmdline>
J2VwaWtfcHl0aG9uJywgJy1waCcsICc3LjAnLCAnLXRuJywgJzgnLCAnLW1hJywgJzIwMCcsICctbWV0YWxfYmluZGluZycsICctaW1hZScsICc8aW5maWxlLm1hZT4nLCAnLW9tYWUnLCAnPG91dGZpbGUubWFlPic=

> <r_epik_Ionization_Penalty>
0.183246

> <r_epik_Ionization_Penalty_Charging>
0

> <r_epik_Ionization_Penalty_Neutral>
0.183246

> <r_epik_State_Penalty>
0.172781

> <r_epik_Charging_Adjusted_Penalty>
0.172781

> <i_epik_Tot_Q>
0

> <i_epik_Tot_abs_Q>
0

> <r_epik_Metal_State_Penalty>
0.000200578

> <b_epik_Metal_Only>
0

> <s_lp_Force_Field>
OPLS_2005

> <r_lp_Energy>
6.05289

> <b_lp_Chiralities_Consistent>
1

> <s_lp_Variant>
AV-unprocessed.smi:2979-1

> <Gold.Version>
5.8.1

> <Gold.Id.Protein>
6NUR|6NUR_protein|mol2

> <Gold.PLP.Fitness>
49.3515

> <Gold.PLP.PLP>
-41.0383

> <Gold.PLP.part.hbond>
-3.3918

> <Gold.PLP.part.metal>
0.0000

> <Gold.PLP.part.buried>
-6.7461

> <Gold.PLP.part.nonpolar>
-32.6147

> <Gold.PLP.part.repulsive>
1.3356

> <Gold.PLP.ligand.clash>
0.0000

> <Gold.PLP.ligand.torsion>
0.5110

> <Gold.PLP.Chemscore.Hbond>
3.1040

> <Gold.PLP.Chemscore.CHOScore>
0.0000

> <Gold.PLP.Chemscore.Metal>
0.0000

> <Gold.Chemscore.Hbonds>
donor molecule, donor type, donor heavy atom, donor atom, acceptor molecule, acceptor atom, score
      L1  H    10    31       P1  7957  0.77
      P1  H  7989  7998       L1    10  0.22
      P1  H  7997  8010       L1     2  1.00
      P1  H  8011  8017       L1    10  1.00

> <Gold.PLP.Chemscore.Internal.Correction>
0.0233

> <Gold.Rescore>
     Score         DG    S(hbond)    S(metal)    S(lipo)     H(rot)  DE(clash)    DE(int)     intcor
     17.70     -19.34       2.28        0.00     107.08       2.45       1.10       0.54       ----

> <Gold.Chemscore.Fitness>
17.7014

> <Gold.Chemscore.DG>
-19.3426

> <Gold.Chemscore.ZeroCoef>
-5.4800

> <Gold.Chemscore.Hbond>
2.2754

> <Gold.Chemscore.Metal>
0.0000

> <Gold.Chemscore.Lipo>
107.0771

> <Gold.Chemscore.Internal_Hbond>
0.0000

> <Gold.Chemscore.DEClash>
1.1006

> <Gold.Chemscore.DEInternal>
0.5406

> <Gold.Chemscore.Rot>
2.4474

> <Gold.Chemscore.Internal.Correction>
   9.000000E+99

> <Gold.Chemscore.Hbonds>
donor molecule, donor type, donor heavy atom, donor atom, acceptor molecule, acceptor atom, score
      L1  H    10    31       P1  7957  0.74
      P1  H  7989  7998       L1    10  0.03
      P1  H  7997  8010       L1     2  0.26
      P1  H  8011  8017       L1    10  0.25

> <Gold.Chemscore.Hbond.Weighted>
-7.5999

> <Gold.Chemscore.Metal.Weighted>
-0.0000

> <Gold.Chemscore.Lipo.Weighted>
-12.5280

> <Gold.Chemscore.Internal_Hbond.Weighted>
0.0000

> <Gold.Chemscore.DEClash.Weighted>
1.1006

> <Gold.Chemscore.DEInternal.Weighted>
0.5406

> <Gold.Chemscore.Rot.Weighted>
6.2654

> <Gold.Chemscore.Internal.Correction.Weighted>
   9.000000E+99

> <Gold.Protein.RotatedTorsions>
[ 6907 6896 6895 6894 ] final  -25.76 input  -60.11 | X-H torsion
[ 7974 7965 7964 7962 ] final   24.23 input  175.53 | X-H torsion
[ 8008 7997 7996 7995 ] final   23.96 input   59.86 | X-H torsion
[ 10167 10162 10161 10158 ] final   43.90 input  -65.29 | X-H torsion
[ 10718 10713 10712 10709 ] final  -75.96 input   66.30 | X-H torsion
[ 10763 10752 10751 10750 ] final -117.20 input  -60.55 | X-H torsion
[ 11005 11000 10999 10996 ] final  -76.95 input  -57.11 | X-H torsion

> <Gold.Protein.ActiveResidues>
 VAL166  LYS551  ARG553  GLY616  TRP617  ASP618  TYR619  PRO620  LYS621  CYS622 
 ASP623  PHE694  ASN695  SER759  ASP760  ASP761  ALA762  ILE779  LEU786  VAL792 
 PHE793  MET794  SER795  GLU796  ALA797  LYS798  CYS799  TRP800  GLU811  SER814 

> <Gold.Protein.RotatedAtoms>
  151.1705  135.0316  159.8749 H   0  0  0  0  0  0  0  0  0  0  0  0  # atno 6907 bound_to 6896
  152.5449  134.1176  159.8395 H   0  0  0  0  0  0  0  0  0  0  0  0  # atno 6908 bound_to 6896
  151.1281  133.5010  159.2632 H   0  0  0  0  0  0  0  0  0  0  0  0  # atno 6909 bound_to 6896
  146.1947  139.7634  142.8806 H   0  0  0  0  0  0  0  0  0  0  0  0  # atno 7974 bound_to 7965
  154.9890  140.3111  155.4914 H   0  0  0  0  0  0  0  0  0  0  0  0  # atno 8008 bound_to 7997
  156.2942  140.2252  156.4934 H   0  0  0  0  0  0  0  0  0  0  0  0  # atno 8009 bound_to 7997
  154.7720  140.0451  157.1047 H   0  0  0  0  0  0  0  0  0  0  0  0  # atno 8010 bound_to 7997
  140.3397  144.2485  150.6157 H   0  0  0  0  0  0  0  0  0  0  0  0  # atno 10167 bound_to 10162
  156.0190  130.4453  150.3122 H   0  0  0  0  0  0  0  0  0  0  0  0  # atno 10718 bound_to 10713
  154.8546  135.4318  154.1941 H   0  0  0  0  0  0  0  0  0  0  0  0  # atno 10763 bound_to 10752
  153.3003  135.6968  153.7215 H   0  0  0  0  0  0  0  0  0  0  0  0  # atno 10764 bound_to 10752
  153.6348  135.3478  155.3027 H   0  0  0  0  0  0  0  0  0  0  0  0  # atno 10765 bound_to 10752
  141.1657  133.7003  156.7747 H   0  0  0  0  0  0  0  0  0  0  0  0  # atno 11005 bound_to 11000
  145.3680  141.0338  143.3247 LP  0  0  0  0  0  0  0  0  0  0  0  0  # atno 17320 bound_to 7965
  144.8557  139.5253  143.6835 LP  0  0  0  0  0  0  0  0  0  0  0  0  # atno 17321 bound_to 7965
  140.5320  143.2241  151.8223 LP  0  0  0  0  0  0  0  0  0  0  0  0  # atno 17342 bound_to 10162
  139.4842  144.4708  151.9427 LP  0  0  0  0  0  0  0  0  0  0  0  0  # atno 17343 bound_to 10162
  157.1223  131.0250  151.3004 LP  0  0  0  0  0  0  0  0  0  0  0  0  # atno 17370 bound_to 10713
  157.4618  130.7657  149.7242 LP  0  0  0  0  0  0  0  0  0  0  0  0  # atno 17371 bound_to 10713
  140.2439  134.8593  157.3600 LP  0  0  0  0  0  0  0  0  0  0  0  0  # atno 17394 bound_to 11000
  140.1769  134.4538  155.7796 LP  0  0  0  0  0  0  0  0  0  0  0  0  # atno 17395 bound_to 11000

$$$$
