#       Name:                AV-unprocessed.smi:1163
#       Creating user name   scv26
#       Creation time:       Fri Mar 27 03:50:38 2020


#       File generated by GOLD software.
#

@<TRIPOS>MOLECULE
AV-unprocessed.smi:1163
    45    46     1
SMALL
NO_CHARGES


@<TRIPOS>ATOM
      1 ****        -7.9483   1.2170   0.7794 C.3            1 S1                 0.0000
      2 ****        -7.1958   0.0355   0.5266 O.3            1 S1                 0.0000
      3 ****        -5.8259   0.1454   0.4034 C.ar           1 S1                 0.0000
      4 ****        -5.0768  -1.0186   0.1422 C.ar           1 S1                 0.0000
      5 ****        -3.6785  -0.9161   0.0135 C.ar           1 S1                 0.0000
      6 ****        -3.0683   0.3540   0.1555 C.ar           1 S1                 0.0000
      7 ****        -1.6730   0.6065   0.0401 N.am           1 S1                 0.0000
      8 ****        -0.6522  -0.2640  -0.0478 C.2            1 S1                 0.0000
      9 ****        -0.7487  -1.4900  -0.0240 O.2            1 S1                 0.0000
     10 ****         0.5202   0.3760  -0.1594 N.am           1 S1                 0.0000
     11 ****         1.8155  -0.2828  -0.2880 C.3            1 S1                 0.0000
     12 ****         2.3415  -0.9181   0.9947 C.3            1 S1                 0.0000
     13 ****         3.8359  -1.0607   0.6919 C.3            1 S1                 0.0000
     14 ****         4.1933   0.0566  -0.2197 N.4            1 S1                 1.0000
     15 ****         5.0883  -0.3154  -1.3446 C.3            1 S1                 0.0000
     16 ****         6.5252  -0.6247  -0.8866 C.3            1 S1                 0.0000
     17 ****         7.2897  -0.8189  -1.9601 F              1 S1                 0.0000
     18 ****         7.0151   0.4033  -0.1940 F              1 S1                 0.0000
     19 ****         6.5705  -1.7230  -0.1332 F              1 S1                 0.0000
     20 ****         2.9282   0.7044  -0.6396 C.3            1 S1                 0.0000
     21 ****        -3.9101   1.4570   0.4102 C.ar           1 S1                 0.0000
     22 ****        -5.2507   1.3659   0.5343 N.ar           1 S1                 0.0000
     23 ****        -9.0057   0.9625   0.8498 H              1 S1                 0.0000
     24 ****        -7.8353   1.9416  -0.0283 H              1 S1                 0.0000
     25 ****        -7.6567   1.6824   1.7221 H              1 S1                 0.0000
     26 ****        -5.5672  -1.9754   0.0386 H              1 S1                 0.0000
     27 ****        -3.1167  -1.8114  -0.1984 H              1 S1                 0.0000
     28 ****        -1.4178   1.5831   0.0442 H              1 S1                 0.0000
     29 ****         0.5138   1.3856  -0.1661 H              1 S1                 0.0000
     30 ****         1.7600  -1.0429  -1.0705 H              1 S1                 0.0000
     31 ****         2.1918  -0.2478   1.8426 H              1 S1                 0.0000
     32 ****         1.8657  -1.8715   1.2262 H              1 S1                 0.0000
     33 ****         4.4436  -1.0435   1.5971 H              1 S1                 0.0000
     34 ****         4.0037  -2.0194   0.1986 H              1 S1                 0.0000
     35 ****         4.6667  -1.1541  -1.9008 H              1 S1                 0.0000
     36 ****         5.1333   0.5245  -2.0394 H              1 S1                 0.0000
     37 ****         2.9111   0.9797  -1.6951 H              1 S1                 0.0000
     38 ****         2.8183   1.6231  -0.0610 H              1 S1                 0.0000
     39 ****        -3.4950   2.4483   0.5195 H              1 S1                 0.0000
     40 ****         4.6908   0.7454   0.3267 H              1 S1                 0.0000
     41 ****        -7.5391  -0.3571  -0.3267 LP             1 S1                 0.0000
     42 ****        -7.3753  -0.5966   1.2803 LP             1 S1                 0.0000
     43 ****        -1.6473  -1.9191   0.0675 LP             1 S1                 0.0000
     44 ****         0.0714  -2.0576  -0.0962 LP             1 S1                 0.0000
     45 ****        -5.8053   2.1775   0.7180 LP             1 S1                 0.0000
@<TRIPOS>BOND
    1    1    2 1     
    2    1   23 1     
    3    1   24 1     
    4    1   25 1     
    5    2    3 1     
    6    3   22 ar    
    7    3    4 ar    
    8    4    5 ar    
    9    4   26 1     
   10    5    6 ar    
   11    5   27 1     
   12    6    7 1     
   13    6   21 ar    
   14    7    8 am    
   15    7   28 1     
   16    8    9 2     
   17    8   10 am    
   18   10   11 1     
   19   10   29 1     
   20   11   20 1     
   21   11   12 1     
   22   11   30 1     
   23   12   13 1     
   24   12   31 1     
   25   12   32 1     
   26   13   14 1     
   27   13   33 1     
   28   13   34 1     
   29   14   15 1     
   30   14   20 1     
   31   14   40 1     
   32   15   16 1     
   33   15   35 1     
   34   15   36 1     
   35   16   17 1     
   36   16   18 1     
   37   16   19 1     
   38   20   37 1     
   39   20   38 1     
   40   21   22 ar    
   41   21   39 1     
   42    2   41 1     
   43    2   42 1     
   44    9   43 1     
   45    9   44 1     
   46   22   45 1     
@<TRIPOS>SUBSTRUCTURE
      1 S1             1
@<TRIPOS>SET
LONE_PAIRS      STATIC     ATOMS    <user>   **** ""
5 41 42 43 44 45
DONOR_HYDROGENS      STATIC     ATOMS    <user>   **** ""
3 28 29 40
ATOM$BLUE        STATIC     ATOMS    COLORGROUP SYSTEM
5 41 42 43 44 45
ATOM$RED        STATIC     ATOMS    COLORGROUP SYSTEM
3 28 29 40
