AV-unprocessed.smi:196|AV-procd|sdf|1533|dock10
  -GOLD-   2262019383D 1   1.00000     0.00000
 Structure written by MMmdl.
 47 50  0  0  0  0  0  0  0  0  1 V2000
  153.1790  138.1621  155.6217 C   0  0  0  0  0  0  0  0  0  0  0  0
  151.6494  138.2555  155.7458 C   0  0  1  0  0  0  0  0  0  0  0  0
  151.1958  139.5671  155.4129 O   0  0  0  0  0  0  0  0  0  0  0  0
  150.2468  139.5035  154.3579 C   0  0  0  0  0  0  0  0  0  0  0  0
  149.6295  138.1173  154.4889 C   0  0  0  0  0  0  0  0  0  0  0  0
  150.8222  137.2630  154.8949 C   0  0  1  0  0  0  0  0  0  0  0  0
  151.5260  136.8941  153.7190 O   0  0  0  0  0  0  0  0  0  0  0  0
  150.4418  135.9757  155.6639 C   0  0  0  0  0  0  0  0  0  0  0  0
  149.4537  135.1613  154.9738 N   0  0  0  0  0  0  0  0  0  0  0  0
  149.6933  134.0254  154.2326 C   0  0  0  0  0  0  0  0  0  0  0  0
  148.6353  133.4666  153.7108 N   0  0  0  0  0  0  0  0  0  0  0  0
  147.5887  134.2835  154.1183 C   0  0  0  0  0  0  0  0  0  0  0  0
  146.1844  134.2637  153.9142 C   0  0  0  0  0  0  0  0  0  0  0  0
  145.5778  133.2939  153.1908 N   0  0  0  0  0  0  0  0  0  0  0  0
  145.9571  131.9275  153.5443 C   0  0  0  0  0  0  0  0  0  0  0  0
  146.6076  131.3424  152.2955 C   0  0  1  0  0  0  0  0  0  0  0  0
  146.5033  130.0153  152.2332 F   0  0  0  0  0  0  0  0  0  0  0  0
  145.8504  132.0430  151.1778 C   0  0  0  0  0  0  0  0  0  0  0  0
  145.6540  133.4645  151.7308 C   0  0  1  0  0  0  0  0  0  0  0  0
  144.4245  134.1498  151.1069 C   0  0  0  0  0  0  0  0  0  0  0  0
  143.2086  133.6637  151.3749 N   0  0  0  0  0  0  0  0  0  0  0  0
  144.5782  135.1303  150.3820 O   0  0  0  0  0  0  0  0  0  0  0  0
  145.4458  135.2596  154.4719 N   0  0  0  0  0  0  0  0  0  0  0  0
  146.0466  136.2130  155.1909 C   0  0  0  0  0  0  0  0  0  0  0  0
  147.3444  136.3556  155.4697 N   0  0  0  0  0  0  0  0  0  0  0  0
  148.0855  135.3582  154.9070 C   0  0  0  0  0  0  0  0  0  0  0  0
  147.6671  131.5994  152.2577 H   0  0  0  0  0  0  0  0  0  0  0  0
  146.5307  134.0596  151.4665 H   0  0  0  0  0  0  0  0  0  0  0  0
  153.5319  137.1609  155.8698 H   0  0  0  0  0  0  0  0  0  0  0  0
  153.6639  138.8625  156.3018 H   0  0  0  0  0  0  0  0  0  0  0  0
  153.5170  138.4008  154.6130 H   0  0  0  0  0  0  0  0  0  0  0  0
  151.3887  138.1191  156.7962 H   0  0  0  0  0  0  0  0  0  0  0  0
  149.5095  140.3028  154.4335 H   0  0  0  0  0  0  0  0  0  0  0  0
  150.7659  139.6061  153.4038 H   0  0  0  0  0  0  0  0  0  0  0  0
  148.8869  138.1314  155.2880 H   0  0  0  0  0  0  0  0  0  0  0  0
  149.1349  137.7803  153.5768 H   0  0  0  0  0  0  0  0  0  0  0  0
  151.7766  137.6806  153.2589 H   0  0  0  0  0  0  0  0  0  0  0  0
  151.3284  135.3670  155.8464 H   0  0  0  0  0  0  0  0  0  0  0  0
  150.0390  136.2279  156.6458 H   0  0  0  0  0  0  0  0  0  0  0  0
  150.6846  133.6185  154.0940 H   0  0  0  0  0  0  0  0  0  0  0  0
  146.6150  131.8572  154.4126 H   0  0  0  0  0  0  0  0  0  0  0  0
  145.0437  131.3834  153.7879 H   0  0  0  0  0  0  0  0  0  0  0  0
  146.3936  132.0292  150.2325 H   0  0  0  0  0  0  0  0  0  0  0  0
  144.8891  131.5496  151.0205 H   0  0  0  0  0  0  0  0  0  0  0  0
  142.3923  134.1002  150.9704 H   0  0  0  0  0  0  0  0  0  0  0  0
  143.1108  132.8598  151.9780 H   0  0  0  0  0  0  0  0  0  0  0  0
  145.3943  136.9694  155.6020 H   0  0  0  0  0  0  0  0  0  0  0  0
  1  2  1  0  0  0  0
  1 29  1  0  0  0  0
  1 30  1  0  0  0  0
  1 31  1  0  0  0  0
  2  6  1  0  0  0  0
  2  3  1  0  0  0  0
  2 32  1  0  0  0  0
  3  4  1  0  0  0  0
  4  5  1  0  0  0  0
  4 33  1  0  0  0  0
  4 34  1  0  0  0  0
  5  6  1  0  0  0  0
  5 35  1  0  0  0  0
  5 36  1  0  0  0  0
  6  7  1  0  0  0  0
  6  8  1  0  0  0  0
  7 37  1  0  0  0  0
  8  9  1  0  0  0  0
  8 38  1  0  0  0  0
  8 39  1  0  0  0  0
  9 26  1  0  0  0  0
  9 10  1  0  0  0  0
 10 11  2  0  0  0  0
 10 40  1  0  0  0  0
 11 12  1  0  0  0  0
 12 26  2  0  0  0  0
 12 13  1  0  0  0  0
 13 14  1  0  0  0  0
 13 23  2  0  0  0  0
 14 19  1  0  0  0  0
 14 15  1  0  0  0  0
 15 16  1  0  0  0  0
 15 41  1  0  0  0  0
 15 42  1  0  0  0  0
 16 27  1  0  0  0  0
 16 17  1  0  0  0  0
 16 18  1  0  0  0  0
 18 19  1  0  0  0  0
 18 43  1  0  0  0  0
 18 44  1  0  0  0  0
 19 28  1  0  0  0  0
 19 20  1  0  0  0  0
 20 21  1  0  0  0  0
 20 22  2  0  0  0  0
 21 45  1  0  0  0  0
 21 46  1  0  0  0  0
 23 24  1  0  0  0  0
 24 25  2  0  0  0  0
 24 47  1  0  0  0  0
 25 26  1  0  0  0  0
M  END
> <s_m_source_file>
AV-unprocessed.smi

> <i_m_source_file_index>
196

> <i_lp_mmshare_version>
43012

> <i_f3d_flags>
0

> <s_epik_input>
W0NIMl0xW0NIMl1PW0NAQEhdKFtDSDNdKVtDQEBdMShbT0hdKVtDSDJdbihbY0hdbjIpYyhjMjMpbltjSF1uYzNONFtDSDJdW0NASF0oRilbQ0gyXVtDQEhdNEMoPU8pW05IMl0=

> <s_epik_cmdline>
J2VwaWtfcHl0aG9uJywgJy1waCcsICc3LjAnLCAnLXRuJywgJzgnLCAnLW1hJywgJzIwMCcsICctbWV0YWxfYmluZGluZycsICctaW1hZScsICc8aW5maWxlLm1hZT4nLCAnLW9tYWUnLCAnPG91dGZpbGUubWFlPic=

> <r_lp_tautomer_probability>
1

> <r_epik_Ionization_Penalty>
0.000857933

> <r_epik_Ionization_Penalty_Charging>
0

> <r_epik_Ionization_Penalty_Neutral>
0.000857933

> <r_epik_State_Penalty>
0.000462053

> <r_epik_Charging_Adjusted_Penalty>
0.000462053

> <i_epik_Tot_Q>
0

> <i_epik_Tot_abs_Q>
0

> <r_epik_Metal_State_Penalty>
-0

> <b_epik_Metal_Only>
0

> <s_lp_Force_Field>
OPLS_2005

> <r_lp_Energy>
45.9197

> <b_lp_Chiralities_Consistent>
1

> <s_lp_Variant>
AV-unprocessed.smi:196-6

> <Gold.Version>
5.8.1

> <Gold.Id.Protein>
6NUR|6NUR_protein|mol2

> <Gold.PLP.Fitness>
37.2864

> <Gold.PLP.PLP>
-32.8040

> <Gold.PLP.part.hbond>
-3.3686

> <Gold.PLP.part.metal>
0.0000

> <Gold.PLP.part.buried>
-4.4931

> <Gold.PLP.part.nonpolar>
-26.3131

> <Gold.PLP.part.repulsive>
0.6421

> <Gold.PLP.ligand.clash>
0.0000

> <Gold.PLP.ligand.torsion>
0.8042

> <Gold.PLP.Chemscore.Hbond>
2.0000

> <Gold.PLP.Chemscore.CHOScore>
0.0000

> <Gold.PLP.Chemscore.Metal>
0.0000

> <Gold.Chemscore.Hbonds>
donor molecule, donor type, donor heavy atom, donor atom, acceptor molecule, acceptor atom, score
      L1  H    21    45       P1 10186  1.00
      P1  H 10752 10763       L1     7  0.99

> <Gold.PLP.Chemscore.Internal.Correction>
0.0909

> <Gold.Rescore>
     Score         DG    S(hbond)    S(metal)    S(lipo)     H(rot)  DE(clash)    DE(int)     intcor
      6.21      -9.64       1.36        0.00      63.22       3.04       2.64       0.79       ----

> <Gold.Chemscore.Fitness>
6.2100

> <Gold.Chemscore.DG>
-9.6396

> <Gold.Chemscore.ZeroCoef>
-5.4800

> <Gold.Chemscore.Hbond>
1.3618

> <Gold.Chemscore.Metal>
0.0000

> <Gold.Chemscore.Lipo>
63.2222

> <Gold.Chemscore.Internal_Hbond>
0.0000

> <Gold.Chemscore.DEClash>
2.6411

> <Gold.Chemscore.DEInternal>
0.7885

> <Gold.Chemscore.Rot>
3.0413

> <Gold.Chemscore.Internal.Correction>
   9.000000E+99

> <Gold.Chemscore.Hbonds>
donor molecule, donor type, donor heavy atom, donor atom, acceptor molecule, acceptor atom, score
      L1  H    21    45       P1 10186  0.28
      P1  H 10752 10763       L1     7  0.34

> <Gold.Chemscore.Hbond.Weighted>
-4.5483

> <Gold.Chemscore.Metal.Weighted>
-0.0000

> <Gold.Chemscore.Lipo.Weighted>
-7.3970

> <Gold.Chemscore.Internal_Hbond.Weighted>
0.0000

> <Gold.Chemscore.DEClash.Weighted>
2.6411

> <Gold.Chemscore.DEInternal.Weighted>
0.7885

> <Gold.Chemscore.Rot.Weighted>
7.7856

> <Gold.Chemscore.Internal.Correction.Weighted>
   9.000000E+99

> <Gold.Protein.RotatedTorsions>
[ 6907 6896 6895 6894 ] final -123.45 input  -60.11 | X-H torsion
[ 7974 7965 7964 7962 ] final   51.24 input  175.53 | X-H torsion
[ 8008 7997 7996 7995 ] final -141.77 input   59.86 | X-H torsion
[ 10167 10162 10161 10158 ] final   91.94 input  -65.29 | X-H torsion
[ 10718 10713 10712 10709 ] final  110.49 input   66.30 | X-H torsion
[ 10763 10752 10751 10750 ] final   51.18 input  -60.55 | X-H torsion
[ 11005 11000 10999 10996 ] final -157.26 input  -57.11 | X-H torsion

> <Gold.Protein.ActiveResidues>
 VAL166  LYS551  ARG553  GLY616  TRP617  ASP618  TYR619  PRO620  LYS621  CYS622 
 ASP623  PHE694  ASN695  SER759  ASP760  ASP761  ALA762  ILE779  LEU786  VAL792 
 PHE793  MET794  SER795  GLU796  ALA797  LYS798  CYS799  TRP800  GLU811  SER814 

> <Gold.Protein.RotatedAtoms>
  150.8672  133.7557  159.2972 H   0  0  0  0  0  0  0  0  0  0  0  0  # atno 6907 bound_to 6896
  151.5181  135.1065  159.9881 H   0  0  0  0  0  0  0  0  0  0  0  0  # atno 6908 bound_to 6896
  152.4669  133.7899  159.6952 H   0  0  0  0  0  0  0  0  0  0  0  0  # atno 6909 bound_to 6896
  145.9933  139.4362  143.0060 H   0  0  0  0  0  0  0  0  0  0  0  0  # atno 7974 bound_to 7965
  155.4833  140.0562  157.2964 H   0  0  0  0  0  0  0  0  0  0  0  0  # atno 8008 bound_to 7997
  154.4652  140.2015  156.0091 H   0  0  0  0  0  0  0  0  0  0  0  0  # atno 8009 bound_to 7997
  156.0961  140.3226  155.7884 H   0  0  0  0  0  0  0  0  0  0  0  0  # atno 8010 bound_to 7997
  139.8325  144.6680  150.9382 H   0  0  0  0  0  0  0  0  0  0  0  0  # atno 10167 bound_to 10162
  157.6492  131.0933  150.6609 H   0  0  0  0  0  0  0  0  0  0  0  0  # atno 10718 bound_to 10713
  152.9785  135.5854  154.4373 H   0  0  0  0  0  0  0  0  0  0  0  0  # atno 10763 bound_to 10752
  154.3979  135.2768  155.2117 H   0  0  0  0  0  0  0  0  0  0  0  0  # atno 10764 bound_to 10752
  154.3960  135.6114  153.5924 H   0  0  0  0  0  0  0  0  0  0  0  0  # atno 10765 bound_to 10752
  140.6665  134.4293  157.5233 H   0  0  0  0  0  0  0  0  0  0  0  0  # atno 11005 bound_to 11000
  145.7597  140.9940  143.1206 LP  0  0  0  0  0  0  0  0  0  0  0  0  # atno 17320 bound_to 7965
  144.6896  139.9315  143.7472 LP  0  0  0  0  0  0  0  0  0  0  0  0  # atno 17321 bound_to 7965
  140.7805  143.3987  151.1185 LP  0  0  0  0  0  0  0  0  0  0  0  0  # atno 17342 bound_to 10162
  139.7640  143.8593  152.3106 LP  0  0  0  0  0  0  0  0  0  0  0  0  # atno 17343 bound_to 10162
  156.6922  130.4598  149.5596 LP  0  0  0  0  0  0  0  0  0  0  0  0  # atno 17370 bound_to 10713
  156.1853  130.6525  151.0999 LP  0  0  0  0  0  0  0  0  0  0  0  0  # atno 17371 bound_to 10713
  139.8995  134.8589  156.1956 LP  0  0  0  0  0  0  0  0  0  0  0  0  # atno 17394 bound_to 11000
  141.0425  133.6930  156.1623 LP  0  0  0  0  0  0  0  0  0  0  0  0  # atno 17395 bound_to 11000

$$$$
