AV-unprocessed.smi:1667|AV-procd|sdf|6674|dock2
  -GOLD-   22720 7383D 1   1.00000     0.00000
 Structure written by MMmdl.
 45 47  0  0  0  0  0  0  0  0  1 V2000
  154.7724  136.9782  160.3796 C   0  0  0  0  0  0  0  0  0  0  0  0
  153.3969  137.3826  159.8612 C   0  0  0  0  0  0  0  0  0  0  0  0
  152.4023  136.7460  160.2055 O   0  0  0  0  0  0  0  0  0  0  0  0
  153.3713  138.4422  159.0339 N   0  0  0  0  0  0  0  0  0  0  0  0
  152.2203  139.0732  158.3755 C   0  0  2  0  0  0  0  0  0  0  0  0
  152.2281  138.9598  156.8400 C   0  0  0  0  0  0  0  0  0  0  0  0
  152.0447  140.4948  158.8600 C   0  0  0  0  0  0  0  0  0  0  0  0
  152.8692  141.0592  159.7472 N   0  0  0  0  0  0  0  0  0  0  0  0
  152.3557  142.3313  159.8893 C   0  0  0  0  0  0  0  0  0  0  0  0
  152.7808  143.4091  160.6983 C   0  0  0  0  0  0  0  0  0  0  0  0
  152.0856  144.6360  160.6752 C   0  0  0  0  0  0  0  0  0  0  0  0
  150.9589  144.8019  159.8438 C   0  0  0  0  0  0  0  0  0  0  0  0
  150.5202  143.7403  159.0295 C   0  0  0  0  0  0  0  0  0  0  0  0
  151.2178  142.5174  159.0573 C   0  0  0  0  0  0  0  0  0  0  0  0
  151.0548  141.3047  158.3953 N   0  0  0  0  0  0  0  0  0  0  0  0
  150.0159  141.0176  157.4135 C   0  0  0  0  0  0  0  0  0  0  0  0
  150.3406  141.5921  156.0196 C   0  0  2  0  0  0  0  0  0  0  0  0
  150.7078  142.9554  156.1184 O   0  0  0  0  0  0  0  0  0  0  0  0
  149.1867  141.3749  155.0532 C   0  0  0  0  0  0  0  0  0  0  0  0
  149.0391  140.1326  154.3994 C   0  0  0  0  0  0  0  0  0  0  0  0
  147.9679  139.9215  153.5093 C   0  0  0  0  0  0  0  0  0  0  0  0
  147.0372  140.9507  153.2693 C   0  0  0  0  0  0  0  0  0  0  0  0
  147.1766  142.1905  153.9216 C   0  0  0  0  0  0  0  0  0  0  0  0
  146.2806  143.1796  153.6939 F   0  0  0  0  0  0  0  0  0  0  0  0
  148.2467  142.4016  154.8126 C   0  0  0  0  0  0  0  0  0  0  0  0
  151.3835  138.4746  158.7283 H   0  0  0  0  0  0  0  0  0  0  0  0
  155.1876  137.7660  161.0089 H   0  0  0  0  0  0  0  0  0  0  0  0
  155.4564  136.8009  159.5492 H   0  0  0  0  0  0  0  0  0  0  0  0
  154.7113  136.0643  160.9713 H   0  0  0  0  0  0  0  0  0  0  0  0
  154.2640  138.8664  158.8278 H   0  0  0  0  0  0  0  0  0  0  0  0
  151.2761  139.2940  156.4267 H   0  0  0  0  0  0  0  0  0  0  0  0
  152.3809  137.9285  156.5210 H   0  0  0  0  0  0  0  0  0  0  0  0
  153.0064  139.5734  156.3862 H   0  0  0  0  0  0  0  0  0  0  0  0
  153.6432  143.2909  161.3376 H   0  0  0  0  0  0  0  0  0  0  0  0
  152.4186  145.4532  161.2982 H   0  0  0  0  0  0  0  0  0  0  0  0
  150.4321  145.7449  159.8313 H   0  0  0  0  0  0  0  0  0  0  0  0
  149.6577  143.8644  158.3916 H   0  0  0  0  0  0  0  0  0  0  0  0
  149.9116  139.9340  157.3443 H   0  0  0  0  0  0  0  0  0  0  0  0
  149.0532  141.3757  157.7765 H   0  0  0  0  0  0  0  0  0  0  0  0
  151.2140  141.0703  155.6258 H   0  0  0  0  0  0  0  0  0  0  0  0
  150.0298  143.4771  155.7165 H   0  0  0  0  0  0  0  0  0  0  0  0
  149.7462  139.3361  154.5793 H   0  0  0  0  0  0  0  0  0  0  0  0
  147.8592  138.9697  153.0106 H   0  0  0  0  0  0  0  0  0  0  0  0
  146.2160  140.7886  152.5869 H   0  0  0  0  0  0  0  0  0  0  0  0
  148.3421  143.3544  155.3124 H   0  0  0  0  0  0  0  0  0  0  0  0
  1  2  1  0  0  0  0
  1 27  1  0  0  0  0
  1 28  1  0  0  0  0
  1 29  1  0  0  0  0
  2  3  2  0  0  0  0
  2  4  1  0  0  0  0
  4  5  1  0  0  0  0
  4 30  1  0  0  0  0
  5 26  1  0  0  0  0
  5  6  1  0  0  0  0
  5  7  1  0  0  0  0
  6 31  1  0  0  0  0
  6 32  1  0  0  0  0
  6 33  1  0  0  0  0
  7 15  1  0  0  0  0
  7  8  2  0  0  0  0
  8  9  1  0  0  0  0
  9 14  2  0  0  0  0
  9 10  1  0  0  0  0
 10 11  2  0  0  0  0
 10 34  1  0  0  0  0
 11 12  1  0  0  0  0
 11 35  1  0  0  0  0
 12 13  2  0  0  0  0
 12 36  1  0  0  0  0
 13 14  1  0  0  0  0
 13 37  1  0  0  0  0
 14 15  1  0  0  0  0
 15 16  1  0  0  0  0
 16 17  1  0  0  0  0
 16 38  1  0  0  0  0
 16 39  1  0  0  0  0
 17 18  1  0  0  0  0
 17 19  1  0  0  0  0
 17 40  1  0  0  0  0
 18 41  1  0  0  0  0
 19 25  1  0  0  0  0
 19 20  2  0  0  0  0
 20 21  1  0  0  0  0
 20 42  1  0  0  0  0
 21 22  2  0  0  0  0
 21 43  1  0  0  0  0
 22 23  1  0  0  0  0
 22 44  1  0  0  0  0
 23 24  1  0  0  0  0
 23 25  2  0  0  0  0
 25 45  1  0  0  0  0
M  END
> <s_m_source_file>
AV-unprocessed.smi

> <i_m_source_file_index>
1667

> <i_lp_mmshare_version>
43012

> <i_f3d_flags>
0

> <s_epik_input>
W0NIM11DKD1PKVtOSF1bQ0BASF0oW0NIM10pYyhuMSluKGMoYzEyKVtjSF1bY0hdW2NIXVtjSF0yKVtDSDJdW0NASF0oW09IXSljM1tjSF1bY0hdW2NIXWMoRilbY0hdMw==

> <s_epik_cmdline>
J2VwaWtfcHl0aG9uJywgJy1waCcsICc3LjAnLCAnLXRuJywgJzgnLCAnLW1hJywgJzIwMCcsICctbWV0YWxfYmluZGluZycsICctaW1hZScsICc8aW5maWxlLm1hZT4nLCAnLW9tYWUnLCAnPG91dGZpbGUubWFlPic=

> <r_epik_Ionization_Penalty>
0.133011

> <r_epik_Ionization_Penalty_Charging>
0

> <r_epik_Ionization_Penalty_Neutral>
0.133011

> <r_epik_State_Penalty>
0.122384

> <r_epik_Charging_Adjusted_Penalty>
0.122384

> <i_epik_Tot_Q>
0

> <i_epik_Tot_abs_Q>
0

> <r_epik_Metal_State_Penalty>
0.0997374

> <b_epik_Metal_Only>
0

> <s_lp_Force_Field>
OPLS_2005

> <r_lp_Energy>
10.1709

> <b_lp_Chiralities_Consistent>
1

> <s_lp_Variant>
AV-unprocessed.smi:1667-2

> <Gold.Version>
5.8.1

> <Gold.Id.Protein>
6NUR|6NUR_protein|mol2

> <Gold.PLP.Fitness>
52.6601

> <Gold.PLP.PLP>
-48.6067

> <Gold.PLP.part.hbond>
-2.0000

> <Gold.PLP.part.metal>
0.0000

> <Gold.PLP.part.buried>
-1.2135

> <Gold.PLP.part.nonpolar>
-43.9481

> <Gold.PLP.part.repulsive>
0.0796

> <Gold.PLP.ligand.clash>
0.0000

> <Gold.PLP.ligand.torsion>
1.0809

> <Gold.PLP.Chemscore.Hbond>
2.0000

> <Gold.PLP.Chemscore.CHOScore>
0.0000

> <Gold.PLP.Chemscore.Metal>
0.0000

> <Gold.Chemscore.Hbonds>
donor molecule, donor type, donor heavy atom, donor atom, acceptor molecule, acceptor atom, score
      L1  H    18    41       P1  8028  1.00
      P1  H  6896  6909       L1     3  1.00

> <Gold.PLP.Chemscore.Internal.Correction>
0.2151

> <Gold.Rescore>
     Score         DG    S(hbond)    S(metal)    S(lipo)     H(rot)  DE(clash)    DE(int)     intcor
     15.94     -20.82       1.97        0.00     128.99       2.48       3.04       1.84       ----

> <Gold.Chemscore.Fitness>
15.9405

> <Gold.Chemscore.DG>
-20.8203

> <Gold.Chemscore.ZeroCoef>
-5.4800

> <Gold.Chemscore.Hbond>
1.9721

> <Gold.Chemscore.Metal>
0.0000

> <Gold.Chemscore.Lipo>
128.9918

> <Gold.Chemscore.Internal_Hbond>
0.0000

> <Gold.Chemscore.DEClash>
3.0435

> <Gold.Chemscore.DEInternal>
1.8364

> <Gold.Chemscore.Rot>
2.4760

> <Gold.Chemscore.Internal.Correction>
   9.000000E+99

> <Gold.Chemscore.Hbonds>
donor molecule, donor type, donor heavy atom, donor atom, acceptor molecule, acceptor atom, score
      L1  H    18    41       P1  8028  0.98
      P1  H  6896  6909       L1     3  1.00

> <Gold.Chemscore.Hbond.Weighted>
-6.5867

> <Gold.Chemscore.Metal.Weighted>
-0.0000

> <Gold.Chemscore.Lipo.Weighted>
-15.0920

> <Gold.Chemscore.Internal_Hbond.Weighted>
0.0000

> <Gold.Chemscore.DEClash.Weighted>
3.0435

> <Gold.Chemscore.DEInternal.Weighted>
1.8364

> <Gold.Chemscore.Rot.Weighted>
6.3385

> <Gold.Chemscore.Internal.Correction.Weighted>
   9.000000E+99

> <Gold.Protein.RotatedTorsions>
[ 6907 6896 6895 6894 ] final  129.51 input  -60.11 | X-H torsion
[ 7974 7965 7964 7962 ] final   64.10 input  175.53 | X-H torsion
[ 8008 7997 7996 7995 ] final   23.73 input   59.86 | X-H torsion
[ 10167 10162 10161 10158 ] final -150.29 input  -65.29 | X-H torsion
[ 10718 10713 10712 10709 ] final -132.04 input   66.30 | X-H torsion
[ 10763 10752 10751 10750 ] final -157.04 input  -60.55 | X-H torsion
[ 11005 11000 10999 10996 ] final -168.58 input  -57.11 | X-H torsion

> <Gold.Protein.ActiveResidues>
 VAL166  LYS551  ARG553  GLY616  TRP617  ASP618  TYR619  PRO620  LYS621  CYS622 
 ASP623  PHE694  ASN695  SER759  ASP760  ASP761  ALA762  ILE779  LEU786  VAL792 
 PHE793  MET794  SER795  GLU796  ALA797  LYS798  CYS799  TRP800  GLU811  SER814 

> <Gold.Protein.RotatedAtoms>
  152.3617  133.6305  159.6019 H   0  0  0  0  0  0  0  0  0  0  0  0  # atno 6907 bound_to 6896
  150.7606  133.9413  159.3466 H   0  0  0  0  0  0  0  0  0  0  0  0  # atno 6908 bound_to 6896
  151.7250  135.0887  160.0341 H   0  0  0  0  0  0  0  0  0  0  0  0  # atno 6909 bound_to 6896
  145.8541  139.3273  143.0857 H   0  0  0  0  0  0  0  0  0  0  0  0  # atno 7974 bound_to 7965
  154.9855  140.3107  155.4928 H   0  0  0  0  0  0  0  0  0  0  0  0  # atno 8008 bound_to 7997
  156.2947  140.2259  156.4896 H   0  0  0  0  0  0  0  0  0  0  0  0  # atno 8009 bound_to 7997
  154.7751  140.0449  157.1070 H   0  0  0  0  0  0  0  0  0  0  0  0  # atno 8010 bound_to 7997
  139.7367  143.8725  152.2551 H   0  0  0  0  0  0  0  0  0  0  0  0  # atno 10167 bound_to 10162
  156.2305  130.7034  151.0853 H   0  0  0  0  0  0  0  0  0  0  0  0  # atno 10718 bound_to 10713
  154.7667  135.3133  154.8272 H   0  0  0  0  0  0  0  0  0  0  0  0  # atno 10763 bound_to 10752
  153.9019  135.6815  153.4759 H   0  0  0  0  0  0  0  0  0  0  0  0  # atno 10764 bound_to 10752
  153.1274  135.4795  154.9227 H   0  0  0  0  0  0  0  0  0  0  0  0  # atno 10765 bound_to 10752
  140.5404  134.5528  157.5098 H   0  0  0  0  0  0  0  0  0  0  0  0  # atno 11005 bound_to 11000
  145.9323  140.9039  143.0350 LP  0  0  0  0  0  0  0  0  0  0  0  0  # atno 17320 bound_to 7965
  144.6728  140.1435  143.7435 LP  0  0  0  0  0  0  0  0  0  0  0  0  # atno 17321 bound_to 7965
  139.8664  144.7091  150.9039 LP  0  0  0  0  0  0  0  0  0  0  0  0  # atno 17342 bound_to 10162
  140.7780  143.3775  151.1537 LP  0  0  0  0  0  0  0  0  0  0  0  0  # atno 17343 bound_to 10162
  157.7130  131.0724  150.6429 LP  0  0  0  0  0  0  0  0  0  0  0  0  # atno 17370 bound_to 10713
  156.6497  130.4481  149.5724 LP  0  0  0  0  0  0  0  0  0  0  0  0  # atno 17371 bound_to 10713
  139.9507  134.7622  156.0456 LP  0  0  0  0  0  0  0  0  0  0  0  0  # atno 17394 bound_to 11000
  141.1230  133.6607  156.3264 LP  0  0  0  0  0  0  0  0  0  0  0  0  # atno 17395 bound_to 11000

$$$$
