AV-unprocessed.smi:37|AV-procd|sdf|314|dock9
  -GOLD-   2262016133D 1   1.00000     0.00000
 Structure written by MMmdl.
 44 45  0  0  0  0  0  0  0  0  1 V2000
  146.7069  134.5498  162.3879 C   0  0  0  0  0  0  0  0  0  0  0  0
  147.3414  135.9473  162.4382 C   0  0  0  0  0  0  0  0  0  0  0  0
  147.4214  136.6335  161.0730 C   0  0  0  0  0  0  0  0  0  0  0  0
  146.8338  137.6882  160.8261 O   0  0  0  0  0  0  0  0  0  0  0  0
  148.1951  135.9505  160.2172 O   0  0  0  0  0  0  0  0  0  0  0  0
  148.3235  136.3890  158.8748 C   0  0  0  0  0  0  0  0  0  0  0  0
  149.3285  137.5455  158.8115 C   0  0  1  0  0  0  0  0  0  0  0  0
  150.6269  137.0771  159.1704 O   0  0  0  0  0  0  0  0  0  0  0  0
  151.6000  137.7334  158.4140 C   0  0  2  0  0  0  0  0  0  0  0  0
  152.5665  138.4021  159.3639 N   0  0  0  0  0  0  0  0  0  0  0  0
  152.6799  139.7852  159.3933 C   0  0  0  0  0  0  0  0  0  0  0  0
  153.5045  140.4410  160.2433 C   0  0  0  0  0  0  0  0  0  0  0  0
  153.5605  141.7831  160.2097 F   0  0  0  0  0  0  0  0  0  0  0  0
  154.3296  139.7037  161.1954 C   0  0  0  0  0  0  0  0  0  0  0  0
  155.1083  140.2066  162.0027 O   0  0  0  0  0  0  0  0  0  0  0  0
  154.1772  138.3153  161.1362 N   0  0  0  0  0  0  0  0  0  0  0  0
  153.3298  137.6268  160.2658 C   0  0  0  0  0  0  0  0  0  0  0  0
  153.2839  136.3982  160.3038 O   0  0  0  0  0  0  0  0  0  0  0  0
  150.8908  138.7569  157.5265 C   0  0  1  0  0  0  0  0  0  0  0  0
  151.7638  138.9224  155.7455 Br  0  0  0  0  0  0  0  0  0  0  0  0
  149.5034  138.1618  157.4187 C   0  0  2  0  0  0  0  0  0  0  0  0
  148.5617  139.1943  157.1538 O   0  0  0  0  0  0  0  0  0  0  0  0
  148.6087  139.8829  155.9996 C   0  0  0  0  0  0  0  0  0  0  0  0
  149.4237  139.7115  155.0916 O   0  0  0  0  0  0  0  0  0  0  0  0
  147.5004  140.9342  155.9167 C   0  0  0  0  0  0  0  0  0  0  0  0
  147.4888  141.7109  154.5913 C   0  0  0  0  0  0  0  0  0  0  0  0
  154.7279  137.7634  161.7778 H   0  0  0  0  0  0  0  0  0  0  0  0
  146.6688  134.1100  163.3845 H   0  0  0  0  0  0  0  0  0  0  0  0
  147.2801  133.8744  161.7517 H   0  0  0  0  0  0  0  0  0  0  0  0
  145.6860  134.5903  162.0066 H   0  0  0  0  0  0  0  0  0  0  0  0
  146.7684  136.5851  163.1114 H   0  0  0  0  0  0  0  0  0  0  0  0
  148.3486  135.8789  162.8499 H   0  0  0  0  0  0  0  0  0  0  0  0
  148.6791  135.5533  158.2709 H   0  0  0  0  0  0  0  0  0  0  0  0
  147.3610  136.7020  158.4671 H   0  0  0  0  0  0  0  0  0  0  0  0
  149.0583  138.3188  159.5326 H   0  0  0  0  0  0  0  0  0  0  0  0
  152.1301  136.9714  157.8420 H   0  0  0  0  0  0  0  0  0  0  0  0
  152.0867  140.3741  158.7093 H   0  0  0  0  0  0  0  0  0  0  0  0
  150.8693  139.7373  158.0041 H   0  0  0  0  0  0  0  0  0  0  0  0
  149.5080  137.3792  156.6583 H   0  0  0  0  0  0  0  0  0  0  0  0
  146.5407  140.4363  156.0566 H   0  0  0  0  0  0  0  0  0  0  0  0
  147.6198  141.6285  156.7487 H   0  0  0  0  0  0  0  0  0  0  0  0
  146.6758  142.4368  154.5797 H   0  0  0  0  0  0  0  0  0  0  0  0
  147.3467  141.0438  153.7404 H   0  0  0  0  0  0  0  0  0  0  0  0
  148.4202  142.2582  154.4415 H   0  0  0  0  0  0  0  0  0  0  0  0
  1  2  1  0  0  0  0
  1 28  1  0  0  0  0
  1 29  1  0  0  0  0
  1 30  1  0  0  0  0
  2  3  1  0  0  0  0
  2 31  1  0  0  0  0
  2 32  1  0  0  0  0
  3  4  2  0  0  0  0
  3  5  1  0  0  0  0
  5  6  1  0  0  0  0
  6  7  1  0  0  0  0
  6 33  1  0  0  0  0
  6 34  1  0  0  0  0
  7 21  1  0  0  0  0
  7  8  1  0  0  0  0
  7 35  1  0  0  0  0
  8  9  1  0  0  0  0
  9 10  1  0  0  0  0
  9 19  1  0  0  0  0
  9 36  1  0  0  0  0
 10 17  1  0  0  0  0
 10 11  1  0  0  0  0
 11 12  2  0  0  0  0
 11 37  1  0  0  0  0
 12 13  1  0  0  0  0
 12 14  1  0  0  0  0
 14 15  2  0  0  0  0
 14 16  1  0  0  0  0
 16 27  1  0  0  0  0
 16 17  1  0  0  0  0
 17 18  2  0  0  0  0
 19 20  1  0  0  0  0
 19 21  1  0  0  0  0
 19 38  1  0  0  0  0
 21 22  1  0  0  0  0
 21 39  1  0  0  0  0
 22 23  1  0  0  0  0
 23 24  2  0  0  0  0
 23 25  1  0  0  0  0
 25 26  1  0  0  0  0
 25 40  1  0  0  0  0
 25 41  1  0  0  0  0
 26 42  1  0  0  0  0
 26 43  1  0  0  0  0
 26 44  1  0  0  0  0
M  END
> <s_m_source_file>
AV-unprocessed.smi

> <i_m_source_file_index>
37

> <i_lp_mmshare_version>
43012

> <i_f3d_flags>
0

> <s_epik_input>
W0NIM11bQ0gyXUMoPU8pT1tDSDJdW0NAQEhdMU9bQ0BASF0objJbY0hdYyhGKWMoPU8pW25IXWMyPU8pW0NAQEhdKEJyKVtDQEhdMU9DKD1PKVtDSDJdW0NIM10=

> <s_epik_cmdline>
J2VwaWtfcHl0aG9uJywgJy1waCcsICc3LjAnLCAnLXRuJywgJzgnLCAnLW1hJywgJzIwMCcsICctbWV0YWxfYmluZGluZycsICctaW1hZScsICc8aW5maWxlLm1hZT4nLCAnLW9tYWUnLCAnPG91dGZpbGUubWFlPic=

> <r_lp_tautomer_probability>
0.999537

> <r_epik_Ionization_Penalty>
0.104106

> <r_epik_Ionization_Penalty_Charging>
0.104106

> <r_epik_Ionization_Penalty_Neutral>
3.94675e-16

> <r_epik_State_Penalty>
0.0940182

> <r_epik_Charging_Adjusted_Penalty>
0.198124

> <i_epik_Tot_Q>
0

> <i_epik_Tot_abs_Q>
0

> <r_epik_Metal_State_Penalty>
3.05314

> <b_epik_Metal_Only>
0

> <s_epik_Chemistry_Notes>
This compound has an ester and may undergo hydrolysis at high or low pH. This compound contains an acetal/aminal-like group ( X-CH(R)-Y where X, Y are N, S, or O) that may be acid/base labile, releasing an aldehyde.

> <s_lp_Force_Field>
OPLS_2005

> <r_lp_Energy>
22.7414

> <b_lp_Chiralities_Consistent>
1

> <s_lp_Variant>
AV-unprocessed.smi:37-12

> <Gold.Version>
5.8.1

> <Gold.Id.Protein>
6NUR|6NUR_protein|mol2

> <Gold.PLP.Fitness>
48.2945

> <Gold.PLP.PLP>
-42.4881

> <Gold.PLP.part.hbond>
-4.4255

> <Gold.PLP.part.metal>
0.0000

> <Gold.PLP.part.buried>
-6.8217

> <Gold.PLP.part.nonpolar>
-31.9950

> <Gold.PLP.part.repulsive>
0.0462

> <Gold.PLP.ligand.clash>
0.0000

> <Gold.PLP.ligand.torsion>
0.1493

> <Gold.PLP.Chemscore.Hbond>
2.0000

> <Gold.PLP.Chemscore.CHOScore>
0.0000

> <Gold.PLP.Chemscore.Metal>
0.0000

> <Gold.Chemscore.Hbonds>
donor molecule, donor type, donor heavy atom, donor atom, acceptor molecule, acceptor atom, score
      P1  H  6896  6908       L1    18  1.00
      P1  H  6934  6947       L1     4  0.62

> <Gold.PLP.Chemscore.Internal.Correction>
0.1050

> <Gold.Rescore>
     Score         DG    S(hbond)    S(metal)    S(lipo)     H(rot)  DE(clash)    DE(int)     intcor
     11.21     -13.08       2.74        0.00      59.69       3.33       0.00       1.88       ----

> <Gold.Chemscore.Fitness>
11.2080

> <Gold.Chemscore.DG>
-13.0832

> <Gold.Chemscore.ZeroCoef>
-5.4800

> <Gold.Chemscore.Hbond>
2.7379

> <Gold.Chemscore.Metal>
0.0000

> <Gold.Chemscore.Lipo>
59.6938

> <Gold.Chemscore.Internal_Hbond>
0.0000

> <Gold.Chemscore.DEClash>
0.0000

> <Gold.Chemscore.DEInternal>
1.8752

> <Gold.Chemscore.Rot>
3.3303

> <Gold.Chemscore.Internal.Correction>
   9.000000E+99

> <Gold.Chemscore.Hbonds>
donor molecule, donor type, donor heavy atom, donor atom, acceptor molecule, acceptor atom, score
      P1  H  6896  6908       L1    18  1.00
      P1  H  6934  6947       L1     4  0.63

> <Gold.Chemscore.Hbond.Weighted>
-9.1446

> <Gold.Chemscore.Metal.Weighted>
-0.0000

> <Gold.Chemscore.Lipo.Weighted>
-6.9842

> <Gold.Chemscore.Internal_Hbond.Weighted>
0.0000

> <Gold.Chemscore.DEClash.Weighted>
0.0000

> <Gold.Chemscore.DEInternal.Weighted>
1.8752

> <Gold.Chemscore.Rot.Weighted>
8.5256

> <Gold.Chemscore.Internal.Correction.Weighted>
   9.000000E+99

> <Gold.Protein.RotatedTorsions>
[ 6907 6896 6895 6894 ] final  -77.01 input  -60.11 | X-H torsion
[ 7974 7965 7964 7962 ] final -177.01 input  175.53 | X-H torsion
[ 8008 7997 7996 7995 ] final  126.04 input   59.86 | X-H torsion
[ 10167 10162 10161 10158 ] final  156.83 input  -65.29 | X-H torsion
[ 10718 10713 10712 10709 ] final -169.92 input   66.30 | X-H torsion
[ 10763 10752 10751 10750 ] final   33.02 input  -60.55 | X-H torsion
[ 11005 11000 10999 10996 ] final -162.05 input  -57.11 | X-H torsion

> <Gold.Protein.ActiveResidues>
 VAL166  LYS551  ARG553  GLY616  TRP617  ASP618  TYR619  PRO620  LYS621  CYS622 
 ASP623  PHE694  ASN695  SER759  ASP760  ASP761  ALA762  ILE779  LEU786  VAL792 
 PHE793  MET794  SER795  GLU796  ALA797  LYS798  CYS799  TRP800  GLU811  SER814 

> <Gold.Protein.RotatedAtoms>
  150.7011  134.4487  159.5325 H   0  0  0  0  0  0  0  0  0  0  0  0  # atno 6907 bound_to 6896
  152.2183  134.8434  160.0498 H   0  0  0  0  0  0  0  0  0  0  0  0  # atno 6908 bound_to 6896
  151.9293  133.3572  159.3962 H   0  0  0  0  0  0  0  0  0  0  0  0  # atno 6909 bound_to 6896
  144.7127  140.1084  143.6412 H   0  0  0  0  0  0  0  0  0  0  0  0  # atno 7974 bound_to 7965
  156.2852  140.2702  156.2046 H   0  0  0  0  0  0  0  0  0  0  0  0  # atno 8008 bound_to 7997
  155.0326  140.0386  157.2498 H   0  0  0  0  0  0  0  0  0  0  0  0  # atno 8009 bound_to 7997
  154.7341  140.2712  155.6435 H   0  0  0  0  0  0  0  0  0  0  0  0  # atno 8010 bound_to 7997
  139.4822  144.4973  151.8221 H   0  0  0  0  0  0  0  0  0  0  0  0  # atno 10167 bound_to 10162
  156.7186  130.9261  151.3095 H   0  0  0  0  0  0  0  0  0  0  0  0  # atno 10718 bound_to 10713
  153.0233  135.6398  154.1446 H   0  0  0  0  0  0  0  0  0  0  0  0  # atno 10763 bound_to 10752
  154.1178  135.2848  155.3217 H   0  0  0  0  0  0  0  0  0  0  0  0  # atno 10764 bound_to 10752
  154.6285  135.5500  153.7717 H   0  0  0  0  0  0  0  0  0  0  0  0  # atno 10765 bound_to 10752
  140.6136  134.4823  157.5217 H   0  0  0  0  0  0  0  0  0  0  0  0  # atno 11005 bound_to 11000
  145.9476  139.2711  143.1231 LP  0  0  0  0  0  0  0  0  0  0  0  0  # atno 17320 bound_to 7965
  145.9357  140.9016  143.0333 LP  0  0  0  0  0  0  0  0  0  0  0  0  # atno 17321 bound_to 7965
  140.4462  144.1918  150.5894 LP  0  0  0  0  0  0  0  0  0  0  0  0  # atno 17342 bound_to 10162
  140.4632  143.2441  151.9191 LP  0  0  0  0  0  0  0  0  0  0  0  0  # atno 17343 bound_to 10162
  157.6907  130.9230  150.0506 LP  0  0  0  0  0  0  0  0  0  0  0  0  # atno 17370 bound_to 10713
  156.1610  130.3644  149.9299 LP  0  0  0  0  0  0  0  0  0  0  0  0  # atno 17371 bound_to 10713
  139.9182  134.8203  156.1297 LP  0  0  0  0  0  0  0  0  0  0  0  0  # atno 17394 bound_to 11000
  141.0791  133.6762  156.2298 LP  0  0  0  0  0  0  0  0  0  0  0  0  # atno 17395 bound_to 11000

$$$$
