#       Name:                AV-unprocessed.smi:2157
#       Creating user name   scv26
#       Creation time:       Fri Mar 27 11:56:30 2020


#       File generated by GOLD software.
#

@<TRIPOS>MOLECULE
AV-unprocessed.smi:2157
    47    48     1
SMALL
NO_CHARGES


@<TRIPOS>ATOM
      1 ****        -2.2979  -2.0275  -4.1148 C.3            1 S1                 0.0000
      2 ****        -1.8994  -1.9653  -2.6335 C.3            1 S1                 0.0000
      3 ****        -2.5005  -3.1414  -1.8405 C.3            1 S1                 0.0000
      4 ****        -2.1085  -3.0804  -0.3561 C.3            1 S1                 0.0000
      5 ****        -2.5186  -1.7393   0.2745 C.3            1 S1                 0.0000
      6 ****        -1.9462  -0.5335  -0.5007 C.3            1 S1                 0.0000
      7 ****        -0.4978  -0.4268  -0.3324 N.am           1 S1                 0.0000
      8 ****         0.1265   0.1064   0.7285 C.2            1 S1                 0.0000
      9 ****        -0.4706   0.5619   1.7049 O.2            1 S1                 0.0000
     10 ****         1.6605   0.0980   0.6788 C.3            1 S1                 0.0000
     11 ****         2.2702   1.1121   1.5484 N.am           1 S1                 0.0000
     12 ****         2.7332   0.7529   2.8008 C.2            1 S1                 0.0000
     13 ****         3.2900   1.6266   3.6678 C.2            1 S1                 0.0000
     14 ****         3.4389   3.0351   3.3213 C.2            1 S1                 0.0000
     15 ****         3.9326   3.8638   4.0865 O.2            1 S1                 0.0000
     16 ****         2.9635   3.3736   2.0313 N.am           1 S1                 0.0000
     17 ****         3.0512   4.7483   1.5848 C.3            1 S1                 0.0000
     18 ****         2.3760   2.4565   1.1326 C.2            1 S1                 0.0000
     19 ****         1.9632   2.8074   0.0242 O.2            1 S1                 0.0000
     20 ****        -2.3056  -0.6187  -1.9978 C.3            1 S1                 0.0000
     21 ****        -3.3786  -1.9511  -4.2384 H              1 S1                 0.0000
     22 ****        -1.9767  -2.9651  -4.5690 H              1 S1                 0.0000
     23 ****        -1.8400  -1.2148  -4.6793 H              1 S1                 0.0000
     24 ****        -0.8129  -2.0497  -2.5869 H              1 S1                 0.0000
     25 ****        -3.5878  -3.1288  -1.9292 H              1 S1                 0.0000
     26 ****        -2.1676  -4.0883  -2.2666 H              1 S1                 0.0000
     27 ****        -2.5792  -3.9013   0.1854 H              1 S1                 0.0000
     28 ****        -1.0321  -3.2224  -0.2544 H              1 S1                 0.0000
     29 ****        -3.6071  -1.6714   0.2830 H              1 S1                 0.0000
     30 ****        -2.2084  -1.7068   1.3194 H              1 S1                 0.0000
     31 ****        -2.3972   0.3781  -0.1048 H              1 S1                 0.0000
     32 ****         0.0728  -0.7826  -1.0856 H              1 S1                 0.0000
     33 ****         2.0039  -0.8955   0.9694 H              1 S1                 0.0000
     34 ****         1.9970   0.2364  -0.3503 H              1 S1                 0.0000
     35 ****         2.6412  -0.2789   3.1072 H              1 S1                 0.0000
     36 ****         3.6277   1.2792   4.6330 H              1 S1                 0.0000
     37 ****         3.5562   4.7493   0.6171 H              1 S1                 0.0000
     38 ****         3.6217   5.3572   2.2852 H              1 S1                 0.0000
     39 ****         2.0294   5.1221   1.5018 H              1 S1                 0.0000
     40 ****        -1.8406   0.2072  -2.5383 H              1 S1                 0.0000
     41 ****        -3.3822  -0.4820  -2.1090 H              1 S1                 0.0000
     42 ****        -1.4701   0.5451   1.7323 LP             1 S1                 0.0000
     43 ****         0.0441   0.9484   2.4702 LP             1 S1                 0.0000
     44 ****         4.2525   3.5811   4.9908 LP             1 S1                 0.0000
     45 ****         4.0136   4.8195   3.8037 LP             1 S1                 0.0000
     46 ****         1.5483   2.1363  -0.5902 LP             1 S1                 0.0000
     47 ****         2.0435   3.7629  -0.2597 LP             1 S1                 0.0000
@<TRIPOS>BOND
    1    1    2 1     
    2    1   21 1     
    3    1   22 1     
    4    1   23 1     
    5    2   20 1     
    6    2    3 1     
    7    2   24 1     
    8    3    4 1     
    9    3   25 1     
   10    3   26 1     
   11    4    5 1     
   12    4   27 1     
   13    4   28 1     
   14    5    6 1     
   15    5   29 1     
   16    5   30 1     
   17    6    7 1     
   18    6   20 1     
   19    6   31 1     
   20    7    8 am    
   21    7   32 1     
   22    8    9 2     
   23    8   10 1     
   24   10   11 1     
   25   10   33 1     
   26   10   34 1     
   27   11   18 am    
   28   11   12 1     
   29   12   13 2     
   30   12   35 1     
   31   13   14 1     
   32   13   36 1     
   33   14   15 2     
   34   14   16 am    
   35   16   17 1     
   36   16   18 am    
   37   17   37 1     
   38   17   38 1     
   39   17   39 1     
   40   18   19 2     
   41   20   40 1     
   42   20   41 1     
   43    9   42 1     
   44    9   43 1     
   45   15   44 1     
   46   15   45 1     
   47   19   46 1     
   48   19   47 1     
@<TRIPOS>SUBSTRUCTURE
      1 S1             1
@<TRIPOS>SET
LONE_PAIRS      STATIC     ATOMS    <user>   **** ""
6 42 43 44 45 46 47
DONOR_HYDROGENS      STATIC     ATOMS    <user>   **** ""
1 32
ATOM$BLUE        STATIC     ATOMS    COLORGROUP SYSTEM
6 42 43 44 45 46 47
ATOM$RED        STATIC     ATOMS    COLORGROUP SYSTEM
1 32
