AV-unprocessed.smi:625|AV-procd|sdf|3108|dock10
  -GOLD-   22720 0 33D 1   1.00000     0.00000
 Structure written by MMmdl.
 49 51  0  0  0  0  0  0  0  0  1 V2000
  143.2518  146.0975  154.0331 C   0  0  0  0  0  0  0  0  0  0  0  0
  143.9606  144.8744  154.3778 N   0  0  0  0  0  0  0  0  0  0  0  0
  144.9487  144.3344  153.6454 C   0  0  0  0  0  0  0  0  0  0  0  0
  145.3364  144.8550  152.5981 O   0  0  0  0  0  0  0  0  0  0  0  0
  145.4968  143.0986  154.2102 C   0  0  0  0  0  0  0  0  0  0  0  0
  144.7269  142.2020  155.0599 C   0  0  0  0  0  0  0  0  0  0  0  0
  145.2878  141.0862  155.5655 C   0  0  0  0  0  0  0  0  0  0  0  0
  146.6808  140.7279  155.2859 C   0  0  0  0  0  0  0  0  0  0  0  0
  147.2031  139.7189  155.7598 O   0  0  0  0  0  0  0  0  0  0  0  0
  147.3649  141.5899  154.4734 N   0  0  0  0  0  0  0  0  0  0  0  0
  148.7791  141.3427  154.1348 C   0  0  0  0  0  0  0  0  0  0  0  0
  149.6877  141.0804  155.3482 C   0  0  0  0  0  0  0  0  0  0  0  0
  150.1368  139.9495  155.5300 O   0  0  0  0  0  0  0  0  0  0  0  0
  149.9392  142.1087  156.1758 N   0  0  0  0  0  0  0  0  0  0  0  0
  150.6949  142.0488  157.4226 C   0  0  1  0  0  0  0  0  0  0  0  0
  151.9228  141.1376  157.2517 C   0  0  0  0  0  0  0  0  0  0  0  0
  151.0846  143.4880  157.8337 C   0  0  1  0  0  0  0  0  0  0  0  0
  150.1918  144.1193  158.9278 C   0  0  0  0  0  0  0  0  0  0  0  0
  151.2178  144.6805  159.9296 C   0  0  1  0  0  0  0  0  0  0  0  0
  151.8358  143.5129  160.7194 C   0  0  0  0  0  0  0  0  0  0  0  0
  152.7484  142.8448  159.6748 C   0  0  0  0  0  0  0  0  0  0  0  0
  152.5064  143.6967  158.4114 C   0  0  2  0  0  0  0  0  0  0  0  0
  152.3709  145.0895  159.0195 C   0  0  0  0  0  0  0  0  0  0  0  0
  146.7747  142.7578  153.9516 C   0  0  0  0  0  0  0  0  0  0  0  0
  142.4910  146.3100  154.7840 H   0  0  0  0  0  0  0  0  0  0  0  0
  142.7577  146.0015  153.0655 H   0  0  0  0  0  0  0  0  0  0  0  0
  143.9370  146.9451  153.9924 H   0  0  0  0  0  0  0  0  0  0  0  0
  143.6835  144.4052  155.2278 H   0  0  0  0  0  0  0  0  0  0  0  0
  143.6951  142.4067  155.3049 H   0  0  0  0  0  0  0  0  0  0  0  0
  144.6966  140.4368  156.1943 H   0  0  0  0  0  0  0  0  0  0  0  0
  148.8604  140.4985  153.4479 H   0  0  0  0  0  0  0  0  0  0  0  0
  149.1899  142.1909  153.5856 H   0  0  0  0  0  0  0  0  0  0  0  0
  149.5355  143.0039  155.9410 H   0  0  0  0  0  0  0  0  0  0  0  0
  150.0429  141.6217  158.1850 H   0  0  0  0  0  0  0  0  0  0  0  0
  152.4788  141.0446  158.1845 H   0  0  0  0  0  0  0  0  0  0  0  0
  152.6042  141.5274  156.4947 H   0  0  0  0  0  0  0  0  0  0  0  0
  151.6315  140.1312  156.9501 H   0  0  0  0  0  0  0  0  0  0  0  0
  151.0047  144.1131  156.9420 H   0  0  0  0  0  0  0  0  0  0  0  0
  149.5764  144.9150  158.5062 H   0  0  0  0  0  0  0  0  0  0  0  0
  149.5206  143.4010  159.4009 H   0  0  0  0  0  0  0  0  0  0  0  0
  150.8224  145.4756  160.5622 H   0  0  0  0  0  0  0  0  0  0  0  0
  152.4225  143.8792  161.5628 H   0  0  0  0  0  0  0  0  0  0  0  0
  151.0798  142.8303  161.1094 H   0  0  0  0  0  0  0  0  0  0  0  0
  153.7912  142.9187  159.9864 H   0  0  0  0  0  0  0  0  0  0  0  0
  152.5305  141.7869  159.5361 H   0  0  0  0  0  0  0  0  0  0  0  0
  153.2981  143.6077  157.6669 H   0  0  0  0  0  0  0  0  0  0  0  0
  152.0985  145.8576  158.2934 H   0  0  0  0  0  0  0  0  0  0  0  0
  153.2594  145.4134  159.5650 H   0  0  0  0  0  0  0  0  0  0  0  0
  147.4371  143.3551  153.3404 H   0  0  0  0  0  0  0  0  0  0  0  0
  1  2  1  0  0  0  0
  1 25  1  0  0  0  0
  1 26  1  0  0  0  0
  1 27  1  0  0  0  0
  2  3  1  0  0  0  0
  2 28  1  0  0  0  0
  3  4  2  0  0  0  0
  3  5  1  0  0  0  0
  5 24  2  0  0  0  0
  5  6  1  0  0  0  0
  6  7  2  0  0  0  0
  6 29  1  0  0  0  0
  7  8  1  0  0  0  0
  7 30  1  0  0  0  0
  8  9  2  0  0  0  0
  8 10  1  0  0  0  0
 10 11  1  0  0  0  0
 10 24  1  0  0  0  0
 11 12  1  0  0  0  0
 11 31  1  0  0  0  0
 11 32  1  0  0  0  0
 12 13  2  0  0  0  0
 12 14  1  0  0  0  0
 14 15  1  0  0  0  0
 14 33  1  0  0  0  0
 15 16  1  0  0  0  0
 15 17  1  0  0  0  0
 15 34  1  0  0  0  0
 16 35  1  0  0  0  0
 16 36  1  0  0  0  0
 16 37  1  0  0  0  0
 17 22  1  0  0  0  0
 17 18  1  0  0  0  0
 17 38  1  0  0  0  0
 18 19  1  0  0  0  0
 18 39  1  0  0  0  0
 18 40  1  0  0  0  0
 19 23  1  0  0  0  0
 19 20  1  0  0  0  0
 19 41  1  0  0  0  0
 20 21  1  0  0  0  0
 20 42  1  0  0  0  0
 20 43  1  0  0  0  0
 21 22  1  0  0  0  0
 21 44  1  0  0  0  0
 21 45  1  0  0  0  0
 22 23  1  0  0  0  0
 22 46  1  0  0  0  0
 23 47  1  0  0  0  0
 23 48  1  0  0  0  0
 24 49  1  0  0  0  0
M  END
> <s_m_source_file>
AV-unprocessed.smi

> <i_m_source_file_index>
625

> <i_lp_mmshare_version>
43012

> <i_f3d_flags>
0

> <s_epik_input>
W0NIM11bTkhdQyg9TyljMVtjSF1bY0hdYyg9TyluKFtjSF0xKVtDSDJdQyg9TylbTkhdW0NASF0oW0NIM10pW0NASF0oW0NIMl1bQ0BIXTIzKVtDQEhdKFtDSDJdMylbQ0gyXVtDSDJdMg==

> <s_epik_cmdline>
J2VwaWtfcHl0aG9uJywgJy1waCcsICc3LjAnLCAnLXRuJywgJzgnLCAnLW1hJywgJzIwMCcsICctbWV0YWxfYmluZGluZycsICctaW1hZScsICc8aW5maWxlLm1hZT4nLCAnLW9tYWUnLCAnPG91dGZpbGUubWFlPic=

> <r_lp_tautomer_probability>
1

> <r_epik_Ionization_Penalty>
3.7129e-07

> <r_epik_Ionization_Penalty_Charging>
5.04114e-08

> <r_epik_Ionization_Penalty_Neutral>
3.20879e-07

> <r_epik_State_Penalty>
-0

> <r_epik_Charging_Adjusted_Penalty>
5.04114e-08

> <i_epik_Tot_Q>
0

> <i_epik_Tot_abs_Q>
0

> <r_epik_Metal_State_Penalty>
-0

> <b_epik_Metal_Only>
0

> <s_lp_Force_Field>
OPLS_2005

> <r_lp_Energy>
63.411

> <b_lp_Chiralities_Consistent>
1

> <s_lp_Variant>
AV-unprocessed.smi:625-8

> <Gold.Version>
5.8.1

> <Gold.Id.Protein>
6NUR|6NUR_protein|mol2

> <Gold.PLP.Fitness>
50.7392

> <Gold.PLP.PLP>
-51.4394

> <Gold.PLP.part.hbond>
-1.6284

> <Gold.PLP.part.metal>
0.0000

> <Gold.PLP.part.buried>
-7.6409

> <Gold.PLP.part.nonpolar>
-43.1538

> <Gold.PLP.part.repulsive>
0.3618

> <Gold.PLP.ligand.clash>
0.0000

> <Gold.PLP.ligand.torsion>
1.8843

> <Gold.PLP.Chemscore.Hbond>
1.0000

> <Gold.PLP.Chemscore.CHOScore>
0.0000

> <Gold.PLP.Chemscore.Metal>
0.0000

> <Gold.Chemscore.Hbonds>
donor molecule, donor type, donor heavy atom, donor atom, acceptor molecule, acceptor atom, score
      L1  H    14    33       P1  8028  1.00

> <Gold.PLP.Chemscore.Internal.Correction>
0.0684

> <Gold.Rescore>
     Score         DG    S(hbond)    S(metal)    S(lipo)     H(rot)  DE(clash)    DE(int)     intcor
     13.44     -19.03       0.99        0.00     124.05       1.67       0.08       5.50       ----

> <Gold.Chemscore.Fitness>
13.4422

> <Gold.Chemscore.DG>
-19.0288

> <Gold.Chemscore.ZeroCoef>
-5.4800

> <Gold.Chemscore.Hbond>
0.9918

> <Gold.Chemscore.Metal>
0.0000

> <Gold.Chemscore.Lipo>
124.0486

> <Gold.Chemscore.Internal_Hbond>
0.0000

> <Gold.Chemscore.DEClash>
0.0816

> <Gold.Chemscore.DEInternal>
5.5050

> <Gold.Chemscore.Rot>
1.6709

> <Gold.Chemscore.Internal.Correction>
   9.000000E+99

> <Gold.Chemscore.Hbonds>
donor molecule, donor type, donor heavy atom, donor atom, acceptor molecule, acceptor atom, score
      L1  H    14    33       P1  8028  1.00

> <Gold.Chemscore.Hbond.Weighted>
-3.3125

> <Gold.Chemscore.Metal.Weighted>
-0.0000

> <Gold.Chemscore.Lipo.Weighted>
-14.5137

> <Gold.Chemscore.Internal_Hbond.Weighted>
0.0000

> <Gold.Chemscore.DEClash.Weighted>
0.0816

> <Gold.Chemscore.DEInternal.Weighted>
5.5050

> <Gold.Chemscore.Rot.Weighted>
4.2774

> <Gold.Chemscore.Internal.Correction.Weighted>
   9.000000E+99

> <Gold.Protein.RotatedTorsions>
[ 6907 6896 6895 6894 ] final  -75.11 input  -60.11 | X-H torsion
[ 7974 7965 7964 7962 ] final  125.15 input  175.53 | X-H torsion
[ 8008 7997 7996 7995 ] final   57.56 input   59.86 | X-H torsion
[ 10167 10162 10161 10158 ] final  177.21 input  -65.29 | X-H torsion
[ 10718 10713 10712 10709 ] final  -69.31 input   66.30 | X-H torsion
[ 10763 10752 10751 10750 ] final   -9.71 input  -60.55 | X-H torsion
[ 11005 11000 10999 10996 ] final -176.75 input  -57.11 | X-H torsion

> <Gold.Protein.ActiveResidues>
 VAL166  LYS551  ARG553  GLY616  TRP617  ASP618  TYR619  PRO620  LYS621  CYS622 
 ASP623  PHE694  ASN695  SER759  ASP760  ASP761  ALA762  ILE779  LEU786  VAL792 
 PHE793  MET794  SER795  GLU796  ALA797  LYS798  CYS799  TRP800  GLU811  SER814 

> <Gold.Protein.RotatedAtoms>
  150.7070  134.4770  159.5451 H   0  0  0  0  0  0  0  0  0  0  0  0  # atno 6907 bound_to 6896
  152.2414  134.8221  160.0469 H   0  0  0  0  0  0  0  0  0  0  0  0  # atno 6908 bound_to 6896
  151.9001  133.3501  159.3865 H   0  0  0  0  0  0  0  0  0  0  0  0  # atno 6909 bound_to 6896
  145.0763  139.3691  143.4932 H   0  0  0  0  0  0  0  0  0  0  0  0  # atno 7974 bound_to 7965
  155.5357  140.3483  155.4436 H   0  0  0  0  0  0  0  0  0  0  0  0  # atno 8008 bound_to 7997
  156.0687  140.1357  156.9882 H   0  0  0  0  0  0  0  0  0  0  0  0  # atno 8009 bound_to 7997
  154.4516  140.0970  156.6610 H   0  0  0  0  0  0  0  0  0  0  0  0  # atno 8010 bound_to 7997
  139.5244  144.2825  152.0534 H   0  0  0  0  0  0  0  0  0  0  0  0  # atno 10167 bound_to 10162
  156.0462  130.4310  150.2128 H   0  0  0  0  0  0  0  0  0  0  0  0  # atno 10718 bound_to 10713
  153.4587  135.7016  153.6064 H   0  0  0  0  0  0  0  0  0  0  0  0  # atno 10763 bound_to 10752
  153.4368  135.3789  155.2204 H   0  0  0  0  0  0  0  0  0  0  0  0  # atno 10764 bound_to 10752
  154.8727  135.3964  154.4009 H   0  0  0  0  0  0  0  0  0  0  0  0  # atno 10765 bound_to 10752
  140.4486  134.6364  157.4791 H   0  0  0  0  0  0  0  0  0  0  0  0  # atno 11005 bound_to 11000
  146.3530  140.0531  142.8634 LP  0  0  0  0  0  0  0  0  0  0  0  0  # atno 17320 bound_to 7965
  145.1232  140.9475  143.4588 LP  0  0  0  0  0  0  0  0  0  0  0  0  # atno 17321 bound_to 7965
  140.2280  144.4398  150.6312 LP  0  0  0  0  0  0  0  0  0  0  0  0  # atno 17342 bound_to 10162
  140.6374  143.2197  151.6364 LP  0  0  0  0  0  0  0  0  0  0  0  0  # atno 17343 bound_to 10162
  157.0218  130.9981  151.3337 LP  0  0  0  0  0  0  0  0  0  0  0  0  # atno 17370 bound_to 10713
  157.5339  130.8076  149.7949 LP  0  0  0  0  0  0  0  0  0  0  0  0  # atno 17371 bound_to 10713
  140.0022  134.6819  155.9512 LP  0  0  0  0  0  0  0  0  0  0  0  0  # atno 17394 bound_to 11000
  141.1674  133.6537  156.4528 LP  0  0  0  0  0  0  0  0  0  0  0  0  # atno 17395 bound_to 11000

$$$$
