AV-unprocessed.smi:2735|AV-procd|sdf|10541|dock6
  -GOLD-   2272014593D 1   1.00000     0.00000
 Structure written by MMmdl.
 42 42  0  0  0  0  0  0  0  0  2 V2000
  153.0678  143.5574  162.8411 C   0  0  0  0  0  0  0  0  0  0  0  0
  153.0902  142.6793  161.6252 C   0  0  0  0  0  0  0  0  0  0  0  0
  153.6296  141.3708  161.4929 C   0  0  0  0  0  0  0  0  0  0  0  0
  153.3775  141.0315  160.1936 C   0  0  0  0  0  0  0  0  0  0  0  0
  153.6909  139.7677  159.4615 C   0  0  0  0  0  0  0  0  0  0  0  0
  152.7382  142.1119  159.6057 N   0  0  0  0  0  0  0  0  0  0  0  0
  152.2150  142.2356  158.2444 C   0  0  2  0  0  0  0  0  0  0  0  0
  151.4191  143.5386  158.0226 C   0  0  0  0  0  0  0  0  0  0  0  0
  151.3830  140.9958  157.8855 C   0  0  0  0  0  0  0  0  0  0  0  0
  150.4722  140.6200  158.6242 O   0  0  0  0  0  0  0  0  0  0  0  0
  151.7154  140.3684  156.7463 N   0  0  0  0  0  0  0  0  0  0  0  0
  151.1138  139.1339  156.2447 C   0  0  1  0  0  0  0  0  0  0  0  0
  150.1611  139.4731  155.0732 C   0  0  0  0  0  0  0  0  0  0  0  0
  149.2979  140.7401  155.2739 C   0  0  0  0  0  0  0  0  0  0  0  0
  148.5733  140.7518  156.6304 C   0  0  0  0  0  0  0  0  0  0  0  0
  148.2874  140.8906  154.1268 C   0  0  0  0  0  0  0  0  0  0  0  0
  152.2206  138.2098  155.7112 C   0  0  0  0  0  0  0  0  0  0  0  0
  153.3884  138.6559  155.7302 O   0  0  0  0  0  0  0  0  0  0  0  0
  151.8878  137.0742  155.3018 O   0  5  0  0  0  0  0  0  0  0  0  0
  152.5523  143.1132  160.4986 N   0  0  0  0  0  0  0  0  0  0  0  0
  150.5705  138.6158  157.0365 H   0  0  0  0  0  0  0  0  0  0  0  0
  153.5252  143.0581  163.6955 H   0  0  0  0  0  0  0  0  0  0  0  0
  152.0463  143.8193  163.1179 H   0  0  0  0  0  0  0  0  0  0  0  0
  153.6148  144.4837  162.6659 H   0  0  0  0  0  0  0  0  0  0  0  0
  154.1194  140.7666  162.2421 H   0  0  0  0  0  0  0  0  0  0  0  0
  154.2206  139.0666  160.1064 H   0  0  0  0  0  0  0  0  0  0  0  0
  154.3209  139.9649  158.5944 H   0  0  0  0  0  0  0  0  0  0  0  0
  152.7789  139.2796  159.1188 H   0  0  0  0  0  0  0  0  0  0  0  0
  153.0722  142.2766  157.5710 H   0  0  0  0  0  0  0  0  0  0  0  0
  151.1108  143.6344  156.9810 H   0  0  0  0  0  0  0  0  0  0  0  0
  152.0269  144.4111  158.2633 H   0  0  0  0  0  0  0  0  0  0  0  0
  150.5178  143.5823  158.6355 H   0  0  0  0  0  0  0  0  0  0  0  0
  152.4836  140.7417  156.2086 H   0  0  0  0  0  0  0  0  0  0  0  0
  150.7451  139.5930  154.1587 H   0  0  0  0  0  0  0  0  0  0  0  0
  149.4979  138.6257  154.8907 H   0  0  0  0  0  0  0  0  0  0  0  0
  149.9490  141.6139  155.2377 H   0  0  0  0  0  0  0  0  0  0  0  0
  147.9433  139.8700  156.7519 H   0  0  0  0  0  0  0  0  0  0  0  0
  147.9360  141.6312  156.7262 H   0  0  0  0  0  0  0  0  0  0  0  0
  149.2775  140.7776  157.4616 H   0  0  0  0  0  0  0  0  0  0  0  0
  147.5922  140.0509  154.0987 H   0  0  0  0  0  0  0  0  0  0  0  0
  148.7916  140.9378  153.1612 H   0  0  0  0  0  0  0  0  0  0  0  0
  147.7022  141.8042  154.2344 H   0  0  0  0  0  0  0  0  0  0  0  0
  1  2  1  0  0  0  0
  1 22  1  0  0  0  0
  1 23  1  0  0  0  0
  1 24  1  0  0  0  0
  2 20  2  0  0  0  0
  2  3  1  0  0  0  0
  3  4  2  0  0  0  0
  3 25  1  0  0  0  0
  4  5  1  0  0  0  0
  4  6  1  0  0  0  0
  5 26  1  0  0  0  0
  5 27  1  0  0  0  0
  5 28  1  0  0  0  0
  6  7  1  0  0  0  0
  6 20  1  0  0  0  0
  7  8  1  0  0  0  0
  7  9  1  0  0  0  0
  7 29  1  0  0  0  0
  8 30  1  0  0  0  0
  8 31  1  0  0  0  0
  8 32  1  0  0  0  0
  9 10  2  0  0  0  0
  9 11  1  0  0  0  0
 11 12  1  0  0  0  0
 11 33  1  0  0  0  0
 12 21  1  0  0  0  0
 12 13  1  0  0  0  0
 12 17  1  0  0  0  0
 13 14  1  0  0  0  0
 13 34  1  0  0  0  0
 13 35  1  0  0  0  0
 14 15  1  0  0  0  0
 14 16  1  0  0  0  0
 14 36  1  0  0  0  0
 15 37  1  0  0  0  0
 15 38  1  0  0  0  0
 15 39  1  0  0  0  0
 16 40  1  0  0  0  0
 16 41  1  0  0  0  0
 16 42  1  0  0  0  0
 17 18  2  0  0  0  0
 17 19  1  0  0  0  0
M  CHG  1  19  -1
M  END
> <s_m_source_file>
AV-unprocessed.smi

> <i_m_source_file_index>
2735

> <i_lp_mmshare_version>
43012

> <i_f3d_flags>
0

> <s_epik_input>
W0NIM11jMVtjSF1jKFtDSDNdKW4objEpW0NASF0oW0NIM10pQyg9TylbTkhdW0NASF0oQyg9TylbT0hdKVtDSDJdW0NIXShbQ0gzXSlbQ0gzXQ==

> <s_epik_cmdline>
J2VwaWtfcHl0aG9uJywgJy1waCcsICc3LjAnLCAnLXRuJywgJzgnLCAnLW1hJywgJzIwMCcsICctbWV0YWxfYmluZGluZycsICctaW1hZScsICc8aW5maWxlLm1hZT4nLCAnLW9tYWUnLCAnPG91dGZpbGUubWFlPic=

> <r_lp_tautomer_probability>
1

> <r_epik_Ionization_Penalty>
0.0012303

> <r_epik_Ionization_Penalty_Charging>
0.000186407

> <r_epik_Ionization_Penalty_Neutral>
0.0010439

> <r_epik_State_Penalty>
-0

> <r_epik_Charging_Adjusted_Penalty>
0.000186407

> <i_epik_Tot_Q>
-1

> <i_epik_Tot_abs_Q>
1

> <r_epik_Metal_State_Penalty>
-0

> <b_epik_Metal_Only>
0

> <s_lp_Force_Field>
OPLS_2005

> <r_lp_Energy>
6.85708

> <b_lp_Chiralities_Consistent>
1

> <s_lp_Variant>
AV-unprocessed.smi:2735-1

> <Gold.Version>
5.8.1

> <Gold.Id.Protein>
6NUR|6NUR_protein|mol2

> <Gold.PLP.Fitness>
51.7600

> <Gold.PLP.PLP>
-42.1470

> <Gold.PLP.part.hbond>
-2.0000

> <Gold.PLP.part.metal>
0.0000

> <Gold.PLP.part.buried>
-4.3566

> <Gold.PLP.part.nonpolar>
-35.2054

> <Gold.PLP.part.repulsive>
0.2620

> <Gold.PLP.ligand.clash>
0.0000

> <Gold.PLP.ligand.torsion>
0.7988

> <Gold.PLP.Chemscore.Hbond>
3.6960

> <Gold.PLP.Chemscore.CHOScore>
0.0000

> <Gold.PLP.Chemscore.Metal>
0.0000

> <Gold.Chemscore.Hbonds>
donor molecule, donor type, donor heavy atom, donor atom, acceptor molecule, acceptor atom, score
      P1  H  7997  8010       L1    18  1.79
      P1  H 10752 10764       L1    19  1.79

> <Gold.PLP.Chemscore.Internal.Correction>
0.1227

> <Gold.Rescore>
     Score         DG    S(hbond)    S(metal)    S(lipo)     H(rot)  DE(clash)    DE(int)     intcor
     16.31     -17.20       1.75        0.00      99.10       2.24       0.32       0.58       ----

> <Gold.Chemscore.Fitness>
16.3056

> <Gold.Chemscore.DG>
-17.1980

> <Gold.Chemscore.ZeroCoef>
-5.4800

> <Gold.Chemscore.Hbond>
1.7529

> <Gold.Chemscore.Metal>
0.0000

> <Gold.Chemscore.Lipo>
99.0990

> <Gold.Chemscore.Internal_Hbond>
0.0000

> <Gold.Chemscore.DEClash>
0.3165

> <Gold.Chemscore.DEInternal>
0.5759

> <Gold.Chemscore.Rot>
2.2388

> <Gold.Chemscore.Internal.Correction>
   9.000000E+99

> <Gold.Chemscore.Hbonds>
donor molecule, donor type, donor heavy atom, donor atom, acceptor molecule, acceptor atom, score
      P1  H  7997  8010       L1    18  0.88
      P1  H 10752 10764       L1    19  0.86

> <Gold.Chemscore.Hbond.Weighted>
-5.8547

> <Gold.Chemscore.Metal.Weighted>
-0.0000

> <Gold.Chemscore.Lipo.Weighted>
-11.5946

> <Gold.Chemscore.Internal_Hbond.Weighted>
0.0000

> <Gold.Chemscore.DEClash.Weighted>
0.3165

> <Gold.Chemscore.DEInternal.Weighted>
0.5759

> <Gold.Chemscore.Rot.Weighted>
5.7314

> <Gold.Chemscore.Internal.Correction.Weighted>
   9.000000E+99

> <Gold.Protein.RotatedTorsions>
[ 6907 6896 6895 6894 ] final   59.31 input  -60.11 | X-H torsion
[ 7974 7965 7964 7962 ] final   40.83 input  175.53 | X-H torsion
[ 8008 7997 7996 7995 ] final   95.76 input   59.86 | X-H torsion
[ 10167 10162 10161 10158 ] final  114.17 input  -65.29 | X-H torsion
[ 10718 10713 10712 10709 ] final   12.24 input   66.30 | X-H torsion
[ 10763 10752 10751 10750 ] final  -69.66 input  -60.55 | X-H torsion
[ 11005 11000 10999 10996 ] final  175.72 input  -57.11 | X-H torsion

> <Gold.Protein.ActiveResidues>
 VAL166  LYS551  ARG553  GLY616  TRP617  ASP618  TYR619  PRO620  LYS621  CYS622 
 ASP623  PHE694  ASN695  SER759  ASP760  ASP761  ALA762  ILE779  LEU786  VAL792 
 PHE793  MET794  SER795  GLU796  ALA797  LYS798  CYS799  TRP800  GLU811  SER814 

> <Gold.Protein.RotatedAtoms>
  152.3903  134.6451  160.0109 H   0  0  0  0  0  0  0  0  0  0  0  0  # atno 6907 bound_to 6896
  151.6687  133.3309  159.3199 H   0  0  0  0  0  0  0  0  0  0  0  0  # atno 6908 bound_to 6896
  150.7821  134.6818  159.6492 H   0  0  0  0  0  0  0  0  0  0  0  0  # atno 6909 bound_to 6896
  146.0873  139.5487  142.9498 H   0  0  0  0  0  0  0  0  0  0  0  0  # atno 7974 bound_to 7965
  156.0723  140.3282  155.7591 H   0  0  0  0  0  0  0  0  0  0  0  0  # atno 8008 bound_to 7997
  155.5286  140.0591  157.2911 H   0  0  0  0  0  0  0  0  0  0  0  0  # atno 8009 bound_to 7997
  154.4537  140.1931  156.0461 H   0  0  0  0  0  0  0  0  0  0  0  0  # atno 8010 bound_to 7997
  139.6408  144.7123  151.2242 H   0  0  0  0  0  0  0  0  0  0  0  0  # atno 10167 bound_to 10162
  157.0072  130.6103  149.5703 H   0  0  0  0  0  0  0  0  0  0  0  0  # atno 10718 bound_to 10713
  154.4066  135.6019  153.5928 H   0  0  0  0  0  0  0  0  0  0  0  0  # atno 10763 bound_to 10752
  152.9789  135.5919  154.4121 H   0  0  0  0  0  0  0  0  0  0  0  0  # atno 10764 bound_to 10752
  154.3927  135.2842  155.2123 H   0  0  0  0  0  0  0  0  0  0  0  0  # atno 10765 bound_to 10752
  140.3653  134.7077  157.4357 H   0  0  0  0  0  0  0  0  0  0  0  0  # atno 11005 bound_to 11000
  145.6105  141.0340  143.1969 LP  0  0  0  0  0  0  0  0  0  0  0  0  # atno 17320 bound_to 7965
  144.7335  139.7655  143.7338 LP  0  0  0  0  0  0  0  0  0  0  0  0  # atno 17321 bound_to 7965
  140.7489  143.6316  150.8418 LP  0  0  0  0  0  0  0  0  0  0  0  0  # atno 17342 bound_to 10162
  139.9953  143.5803  152.2895 LP  0  0  0  0  0  0  0  0  0  0  0  0  # atno 17343 bound_to 10162
  156.0149  130.5243  150.8104 LP  0  0  0  0  0  0  0  0  0  0  0  0  # atno 17370 bound_to 10713
  157.5347  131.0938  150.9908 LP  0  0  0  0  0  0  0  0  0  0  0  0  # atno 17371 bound_to 10713
  140.0594  134.6017  155.8766 LP  0  0  0  0  0  0  0  0  0  0  0  0  # atno 17394 bound_to 11000
  141.1971  133.6595  156.5727 LP  0  0  0  0  0  0  0  0  0  0  0  0  # atno 17395 bound_to 11000

$$$$
