AV-unprocessed.smi:2724|AV-procd|sdf|10513|dock1
  -GOLD-   2272014553D 1   1.00000     0.00000
 Structure written by MMmdl.
 26 27  0  0  0  0  0  0  0  0  2 V2000
  151.2821  140.4974  158.8709 O   0  0  0  0  0  0  0  0  0  0  0  0
  152.6964  140.4736  158.9136 C   0  0  2  0  0  0  0  0  0  0  0  0
  153.1714  139.5413  160.0392 C   0  0  0  0  0  0  0  0  0  0  0  0
  154.4389  140.1925  160.5895 C   0  0  0  0  0  0  0  0  0  0  0  0
  154.1412  141.6875  160.5024 C   0  0  0  0  0  0  0  0  0  0  0  0
  153.3659  141.8464  159.1836 C   0  0  2  0  0  0  0  0  0  0  0  0
  152.4513  143.0688  159.1313 C   0  0  0  0  0  0  0  0  0  0  0  0
  152.3792  143.9498  160.2345 C   0  0  0  0  0  0  0  0  0  0  0  0
  151.5321  145.0758  160.1729 C   0  0  0  0  0  0  0  0  0  0  0  0
  150.7721  145.3003  159.0076 C   0  0  0  0  0  0  0  0  0  0  0  0
  150.8652  144.4407  157.9700 N   0  3  0  0  0  0  0  0  0  0  0  0
  151.6637  143.3513  157.9909 C   0  0  0  0  0  0  0  0  0  0  0  0
  150.9626  140.8744  159.6764 H   0  0  0  0  0  0  0  0  0  0  0  0
  153.0466  140.0929  157.9530 H   0  0  0  0  0  0  0  0  0  0  0  0
  152.4268  139.4973  160.8362 H   0  0  0  0  0  0  0  0  0  0  0  0
  153.3407  138.5211  159.6936 H   0  0  0  0  0  0  0  0  0  0  0  0
  154.6706  139.8682  161.6044 H   0  0  0  0  0  0  0  0  0  0  0  0
  155.2908  139.9446  159.9549 H   0  0  0  0  0  0  0  0  0  0  0  0
  153.5224  141.9600  161.3575 H   0  0  0  0  0  0  0  0  0  0  0  0
  155.0397  142.3045  160.5400 H   0  0  0  0  0  0  0  0  0  0  0  0
  154.1199  141.9776  158.4055 H   0  0  0  0  0  0  0  0  0  0  0  0
  152.9671  143.7687  161.1227 H   0  0  0  0  0  0  0  0  0  0  0  0
  151.4671  145.7576  161.0084 H   0  0  0  0  0  0  0  0  0  0  0  0
  150.0997  146.1353  158.8741 H   0  0  0  0  0  0  0  0  0  0  0  0
  151.6544  142.7479  157.0948 H   0  0  0  0  0  0  0  0  0  0  0  0
  150.3094  144.6223  157.1336 H   0  0  0  0  0  0  0  0  0  0  0  0
  1  2  1  0  0  0  0
  1 13  1  0  0  0  0
  2  6  1  0  0  0  0
  2  3  1  0  0  0  0
  2 14  1  0  0  0  0
  3  4  1  0  0  0  0
  3 15  1  0  0  0  0
  3 16  1  0  0  0  0
  4  5  1  0  0  0  0
  4 17  1  0  0  0  0
  4 18  1  0  0  0  0
  5  6  1  0  0  0  0
  5 19  1  0  0  0  0
  5 20  1  0  0  0  0
  6  7  1  0  0  0  0
  6 21  1  0  0  0  0
  7 12  1  0  0  0  0
  7  8  2  0  0  0  0
  8  9  1  0  0  0  0
  8 22  1  0  0  0  0
  9 10  2  0  0  0  0
  9 23  1  0  0  0  0
 10 11  1  0  0  0  0
 10 24  1  0  0  0  0
 11 12  2  0  0  0  0
 11 26  1  0  0  0  0
 12 25  1  0  0  0  0
M  CHG  1  11   1
M  END
> <s_m_source_file>
AV-unprocessed.smi

> <i_m_source_file_index>
2724

> <i_lp_mmshare_version>
43012

> <i_f3d_flags>
0

> <s_epik_input>
W09IXVtDQEBIXTFbQ0gyXVtDSDJdW0NIMl1bQ0BIXTFjMltjSF1bY0hdW2NIXW5bY0hdMg==

> <s_epik_cmdline>
J2VwaWtfcHl0aG9uJywgJy1waCcsICc3LjAnLCAnLXRuJywgJzgnLCAnLW1hJywgJzIwMCcsICctbWV0YWxfYmluZGluZycsICctaW1hZScsICc8aW5maWxlLm1hZT4nLCAnLW9tYWUnLCAnPG91dGZpbGUubWFlPic=

> <r_epik_Ionization_Penalty>
2.09455

> <r_epik_Ionization_Penalty_Charging>
2.09455

> <r_epik_Ionization_Penalty_Neutral>
5.26757e-08

> <r_epik_State_Penalty>
2.23025

> <r_epik_Charging_Adjusted_Penalty>
4.3248

> <i_epik_Tot_Q>
1

> <i_epik_Tot_abs_Q>
1

> <r_epik_Metal_State_Penalty>
6.30911

> <b_epik_Metal_Only>
0

> <s_lp_Force_Field>
OPLS_2005

> <r_lp_Energy>
31.8011

> <b_lp_Chiralities_Consistent>
1

> <s_lp_Variant>
AV-unprocessed.smi:2724-7

> <Gold.Version>
5.8.1

> <Gold.Id.Protein>
6NUR|6NUR_protein|mol2

> <Gold.PLP.Fitness>
36.2982

> <Gold.PLP.PLP>
-30.3254

> <Gold.PLP.part.hbond>
-1.0000

> <Gold.PLP.part.metal>
0.0000

> <Gold.PLP.part.buried>
-4.1923

> <Gold.PLP.part.nonpolar>
-25.4678

> <Gold.PLP.part.repulsive>
0.0746

> <Gold.PLP.ligand.clash>
0.0000

> <Gold.PLP.ligand.torsion>
0.0229

> <Gold.PLP.Chemscore.Hbond>
2.0000

> <Gold.PLP.Chemscore.CHOScore>
0.0000

> <Gold.PLP.Chemscore.Metal>
0.0000

> <Gold.Chemscore.Hbonds>
donor molecule, donor type, donor heavy atom, donor atom, acceptor molecule, acceptor atom, score
      L1  H    11    26       P1  8028  2.00

> <Gold.PLP.Chemscore.Internal.Correction>
0.0185

> <Gold.Rescore>
     Score         DG    S(hbond)    S(metal)    S(lipo)     H(rot)  DE(clash)    DE(int)     intcor
     16.86     -16.91       0.94        0.00     100.30       1.35       0.01       0.03       ----

> <Gold.Chemscore.Fitness>
16.8633

> <Gold.Chemscore.DG>
-16.9054

> <Gold.Chemscore.ZeroCoef>
-5.4800

> <Gold.Chemscore.Hbond>
0.9417

> <Gold.Chemscore.Metal>
0.0000

> <Gold.Chemscore.Lipo>
100.3010

> <Gold.Chemscore.Internal_Hbond>
0.0000

> <Gold.Chemscore.DEClash>
0.0114

> <Gold.Chemscore.DEInternal>
0.0307

> <Gold.Chemscore.Rot>
1.3496

> <Gold.Chemscore.Internal.Correction>
   9.000000E+99

> <Gold.Chemscore.Hbonds>
donor molecule, donor type, donor heavy atom, donor atom, acceptor molecule, acceptor atom, score
      L1  H    11    26       P1  8028  0.53

> <Gold.Chemscore.Hbond.Weighted>
-3.1452

> <Gold.Chemscore.Metal.Weighted>
-0.0000

> <Gold.Chemscore.Lipo.Weighted>
-11.7352

> <Gold.Chemscore.Internal_Hbond.Weighted>
0.0000

> <Gold.Chemscore.DEClash.Weighted>
0.0114

> <Gold.Chemscore.DEInternal.Weighted>
0.0307

> <Gold.Chemscore.Rot.Weighted>
3.4550

> <Gold.Chemscore.Internal.Correction.Weighted>
   9.000000E+99

> <Gold.Protein.RotatedTorsions>
[ 6907 6896 6895 6894 ] final  125.34 input  -60.11 | X-H torsion
[ 7974 7965 7964 7962 ] final   14.76 input  175.53 | X-H torsion
[ 8008 7997 7996 7995 ] final -152.64 input   59.86 | X-H torsion
[ 10167 10162 10161 10158 ] final  -79.64 input  -65.29 | X-H torsion
[ 10718 10713 10712 10709 ] final   34.49 input   66.30 | X-H torsion
[ 10763 10752 10751 10750 ] final  154.71 input  -60.55 | X-H torsion
[ 11005 11000 10999 10996 ] final -133.23 input  -57.11 | X-H torsion

> <Gold.Protein.ActiveResidues>
 VAL166  LYS551  ARG553  GLY616  TRP617  ASP618  TYR619  PRO620  LYS621  CYS622 
 ASP623  PHE694  ASN695  SER759  ASP760  ASP761  ALA762  ILE779  LEU786  VAL792 
 PHE793  MET794  SER795  GLU796  ALA797  LYS798  CYS799  TRP800  GLU811  SER814 

> <Gold.Protein.RotatedAtoms>
  152.4001  133.6804  159.6308 H   0  0  0  0  0  0  0  0  0  0  0  0  # atno 6907 bound_to 6896
  150.7893  133.8806  159.3293 H   0  0  0  0  0  0  0  0  0  0  0  0  # atno 6908 bound_to 6896
  151.6574  135.0995  160.0224 H   0  0  0  0  0  0  0  0  0  0  0  0  # atno 6909 bound_to 6896
  146.2296  139.8994  142.8542 H   0  0  0  0  0  0  0  0  0  0  0  0  # atno 7974 bound_to 7965
  155.6584  140.0720  157.2563 H   0  0  0  0  0  0  0  0  0  0  0  0  # atno 8008 bound_to 7997
  154.4147  140.1721  156.1800 H   0  0  0  0  0  0  0  0  0  0  0  0  # atno 8009 bound_to 7997
  155.9718  140.3361  155.6586 H   0  0  0  0  0  0  0  0  0  0  0  0  # atno 8010 bound_to 7997
  140.4575  143.2463  151.8398 H   0  0  0  0  0  0  0  0  0  0  0  0  # atno 10167 bound_to 10162
  157.3109  130.7399  149.6724 H   0  0  0  0  0  0  0  0  0  0  0  0  # atno 10718 bound_to 10713
  154.1567  135.2812  155.3120 H   0  0  0  0  0  0  0  0  0  0  0  0  # atno 10763 bound_to 10752
  154.6177  135.5478  153.7544 H   0  0  0  0  0  0  0  0  0  0  0  0  # atno 10764 bound_to 10752
  153.0204  135.6431  154.1710 H   0  0  0  0  0  0  0  0  0  0  0  0  # atno 10765 bound_to 10752
  140.9099  134.1582  157.4397 H   0  0  0  0  0  0  0  0  0  0  0  0  # atno 11005 bound_to 11000
  145.2338  140.9983  143.3975 LP  0  0  0  0  0  0  0  0  0  0  0  0  # atno 17320 bound_to 7965
  144.9508  139.4085  143.6403 LP  0  0  0  0  0  0  0  0  0  0  0  0  # atno 17321 bound_to 7965
  139.4802  144.5047  151.9014 LP  0  0  0  0  0  0  0  0  0  0  0  0  # atno 17342 bound_to 10162
  140.4133  144.2340  150.5888 LP  0  0  0  0  0  0  0  0  0  0  0  0  # atno 17343 bound_to 10162
  155.9678  130.4251  150.4641 LP  0  0  0  0  0  0  0  0  0  0  0  0  # atno 17370 bound_to 10713
  157.2639  131.0573  151.2303 LP  0  0  0  0  0  0  0  0  0  0  0  0  # atno 17371 bound_to 10713
  139.8755  134.9931  156.5630 LP  0  0  0  0  0  0  0  0  0  0  0  0  # atno 17394 bound_to 11000
  140.8124  133.8419  155.8821 LP  0  0  0  0  0  0  0  0  0  0  0  0  # atno 17395 bound_to 11000

$$$$
