AV-unprocessed.smi:2612|AV-procd|sdf|10211|dock3
  -GOLD-   2272014213D 1   1.00000     0.00000
 Structure written by MMmdl.
 40 41  0  0  0  0  0  0  0  0  1 V2000
  152.7110  140.0806  158.8246 C   0  0  0  0  0  0  0  0  0  0  0  0
  152.9322  139.6520  157.4864 O   0  0  0  0  0  0  0  0  0  0  0  0
  151.8014  139.4148  156.6367 C   0  0  0  0  0  0  0  0  0  0  0  0
  150.9916  138.3470  157.4182 C   0  0  0  0  0  0  0  0  0  0  0  0
  151.5937  137.0163  157.3612 N   0  0  0  0  0  0  0  0  0  0  0  0
  151.0225  135.9719  156.6195 C   0  0  0  0  0  0  0  0  0  0  0  0
  149.9850  136.2837  155.7142 C   0  0  0  0  0  0  0  0  0  0  0  0
  149.4047  135.2461  154.9582 C   0  0  0  0  0  0  0  0  0  0  0  0
  149.8916  133.9373  155.1364 C   0  0  0  0  0  0  0  0  0  0  0  0
  149.1701  132.5718  154.2379 S   0  0  0  0  0  0  0  0  0  0  0  0
  148.9571  133.2338  152.5359 C   0  0  0  0  0  0  0  0  0  0  0  0
  150.1615  131.4864  154.1846 O   0  0  0  0  0  0  0  0  0  0  0  0
  147.8347  132.3116  154.7971 O   0  0  0  0  0  0  0  0  0  0  0  0
  150.9176  133.7135  156.0751 C   0  0  0  0  0  0  0  0  0  0  0  0
  151.4737  134.7075  156.8003 N   0  0  0  0  0  0  0  0  0  0  0  0
  150.9698  140.6879  156.3266 C   0  0  0  0  0  0  0  0  0  0  0  0
  149.8800  140.4114  155.2754 C   0  0  0  0  0  0  0  0  0  0  0  0
  150.4746  139.9018  154.0872 O   0  0  0  0  0  0  0  0  0  0  0  0
  151.1382  138.6583  154.2847 C   0  0  0  0  0  0  0  0  0  0  0  0
  152.2908  138.8272  155.2923 C   0  0  0  0  0  0  0  0  0  0  0  0
  153.6700  140.3332  159.2759 H   0  0  0  0  0  0  0  0  0  0  0  0
  152.2727  139.2876  159.4303 H   0  0  0  0  0  0  0  0  0  0  0  0
  152.0789  140.9650  158.8867 H   0  0  0  0  0  0  0  0  0  0  0  0
  150.8162  138.6576  158.4464 H   0  0  0  0  0  0  0  0  0  0  0  0
  149.9995  138.2602  156.9742 H   0  0  0  0  0  0  0  0  0  0  0  0
  152.2248  136.7713  158.1106 H   0  0  0  0  0  0  0  0  0  0  0  0
  149.6387  137.3002  155.5965 H   0  0  0  0  0  0  0  0  0  0  0  0
  148.6064  135.4548  154.2615 H   0  0  0  0  0  0  0  0  0  0  0  0
  148.5096  132.4677  151.9030 H   0  0  0  0  0  0  0  0  0  0  0  0
  149.9282  133.5165  152.1301 H   0  0  0  0  0  0  0  0  0  0  0  0
  148.3059  134.1072  152.5628 H   0  0  0  0  0  0  0  0  0  0  0  0
  151.3014  132.7203  156.2549 H   0  0  0  0  0  0  0  0  0  0  0  0
  150.5307  141.1051  157.2321 H   0  0  0  0  0  0  0  0  0  0  0  0
  151.6079  141.4686  155.9137 H   0  0  0  0  0  0  0  0  0  0  0  0
  149.1278  139.7150  155.6447 H   0  0  0  0  0  0  0  0  0  0  0  0
  149.3561  141.3362  155.0337 H   0  0  0  0  0  0  0  0  0  0  0  0
  150.4263  137.9003  154.6124 H   0  0  0  0  0  0  0  0  0  0  0  0
  151.5316  138.3197  153.3262 H   0  0  0  0  0  0  0  0  0  0  0  0
  153.0310  139.4828  154.8363 H   0  0  0  0  0  0  0  0  0  0  0  0
  152.7918  137.8720  155.4531 H   0  0  0  0  0  0  0  0  0  0  0  0
  1  2  1  0  0  0  0
  1 21  1  0  0  0  0
  1 22  1  0  0  0  0
  1 23  1  0  0  0  0
  2  3  1  0  0  0  0
  3 20  1  0  0  0  0
  3  4  1  0  0  0  0
  3 16  1  0  0  0  0
  4  5  1  0  0  0  0
  4 24  1  0  0  0  0
  4 25  1  0  0  0  0
  5  6  1  0  0  0  0
  5 26  1  0  0  0  0
  6 15  1  0  0  0  0
  6  7  2  0  0  0  0
  7  8  1  0  0  0  0
  7 27  1  0  0  0  0
  8  9  2  0  0  0  0
  8 28  1  0  0  0  0
  9 10  1  0  0  0  0
  9 14  1  0  0  0  0
 10 11  1  0  0  0  0
 10 12  2  0  0  0  0
 10 13  2  0  0  0  0
 11 29  1  0  0  0  0
 11 30  1  0  0  0  0
 11 31  1  0  0  0  0
 14 15  2  0  0  0  0
 14 32  1  0  0  0  0
 16 17  1  0  0  0  0
 16 33  1  0  0  0  0
 16 34  1  0  0  0  0
 17 18  1  0  0  0  0
 17 35  1  0  0  0  0
 17 36  1  0  0  0  0
 18 19  1  0  0  0  0
 19 20  1  0  0  0  0
 19 37  1  0  0  0  0
 19 38  1  0  0  0  0
 20 39  1  0  0  0  0
 20 40  1  0  0  0  0
M  END
> <s_m_source_file>
AV-unprocessed.smi

> <i_m_source_file_index>
2612

> <i_lp_mmshare_version>
43012

> <i_f3d_flags>
0

> <s_epik_input>
W0NIMl0xW0NIMl1PW0NIMl1bQ0gyXUMxKE9bQ0gzXSlbQ0gyXVtOSF1jMltjSF1bY0hdYyhbY0hdbjIpUyg9TykoPU8pW0NIM10=

> <s_epik_cmdline>
J2VwaWtfcHl0aG9uJywgJy1waCcsICc3LjAnLCAnLXRuJywgJzgnLCAnLW1hJywgJzIwMCcsICctbWV0YWxfYmluZGluZycsICctaW1hZScsICc8aW5maWxlLm1hZT4nLCAnLW9tYWUnLCAnPG91dGZpbGUubWFlPic=

> <r_lp_tautomer_probability>
1

> <r_epik_Ionization_Penalty>
1.02976e-06

> <r_epik_Ionization_Penalty_Charging>
0

> <r_epik_Ionization_Penalty_Neutral>
1.02976e-06

> <r_epik_State_Penalty>
-0

> <r_epik_Charging_Adjusted_Penalty>
0

> <i_epik_Tot_Q>
0

> <i_epik_Tot_abs_Q>
0

> <r_epik_Metal_State_Penalty>
-0

> <b_epik_Metal_Only>
0

> <s_lp_Force_Field>
OPLS_2005

> <r_lp_Energy>
16.1681

> <b_lp_Chiralities_Consistent>
1

> <s_lp_Variant>
AV-unprocessed.smi:2612-1

> <Gold.Version>
5.8.1

> <Gold.Id.Protein>
6NUR|6NUR_protein|mol2

> <Gold.PLP.Fitness>
35.6037

> <Gold.PLP.PLP>
-30.3995

> <Gold.PLP.part.hbond>
-3.0000

> <Gold.PLP.part.metal>
0.0000

> <Gold.PLP.part.buried>
-4.7520

> <Gold.PLP.part.nonpolar>
-23.3855

> <Gold.PLP.part.repulsive>
0.6681

> <Gold.PLP.ligand.clash>
0.0000

> <Gold.PLP.ligand.torsion>
1.4519

> <Gold.PLP.Chemscore.Hbond>
2.0047

> <Gold.PLP.Chemscore.CHOScore>
0.0000

> <Gold.PLP.Chemscore.Metal>
0.0000

> <Gold.Chemscore.Hbonds>
donor molecule, donor type, donor heavy atom, donor atom, acceptor molecule, acceptor atom, score
      P1  H  7989  7998       L1    18  1.00
      P1  H  7997  8008       L1     2  1.00

> <Gold.PLP.Chemscore.Internal.Correction>
2.0939

> <Gold.Rescore>
     Score         DG    S(hbond)    S(metal)    S(lipo)     H(rot)  DE(clash)    DE(int)     intcor
     13.28     -14.73       1.52        0.00      67.34       1.45       0.09       1.36       ----

> <Gold.Chemscore.Fitness>
13.2823

> <Gold.Chemscore.DG>
-14.7326

> <Gold.Chemscore.ZeroCoef>
-5.4800

> <Gold.Chemscore.Hbond>
1.5218

> <Gold.Chemscore.Metal>
0.0000

> <Gold.Chemscore.Lipo>
67.3441

> <Gold.Chemscore.Internal_Hbond>
0.0000

> <Gold.Chemscore.DEClash>
0.0899

> <Gold.Chemscore.DEInternal>
1.3605

> <Gold.Chemscore.Rot>
1.4490

> <Gold.Chemscore.Internal.Correction>
   9.000000E+99

> <Gold.Chemscore.Hbonds>
donor molecule, donor type, donor heavy atom, donor atom, acceptor molecule, acceptor atom, score
      P1  H  7989  7998       L1    18  0.39
      P1  H  7997  8008       L1     2  0.78

> <Gold.Chemscore.Hbond.Weighted>
-5.0828

> <Gold.Chemscore.Metal.Weighted>
-0.0000

> <Gold.Chemscore.Lipo.Weighted>
-7.8793

> <Gold.Chemscore.Internal_Hbond.Weighted>
0.0000

> <Gold.Chemscore.DEClash.Weighted>
0.0899

> <Gold.Chemscore.DEInternal.Weighted>
1.3605

> <Gold.Chemscore.Rot.Weighted>
3.7094

> <Gold.Chemscore.Internal.Correction.Weighted>
   9.000000E+99

> <Gold.Protein.RotatedTorsions>
[ 6907 6896 6895 6894 ] final  147.63 input  -60.11 | X-H torsion
[ 7974 7965 7964 7962 ] final -147.05 input  175.53 | X-H torsion
[ 8008 7997 7996 7995 ] final  -82.62 input   59.86 | X-H torsion
[ 10167 10162 10161 10158 ] final   99.28 input  -65.29 | X-H torsion
[ 10718 10713 10712 10709 ] final  151.86 input   66.30 | X-H torsion
[ 10763 10752 10751 10750 ] final  -40.13 input  -60.55 | X-H torsion
[ 11005 11000 10999 10996 ] final  175.78 input  -57.11 | X-H torsion

> <Gold.Protein.ActiveResidues>
 VAL166  LYS551  ARG553  GLY616  TRP617  ASP618  TYR619  PRO620  LYS621  CYS622 
 ASP623  PHE694  ASN695  SER759  ASP760  ASP761  ALA762  ILE779  LEU786  VAL792 
 PHE793  MET794  SER795  GLU796  ALA797  LYS798  CYS799  TRP800  GLU811  SER814 

> <Gold.Protein.RotatedAtoms>
  152.1522  133.4529  159.4819 H   0  0  0  0  0  0  0  0  0  0  0  0  # atno 6907 bound_to 6896
  150.6897  134.2174  159.4392 H   0  0  0  0  0  0  0  0  0  0  0  0  # atno 6908 bound_to 6896
  152.0072  134.9896  160.0617 H   0  0  0  0  0  0  0  0  0  0  0  0  # atno 6909 bound_to 6896
  144.8118  140.5377  143.5637 H   0  0  0  0  0  0  0  0  0  0  0  0  # atno 7974 bound_to 7965
  154.6105  140.0630  156.9488 H   0  0  0  0  0  0  0  0  0  0  0  0  # atno 8008 bound_to 7997
  155.1981  140.3312  155.4329 H   0  0  0  0  0  0  0  0  0  0  0  0  # atno 8009 bound_to 7997
  156.2374  140.1869  156.7066 H   0  0  0  0  0  0  0  0  0  0  0  0  # atno 8010 bound_to 7997
  139.7631  144.6948  151.0263 H   0  0  0  0  0  0  0  0  0  0  0  0  # atno 10167 bound_to 10162
  157.2652  131.0806  151.1638 H   0  0  0  0  0  0  0  0  0  0  0  0  # atno 10718 bound_to 10713
  153.9409  135.6761  153.4744 H   0  0  0  0  0  0  0  0  0  0  0  0  # atno 10763 bound_to 10752
  153.0932  135.4864  154.8727 H   0  0  0  0  0  0  0  0  0  0  0  0  # atno 10764 bound_to 10752
  154.7378  135.3153  154.8740 H   0  0  0  0  0  0  0  0  0  0  0  0  # atno 10765 bound_to 10752
  140.3659  134.7072  157.4361 H   0  0  0  0  0  0  0  0  0  0  0  0  # atno 11005 bound_to 11000
  145.5305  139.1475  143.3502 LP  0  0  0  0  0  0  0  0  0  0  0  0  # atno 17320 bound_to 7965
  146.2418  140.5446  142.8931 LP  0  0  0  0  0  0  0  0  0  0  0  0  # atno 17321 bound_to 7965
  140.7809  143.4674  151.0194 LP  0  0  0  0  0  0  0  0  0  0  0  0  # atno 17342 bound_to 10162
  139.8359  143.7628  152.3180 LP  0  0  0  0  0  0  0  0  0  0  0  0  # atno 17343 bound_to 10162
  157.3132  130.6900  149.6227 LP  0  0  0  0  0  0  0  0  0  0  0  0  # atno 17370 bound_to 10713
  155.9663  130.4357  150.5104 LP  0  0  0  0  0  0  0  0  0  0  0  0  # atno 17371 bound_to 10713
  140.0589  134.6023  155.8772 LP  0  0  0  0  0  0  0  0  0  0  0  0  # atno 17394 bound_to 11000
  141.1969  133.6594  156.5717 LP  0  0  0  0  0  0  0  0  0  0  0  0  # atno 17395 bound_to 11000

$$$$
