#       Name:                AV-unprocessed.smi:1952
#       Creating user name   scv26
#       Creation time:       Fri Mar 27 10:04:42 2020


#       File generated by GOLD software.
#

@<TRIPOS>MOLECULE
AV-unprocessed.smi:1952
    47    48     1
SMALL
NO_CHARGES


@<TRIPOS>ATOM
      1 ****        -5.7884   2.9820  -0.4623 C.3            1 S1                 0.0000
      2 ****        -4.3653   2.5479  -0.3715 C.2            1 S1                 0.0000
      3 ****        -3.4504   2.1674  -1.3123 C.2            1 S1                 0.0000
      4 ****        -2.2923   1.8867  -0.5399 C.2            1 S1                 0.0000
      5 ****        -1.0974   1.4397  -1.1626 N.am           1 S1                 0.0000
      6 ****         0.0883   1.1515  -0.5973 C.2            1 S1                 0.0000
      7 ****         0.2640   1.3307   0.6137 O.2            1 S1                 0.0000
      8 ****         0.9849   0.6583  -1.4965 N.pl3          1 S1                -1.0000
      9 ****         2.3682   0.2693  -1.1918 C.3            1 S1                 0.0000
     10 ****         3.2359   0.5223  -2.4326 C.3            1 S1                 0.0000
     11 ****         2.4230  -1.2174  -0.7611 C.3            1 S1                 0.0000
     12 ****         1.6763  -1.4654   0.5012 N.4            1 S1                 1.0000
     13 ****         0.8712  -2.7083   0.4834 C.3            1 S1                 0.0000
     14 ****         0.0286  -2.8059   1.7661 C.3            1 S1                 0.0000
     15 ****         0.8801  -2.7536   2.9049 O.3            1 S1                 0.0000
     16 ****         1.6069  -1.5319   2.9722 C.3            1 S1                 0.0000
     17 ****         2.5042  -1.3984   1.7315 C.3            1 S1                 0.0000
     18 ****        -2.4851   2.0746   0.7573 N.2            1 S1                 0.0000
     19 ****        -3.8132   2.5018   0.8714 O.3            1 S1                 0.0000
     20 ****        -6.3612   2.2986  -1.0892 H              1 S1                 0.0000
     21 ****        -5.8594   3.9794  -0.8962 H              1 S1                 0.0000
     22 ****        -6.2558   3.0077   0.5223 H              1 S1                 0.0000
     23 ****        -3.5893   2.1009  -2.3810 H              1 S1                 0.0000
     24 ****        -1.1528   1.2972  -2.1601 H              1 S1                 0.0000
     25 ****         2.7850   0.8705  -0.3825 H              1 S1                 0.0000
     26 ****         4.2757   0.2546  -2.2432 H              1 S1                 0.0000
     27 ****         3.2165   1.5744  -2.7191 H              1 S1                 0.0000
     28 ****         2.8935  -0.0628  -3.2870 H              1 S1                 0.0000
     29 ****         2.0075  -1.8264  -1.5661 H              1 S1                 0.0000
     30 ****         3.4565  -1.5469  -0.6451 H              1 S1                 0.0000
     31 ****         0.2117  -2.7087  -0.3854 H              1 S1                 0.0000
     32 ****         1.5299  -3.5732   0.3927 H              1 S1                 0.0000
     33 ****        -0.7067  -2.0005   1.8097 H              1 S1                 0.0000
     34 ****        -0.5257  -3.7445   1.7812 H              1 S1                 0.0000
     35 ****         0.9189  -0.6881   3.0472 H              1 S1                 0.0000
     36 ****         2.2138  -1.5300   3.8776 H              1 S1                 0.0000
     37 ****         3.2500  -2.1946   1.7179 H              1 S1                 0.0000
     38 ****         3.0448  -0.4524   1.7721 H              1 S1                 0.0000
     39 ****         1.0094  -0.7073   0.5590 H              1 S1                 0.0000
     40 ****        -0.4780   1.6919   1.1786 LP             1 S1                 0.0000
     41 ****         1.1480   1.1144   1.0281 LP             1 S1                 0.0000
     42 ****         0.6759   0.5524  -2.4416 LP             1 S1                 0.0000
     43 ****         1.5290  -3.5130   2.8579 LP             1 S1                 0.0000
     44 ****         0.3217  -2.8428   3.7298 LP             1 S1                 0.0000
     45 ****        -1.8243   1.9402   1.4958 LP             1 S1                 0.0000
     46 ****        -4.3250   1.8607   1.4433 LP             1 S1                 0.0000
     47 ****        -3.8396   3.4118   1.2853 LP             1 S1                 0.0000
@<TRIPOS>BOND
    1    1    2 1     
    2    1   20 1     
    3    1   21 1     
    4    1   22 1     
    5    2   19 1     
    6    2    3 2     
    7    3    4 1     
    8    3   23 1     
    9    4    5 1     
   10    4   18 2     
   11    5    6 am    
   12    5   24 1     
   13    6    7 2     
   14    6    8 1     
   15    8    9 1     
   16    9   10 1     
   17    9   11 1     
   18    9   25 1     
   19   10   26 1     
   20   10   27 1     
   21   10   28 1     
   22   11   12 1     
   23   11   29 1     
   24   11   30 1     
   25   12   17 1     
   26   12   13 1     
   27   12   39 1     
   28   13   14 1     
   29   13   31 1     
   30   13   32 1     
   31   14   15 1     
   32   14   33 1     
   33   14   34 1     
   34   15   16 1     
   35   16   17 1     
   36   16   35 1     
   37   16   36 1     
   38   17   37 1     
   39   17   38 1     
   40   18   19 1     
   41    7   40 1     
   42    7   41 1     
   43    8   42 1     
   44   15   43 1     
   45   15   44 1     
   46   18   45 1     
   47   19   46 1     
   48   19   47 1     
@<TRIPOS>SUBSTRUCTURE
      1 S1             1
@<TRIPOS>SET
LONE_PAIRS      STATIC     ATOMS    <user>   **** ""
8 40 41 42 43 44 45 46 47
DONOR_HYDROGENS      STATIC     ATOMS    <user>   **** ""
2 24 39
ATOM$BLUE        STATIC     ATOMS    COLORGROUP SYSTEM
8 40 41 42 43 44 45 46 47
ATOM$RED        STATIC     ATOMS    COLORGROUP SYSTEM
2 24 39
