AV-unprocessed.smi:1205|AV-procd|sdf|5042|dock7
  -GOLD-   22720 4 63D 1   1.00000     0.00000
 Structure written by MMmdl.
 49 50  0  0  0  0  0  0  0  0  2 V2000
  151.8400  145.2207  158.9195 C   0  0  0  0  0  0  0  0  0  0  0  0
  152.3733  144.1564  159.8323 C   0  0  0  0  0  0  0  0  0  0  0  0
  152.9498  142.9024  159.4766 C   0  0  0  0  0  0  0  0  0  0  0  0
  153.2488  142.3529  160.6934 C   0  0  0  0  0  0  0  0  0  0  0  0
  153.8140  141.1483  160.9719 N   0  0  0  0  0  0  0  0  0  0  0  0
  154.2118  140.1897  160.1176 C   0  0  0  0  0  0  0  0  0  0  0  0
  154.1284  140.2433  158.8904 O   0  0  0  0  0  0  0  0  0  0  0  0
  154.7330  139.1428  160.7730 N   0  0  0  0  0  0  0  0  0  0  0  0
  155.2617  137.9401  160.1375 C   0  0  0  0  0  0  0  0  0  0  0  0
  154.2494  136.7657  160.1533 C   0  0  1  0  0  0  0  0  0  0  0  0
  154.5250  135.7281  159.0485 C   0  0  0  0  0  0  0  0  0  0  0  0
  154.1427  136.1009  161.4846 N   0  3  2  0  0  0  0  0  0  0  0  0
  153.6315  136.9960  162.5556 C   0  0  0  0  0  0  0  0  0  0  0  0
  153.2795  136.1905  163.8166 C   0  0  0  0  0  0  0  0  0  0  0  0
  154.4826  135.3678  164.3016 C   0  0  0  0  0  0  0  0  0  0  0  0
  155.0596  134.4930  163.1720 C   0  0  1  0  0  0  0  0  0  0  0  0
  154.1762  133.2756  162.8478 C   0  0  0  0  0  0  0  0  0  0  0  0
  155.3518  135.3496  161.9231 C   0  0  0  0  0  0  0  0  0  0  0  0
  152.8677  143.2306  161.6840 N   0  0  0  0  0  0  0  0  0  0  0  0
  152.9699  143.0966  163.1243 C   0  0  0  0  0  0  0  0  0  0  0  0
  152.3274  144.3454  161.1463 N   0  0  0  0  0  0  0  0  0  0  0  0
  151.9678  144.9432  157.8730 H   0  0  0  0  0  0  0  0  0  0  0  0
  152.3561  146.1682  159.0764 H   0  0  0  0  0  0  0  0  0  0  0  0
  150.7761  145.3870  159.0907 H   0  0  0  0  0  0  0  0  0  0  0  0
  153.1043  142.4942  158.4893 H   0  0  0  0  0  0  0  0  0  0  0  0
  153.9636  140.9618  161.9525 H   0  0  0  0  0  0  0  0  0  0  0  0
  154.7639  139.1782  161.7817 H   0  0  0  0  0  0  0  0  0  0  0  0
  155.5187  138.2100  159.1133 H   0  0  0  0  0  0  0  0  0  0  0  0
  156.1956  137.6590  160.6263 H   0  0  0  0  0  0  0  0  0  0  0  0
  153.2610  137.1709  159.9325 H   0  0  0  0  0  0  0  0  0  0  0  0
  154.4138  136.1680  158.0571 H   0  0  0  0  0  0  0  0  0  0  0  0
  153.8244  134.8949  159.1094 H   0  0  0  0  0  0  0  0  0  0  0  0
  155.5341  135.3216  159.1116 H   0  0  0  0  0  0  0  0  0  0  0  0
  154.3765  137.7560  162.7941 H   0  0  0  0  0  0  0  0  0  0  0  0
  152.7406  137.5224  162.2111 H   0  0  0  0  0  0  0  0  0  0  0  0
  152.9502  136.8650  164.6075 H   0  0  0  0  0  0  0  0  0  0  0  0
  152.4366  135.5309  163.6085 H   0  0  0  0  0  0  0  0  0  0  0  0
  155.2569  136.0488  164.6570 H   0  0  0  0  0  0  0  0  0  0  0  0
  154.2015  134.7536  165.1579 H   0  0  0  0  0  0  0  0  0  0  0  0
  156.0117  134.0950  163.5254 H   0  0  0  0  0  0  0  0  0  0  0  0
  153.1999  133.5704  162.4632 H   0  0  0  0  0  0  0  0  0  0  0  0
  154.0122  132.6632  163.7349 H   0  0  0  0  0  0  0  0  0  0  0  0
  154.6472  132.6416  162.0961 H   0  0  0  0  0  0  0  0  0  0  0  0
  155.7194  134.7084  161.1225 H   0  0  0  0  0  0  0  0  0  0  0  0
  156.1536  136.0524  162.1535 H   0  0  0  0  0  0  0  0  0  0  0  0
  153.9738  142.7676  163.3937 H   0  0  0  0  0  0  0  0  0  0  0  0
  152.2464  142.3600  163.4742 H   0  0  0  0  0  0  0  0  0  0  0  0
  152.7702  144.0511  163.6134 H   0  0  0  0  0  0  0  0  0  0  0  0
  153.4206  135.4051  161.3647 H   0  0  0  0  0  0  0  0  0  0  0  0
  1  2  1  0  0  0  0
  1 22  1  0  0  0  0
  1 23  1  0  0  0  0
  1 24  1  0  0  0  0
  2 21  2  0  0  0  0
  2  3  1  0  0  0  0
  3  4  2  0  0  0  0
  3 25  1  0  0  0  0
  4  5  1  0  0  0  0
  4 19  1  0  0  0  0
  5  6  1  0  0  0  0
  5 26  1  0  0  0  0
  6  7  2  0  0  0  0
  6  8  1  0  0  0  0
  8  9  1  0  0  0  0
  8 27  1  0  0  0  0
  9 10  1  0  0  0  0
  9 28  1  0  0  0  0
  9 29  1  0  0  0  0
 10 11  1  0  0  0  0
 10 12  1  0  0  0  0
 10 30  1  0  0  0  0
 11 31  1  0  0  0  0
 11 32  1  0  0  0  0
 11 33  1  0  0  0  0
 12 18  1  0  0  0  0
 12 13  1  0  0  0  0
 12 49  1  0  0  0  0
 13 14  1  0  0  0  0
 13 34  1  0  0  0  0
 13 35  1  0  0  0  0
 14 15  1  0  0  0  0
 14 36  1  0  0  0  0
 14 37  1  0  0  0  0
 15 16  1  0  0  0  0
 15 38  1  0  0  0  0
 15 39  1  0  0  0  0
 16 17  1  0  0  0  0
 16 18  1  0  0  0  0
 16 40  1  0  0  0  0
 17 41  1  0  0  0  0
 17 42  1  0  0  0  0
 17 43  1  0  0  0  0
 18 44  1  0  0  0  0
 18 45  1  0  0  0  0
 19 20  1  0  0  0  0
 19 21  1  0  0  0  0
 20 46  1  0  0  0  0
 20 47  1  0  0  0  0
 20 48  1  0  0  0  0
M  CHG  1  12   1
M  END
> <s_m_source_file>
AV-unprocessed.smi

> <i_m_source_file_index>
1205

> <i_lp_mmshare_version>
43012

> <i_f3d_flags>
0

> <s_epik_input>
W0NIM11jMVtjSF1jKG4objEpW0NIM10pW05IXUMoPU8pW05IXVtDSDJdW0NASF0oW0NIM10pTjJbQ0gyXVtDSDJdW0NIMl1bQ0BASF0oW0NIM10pW0NIMl0y

> <s_epik_cmdline>
J2VwaWtfcHl0aG9uJywgJy1waCcsICc3LjAnLCAnLXRuJywgJzgnLCAnLW1hJywgJzIwMCcsICctbWV0YWxfYmluZGluZycsICctaW1hZScsICc8aW5maWxlLm1hZT4nLCAnLW9tYWUnLCAnPG91dGZpbGUubWFlPic=

> <r_lp_tautomer_probability>
1

> <r_epik_Ionization_Penalty>
0.0020309

> <r_epik_Ionization_Penalty_Charging>
0.00195276

> <r_epik_Ionization_Penalty_Neutral>
7.81448e-05

> <r_epik_State_Penalty>
0.00133177

> <r_epik_Charging_Adjusted_Penalty>
0.00328452

> <i_epik_Tot_Q>
1

> <i_epik_Tot_abs_Q>
1

> <r_epik_Metal_State_Penalty>
-0

> <b_epik_Metal_Only>
0

> <s_lp_Force_Field>
OPLS_2005

> <r_lp_Energy>
24.2005

> <b_lp_Chiralities_Consistent>
1

> <s_lp_Variant>
AV-unprocessed.smi:1205-4

> <Gold.Version>
5.8.1

> <Gold.Id.Protein>
6NUR|6NUR_protein|mol2

> <Gold.PLP.Fitness>
45.5381

> <Gold.PLP.PLP>
-43.3643

> <Gold.PLP.part.hbond>
-1.0000

> <Gold.PLP.part.metal>
0.0000

> <Gold.PLP.part.buried>
-4.4773

> <Gold.PLP.part.nonpolar>
-36.9797

> <Gold.PLP.part.repulsive>
0.2546

> <Gold.PLP.ligand.clash>
0.0007

> <Gold.PLP.ligand.torsion>
0.3800

> <Gold.PLP.Chemscore.Hbond>
0.9440

> <Gold.PLP.Chemscore.CHOScore>
0.0000

> <Gold.PLP.Chemscore.Metal>
0.0000

> <Gold.Chemscore.Hbonds>
donor molecule, donor type, donor heavy atom, donor atom, acceptor molecule, acceptor atom, score
      P1  H  7997  8008       L1     7  0.90

> <Gold.PLP.Chemscore.Internal.Correction>
0.1025

> <Gold.Rescore>
     Score         DG    S(hbond)    S(metal)    S(lipo)     H(rot)  DE(clash)    DE(int)     intcor
     15.07     -17.03       0.96        0.00     103.30       1.47       0.38       1.58       ----

> <Gold.Chemscore.Fitness>
15.0685

> <Gold.Chemscore.DG>
-17.0273

> <Gold.Chemscore.ZeroCoef>
-5.4800

> <Gold.Chemscore.Hbond>
0.9621

> <Gold.Chemscore.Metal>
0.0000

> <Gold.Chemscore.Lipo>
103.3042

> <Gold.Chemscore.Internal_Hbond>
0.0000

> <Gold.Chemscore.DEClash>
0.3789

> <Gold.Chemscore.DEInternal>
1.5799

> <Gold.Chemscore.Rot>
1.4658

> <Gold.Chemscore.Internal.Correction>
   9.000000E+99

> <Gold.Chemscore.Hbonds>
donor molecule, donor type, donor heavy atom, donor atom, acceptor molecule, acceptor atom, score
      P1  H  7997  8008       L1     7  0.88

> <Gold.Chemscore.Hbond.Weighted>
-3.2133

> <Gold.Chemscore.Metal.Weighted>
-0.0000

> <Gold.Chemscore.Lipo.Weighted>
-12.0866

> <Gold.Chemscore.Internal_Hbond.Weighted>
0.0000

> <Gold.Chemscore.DEClash.Weighted>
0.3789

> <Gold.Chemscore.DEInternal.Weighted>
1.5799

> <Gold.Chemscore.Rot.Weighted>
3.7526

> <Gold.Chemscore.Internal.Correction.Weighted>
   9.000000E+99

> <Gold.Protein.RotatedTorsions>
[ 6907 6896 6895 6894 ] final   95.86 input  -60.11 | X-H torsion
[ 7974 7965 7964 7962 ] final  106.27 input  175.53 | X-H torsion
[ 8008 7997 7996 7995 ] final -107.34 input   59.86 | X-H torsion
[ 10167 10162 10161 10158 ] final  -34.06 input  -65.29 | X-H torsion
[ 10718 10713 10712 10709 ] final  143.69 input   66.30 | X-H torsion
[ 10763 10752 10751 10750 ] final   92.11 input  -60.55 | X-H torsion
[ 11005 11000 10999 10996 ] final  -66.97 input  -57.11 | X-H torsion

> <Gold.Protein.ActiveResidues>
 VAL166  LYS551  ARG553  GLY616  TRP617  ASP618  TYR619  PRO620  LYS621  CYS622 
 ASP623  PHE694  ASN695  SER759  ASP760  ASP761  ALA762  ILE779  LEU786  VAL792 
 PHE793  MET794  SER795  GLU796  ALA797  LYS798  CYS799  TRP800  GLU811  SER814 

> <Gold.Protein.RotatedAtoms>
  152.5440  134.0975  159.8303 H   0  0  0  0  0  0  0  0  0  0  0  0  # atno 6907 bound_to 6896
  151.1057  133.5203  159.2615 H   0  0  0  0  0  0  0  0  0  0  0  0  # atno 6908 bound_to 6896
  151.1940  135.0424  159.8899 H   0  0  0  0  0  0  0  0  0  0  0  0  # atno 6909 bound_to 6896
  145.3088  139.2547  143.3774 H   0  0  0  0  0  0  0  0  0  0  0  0  # atno 7974 bound_to 7965
  154.9278  140.0405  157.2032 H   0  0  0  0  0  0  0  0  0  0  0  0  # atno 8008 bound_to 7997
  154.8190  140.2880  155.5778 H   0  0  0  0  0  0  0  0  0  0  0  0  # atno 8009 bound_to 7997
  156.2978  140.2522  156.3093 H   0  0  0  0  0  0  0  0  0  0  0  0  # atno 8010 bound_to 7997
  140.7193  143.3575  151.2029 H   0  0  0  0  0  0  0  0  0  0  0  0  # atno 10167 bound_to 10162
  157.3660  131.0972  151.0872 H   0  0  0  0  0  0  0  0  0  0  0  0  # atno 10718 bound_to 10713
  153.2155  135.4373  155.0430 H   0  0  0  0  0  0  0  0  0  0  0  0  # atno 10763 bound_to 10752
  154.8223  135.3343  154.7004 H   0  0  0  0  0  0  0  0  0  0  0  0  # atno 10764 bound_to 10752
  153.7439  135.7003  153.5016 H   0  0  0  0  0  0  0  0  0  0  0  0  # atno 10765 bound_to 10752
  141.1496  133.6709  156.6220 H   0  0  0  0  0  0  0  0  0  0  0  0  # atno 11005 bound_to 11000
  146.3125  140.3619  142.8665 LP  0  0  0  0  0  0  0  0  0  0  0  0  # atno 17320 bound_to 7965
  144.9033  140.7669  143.5853 LP  0  0  0  0  0  0  0  0  0  0  0  0  # atno 17321 bound_to 7965
  139.7120  143.9361  152.2951 LP  0  0  0  0  0  0  0  0  0  0  0  0  # atno 17342 bound_to 10162
  139.9090  144.6868  150.8583 LP  0  0  0  0  0  0  0  0  0  0  0  0  # atno 17343 bound_to 10162
  157.1994  130.6388  149.5733 LP  0  0  0  0  0  0  0  0  0  0  0  0  # atno 17370 bound_to 10713
  155.9746  130.4696  150.6400 LP  0  0  0  0  0  0  0  0  0  0  0  0  # atno 17371 bound_to 10713
  140.3533  134.7750  157.4482 LP  0  0  0  0  0  0  0  0  0  0  0  0  # atno 17394 bound_to 11000
  140.0843  134.5688  155.8508 LP  0  0  0  0  0  0  0  0  0  0  0  0  # atno 17395 bound_to 11000

$$$$
