#       Name:                AV-unprocessed.smi:616
#       Creating user name   scv26
#       Creation time:       Thu Mar 26 23:59:49 2020


#       File generated by GOLD software.
#

@<TRIPOS>MOLECULE
AV-unprocessed.smi:616
    38    39     1
SMALL
NO_CHARGES


@<TRIPOS>ATOM
      1 ****        -1.2227  -3.2838  -1.0377 C.3            1 S1                 0.0000
      2 ****        -2.0000  -1.9848  -0.9021 C.2            1 S1                 0.0000
      3 ****        -3.3463  -1.9927  -1.0228 C.2            1 S1                 0.0000
      4 ****        -4.1597  -0.7819  -0.9029 C.2            1 S1                 0.0000
      5 ****        -5.3853  -0.7987  -1.0201 O.2            1 S1                 0.0000
      6 ****        -3.4705   0.3652  -0.6531 N.am           1 S1                 0.0000
      7 ****        -4.1919   1.6334  -0.5155 C.3            1 S1                 0.0000
      8 ****        -2.0706   0.3888  -0.5318 C.2            1 S1                 0.0000
      9 ****        -1.3129  -0.7254  -0.6425 C.2            1 S1                 0.0000
     10 ****         0.0890  -0.7515  -0.5381 N.am           1 S1                 0.0000
     11 ****         0.9523   0.2361  -0.2333 C.2            1 S1                 0.0000
     12 ****         0.6568   1.3976   0.0466 O.2            1 S1                 0.0000
     13 ****         2.2157  -0.2107  -0.2655 N.am           1 S1                 0.0000
     14 ****         3.3942   0.5949   0.0268 C.3            1 S1                 0.0000
     15 ****         3.6620   0.8225   1.5021 C.3            1 S1                 0.0000
     16 ****         3.2020   2.0839   2.1961 C.3            1 S1                 0.0000
     17 ****         4.6720   1.8564   1.9426 C.3            1 S1                 0.0000
     18 ****        -1.8811  -4.1307  -1.2336 H              1 S1                 0.0000
     19 ****        -0.6715  -3.4928  -0.1204 H              1 S1                 0.0000
     20 ****        -0.5105  -3.2156  -1.8604 H              1 S1                 0.0000
     21 ****        -3.8551  -2.9262  -1.2150 H              1 S1                 0.0000
     22 ****        -3.5448   2.4588  -0.2174 H              1 S1                 0.0000
     23 ****        -4.9752   1.5532   0.2399 H              1 S1                 0.0000
     24 ****        -4.6597   1.9082  -1.4619 H              1 S1                 0.0000
     25 ****        -1.6780   1.3761  -0.3534 H              1 S1                 0.0000
     26 ****         0.5016  -1.6548  -0.7197 H              1 S1                 0.0000
     27 ****         2.3740  -1.1789  -0.5040 H              1 S1                 0.0000
     28 ****         4.2564   0.0804  -0.3978 H              1 S1                 0.0000
     29 ****         3.3286   1.5550  -0.4885 H              1 S1                 0.0000
     30 ****         3.6413  -0.0894   2.0961 H              1 S1                 0.0000
     31 ****         2.7000   2.8396   1.5954 H              1 S1                 0.0000
     32 ****         2.8466   1.9911   3.2201 H              1 S1                 0.0000
     33 ****         5.2982   1.6139   2.7986 H              1 S1                 0.0000
     34 ****         5.1464   2.4635   1.1741 H              1 S1                 0.0000
     35 ****        -5.8583  -1.6605  -1.2037 LP             1 S1                 0.0000
     36 ****        -5.9077   0.0494  -0.9317 LP             1 S1                 0.0000
     37 ****        -0.3025   1.6798   0.0614 LP             1 S1                 0.0000
     38 ****         1.3759   2.0591   0.2592 LP             1 S1                 0.0000
@<TRIPOS>BOND
    1    1    2 1     
    2    1   18 1     
    3    1   19 1     
    4    1   20 1     
    5    2    9 1     
    6    2    3 2     
    7    3    4 1     
    8    3   21 1     
    9    4    5 2     
   10    4    6 am    
   11    6    7 1     
   12    6    8 1     
   13    7   22 1     
   14    7   23 1     
   15    7   24 1     
   16    8    9 2     
   17    8   25 1     
   18    9   10 1     
   19   10   11 am    
   20   10   26 1     
   21   11   12 2     
   22   11   13 am    
   23   13   14 1     
   24   13   27 1     
   25   14   15 1     
   26   14   28 1     
   27   14   29 1     
   28   15   17 1     
   29   15   16 1     
   30   15   30 1     
   31   16   17 1     
   32   16   31 1     
   33   16   32 1     
   34   17   33 1     
   35   17   34 1     
   36    5   35 1     
   37    5   36 1     
   38   12   37 1     
   39   12   38 1     
@<TRIPOS>SUBSTRUCTURE
      1 S1             1
@<TRIPOS>SET
LONE_PAIRS      STATIC     ATOMS    <user>   **** ""
4 35 36 37 38
DONOR_HYDROGENS      STATIC     ATOMS    <user>   **** ""
2 26 27
ATOM$BLUE        STATIC     ATOMS    COLORGROUP SYSTEM
4 35 36 37 38
ATOM$RED        STATIC     ATOMS    COLORGROUP SYSTEM
2 26 27
