AV-unprocessed.smi:50|AV-procd|sdf|494|dock9
  -GOLD-   2262016363D 1   1.00000     0.00000
 Structure written by MMmdl.
 43 44  0  0  0  0  0  0  0  0  1 V2000
  145.9559  132.8425  150.1388 C   0  0  0  0  0  0  0  0  0  0  0  0
  145.2831  133.7651  151.1763 C   0  0  0  0  0  0  0  0  0  0  0  0
  143.8110  133.3401  151.3380 C   0  0  0  0  0  0  0  0  0  0  0  0
  145.4088  135.2832  150.8512 C   0  0  1  0  0  0  0  0  0  0  0  0
  144.6273  135.6179  149.6608 N   0  0  0  0  0  0  0  0  0  0  0  0
  145.0032  136.1803  152.0344 C   0  0  0  0  0  0  0  0  0  0  0  0
  144.1416  135.8865  152.8654 O   0  0  0  0  0  0  0  0  0  0  0  0
  145.7338  137.3075  152.0451 O   0  0  0  0  0  0  0  0  0  0  0  0
  145.8531  138.0549  153.2441 C   0  0  0  0  0  0  0  0  0  0  0  0
  146.7213  139.2918  152.9954 C   0  0  0  0  0  0  0  0  0  0  0  0
  147.4901  139.5724  154.1594 O   0  0  0  0  0  0  0  0  0  0  0  0
  148.1505  140.7976  154.1598 C   0  0  0  0  0  0  0  0  0  0  0  0
  149.3946  140.6642  154.9002 N   0  0  0  0  0  0  0  0  0  0  0  0
  150.0514  141.6228  155.6301 C   0  0  0  0  0  0  0  0  0  0  0  0
  151.1457  141.1998  156.1987 N   0  0  0  0  0  0  0  0  0  0  0  0
  151.2296  139.8626  155.8216 C   0  0  0  0  0  0  0  0  0  0  0  0
  152.2183  138.8731  156.1423 C   0  0  0  0  0  0  0  0  0  0  0  0
  153.2215  138.9978  156.8414 O   0  0  0  0  0  0  0  0  0  0  0  0
  151.9409  137.6369  155.5452 N   0  0  0  0  0  0  0  0  0  0  0  0
  150.8326  137.3895  154.7386 C   0  0  0  0  0  0  0  0  0  0  0  0
  150.7144  136.1526  154.2383 N   0  0  0  0  0  0  0  0  0  0  0  0
  149.9184  138.2993  154.4512 N   0  0  0  0  0  0  0  0  0  0  0  0
  150.1601  139.5231  155.0158 C   0  0  0  0  0  0  0  0  0  0  0  0
  146.4526  135.4897  150.6181 H   0  0  0  0  0  0  0  0  0  0  0  0
  152.5956  136.8886  155.7197 H   0  0  0  0  0  0  0  0  0  0  0  0
  145.5775  133.0366  149.1355 H   0  0  0  0  0  0  0  0  0  0  0  0
  145.7671  131.7926  150.3648 H   0  0  0  0  0  0  0  0  0  0  0  0
  147.0386  132.9672  150.1197 H   0  0  0  0  0  0  0  0  0  0  0  0
  145.7780  133.5832  152.1316 H   0  0  0  0  0  0  0  0  0  0  0  0
  143.2495  133.5006  150.4186 H   0  0  0  0  0  0  0  0  0  0  0  0
  143.3113  133.8941  152.1324 H   0  0  0  0  0  0  0  0  0  0  0  0
  143.7325  132.2825  151.5911 H   0  0  0  0  0  0  0  0  0  0  0  0
  144.2877  136.5684  149.6938 H   0  0  0  0  0  0  0  0  0  0  0  0
  145.1780  135.5335  148.8185 H   0  0  0  0  0  0  0  0  0  0  0  0
  144.8735  138.3421  153.6291 H   0  0  0  0  0  0  0  0  0  0  0  0
  146.3283  137.4235  153.9960 H   0  0  0  0  0  0  0  0  0  0  0  0
  147.4272  139.0782  152.1928 H   0  0  0  0  0  0  0  0  0  0  0  0
  146.1125  140.1305  152.6536 H   0  0  0  0  0  0  0  0  0  0  0  0
  148.4022  141.0490  153.1291 H   0  0  0  0  0  0  0  0  0  0  0  0
  147.5337  141.6018  154.5649 H   0  0  0  0  0  0  0  0  0  0  0  0
  149.6948  142.6378  155.7279 H   0  0  0  0  0  0  0  0  0  0  0  0
  151.4130  135.4560  154.4549 H   0  0  0  0  0  0  0  0  0  0  0  0
  149.9321  135.9147  153.6458 H   0  0  0  0  0  0  0  0  0  0  0  0
  1  2  1  0  0  0  0
  1 26  1  0  0  0  0
  1 27  1  0  0  0  0
  1 28  1  0  0  0  0
  2  3  1  0  0  0  0
  2  4  1  0  0  0  0
  2 29  1  0  0  0  0
  3 30  1  0  0  0  0
  3 31  1  0  0  0  0
  3 32  1  0  0  0  0
  4 24  1  0  0  0  0
  4  5  1  0  0  0  0
  4  6  1  0  0  0  0
  5 33  1  0  0  0  0
  5 34  1  0  0  0  0
  6  7  2  0  0  0  0
  6  8  1  0  0  0  0
  8  9  1  0  0  0  0
  9 10  1  0  0  0  0
  9 35  1  0  0  0  0
  9 36  1  0  0  0  0
 10 11  1  0  0  0  0
 10 37  1  0  0  0  0
 10 38  1  0  0  0  0
 11 12  1  0  0  0  0
 12 13  1  0  0  0  0
 12 39  1  0  0  0  0
 12 40  1  0  0  0  0
 13 23  1  0  0  0  0
 13 14  1  0  0  0  0
 14 15  2  0  0  0  0
 14 41  1  0  0  0  0
 15 16  1  0  0  0  0
 16 23  2  0  0  0  0
 16 17  1  0  0  0  0
 17 18  2  0  0  0  0
 17 19  1  0  0  0  0
 19 25  1  0  0  0  0
 19 20  1  0  0  0  0
 20 21  1  0  0  0  0
 20 22  2  0  0  0  0
 21 42  1  0  0  0  0
 21 43  1  0  0  0  0
 22 23  1  0  0  0  0
M  END
> <s_m_source_file>
AV-unprocessed.smi

> <i_m_source_file_index>
50

> <i_lp_mmshare_version>
43012

> <i_f3d_flags>
0

> <s_epik_input>
W0NIM11bQ0hdKFtDSDNdKVtDQEhdKFtOSDJdKUMoPU8pT1tDSDJdW0NIMl1PW0NIMl1uKFtjSF1uMSljKGMxMiluYyhbTkgyXSlbbkhdYzI9Tw==

> <s_epik_cmdline>
J2VwaWtfcHl0aG9uJywgJy1waCcsICc3LjAnLCAnLXRuJywgJzgnLCAnLW1hJywgJzIwMCcsICctbWV0YWxfYmluZGluZycsICctaW1hZScsICc8aW5maWxlLm1hZT4nLCAnLW9tYWUnLCAnPG91dGZpbGUubWFlPic=

> <r_lp_tautomer_probability>
0.99994

> <r_epik_Ionization_Penalty>
0.704142

> <r_epik_Ionization_Penalty_Charging>
0.00148332

> <r_epik_Ionization_Penalty_Neutral>
0.702658

> <r_epik_State_Penalty>
0.725442

> <r_epik_Charging_Adjusted_Penalty>
0.726926

> <i_epik_Tot_Q>
0

> <i_epik_Tot_abs_Q>
0

> <r_epik_Metal_State_Penalty>
1.04557

> <b_epik_Metal_Only>
0

> <s_epik_Chemistry_Notes>
This compound has an ester and may undergo hydrolysis at high or low pH. This compound contains an acetal/aminal-like group ( X-CH(R)-Y where X, Y are N, S, or O) that may be acid/base labile, releasing an aldehyde.

> <s_lp_Force_Field>
OPLS_2005

> <r_lp_Energy>
2.75991

> <b_lp_Chiralities_Consistent>
1

> <s_lp_Variant>
AV-unprocessed.smi:50-4

> <Gold.Version>
5.8.1

> <Gold.Id.Protein>
6NUR|6NUR_protein|mol2

> <Gold.PLP.Fitness>
49.4630

> <Gold.PLP.PLP>
-39.3369

> <Gold.PLP.part.hbond>
-4.9846

> <Gold.PLP.part.metal>
0.0000

> <Gold.PLP.part.buried>
-6.1379

> <Gold.PLP.part.nonpolar>
-30.5562

> <Gold.PLP.part.repulsive>
0.9712

> <Gold.PLP.ligand.clash>
0.0000

> <Gold.PLP.ligand.torsion>
1.9500

> <Gold.PLP.Chemscore.Hbond>
3.6328

> <Gold.PLP.Chemscore.CHOScore>
1.0000

> <Gold.PLP.Chemscore.Metal>
0.0000

> <Gold.Chemscore.Hbonds>
donor molecule, donor type, donor heavy atom, donor atom, acceptor molecule, acceptor atom, score
      L1  H     5    33       P1 10171  0.99
      L1  H     5    34       P1  7921  1.00
      L1  H    21    43       P1  7948  0.60
      P1  H  7997  8010       L1    18  1.00
      L1  C    14    41       P1  8028  1.00

> <Gold.PLP.Chemscore.Internal.Correction>
0.1276

> <Gold.Rescore>
     Score         DG    S(hbond)    S(metal)    S(lipo)     H(rot)  DE(clash)    DE(int)     intcor
      5.65      -9.25       3.12        0.00      47.02       4.75       0.05       3.54       ----

> <Gold.Chemscore.Fitness>
5.6521

> <Gold.Chemscore.DG>
-9.2457

> <Gold.Chemscore.ZeroCoef>
-5.4800

> <Gold.Chemscore.Hbond>
3.1213

> <Gold.Chemscore.Metal>
0.0000

> <Gold.Chemscore.Lipo>
47.0163

> <Gold.Chemscore.Internal_Hbond>
0.0000

> <Gold.Chemscore.DEClash>
0.0509

> <Gold.Chemscore.DEInternal>
3.5427

> <Gold.Chemscore.Rot>
4.7501

> <Gold.Chemscore.Internal.Correction>
   9.000000E+99

> <Gold.Chemscore.Hbonds>
donor molecule, donor type, donor heavy atom, donor atom, acceptor molecule, acceptor atom, score
      L1  H     5    33       P1 10171  0.92
      L1  H     5    34       P1  7921  0.99
      L1  H    21    43       P1  7948  0.05
      P1  H  7997  8010       L1    18  0.97

> <Gold.Chemscore.Hbond.Weighted>
-10.4251

> <Gold.Chemscore.Metal.Weighted>
-0.0000

> <Gold.Chemscore.Lipo.Weighted>
-5.5009

> <Gold.Chemscore.Internal_Hbond.Weighted>
0.0000

> <Gold.Chemscore.DEClash.Weighted>
0.0509

> <Gold.Chemscore.DEInternal.Weighted>
3.5427

> <Gold.Chemscore.Rot.Weighted>
12.1603

> <Gold.Chemscore.Internal.Correction.Weighted>
   9.000000E+99

> <Gold.Protein.RotatedTorsions>
[ 6907 6896 6895 6894 ] final -166.19 input  -60.11 | X-H torsion
[ 7974 7965 7964 7962 ] final  157.12 input  175.53 | X-H torsion
[ 8008 7997 7996 7995 ] final   65.95 input   59.86 | X-H torsion
[ 10167 10162 10161 10158 ] final  -38.58 input  -65.29 | X-H torsion
[ 10718 10713 10712 10709 ] final  109.59 input   66.30 | X-H torsion
[ 10763 10752 10751 10750 ] final  -71.03 input  -60.55 | X-H torsion
[ 11005 11000 10999 10996 ] final -120.88 input  -57.11 | X-H torsion

> <Gold.Protein.ActiveResidues>
 VAL166  LYS551  ARG553  GLY616  TRP617  ASP618  TYR619  PRO620  LYS621  CYS622 
 ASP623  PHE694  ASN695  SER759  ASP760  ASP761  ALA762  ILE779  LEU786  VAL792 
 PHE793  MET794  SER795  GLU796  ALA797  LYS798  CYS799  TRP800  GLU811  SER814 

> <Gold.Protein.RotatedAtoms>
  151.4397  133.3647  159.2779 H   0  0  0  0  0  0  0  0  0  0  0  0  # atno 6907 bound_to 6896
  150.9166  134.8585  159.7472 H   0  0  0  0  0  0  0  0  0  0  0  0  # atno 6908 bound_to 6896
  152.4960  134.4331  159.9571 H   0  0  0  0  0  0  0  0  0  0  0  0  # atno 6909 bound_to 6896
  144.7922  139.7297  143.6216 H   0  0  0  0  0  0  0  0  0  0  0  0  # atno 7974 bound_to 7965
  155.6697  140.3497  155.4814 H   0  0  0  0  0  0  0  0  0  0  0  0  # atno 8008 bound_to 7997
  155.9698  140.1153  157.0845 H   0  0  0  0  0  0  0  0  0  0  0  0  # atno 8009 bound_to 7997
  154.4163  140.1159  156.5278 H   0  0  0  0  0  0  0  0  0  0  0  0  # atno 8010 bound_to 7997
  140.7088  143.3268  151.2662 H   0  0  0  0  0  0  0  0  0  0  0  0  # atno 10167 bound_to 10162
  157.6534  131.0916  150.6477 H   0  0  0  0  0  0  0  0  0  0  0  0  # atno 10718 bound_to 10713
  154.4261  135.5975  153.6039 H   0  0  0  0  0  0  0  0  0  0  0  0  # atno 10763 bound_to 10752
  152.9796  135.5964  154.3896 H   0  0  0  0  0  0  0  0  0  0  0  0  # atno 10764 bound_to 10752
  154.3728  135.2841  155.2235 H   0  0  0  0  0  0  0  0  0  0  0  0  # atno 10765 bound_to 10752
  141.0111  134.0263  157.3412 H   0  0  0  0  0  0  0  0  0  0  0  0  # atno 11005 bound_to 11000
  146.2178  139.5580  142.9638 LP  0  0  0  0  0  0  0  0  0  0  0  0  # atno 17320 bound_to 7965
  145.5765  141.0388  143.2145 LP  0  0  0  0  0  0  0  0  0  0  0  0  # atno 17321 bound_to 7965
  139.6738  143.9973  152.2769 LP  0  0  0  0  0  0  0  0  0  0  0  0  # atno 17342 bound_to 10162
  139.9580  144.6576  150.8107 LP  0  0  0  0  0  0  0  0  0  0  0  0  # atno 17343 bound_to 10162
  156.6786  130.4560  149.5635 LP  0  0  0  0  0  0  0  0  0  0  0  0  # atno 17370 bound_to 10713
  156.1946  130.6581  151.1099 LP  0  0  0  0  0  0  0  0  0  0  0  0  # atno 17371 bound_to 10713
  139.9090  135.0186  156.7612 LP  0  0  0  0  0  0  0  0  0  0  0  0  # atno 17394 bound_to 11000
  140.6732  133.9541  155.7868 LP  0  0  0  0  0  0  0  0  0  0  0  0  # atno 17395 bound_to 11000

$$$$
