AV-unprocessed.smi:72|AV-procd|sdf|711|dock1
  -GOLD-   2262017 33D 1   1.00000     0.00000
 Structure written by MMmdl.
 28 29  0  0  0  0  0  0  0  0  2 V2000
  151.2266  134.8226  156.9305 N   0  0  0  0  0  0  0  0  0  0  0  0
  151.1339  135.9906  156.4657 C   0  0  0  0  0  0  0  0  0  0  0  0
  149.8329  136.5879  156.2561 N   0  0  0  0  0  0  0  0  0  0  0  0
  149.7919  137.8006  155.7964 C   0  0  0  0  0  0  0  0  0  0  0  0
  151.0043  138.5553  155.5098 N   0  0  0  0  0  0  0  0  0  0  0  0
  150.9456  139.9659  154.9634 C   0  0  2  0  0  0  0  0  0  0  0  0
  151.4524  140.8575  155.9169 O   0  0  0  0  0  0  0  0  0  0  0  0
  150.5248  141.9157  156.1212 C   0  0  2  0  0  0  0  0  0  0  0  0
  150.7122  142.5529  157.5104 C   0  0  0  0  0  0  0  0  0  0  0  0
  149.5982  143.3300  157.8993 O   0  0  0  0  0  0  0  0  0  0  0  0
  149.1591  141.2998  155.8118 C   0  0  1  0  0  0  0  0  0  0  0  0
  148.1741  142.2631  155.4878 O   0  0  0  0  0  0  0  0  0  0  0  0
  149.4878  140.3589  154.6569 C   0  0  1  0  0  0  0  0  0  0  0  0
  149.3918  140.9825  153.3893 O   0  0  0  0  0  0  0  0  0  0  0  0
  152.2667  137.9304  155.6888 C   0  0  0  0  0  0  0  0  0  0  0  0
  153.2781  138.5662  155.3898 O   0  0  0  0  0  0  0  0  0  0  0  0
  152.3033  136.6564  156.1706 N   0  5  0  0  0  0  0  0  0  0  0  0
  151.6037  139.9807  154.0929 H   0  0  0  0  0  0  0  0  0  0  0  0
  150.7542  142.6668  155.3629 H   0  0  0  0  0  0  0  0  0  0  0  0
  148.8078  140.7024  156.6535 H   0  0  0  0  0  0  0  0  0  0  0  0
  148.8353  139.4845  154.6536 H   0  0  0  0  0  0  0  0  0  0  0  0
  150.3232  134.4121  157.1170 H   0  0  0  0  0  0  0  0  0  0  0  0
  148.8564  138.3224  155.5938 H   0  0  0  0  0  0  0  0  0  0  0  0
  150.9022  141.7853  158.2607 H   0  0  0  0  0  0  0  0  0  0  0  0
  151.5839  143.2076  157.4971 H   0  0  0  0  0  0  0  0  0  0  0  0
  149.2234  143.7262  157.1276 H   0  0  0  0  0  0  0  0  0  0  0  0
  148.5440  143.1224  155.6204 H   0  0  0  0  0  0  0  0  0  0  0  0
  149.3826  140.3074  152.7277 H   0  0  0  0  0  0  0  0  0  0  0  0
  1  2  2  0  0  0  0
  1 22  1  0  0  0  0
  2 17  1  0  0  0  0
  2  3  1  0  0  0  0
  3  4  2  0  0  0  0
  4  5  1  0  0  0  0
  4 23  1  0  0  0  0
  5  6  1  0  0  0  0
  5 15  1  0  0  0  0
  6 18  1  0  0  0  0
  6 13  1  0  0  0  0
  6  7  1  0  0  0  0
  7  8  1  0  0  0  0
  8 19  1  0  0  0  0
  8  9  1  0  0  0  0
  8 11  1  0  0  0  0
  9 10  1  0  0  0  0
  9 24  1  0  0  0  0
  9 25  1  0  0  0  0
 10 26  1  0  0  0  0
 11 20  1  0  0  0  0
 11 12  1  0  0  0  0
 11 13  1  0  0  0  0
 12 27  1  0  0  0  0
 13 21  1  0  0  0  0
 13 14  1  0  0  0  0
 14 28  1  0  0  0  0
 15 16  2  0  0  0  0
 15 17  1  0  0  0  0
M  CHG  1  17  -1
M  END
> <s_m_source_file>
AV-unprocessed.smi

> <i_m_source_file_index>
72

> <i_lp_mmshare_version>
43012

> <i_f3d_flags>
0

> <s_epik_input>
W05IMl1jMW5bY0hdbihjKD1PKW4xKVtDQEBIXTJPW0NASF0oW0NIMl1bT0hdKVtDQEBIXShbT0hdKVtDQEhdMltPSF0=

> <s_epik_cmdline>
J2VwaWtfcHl0aG9uJywgJy1waCcsICc3LjAnLCAnLXRuJywgJzgnLCAnLW1hJywgJzIwMCcsICctbWV0YWxfYmluZGluZycsICctaW1hZScsICc8aW5maWxlLm1hZT4nLCAnLW9tYWUnLCAnPG91dGZpbGUubWFlPic=

> <r_lp_tautomer_probability>
7.17554e-07

> <r_epik_Ionization_Penalty>
12.8705

> <r_epik_Ionization_Penalty_Charging>
5.64144

> <r_epik_Ionization_Penalty_Neutral>
7.22905

> <r_epik_State_Penalty>
3.30104

> <r_epik_Charging_Adjusted_Penalty>
8.94249

> <i_epik_Tot_Q>
-1

> <i_epik_Tot_abs_Q>
1

> <r_epik_Metal_State_Penalty>
0.529074

> <b_epik_Metal_Only>
1

> <s_epik_Chemistry_Notes>
This compound contains an acetal/aminal-like group ( X-CH(R)-Y where X, Y are N, S, or O) that may be acid/base labile, releasing an aldehyde.

> <s_lp_Force_Field>
OPLS_2005

> <r_lp_Energy>
37.3105

> <b_lp_Chiralities_Consistent>
1

> <s_lp_Variant>
AV-unprocessed.smi:72-49

> <Gold.Version>
5.8.1

> <Gold.Id.Protein>
6NUR|6NUR_protein|mol2

> <Gold.PLP.Fitness>
45.9865

> <Gold.PLP.PLP>
-26.0249

> <Gold.PLP.part.hbond>
-8.7135

> <Gold.PLP.part.metal>
0.0000

> <Gold.PLP.part.buried>
-1.1482

> <Gold.PLP.part.nonpolar>
-16.6681

> <Gold.PLP.part.repulsive>
0.0478

> <Gold.PLP.ligand.clash>
0.0000

> <Gold.PLP.ligand.torsion>
0.2449

> <Gold.PLP.Chemscore.Hbond>
6.8138

> <Gold.PLP.Chemscore.CHOScore>
0.0000

> <Gold.PLP.Chemscore.Metal>
0.0000

> <Gold.Chemscore.Hbonds>
donor molecule, donor type, donor heavy atom, donor atom, acceptor molecule, acceptor atom, score
      L1  H    10    26       P1  8028  1.00
      L1  H    12    27       P1  8028  1.00
      L1  H    14    28       P1  7957  0.85
      P1  H  7989  7998       L1    14  0.01
      P1  H  7997  8008       L1    16  0.89
      P1  H  8011  8017       L1    14  0.95
      P1  H 10752 10764       L1    17  2.00

> <Gold.PLP.Chemscore.Internal.Correction>
0.0099

> <Gold.Rescore>
     Score         DG    S(hbond)    S(metal)    S(lipo)     H(rot)  DE(clash)    DE(int)     intcor
      9.06     -11.99       3.97        0.00      30.61       4.04       1.62       1.30       ----

> <Gold.Chemscore.Fitness>
9.0626

> <Gold.Chemscore.DG>
-11.9871

> <Gold.Chemscore.ZeroCoef>
-5.4800

> <Gold.Chemscore.Hbond>
3.9727

> <Gold.Chemscore.Metal>
0.0000

> <Gold.Chemscore.Lipo>
30.6097

> <Gold.Chemscore.Internal_Hbond>
0.0000

> <Gold.Chemscore.DEClash>
1.6218

> <Gold.Chemscore.DEInternal>
1.3027

> <Gold.Chemscore.Rot>
4.0403

> <Gold.Chemscore.Internal.Correction>
   9.000000E+99

> <Gold.Chemscore.Hbonds>
donor molecule, donor type, donor heavy atom, donor atom, acceptor molecule, acceptor atom, score
      L1  H    10    26       P1  8028  0.55
      L1  H    12    27       P1  8028  0.99
      L1  H    14    28       P1  7957  0.84
      P1  H  7997  8008       L1    16  0.82
      P1  H  8011  8017       L1    14  0.21
      P1  H 10752 10764       L1    17  0.28

> <Gold.Chemscore.Hbond.Weighted>
-13.2689

> <Gold.Chemscore.Metal.Weighted>
-0.0000

> <Gold.Chemscore.Lipo.Weighted>
-3.5813

> <Gold.Chemscore.Internal_Hbond.Weighted>
0.0000

> <Gold.Chemscore.DEClash.Weighted>
1.6218

> <Gold.Chemscore.DEInternal.Weighted>
1.3027

> <Gold.Chemscore.Rot.Weighted>
10.3431

> <Gold.Chemscore.Internal.Correction.Weighted>
   9.000000E+99

> <Gold.Protein.RotatedTorsions>
[ 6907 6896 6895 6894 ] final  143.85 input  -60.11 | X-H torsion
[ 7974 7965 7964 7962 ] final -151.98 input  175.53 | X-H torsion
[ 8008 7997 7996 7995 ] final  -18.59 input   59.86 | X-H torsion
[ 10167 10162 10161 10158 ] final -163.88 input  -65.29 | X-H torsion
[ 10718 10713 10712 10709 ] final  -77.94 input   66.30 | X-H torsion
[ 10763 10752 10751 10750 ] final  -32.33 input  -60.55 | X-H torsion
[ 11005 11000 10999 10996 ] final  170.51 input  -57.11 | X-H torsion

> <Gold.Protein.ActiveResidues>
 VAL166  LYS551  ARG553  GLY616  TRP617  ASP618  TYR619  PRO620  LYS621  CYS622 
 ASP623  PHE694  ASN695  SER759  ASP760  ASP761  ALA762  ILE779  LEU786  VAL792 
 PHE793  MET794  SER795  GLU796  ALA797  LYS798  CYS799  TRP800  GLU811  SER814 

> <Gold.Protein.RotatedAtoms>
  152.2011  133.4842  159.5058 H   0  0  0  0  0  0  0  0  0  0  0  0  # atno 6907 bound_to 6896
  150.6970  134.1589  159.4178 H   0  0  0  0  0  0  0  0  0  0  0  0  # atno 6908 bound_to 6896
  151.9506  135.0170  160.0592 H   0  0  0  0  0  0  0  0  0  0  0  0  # atno 6909 bound_to 6896
  144.7819  140.4724  143.5833 H   0  0  0  0  0  0  0  0  0  0  0  0  # atno 7974 bound_to 7965
  154.4896  140.2112  155.9579 H   0  0  0  0  0  0  0  0  0  0  0  0  # atno 8008 bound_to 7997
  156.1285  140.3201  155.8282 H   0  0  0  0  0  0  0  0  0  0  0  0  # atno 8009 bound_to 7997
  155.4339  140.0505  157.3007 H   0  0  0  0  0  0  0  0  0  0  0  0  # atno 8010 bound_to 7997
  139.6289  144.0478  152.1999 H   0  0  0  0  0  0  0  0  0  0  0  0  # atno 10167 bound_to 10162
  156.0131  130.4504  150.3421 H   0  0  0  0  0  0  0  0  0  0  0  0  # atno 10718 bound_to 10713
  153.8120  135.6881  153.4839 H   0  0  0  0  0  0  0  0  0  0  0  0  # atno 10763 bound_to 10752
  153.1623  135.4575  154.9787 H   0  0  0  0  0  0  0  0  0  0  0  0  # atno 10764 bound_to 10752
  154.7964  135.3320  154.7599 H   0  0  0  0  0  0  0  0  0  0  0  0  # atno 10765 bound_to 10752
  140.3091  134.7531  157.3977 H   0  0  0  0  0  0  0  0  0  0  0  0  # atno 11005 bound_to 11000
  145.6026  139.1505  143.3121 LP  0  0  0  0  0  0  0  0  0  0  0  0  # atno 17320 bound_to 7965
  146.2032  140.6146  142.9093 LP  0  0  0  0  0  0  0  0  0  0  0  0  # atno 17321 bound_to 7965
  140.0138  144.6204  150.7624 LP  0  0  0  0  0  0  0  0  0  0  0  0  # atno 17342 bound_to 10162
  140.7427  143.2836  151.3526 LP  0  0  0  0  0  0  0  0  0  0  0  0  # atno 17343 bound_to 10162
  157.1516  131.0322  151.2882 LP  0  0  0  0  0  0  0  0  0  0  0  0  # atno 17370 bound_to 10713
  157.4387  130.7532  149.7051 LP  0  0  0  0  0  0  0  0  0  0  0  0  # atno 17371 bound_to 10713
  140.1040  134.5434  155.8326 LP  0  0  0  0  0  0  0  0  0  0  0  0  # atno 17394 bound_to 11000
  141.2112  133.6703  156.6564 LP  0  0  0  0  0  0  0  0  0  0  0  0  # atno 17395 bound_to 11000

$$$$
