AV-unprocessed.smi:2093|AV-procd|sdf|8546|dock6
  -GOLD-   2272011273D 1   1.00000     0.00000
 Structure written by MMmdl.
 31 32  0  0  0  0  0  0  0  0  1 V2000
  149.3849  135.5654  155.3802 C   0  0  0  0  0  0  0  0  0  0  0  0
  150.2753  136.4955  156.2175 C   0  0  2  0  0  0  0  0  0  0  0  0
  149.5295  136.9392  157.3944 N   0  0  0  0  0  0  0  0  0  0  0  0
  149.0453  136.1505  158.3653 C   0  0  0  0  0  0  0  0  0  0  0  0
  149.1681  134.9254  158.3759 O   0  0  0  0  0  0  0  0  0  0  0  0
  148.4218  136.8760  159.3103 N   0  0  0  0  0  0  0  0  0  0  0  0
  147.7893  136.4178  160.4958 C   0  0  0  0  0  0  0  0  0  0  0  0
  147.4626  137.2023  161.5297 N   0  0  0  0  0  0  0  0  0  0  0  0
  146.8499  136.4841  162.5597 C   0  0  0  0  0  0  0  0  0  0  0  0
  146.7169  135.1443  162.2915 C   0  0  0  0  0  0  0  0  0  0  0  0
  147.3620  134.7285  160.7260 S   0  0  0  0  0  0  0  0  0  0  0  0
  150.7568  137.7159  155.4086 C   0  0  1  0  0  0  0  0  0  0  0  0
  151.2793  138.8784  156.2564 C   0  0  0  0  0  0  0  0  0  0  0  0
  152.2020  139.5758  155.2841 C   0  0  0  0  0  0  0  0  0  0  0  0
  152.8344  138.3923  154.5598 C   0  0  0  0  0  0  0  0  0  0  0  0
  151.8512  137.3604  154.5651 O   0  0  0  0  0  0  0  0  0  0  0  0
  149.9201  135.1867  154.5091 H   0  0  0  0  0  0  0  0  0  0  0  0
  148.4935  136.0824  155.0232 H   0  0  0  0  0  0  0  0  0  0  0  0
  149.0601  134.7033  155.9635 H   0  0  0  0  0  0  0  0  0  0  0  0
  151.1555  135.9267  156.5222 H   0  0  0  0  0  0  0  0  0  0  0  0
  149.3773  137.9336  157.4777 H   0  0  0  0  0  0  0  0  0  0  0  0
  148.4011  137.8747  159.1672 H   0  0  0  0  0  0  0  0  0  0  0  0
  146.5382  137.0078  163.4514 H   0  0  0  0  0  0  0  0  0  0  0  0
  146.2805  134.3802  162.9176 H   0  0  0  0  0  0  0  0  0  0  0  0
  149.9531  138.0819  154.7674 H   0  0  0  0  0  0  0  0  0  0  0  0
  150.4850  139.5250  156.6305 H   0  0  0  0  0  0  0  0  0  0  0  0
  151.8489  138.5077  157.1103 H   0  0  0  0  0  0  0  0  0  0  0  0
  151.6222  140.1802  154.5852 H   0  0  0  0  0  0  0  0  0  0  0  0
  152.9347  140.2202  155.7704 H   0  0  0  0  0  0  0  0  0  0  0  0
  153.1452  138.6427  153.5454 H   0  0  0  0  0  0  0  0  0  0  0  0
  153.7096  138.0367  155.1049 H   0  0  0  0  0  0  0  0  0  0  0  0
  1  2  1  0  0  0  0
  1 17  1  0  0  0  0
  1 18  1  0  0  0  0
  1 19  1  0  0  0  0
  2  3  1  0  0  0  0
  2 12  1  0  0  0  0
  2 20  1  0  0  0  0
  3  4  1  0  0  0  0
  3 21  1  0  0  0  0
  4  5  2  0  0  0  0
  4  6  1  0  0  0  0
  6  7  1  0  0  0  0
  6 22  1  0  0  0  0
  7 11  1  0  0  0  0
  7  8  2  0  0  0  0
  8  9  1  0  0  0  0
  9 10  2  0  0  0  0
  9 23  1  0  0  0  0
 10 11  1  0  0  0  0
 10 24  1  0  0  0  0
 12 16  1  0  0  0  0
 12 13  1  0  0  0  0
 12 25  1  0  0  0  0
 13 14  1  0  0  0  0
 13 26  1  0  0  0  0
 13 27  1  0  0  0  0
 14 15  1  0  0  0  0
 14 28  1  0  0  0  0
 14 29  1  0  0  0  0
 15 16  1  0  0  0  0
 15 30  1  0  0  0  0
 15 31  1  0  0  0  0
M  END
> <s_m_source_file>
AV-unprocessed.smi

> <i_m_source_file_index>
2093

> <i_lp_mmshare_version>
43012

> <i_f3d_flags>
0

> <s_epik_input>
TzFbQ0gyXVtDSDJdW0NIMl1bQ0BIXTFbQ0BIXShbQ0gzXSlbTkhdQyg9TylbTkhdYzJuW2NIXVtjSF1zMg==

> <s_epik_cmdline>
J2VwaWtfcHl0aG9uJywgJy1waCcsICc3LjAnLCAnLXRuJywgJzgnLCAnLW1hJywgJzIwMCcsICctbWV0YWxfYmluZGluZycsICctaW1hZScsICc8aW5maWxlLm1hZT4nLCAnLW9tYWUnLCAnPG91dGZpbGUubWFlPic=

> <r_lp_tautomer_probability>
0.999

> <r_epik_Ionization_Penalty>
0.000334433

> <r_epik_Ionization_Penalty_Charging>
0

> <r_epik_Ionization_Penalty_Neutral>
0.000334433

> <r_epik_State_Penalty>
0.000177984

> <r_epik_Charging_Adjusted_Penalty>
0.000177984

> <i_epik_Tot_Q>
0

> <i_epik_Tot_abs_Q>
0

> <r_epik_Metal_State_Penalty>
0.00767616

> <b_epik_Metal_Only>
0

> <s_lp_Force_Field>
OPLS_2005

> <r_lp_Energy>
15.9736

> <b_lp_Chiralities_Consistent>
1

> <s_lp_Variant>
AV-unprocessed.smi:2093-3

> <Gold.Version>
5.8.1

> <Gold.Id.Protein>
6NUR|6NUR_protein|mol2

> <Gold.PLP.Fitness>
38.8576

> <Gold.PLP.PLP>
-28.6989

> <Gold.PLP.part.hbond>
-4.0000

> <Gold.PLP.part.metal>
0.0000

> <Gold.PLP.part.buried>
-2.9334

> <Gold.PLP.part.nonpolar>
-22.1475

> <Gold.PLP.part.repulsive>
0.3749

> <Gold.PLP.ligand.clash>
0.0000

> <Gold.PLP.ligand.torsion>
0.4208

> <Gold.PLP.Chemscore.Hbond>
3.6640

> <Gold.PLP.Chemscore.CHOScore>
0.0000

> <Gold.PLP.Chemscore.Metal>
0.0000

> <Gold.Chemscore.Hbonds>
donor molecule, donor type, donor heavy atom, donor atom, acceptor molecule, acceptor atom, score
      P1  H  6896  6907       L1     5  1.00
      P1  H  6931  6943       L1     8  0.93
      P1  H  6934  6947       L1     8  0.86
      P1  H 10752 10763       L1    16  0.94

> <Gold.PLP.Chemscore.Internal.Correction>
0.0082

> <Gold.Rescore>
     Score         DG    S(hbond)    S(metal)    S(lipo)     H(rot)  DE(clash)    DE(int)     intcor
     17.87     -19.50       3.07        0.00      60.55       1.29       0.03       1.60       ----

> <Gold.Chemscore.Fitness>
17.8710

> <Gold.Chemscore.DG>
-19.5039

> <Gold.Chemscore.ZeroCoef>
-5.4800

> <Gold.Chemscore.Hbond>
3.0693

> <Gold.Chemscore.Metal>
0.0000

> <Gold.Chemscore.Lipo>
60.5537

> <Gold.Chemscore.Internal_Hbond>
0.0000

> <Gold.Chemscore.DEClash>
0.0299

> <Gold.Chemscore.DEInternal>
1.6030

> <Gold.Chemscore.Rot>
1.2938

> <Gold.Chemscore.Internal.Correction>
   9.000000E+99

> <Gold.Chemscore.Hbonds>
donor molecule, donor type, donor heavy atom, donor atom, acceptor molecule, acceptor atom, score
      P1  H  6896  6907       L1     5  0.90
      P1  H  6931  6943       L1     8  0.48
      P1  H  6934  6947       L1     8  0.66
      P1  H 10752 10763       L1    16  0.38

> <Gold.Chemscore.Hbond.Weighted>
-10.2514

> <Gold.Chemscore.Metal.Weighted>
-0.0000

> <Gold.Chemscore.Lipo.Weighted>
-7.0848

> <Gold.Chemscore.Internal_Hbond.Weighted>
0.0000

> <Gold.Chemscore.DEClash.Weighted>
0.0299

> <Gold.Chemscore.DEInternal.Weighted>
1.6030

> <Gold.Chemscore.Rot.Weighted>
3.3122

> <Gold.Chemscore.Internal.Correction.Weighted>
   9.000000E+99

> <Gold.Protein.RotatedTorsions>
[ 6907 6896 6895 6894 ] final  -90.67 input  -60.11 | X-H torsion
[ 7974 7965 7964 7962 ] final  -33.96 input  175.53 | X-H torsion
[ 8008 7997 7996 7995 ] final   -0.22 input   59.86 | X-H torsion
[ 10167 10162 10161 10158 ] final    2.06 input  -65.29 | X-H torsion
[ 10718 10713 10712 10709 ] final   46.04 input   66.30 | X-H torsion
[ 10763 10752 10751 10750 ] final   50.63 input  -60.55 | X-H torsion
[ 11005 11000 10999 10996 ] final  -46.34 input  -57.11 | X-H torsion

> <Gold.Protein.ActiveResidues>
 VAL166  LYS551  ARG553  GLY616  TRP617  ASP618  TYR619  PRO620  LYS621  CYS622 
 ASP623  PHE694  ASN695  SER759  ASP760  ASP761  ALA762  ILE779  LEU786  VAL792 
 PHE793  MET794  SER795  GLU796  ALA797  LYS798  CYS799  TRP800  GLU811  SER814 

> <Gold.Protein.RotatedAtoms>
  150.6884  134.2396  159.4466 H   0  0  0  0  0  0  0  0  0  0  0  0  # atno 6907 bound_to 6896
  152.0341  134.9748  160.0582 H   0  0  0  0  0  0  0  0  0  0  0  0  # atno 6908 bound_to 6896
  152.1276  133.4354  159.4742 H   0  0  0  0  0  0  0  0  0  0  0  0  # atno 6909 bound_to 6896
  146.0868  140.5980  142.8883 H   0  0  0  0  0  0  0  0  0  0  0  0  # atno 7974 bound_to 7965
  154.6605  140.2589  155.7114 H   0  0  0  0  0  0  0  0  0  0  0  0  # atno 8008 bound_to 7997
  156.2616  140.2849  156.0997 H   0  0  0  0  0  0  0  0  0  0  0  0  # atno 8009 bound_to 7997
  155.1315  140.0378  157.2766 H   0  0  0  0  0  0  0  0  0  0  0  0  # atno 8010 bound_to 7997
  140.6653  143.7195  150.7816 H   0  0  0  0  0  0  0  0  0  0  0  0  # atno 10167 bound_to 10162
  157.4439  130.8098  149.7721 H   0  0  0  0  0  0  0  0  0  0  0  0  # atno 10718 bound_to 10713
  152.9784  135.5872  154.4283 H   0  0  0  0  0  0  0  0  0  0  0  0  # atno 10763 bound_to 10752
  154.3899  135.2768  155.2163 H   0  0  0  0  0  0  0  0  0  0  0  0  # atno 10764 bound_to 10752
  154.4039  135.6097  153.5968 H   0  0  0  0  0  0  0  0  0  0  0  0  # atno 10765 bound_to 10752
  141.0572  133.6721  156.3140 H   0  0  0  0  0  0  0  0  0  0  0  0  # atno 11005 bound_to 11000
  144.7331  140.4731  143.6923 LP  0  0  0  0  0  0  0  0  0  0  0  0  # atno 17320 bound_to 7965
  145.6114  139.1514  143.3073 LP  0  0  0  0  0  0  0  0  0  0  0  0  # atno 17321 bound_to 7965
  140.0871  143.4913  152.2499 LP  0  0  0  0  0  0  0  0  0  0  0  0  # atno 17342 bound_to 10162
  139.5900  144.7546  151.3424 LP  0  0  0  0  0  0  0  0  0  0  0  0  # atno 17343 bound_to 10162
  155.9959  130.3909  150.2798 LP  0  0  0  0  0  0  0  0  0  0  0  0  # atno 17370 bound_to 10713
  157.0965  131.0184  151.3102 LP  0  0  0  0  0  0  0  0  0  0  0  0  # atno 17371 bound_to 10713
  140.5940  134.5622  157.5505 LP  0  0  0  0  0  0  0  0  0  0  0  0  # atno 17394 bound_to 11000
  139.9401  134.7803  156.0701 LP  0  0  0  0  0  0  0  0  0  0  0  0  # atno 17395 bound_to 11000

$$$$
