AV-unprocessed.smi:999|AV-procd|sdf|4351|dock3
  -GOLD-   22720 2253D 1   1.00000     0.00000
 Structure written by MMmdl.
 37 38  0  0  0  0  0  0  0  0  2 V2000
  145.6696  135.5603  151.9638 C   0  0  0  0  0  0  0  0  0  0  0  0
  145.5204  134.0458  152.2165 C   0  0  2  0  0  0  0  0  0  0  0  0
  146.6412  133.4739  153.0997 C   0  0  0  0  0  0  0  0  0  0  0  0
  146.3899  132.6590  153.9884 O   0  0  0  0  0  0  0  0  0  0  0  0
  147.8822  133.9134  152.8366 N   0  0  0  0  0  0  0  0  0  0  0  0
  149.0908  133.5238  153.5554 C   0  0  2  0  0  0  0  0  0  0  0  0
  149.0727  132.0050  153.8009 C   0  0  0  0  0  0  0  0  0  0  0  0
  150.3031  131.5475  154.6001 C   0  0  0  0  0  0  0  0  0  0  0  0
  150.4277  132.3106  155.9406 C   0  0  1  0  0  0  0  0  0  0  0  0
  151.6718  131.8763  156.7436 C   0  0  0  0  0  0  0  0  0  0  0  0
  151.8549  132.3817  157.8737 O   0  0  0  0  0  0  0  0  0  0  0  0
  152.4454  131.0559  156.2018 O   0  5  0  0  0  0  0  0  0  0  0  0
  150.4307  133.8375  155.6966 C   0  0  0  0  0  0  0  0  0  0  0  0
  149.2015  134.2864  154.8901 C   0  0  0  0  0  0  0  0  0  0  0  0
  145.4145  133.2863  150.9756 N   0  0  0  0  0  0  0  0  0  0  0  0
  144.3604  133.2614  150.0847 C   0  0  0  0  0  0  0  0  0  0  0  0
  144.6825  132.3831  149.0902 C   0  0  0  0  0  0  0  0  0  0  0  0
  145.9659  131.9012  149.4684 C   0  0  0  0  0  0  0  0  0  0  0  0
  146.3973  132.4349  150.5992 N   0  0  0  0  0  0  0  0  0  0  0  0
  145.6834  136.1154  152.9024 H   0  0  0  0  0  0  0  0  0  0  0  0
  144.8345  135.9390  151.3741 H   0  0  0  0  0  0  0  0  0  0  0  0
  146.5883  135.7993  151.4265 H   0  0  0  0  0  0  0  0  0  0  0  0
  144.5833  133.9046  152.7577 H   0  0  0  0  0  0  0  0  0  0  0  0
  147.9976  134.5800  152.0873 H   0  0  0  0  0  0  0  0  0  0  0  0
  149.9619  133.7582  152.9401 H   0  0  0  0  0  0  0  0  0  0  0  0
  148.1675  131.7280  154.3436 H   0  0  0  0  0  0  0  0  0  0  0  0
  149.0374  131.4732  152.8493 H   0  0  0  0  0  0  0  0  0  0  0  0
  150.2298  130.4735  154.7780 H   0  0  0  0  0  0  0  0  0  0  0  0
  151.1998  131.7025  153.9979 H   0  0  0  0  0  0  0  0  0  0  0  0
  149.5606  132.0638  156.5550 H   0  0  0  0  0  0  0  0  0  0  0  0
  150.4467  134.3792  156.6433 H   0  0  0  0  0  0  0  0  0  0  0  0
  151.3372  134.1246  155.1613 H   0  0  0  0  0  0  0  0  0  0  0  0
  149.2609  135.3600  154.7077 H   0  0  0  0  0  0  0  0  0  0  0  0
  148.3013  134.1238  155.4846 H   0  0  0  0  0  0  0  0  0  0  0  0
  143.4771  133.8654  150.2313 H   0  0  0  0  0  0  0  0  0  0  0  0
  144.0895  132.1212  148.2265 H   0  0  0  0  0  0  0  0  0  0  0  0
  146.5912  131.1816  148.9608 H   0  0  0  0  0  0  0  0  0  0  0  0
  1  2  1  0  0  0  0
  1 20  1  0  0  0  0
  1 21  1  0  0  0  0
  1 22  1  0  0  0  0
  2  3  1  0  0  0  0
  2 15  1  0  0  0  0
  2 23  1  0  0  0  0
  3  4  2  0  0  0  0
  3  5  1  0  0  0  0
  5  6  1  0  0  0  0
  5 24  1  0  0  0  0
  6 14  1  0  0  0  0
  6  7  1  0  0  0  0
  6 25  1  0  0  0  0
  7  8  1  0  0  0  0
  7 26  1  0  0  0  0
  7 27  1  0  0  0  0
  8  9  1  0  0  0  0
  8 28  1  0  0  0  0
  8 29  1  0  0  0  0
  9 10  1  0  0  0  0
  9 13  1  0  0  0  0
  9 30  1  0  0  0  0
 10 11  2  0  0  0  0
 10 12  1  0  0  0  0
 13 14  1  0  0  0  0
 13 31  1  0  0  0  0
 13 32  1  0  0  0  0
 14 33  1  0  0  0  0
 14 34  1  0  0  0  0
 15 19  1  0  0  0  0
 15 16  1  0  0  0  0
 16 17  2  0  0  0  0
 16 35  1  0  0  0  0
 17 18  1  0  0  0  0
 17 36  1  0  0  0  0
 18 19  2  0  0  0  0
 18 37  1  0  0  0  0
M  CHG  1  12  -1
M  END
> <s_m_source_file>
AV-unprocessed.smi

> <i_m_source_file_index>
999

> <i_lp_mmshare_version>
43012

> <i_f3d_flags>
0

> <s_epik_input>
bjFbY0hdW2NIXVtjSF1uMVtDQEhdKFtDSDNdKUMoPU8pW05IXVtDQEBIXTJbQ0gyXVtDSDJdW0NAQEhdKEMoPU8pW09IXSlbQ0gyXVtDSDJdMg==

> <s_epik_cmdline>
J2VwaWtfcHl0aG9uJywgJy1waCcsICc3LjAnLCAnLXRuJywgJzgnLCAnLW1hJywgJzIwMCcsICctbWV0YWxfYmluZGluZycsICctaW1hZScsICc8aW5maWxlLm1hZT4nLCAnLW9tYWUnLCAnPG91dGZpbGUubWFlPic=

> <r_lp_tautomer_probability>
1

> <r_epik_Ionization_Penalty>
0.00221712

> <r_epik_Ionization_Penalty_Charging>
0.00217268

> <r_epik_Ionization_Penalty_Neutral>
4.44343e-05

> <r_epik_State_Penalty>
0.0014925

> <r_epik_Charging_Adjusted_Penalty>
0.00366518

> <i_epik_Tot_Q>
-1

> <i_epik_Tot_abs_Q>
1

> <r_epik_Metal_State_Penalty>
-0

> <b_epik_Metal_Only>
0

> <s_lp_Force_Field>
OPLS_2005

> <r_lp_Energy>
14.6475

> <b_lp_Chiralities_Consistent>
1

> <s_lp_Variant>
AV-unprocessed.smi:999-1

> <Gold.Version>
5.8.1

> <Gold.Id.Protein>
6NUR|6NUR_protein|mol2

> <Gold.PLP.Fitness>
43.4887

> <Gold.PLP.PLP>
-33.6202

> <Gold.PLP.part.hbond>
-2.0000

> <Gold.PLP.part.metal>
0.0000

> <Gold.PLP.part.buried>
-4.3531

> <Gold.PLP.part.nonpolar>
-27.4433

> <Gold.PLP.part.repulsive>
0.4326

> <Gold.PLP.ligand.clash>
0.0000

> <Gold.PLP.ligand.torsion>
1.1225

> <Gold.PLP.Chemscore.Hbond>
2.7360

> <Gold.PLP.Chemscore.CHOScore>
1.2576

> <Gold.PLP.Chemscore.Metal>
0.0000

> <Gold.Chemscore.Hbonds>
donor molecule, donor type, donor heavy atom, donor atom, acceptor molecule, acceptor atom, score
      L1  H     5    24       P1  7948  0.72
      P1  H  6896  6907       L1    11  2.00
      L1  C    16    35       P1 10186  0.78
      L1  C    18    37       P1 10747  0.36

> <Gold.PLP.Chemscore.Internal.Correction>
0.1328

> <Gold.Rescore>
     Score         DG    S(hbond)    S(metal)    S(lipo)     H(rot)  DE(clash)    DE(int)     intcor
     11.04     -13.71       1.28        0.00      77.11       1.98       0.06       2.61       ----

> <Gold.Chemscore.Fitness>
11.0396

> <Gold.Chemscore.DG>
-13.7109

> <Gold.Chemscore.ZeroCoef>
-5.4800

> <Gold.Chemscore.Hbond>
1.2788

> <Gold.Chemscore.Metal>
0.0000

> <Gold.Chemscore.Lipo>
77.1093

> <Gold.Chemscore.Internal_Hbond>
0.0000

> <Gold.Chemscore.DEClash>
0.0607

> <Gold.Chemscore.DEInternal>
2.6105

> <Gold.Chemscore.Rot>
1.9774

> <Gold.Chemscore.Internal.Correction>
   9.000000E+99

> <Gold.Chemscore.Hbonds>
donor molecule, donor type, donor heavy atom, donor atom, acceptor molecule, acceptor atom, score
      L1  H     5    24       P1  7948  0.18
      P1  H  6896  6907       L1    11  0.99

> <Gold.Chemscore.Hbond.Weighted>
-4.2711

> <Gold.Chemscore.Metal.Weighted>
-0.0000

> <Gold.Chemscore.Lipo.Weighted>
-9.0218

> <Gold.Chemscore.Internal_Hbond.Weighted>
0.0000

> <Gold.Chemscore.DEClash.Weighted>
0.0607

> <Gold.Chemscore.DEInternal.Weighted>
2.6105

> <Gold.Chemscore.Rot.Weighted>
5.0620

> <Gold.Chemscore.Internal.Correction.Weighted>
   9.000000E+99

> <Gold.Protein.RotatedTorsions>
[ 6907 6896 6895 6894 ] final  173.23 input  -60.11 | X-H torsion
[ 7974 7965 7964 7962 ] final   16.06 input  175.53 | X-H torsion
[ 8008 7997 7996 7995 ] final -151.53 input   59.86 | X-H torsion
[ 10167 10162 10161 10158 ] final  150.42 input  -65.29 | X-H torsion
[ 10718 10713 10712 10709 ] final   27.46 input   66.30 | X-H torsion
[ 10763 10752 10751 10750 ] final -173.07 input  -60.55 | X-H torsion
[ 11005 11000 10999 10996 ] final   26.08 input  -57.11 | X-H torsion

> <Gold.Protein.ActiveResidues>
 VAL166  LYS551  ARG553  GLY616  TRP617  ASP618  TYR619  PRO620  LYS621  CYS622 
 ASP623  PHE694  ASN695  SER759  ASP760  ASP761  ALA762  ILE779  LEU786  VAL792 
 PHE793  MET794  SER795  GLU796  ALA797  LYS798  CYS799  TRP800  GLU811  SER814 

> <Gold.Protein.RotatedAtoms>
  151.7717  133.3342  159.3446 H   0  0  0  0  0  0  0  0  0  0  0  0  # atno 6907 bound_to 6896
  150.7459  134.6013  159.6047 H   0  0  0  0  0  0  0  0  0  0  0  0  # atno 6908 bound_to 6896
  152.3337  134.7228  160.0334 H   0  0  0  0  0  0  0  0  0  0  0  0  # atno 6909 bound_to 6896
  146.2260  139.8803  142.8572 H   0  0  0  0  0  0  0  0  0  0  0  0  # atno 7974 bound_to 7965
  155.6408  140.0701  157.2619 H   0  0  0  0  0  0  0  0  0  0  0  0  # atno 8008 bound_to 7997
  154.4184  140.1751  156.1620 H   0  0  0  0  0  0  0  0  0  0  0  0  # atno 8009 bound_to 7997
  155.9857  140.3350  155.6708 H   0  0  0  0  0  0  0  0  0  0  0  0  # atno 8010 bound_to 7997
  139.4850  144.5523  151.7379 H   0  0  0  0  0  0  0  0  0  0  0  0  # atno 10167 bound_to 10162
  157.2205  130.6976  149.6268 H   0  0  0  0  0  0  0  0  0  0  0  0  # atno 10718 bound_to 10713
  154.6120  135.2865  155.0421 H   0  0  0  0  0  0  0  0  0  0  0  0  # atno 10763 bound_to 10752
  154.1647  135.6482  153.4998 H   0  0  0  0  0  0  0  0  0  0  0  0  # atno 10764 bound_to 10752
  153.0199  135.5386  154.6878 H   0  0  0  0  0  0  0  0  0  0  0  0  # atno 10765 bound_to 10752
  140.3408  134.2334  155.7690 H   0  0  0  0  0  0  0  0  0  0  0  0  # atno 11005 bound_to 11000
  145.2519  141.0047  143.3876 LP  0  0  0  0  0  0  0  0  0  0  0  0  # atno 17320 bound_to 7965
  144.9367  139.4235  143.6468 LP  0  0  0  0  0  0  0  0  0  0  0  0  # atno 17321 bound_to 7965
  140.5079  144.1070  150.5987 LP  0  0  0  0  0  0  0  0  0  0  0  0  # atno 17342 bound_to 10162
  140.3985  143.2715  151.9975 LP  0  0  0  0  0  0  0  0  0  0  0  0  # atno 17343 bound_to 10162
  155.9682  130.4521  150.5762 LP  0  0  0  0  0  0  0  0  0  0  0  0  # atno 17370 bound_to 10713
  157.3580  131.0745  151.1659 LP  0  0  0  0  0  0  0  0  0  0  0  0  # atno 17371 bound_to 10713
  141.2039  133.7901  157.0316 LP  0  0  0  0  0  0  0  0  0  0  0  0  # atno 17394 bound_to 11000
  140.0782  134.9663  157.1581 LP  0  0  0  0  0  0  0  0  0  0  0  0  # atno 17395 bound_to 11000

$$$$
