AV-unprocessed.smi:3009|AV-procd|sdf|11450|dock9
  -GOLD-   2272016383D 1   1.00000     0.00000
 Structure written by MMmdl.
 44 45  0  0  0  0  0  0  0  0  2 V2000
  146.3256  142.9253  154.3349 C   0  0  0  0  0  0  0  0  0  0  0  0
  146.1752  141.7953  155.3648 C   0  0  0  0  0  0  0  0  0  0  0  0
  145.0534  142.1271  156.3633 C   0  0  0  0  0  0  0  0  0  0  0  0
  147.5206  141.5277  156.0744 C   0  0  0  0  0  0  0  0  0  0  0  0
  148.7052  141.8799  155.2440 N   0  3  2  0  0  0  0  0  0  0  0  0
  148.7816  141.1199  153.9729 C   0  0  0  0  0  0  0  0  0  0  0  0
  149.3060  139.6930  154.2113 C   0  0  0  0  0  0  0  0  0  0  0  0
  150.5731  139.7587  154.8527 O   0  0  0  0  0  0  0  0  0  0  0  0
  150.5116  140.3788  156.1339 C   0  0  1  0  0  0  0  0  0  0  0  0
  151.9120  140.3403  156.7715 C   0  0  0  0  0  0  0  0  0  0  0  0
  151.9422  141.0245  158.0600 N   0  0  0  0  0  0  0  0  0  0  0  0
  152.8786  140.8572  159.0040 C   0  0  0  0  0  0  0  0  0  0  0  0
  153.8321  140.0872  158.8892 O   0  0  0  0  0  0  0  0  0  0  0  0
  152.6351  141.6328  160.0730 N   0  0  0  0  0  0  0  0  0  0  0  0
  153.4063  141.7334  161.2583 C   0  0  0  0  0  0  0  0  0  0  0  0
  154.4829  140.8698  161.5976 C   0  0  0  0  0  0  0  0  0  0  0  0
  155.0188  141.1999  162.7639 N   0  0  0  0  0  0  0  0  0  0  0  0
  154.2940  142.2659  163.1726 N   0  0  0  0  0  0  0  0  0  0  0  0
  153.3021  142.6267  162.2875 C   0  0  0  0  0  0  0  0  0  0  0  0
  150.0100  141.8293  155.9538 C   0  0  0  0  0  0  0  0  0  0  0  0
  154.4862  142.7311  164.0485 H   0  0  0  0  0  0  0  0  0  0  0  0
  146.6118  143.8632  154.8124 H   0  0  0  0  0  0  0  0  0  0  0  0
  145.3912  143.0966  153.7996 H   0  0  0  0  0  0  0  0  0  0  0  0
  147.0875  142.6842  153.5929 H   0  0  0  0  0  0  0  0  0  0  0  0
  145.8772  140.9068  154.8094 H   0  0  0  0  0  0  0  0  0  0  0  0
  145.2899  143.0185  156.9451 H   0  0  0  0  0  0  0  0  0  0  0  0
  144.8838  141.3081  157.0625 H   0  0  0  0  0  0  0  0  0  0  0  0
  144.1112  142.3100  155.8457 H   0  0  0  0  0  0  0  0  0  0  0  0
  147.5602  142.0592  157.0250 H   0  0  0  0  0  0  0  0  0  0  0  0
  147.5625  140.4668  156.3256 H   0  0  0  0  0  0  0  0  0  0  0  0
  147.8125  141.1010  153.4731 H   0  0  0  0  0  0  0  0  0  0  0  0
  149.4612  141.6444  153.2999 H   0  0  0  0  0  0  0  0  0  0  0  0
  148.6080  139.1059  154.8096 H   0  0  0  0  0  0  0  0  0  0  0  0
  149.4215  139.1738  153.2598 H   0  0  0  0  0  0  0  0  0  0  0  0
  149.8254  139.8226  156.7742 H   0  0  0  0  0  0  0  0  0  0  0  0
  152.2669  139.3126  156.8670 H   0  0  0  0  0  0  0  0  0  0  0  0
  152.6237  140.8507  156.1220 H   0  0  0  0  0  0  0  0  0  0  0  0
  151.1977  141.6814  158.2430 H   0  0  0  0  0  0  0  0  0  0  0  0
  151.8150  142.2201  160.0323 H   0  0  0  0  0  0  0  0  0  0  0  0
  154.8847  140.0313  161.0477 H   0  0  0  0  0  0  0  0  0  0  0  0
  152.6382  143.4584  162.4710 H   0  0  0  0  0  0  0  0  0  0  0  0
  150.7347  142.3880  155.3598 H   0  0  0  0  0  0  0  0  0  0  0  0
  149.9551  142.3394  156.9142 H   0  0  0  0  0  0  0  0  0  0  0  0
  148.5591  142.8435  154.9787 H   0  0  0  0  0  0  0  0  0  0  0  0
  1  2  1  0  0  0  0
  1 22  1  0  0  0  0
  1 23  1  0  0  0  0
  1 24  1  0  0  0  0
  2  3  1  0  0  0  0
  2  4  1  0  0  0  0
  2 25  1  0  0  0  0
  3 26  1  0  0  0  0
  3 27  1  0  0  0  0
  3 28  1  0  0  0  0
  4  5  1  0  0  0  0
  4 29  1  0  0  0  0
  4 30  1  0  0  0  0
  5 20  1  0  0  0  0
  5  6  1  0  0  0  0
  5 44  1  0  0  0  0
  6  7  1  0  0  0  0
  6 31  1  0  0  0  0
  6 32  1  0  0  0  0
  7  8  1  0  0  0  0
  7 33  1  0  0  0  0
  7 34  1  0  0  0  0
  8  9  1  0  0  0  0
  9 10  1  0  0  0  0
  9 20  1  0  0  0  0
  9 35  1  0  0  0  0
 10 11  1  0  0  0  0
 10 36  1  0  0  0  0
 10 37  1  0  0  0  0
 11 12  1  0  0  0  0
 11 38  1  0  0  0  0
 12 13  2  0  0  0  0
 12 14  1  0  0  0  0
 14 15  1  0  0  0  0
 14 39  1  0  0  0  0
 15 19  2  0  0  0  0
 15 16  1  0  0  0  0
 16 17  2  0  0  0  0
 16 40  1  0  0  0  0
 17 18  1  0  0  0  0
 18 21  1  0  0  0  0
 18 19  1  0  0  0  0
 19 41  1  0  0  0  0
 20 42  1  0  0  0  0
 20 43  1  0  0  0  0
M  CHG  1   5   1
M  END
> <s_m_source_file>
AV-unprocessed.smi

> <i_m_source_file_index>
3009

> <i_lp_mmshare_version>
43012

> <i_f3d_flags>
0

> <s_epik_input>
W0NIM11bQ0hdKFtDSDNdKVtDSDJdTjFbQ0gyXVtDSDJdT1tDQEhdKFtDSDJdMSlbQ0gyXVtOSF1DKD1PKVtOSF1jMltjSF1uW25IXVtjSF0y

> <s_epik_cmdline>
J2VwaWtfcHl0aG9uJywgJy1waCcsICc3LjAnLCAnLXRuJywgJzgnLCAnLW1hJywgJzIwMCcsICctbWV0YWxfYmluZGluZycsICctaW1hZScsICc8aW5maWxlLm1hZT4nLCAnLW9tYWUnLCAnPG91dGZpbGUubWFlPic=

> <r_lp_tautomer_probability>
0.5

> <r_epik_Ionization_Penalty>
0.0974064

> <r_epik_Ionization_Penalty_Charging>
0.0973651

> <r_epik_Ionization_Penalty_Neutral>
4.13573e-05

> <r_epik_State_Penalty>
0.0874853

> <r_epik_Charging_Adjusted_Penalty>
0.18485

> <i_epik_Tot_Q>
1

> <i_epik_Tot_abs_Q>
1

> <r_epik_Metal_State_Penalty>
0.0874855

> <b_epik_Metal_Only>
0

> <s_lp_Force_Field>
OPLS_2005

> <r_lp_Energy>
22.9615

> <b_lp_Chiralities_Consistent>
1

> <s_lp_Variant>
AV-unprocessed.smi:3009-2

> <Gold.Version>
5.8.1

> <Gold.Id.Protein>
6NUR|6NUR_protein|mol2

> <Gold.PLP.Fitness>
46.5636

> <Gold.PLP.PLP>
-36.4785

> <Gold.PLP.part.hbond>
-4.9963

> <Gold.PLP.part.metal>
0.0000

> <Gold.PLP.part.buried>
-1.6723

> <Gold.PLP.part.nonpolar>
-29.0573

> <Gold.PLP.part.repulsive>
0.4468

> <Gold.PLP.ligand.clash>
0.0000

> <Gold.PLP.ligand.torsion>
0.5738

> <Gold.PLP.Chemscore.Hbond>
3.7280

> <Gold.PLP.Chemscore.CHOScore>
0.0000

> <Gold.PLP.Chemscore.Metal>
0.0000

> <Gold.Chemscore.Hbonds>
donor molecule, donor type, donor heavy atom, donor atom, acceptor molecule, acceptor atom, score
      L1  H     5    44       P1  8028  1.66
      P1  H  7989  7998       L1     8  0.96
      P1  H  7997  8009       L1    13  1.00

> <Gold.PLP.Chemscore.Internal.Correction>
0.0486

> <Gold.Rescore>
     Score         DG    S(hbond)    S(metal)    S(lipo)     H(rot)  DE(clash)    DE(int)     intcor
     15.12     -17.75       2.39        0.00      75.85       1.80       0.68       1.96       ----

> <Gold.Chemscore.Fitness>
15.1165

> <Gold.Chemscore.DG>
-17.7514

> <Gold.Chemscore.ZeroCoef>
-5.4800

> <Gold.Chemscore.Hbond>
2.3938

> <Gold.Chemscore.Metal>
0.0000

> <Gold.Chemscore.Lipo>
75.8504

> <Gold.Chemscore.Internal_Hbond>
0.0000

> <Gold.Chemscore.DEClash>
0.6796

> <Gold.Chemscore.DEInternal>
1.9553

> <Gold.Chemscore.Rot>
1.7963

> <Gold.Chemscore.Internal.Correction>
   9.000000E+99

> <Gold.Chemscore.Hbonds>
donor molecule, donor type, donor heavy atom, donor atom, acceptor molecule, acceptor atom, score
      L1  H     5    44       P1  8028  0.80
      P1  H  7989  7998       L1     8  0.23
      P1  H  7997  8009       L1    13  0.91

> <Gold.Chemscore.Hbond.Weighted>
-7.9954

> <Gold.Chemscore.Metal.Weighted>
-0.0000

> <Gold.Chemscore.Lipo.Weighted>
-8.8745

> <Gold.Chemscore.Internal_Hbond.Weighted>
0.0000

> <Gold.Chemscore.DEClash.Weighted>
0.6796

> <Gold.Chemscore.DEInternal.Weighted>
1.9553

> <Gold.Chemscore.Rot.Weighted>
4.5985

> <Gold.Chemscore.Internal.Correction.Weighted>
   9.000000E+99

> <Gold.Protein.RotatedTorsions>
[ 6907 6896 6895 6894 ] final  -15.16 input  -60.11 | X-H torsion
[ 7974 7965 7964 7962 ] final -146.07 input  175.53 | X-H torsion
[ 8008 7997 7996 7995 ] final  137.72 input   59.86 | X-H torsion
[ 10167 10162 10161 10158 ] final  -52.12 input  -65.29 | X-H torsion
[ 10718 10713 10712 10709 ] final -147.26 input   66.30 | X-H torsion
[ 10763 10752 10751 10750 ] final  105.69 input  -60.55 | X-H torsion
[ 11005 11000 10999 10996 ] final -178.96 input  -57.11 | X-H torsion

> <Gold.Protein.ActiveResidues>
 VAL166  LYS551  ARG553  GLY616  TRP617  ASP618  TYR619  PRO620  LYS621  CYS622 
 ASP623  PHE694  ASN695  SER759  ASP760  ASP761  ALA762  ILE779  LEU786  VAL792 
 PHE793  MET794  SER795  GLU796  ALA797  LYS798  CYS799  TRP800  GLU811  SER814 

> <Gold.Protein.RotatedAtoms>
  151.3282  135.0835  159.9329 H   0  0  0  0  0  0  0  0  0  0  0  0  # atno 6907 bound_to 6896
  152.5241  133.9569  159.7709 H   0  0  0  0  0  0  0  0  0  0  0  0  # atno 6908 bound_to 6896
  150.9903  133.6103  159.2739 H   0  0  0  0  0  0  0  0  0  0  0  0  # atno 6909 bound_to 6896
  144.8184  140.5502  143.5595 H   0  0  0  0  0  0  0  0  0  0  0  0  # atno 7974 bound_to 7965
  156.3001  140.2412  156.3955 H   0  0  0  0  0  0  0  0  0  0  0  0  # atno 8008 bound_to 7997
  154.8575  140.0421  157.1663 H   0  0  0  0  0  0  0  0  0  0  0  0  # atno 8009 bound_to 7997
  154.8932  140.2966  155.5362 H   0  0  0  0  0  0  0  0  0  0  0  0  # atno 8010 bound_to 7997
  140.6554  143.2595  151.4602 H   0  0  0  0  0  0  0  0  0  0  0  0  # atno 10167 bound_to 10162
  156.4053  130.7954  151.2168 H   0  0  0  0  0  0  0  0  0  0  0  0  # atno 10718 bound_to 10713
  153.3827  135.3902  155.1868 H   0  0  0  0  0  0  0  0  0  0  0  0  # atno 10763 bound_to 10752
  154.8709  135.3729  154.4836 H   0  0  0  0  0  0  0  0  0  0  0  0  # atno 10764 bound_to 10752
  153.5315  135.7085  153.5742 H   0  0  0  0  0  0  0  0  0  0  0  0  # atno 10765 bound_to 10752
  140.4239  134.6580  157.4678 H   0  0  0  0  0  0  0  0  0  0  0  0  # atno 11005 bound_to 11000
  145.5161  139.1478  143.3578 LP  0  0  0  0  0  0  0  0  0  0  0  0  # atno 17320 bound_to 7965
  146.2488  140.5302  142.8902 LP  0  0  0  0  0  0  0  0  0  0  0  0  # atno 17321 bound_to 7965
  139.5775  144.1785  152.1923 LP  0  0  0  0  0  0  0  0  0  0  0  0  # atno 17342 bound_to 10162
  140.1100  144.5465  150.6931 LP  0  0  0  0  0  0  0  0  0  0  0  0  # atno 17343 bound_to 10162
  157.7505  131.0274  150.4005 LP  0  0  0  0  0  0  0  0  0  0  0  0  # atno 17370 bound_to 10713
  156.4292  130.3968  149.6771 LP  0  0  0  0  0  0  0  0  0  0  0  0  # atno 17371 bound_to 10713
  140.0181  134.6589  155.9280 LP  0  0  0  0  0  0  0  0  0  0  0  0  # atno 17394 bound_to 11000
  141.1773  133.6542  156.4878 LP  0  0  0  0  0  0  0  0  0  0  0  0  # atno 17395 bound_to 11000

$$$$
