AV-unprocessed.smi:2124|AV-procd|sdf|8668|dock4
  -GOLD-   2272011413D 1   1.00000     0.00000
 Structure written by MMmdl.
 46 48  0  0  0  0  0  0  0  0  2 V2000
  146.8819  139.0374  157.4893 C   0  0  0  0  0  0  0  0  0  0  0  0
  148.3677  138.8341  157.6960 C   0  0  0  0  0  0  0  0  0  0  0  0
  149.1934  139.4486  156.9376 N   0  0  0  0  0  0  0  0  0  0  0  0
  150.5736  139.2644  157.1252 C   0  0  0  0  0  0  0  0  0  0  0  0
  151.4802  140.0327  156.1796 C   0  0  0  0  0  0  0  0  0  0  0  0
  151.0494  138.4413  158.1030 C   0  0  0  0  0  0  0  0  0  0  0  0
  152.5405  138.2056  158.3468 C   0  0  0  0  0  0  0  0  0  0  0  0
  153.3405  139.3999  158.8736 C   0  0  0  0  0  0  0  0  0  0  0  0
  154.5578  139.3193  159.0415 O   0  0  0  0  0  0  0  0  0  0  0  0
  152.6325  140.5087  159.1377 N   0  0  0  0  0  0  0  0  0  0  0  0
  153.1811  141.7630  159.6494 C   0  0  2  0  0  0  0  0  0  0  0  0
  153.9541  141.4806  160.9507 C   0  0  0  0  0  0  0  0  0  0  0  0
  152.0443  142.7941  159.8556 C   0  0  1  0  0  0  0  0  0  0  0  0
  152.5038  144.0822  160.5823 C   0  0  0  0  0  0  0  0  0  0  0  0
  152.0550  145.2066  159.6324 C   0  0  2  0  0  0  0  0  0  0  0  0
  150.5192  145.3057  159.6414 C   0  0  0  0  0  0  0  0  0  0  0  0
  150.0960  144.0445  158.8656 C   0  0  0  0  0  0  0  0  0  0  0  0
  151.4453  143.3718  158.5464 C   0  0  1  0  0  0  0  0  0  0  0  0
  152.3279  144.5842  158.2699 C   0  0  0  0  0  0  0  0  0  0  0  0
  150.0651  137.7567  158.9600 C   0  0  0  0  0  0  0  0  0  0  0  0
  150.4413  137.0161  159.8678 O   0  0  0  0  0  0  0  0  0  0  0  0
  148.7434  137.9799  158.7085 N   0  5  0  0  0  0  0  0  0  0  0  0
  146.6906  139.8718  156.8132 H   0  0  0  0  0  0  0  0  0  0  0  0
  146.3904  139.2508  158.4391 H   0  0  0  0  0  0  0  0  0  0  0  0
  146.4352  138.1395  157.0617 H   0  0  0  0  0  0  0  0  0  0  0  0
  152.0320  139.3451  155.5384 H   0  0  0  0  0  0  0  0  0  0  0  0
  152.1946  140.6382  156.7375 H   0  0  0  0  0  0  0  0  0  0  0  0
  150.9049  140.7019  155.5386 H   0  0  0  0  0  0  0  0  0  0  0  0
  152.6881  137.3630  159.0230 H   0  0  0  0  0  0  0  0  0  0  0  0
  152.9956  137.8892  157.4080 H   0  0  0  0  0  0  0  0  0  0  0  0
  151.6378  140.4843  158.9657 H   0  0  0  0  0  0  0  0  0  0  0  0
  153.8807  142.1659  158.9149 H   0  0  0  0  0  0  0  0  0  0  0  0
  154.4139  142.3840  161.3504 H   0  0  0  0  0  0  0  0  0  0  0  0
  154.7552  140.7594  160.7849 H   0  0  0  0  0  0  0  0  0  0  0  0
  153.2976  141.0746  161.7210 H   0  0  0  0  0  0  0  0  0  0  0  0
  151.2524  142.3103  160.4299 H   0  0  0  0  0  0  0  0  0  0  0  0
  152.0638  144.1767  161.5757 H   0  0  0  0  0  0  0  0  0  0  0  0
  153.5879  144.1130  160.6982 H   0  0  0  0  0  0  0  0  0  0  0  0
  152.5567  146.1577  159.8131 H   0  0  0  0  0  0  0  0  0  0  0  0
  150.1134  145.3290  160.6534 H   0  0  0  0  0  0  0  0  0  0  0  0
  150.1832  146.2051  159.1240 H   0  0  0  0  0  0  0  0  0  0  0  0
  149.4328  143.4007  159.4441 H   0  0  0  0  0  0  0  0  0  0  0  0
  149.5749  144.3190  157.9476 H   0  0  0  0  0  0  0  0  0  0  0  0
  151.3770  142.6617  157.7221 H   0  0  0  0  0  0  0  0  0  0  0  0
  151.9756  145.1948  157.4366 H   0  0  0  0  0  0  0  0  0  0  0  0
  153.3773  144.3331  158.1082 H   0  0  0  0  0  0  0  0  0  0  0  0
  1  2  1  0  0  0  0
  1 23  1  0  0  0  0
  1 24  1  0  0  0  0
  1 25  1  0  0  0  0
  2 22  1  0  0  0  0
  2  3  2  0  0  0  0
  3  4  1  0  0  0  0
  4  5  1  0  0  0  0
  4  6  2  0  0  0  0
  5 26  1  0  0  0  0
  5 27  1  0  0  0  0
  5 28  1  0  0  0  0
  6  7  1  0  0  0  0
  6 20  1  0  0  0  0
  7  8  1  0  0  0  0
  7 29  1  0  0  0  0
  7 30  1  0  0  0  0
  8  9  2  0  0  0  0
  8 10  1  0  0  0  0
 10 11  1  0  0  0  0
 10 31  1  0  0  0  0
 11 12  1  0  0  0  0
 11 13  1  0  0  0  0
 11 32  1  0  0  0  0
 12 33  1  0  0  0  0
 12 34  1  0  0  0  0
 12 35  1  0  0  0  0
 13 18  1  0  0  0  0
 13 14  1  0  0  0  0
 13 36  1  0  0  0  0
 14 15  1  0  0  0  0
 14 37  1  0  0  0  0
 14 38  1  0  0  0  0
 15 19  1  0  0  0  0
 15 16  1  0  0  0  0
 15 39  1  0  0  0  0
 16 17  1  0  0  0  0
 16 40  1  0  0  0  0
 16 41  1  0  0  0  0
 17 18  1  0  0  0  0
 17 42  1  0  0  0  0
 17 43  1  0  0  0  0
 18 19  1  0  0  0  0
 18 44  1  0  0  0  0
 19 45  1  0  0  0  0
 19 46  1  0  0  0  0
 20 21  2  0  0  0  0
 20 22  1  0  0  0  0
M  CHG  1  22  -1
M  END
> <s_m_source_file>
AV-unprocessed.smi

> <i_m_source_file_index>
2124

> <i_lp_mmshare_version>
43012

> <i_f3d_flags>
0

> <s_epik_input>
W0NIM11jMW5jKFtDSDNdKWMoYyg9TylbbkhdMSlbQ0gyXUMoPU8pW05IXVtDQEhdKFtDSDNdKVtDQEhdKFtDSDJdW0NASF0yMylbQ0BIXShbQ0gyXTMpW0NIMl1bQ0gyXTI=

> <s_epik_cmdline>
J2VwaWtfcHl0aG9uJywgJy1waCcsICc3LjAnLCAnLXRuJywgJzgnLCAnLW1hJywgJzIwMCcsICctbWV0YWxfYmluZGluZycsICctaW1hZScsICc8aW5maWxlLm1hZT4nLCAnLW9tYWUnLCAnPG91dGZpbGUubWFlPic=

> <r_lp_tautomer_probability>
0.839158

> <r_epik_Ionization_Penalty>
6.63797

> <r_epik_Ionization_Penalty_Charging>
7.48558e-08

> <r_epik_Ionization_Penalty_Neutral>
6.63797

> <r_epik_State_Penalty>
4.49496

> <r_epik_Charging_Adjusted_Penalty>
4.49496

> <i_epik_Tot_Q>
-1

> <i_epik_Tot_abs_Q>
1

> <r_epik_Metal_State_Penalty>
0.841241

> <b_epik_Metal_Only>
1

> <s_lp_Force_Field>
OPLS_2005

> <r_lp_Energy>
55.6811

> <b_lp_Chiralities_Consistent>
1

> <s_lp_Variant>
AV-unprocessed.smi:2124-19

> <Gold.Version>
5.8.1

> <Gold.Id.Protein>
6NUR|6NUR_protein|mol2

> <Gold.PLP.Fitness>
47.6609

> <Gold.PLP.PLP>
-42.0459

> <Gold.PLP.part.hbond>
-2.2616

> <Gold.PLP.part.metal>
0.0000

> <Gold.PLP.part.buried>
-5.7784

> <Gold.PLP.part.nonpolar>
-34.5031

> <Gold.PLP.part.repulsive>
0.1182

> <Gold.PLP.ligand.clash>
0.0000

> <Gold.PLP.ligand.torsion>
0.2081

> <Gold.PLP.Chemscore.Hbond>
2.0000

> <Gold.PLP.Chemscore.CHOScore>
0.0000

> <Gold.PLP.Chemscore.Metal>
0.0000

> <Gold.Chemscore.Hbonds>
donor molecule, donor type, donor heavy atom, donor atom, acceptor molecule, acceptor atom, score
      P1  H  6896  6907       L1    21  0.96
      P1  H  7997  8010       L1     9  1.00

> <Gold.PLP.Chemscore.Internal.Correction>
0.0312

> <Gold.Rescore>
     Score         DG    S(hbond)    S(metal)    S(lipo)     H(rot)  DE(clash)    DE(int)     intcor
     19.37     -20.77       1.68        0.00     117.86       1.61       0.08       1.32       ----

> <Gold.Chemscore.Fitness>
19.3735

> <Gold.Chemscore.DG>
-20.7732

> <Gold.Chemscore.ZeroCoef>
-5.4800

> <Gold.Chemscore.Hbond>
1.6802

> <Gold.Chemscore.Metal>
0.0000

> <Gold.Chemscore.Lipo>
117.8647

> <Gold.Chemscore.Internal_Hbond>
0.0000

> <Gold.Chemscore.DEClash>
0.0780

> <Gold.Chemscore.DEInternal>
1.3218

> <Gold.Chemscore.Rot>
1.6051

> <Gold.Chemscore.Internal.Correction>
   9.000000E+99

> <Gold.Chemscore.Hbonds>
donor molecule, donor type, donor heavy atom, donor atom, acceptor molecule, acceptor atom, score
      P1  H  6896  6907       L1    21  0.91
      P1  H  7997  8010       L1     9  0.47

> <Gold.Chemscore.Hbond.Weighted>
-5.6120

> <Gold.Chemscore.Metal.Weighted>
-0.0000

> <Gold.Chemscore.Lipo.Weighted>
-13.7902

> <Gold.Chemscore.Internal_Hbond.Weighted>
0.0000

> <Gold.Chemscore.DEClash.Weighted>
0.0780

> <Gold.Chemscore.DEInternal.Weighted>
1.3218

> <Gold.Chemscore.Rot.Weighted>
4.1090

> <Gold.Chemscore.Internal.Correction.Weighted>
   9.000000E+99

> <Gold.Protein.RotatedTorsions>
[ 6907 6896 6895 6894 ] final  -25.37 input  -60.11 | X-H torsion
[ 7974 7965 7964 7962 ] final -175.11 input  175.53 | X-H torsion
[ 8008 7997 7996 7995 ] final  -14.95 input   59.86 | X-H torsion
[ 10167 10162 10161 10158 ] final -137.95 input  -65.29 | X-H torsion
[ 10718 10713 10712 10709 ] final  111.91 input   66.30 | X-H torsion
[ 10763 10752 10751 10750 ] final  -91.77 input  -60.55 | X-H torsion
[ 11005 11000 10999 10996 ] final   57.02 input  -57.11 | X-H torsion

> <Gold.Protein.ActiveResidues>
 VAL166  LYS551  ARG553  GLY616  TRP617  ASP618  TYR619  PRO620  LYS621  CYS622 
 ASP623  PHE694  ASN695  SER759  ASP760  ASP761  ALA762  ILE779  LEU786  VAL792 
 PHE793  MET794  SER795  GLU796  ALA797  LYS798  CYS799  TRP800  GLU811  SER814 

> <Gold.Protein.RotatedAtoms>
  151.1762  135.0340  159.8772 H   0  0  0  0  0  0  0  0  0  0  0  0  # atno 6907 bound_to 6896
  152.5447  134.1115  159.8370 H   0  0  0  0  0  0  0  0  0  0  0  0  # atno 6908 bound_to 6896
  151.1226  133.5046  159.2634 H   0  0  0  0  0  0  0  0  0  0  0  0  # atno 6909 bound_to 6896
  144.7129  140.1370  143.6394 H   0  0  0  0  0  0  0  0  0  0  0  0  # atno 7974 bound_to 7965
  154.5169  140.2209  155.9049 H   0  0  0  0  0  0  0  0  0  0  0  0  # atno 8008 bound_to 7997
  156.1617  140.3140  155.8785 H   0  0  0  0  0  0  0  0  0  0  0  0  # atno 8009 bound_to 7997
  155.3737  140.0468  157.3035 H   0  0  0  0  0  0  0  0  0  0  0  0  # atno 8010 bound_to 7997
  139.8526  143.7179  152.2656 H   0  0  0  0  0  0  0  0  0  0  0  0  # atno 10167 bound_to 10162
  157.6420  131.0959  150.6818 H   0  0  0  0  0  0  0  0  0  0  0  0  # atno 10718 bound_to 10713
  154.6794  135.5256  153.8243 H   0  0  0  0  0  0  0  0  0  0  0  0  # atno 10763 bound_to 10752
  153.0554  135.6548  154.0599 H   0  0  0  0  0  0  0  0  0  0  0  0  # atno 10764 bound_to 10752
  154.0489  135.2971  155.3323 H   0  0  0  0  0  0  0  0  0  0  0  0  # atno 10765 bound_to 10752
  140.0484  134.5772  155.9294 H   0  0  0  0  0  0  0  0  0  0  0  0  # atno 11005 bound_to 11000
  145.9236  139.2561  143.1367 LP  0  0  0  0  0  0  0  0  0  0  0  0  # atno 17320 bound_to 7965
  145.9595  140.8846  143.0218 LP  0  0  0  0  0  0  0  0  0  0  0  0  # atno 17321 bound_to 7965
  139.7450  144.7549  151.0593 LP  0  0  0  0  0  0  0  0  0  0  0  0  # atno 17342 bound_to 10162
  140.7785  143.4927  150.9872 LP  0  0  0  0  0  0  0  0  0  0  0  0  # atno 17343 bound_to 10162
  156.7140  130.4660  149.5540 LP  0  0  0  0  0  0  0  0  0  0  0  0  # atno 17370 bound_to 10713
  156.1710  130.6437  151.0837 LP  0  0  0  0  0  0  0  0  0  0  0  0  # atno 17371 bound_to 10713
  141.1918  133.6573  156.5474 LP  0  0  0  0  0  0  0  0  0  0  0  0  # atno 17394 bound_to 11000
  140.3956  134.7402  157.4748 LP  0  0  0  0  0  0  0  0  0  0  0  0  # atno 17395 bound_to 11000

$$$$
