#       Name:                AV-unprocessed.smi:1473
#       Creating user name   scv26
#       Creation time:       Fri Mar 27 06:05:39 2020


#       File generated by GOLD software.
#

@<TRIPOS>MOLECULE
AV-unprocessed.smi:1473
    39    40     1
SMALL
NO_CHARGES


@<TRIPOS>ATOM
      1 ****        -3.4815   0.9066   3.8492 N.3            1 S1                 0.0000
      2 ****        -2.0287   0.9732   2.9354 S.o2           1 S1                 0.0000
      3 ****        -2.4301   0.8095   1.5290 O.2            1 S1                 0.0000
      4 ****        -1.3583   2.2213   3.3343 O.2            1 S1                 0.0000
      5 ****        -1.3611  -0.3556   3.5792 N.pl3          1 S1                -1.0000
      6 ****        -0.0079  -0.7329   3.2028 C.3            1 S1                 0.0000
      7 ****         0.0816  -1.2375   1.7672 C.ar           1 S1                 0.0000
      8 ****        -0.2779  -2.5638   1.4454 C.ar           1 S1                 0.0000
      9 ****        -0.1896  -2.9711   0.1027 C.ar           1 S1                 0.0000
     10 ****         0.2214  -2.1597  -0.8931 N.ar           1 S1                 0.0000
     11 ****         0.5677  -0.8817  -0.6038 C.ar           1 S1                 0.0000
     12 ****         0.9868  -0.0792  -1.6906 N.3            1 S1                 0.0000
     13 ****         1.4920   1.2636  -1.4153 C.3            1 S1                 0.0000
     14 ****         2.1870   1.8477  -2.6567 C.3            1 S1                 0.0000
     15 ****         1.3029   1.8048  -3.7708 O.3            1 S1                 0.0000
     16 ****         0.9357   0.4691  -4.0968 C.3            1 S1                 0.0000
     17 ****         0.1897  -0.1713  -2.9140 C.3            1 S1                 0.0000
     18 ****         0.5163  -0.3864   0.7246 C.ar           1 S1                 0.0000
     19 ****        -4.2998   0.7451   3.2632 H              1 S1                 0.0000
     20 ****        -3.5764   1.6997   4.4822 H              1 S1                 0.0000
     21 ****         0.6917   0.0948   3.3271 H              1 S1                 0.0000
     22 ****         0.3715  -1.5228   3.8519 H              1 S1                 0.0000
     23 ****        -0.6217  -3.2613   2.1970 H              1 S1                 0.0000
     24 ****        -0.4578  -3.9781  -0.1807 H              1 S1                 0.0000
     25 ****         0.6632   1.9046  -1.1119 H              1 S1                 0.0000
     26 ****         2.2093   1.2387  -0.5945 H              1 S1                 0.0000
     27 ****         2.4753   2.8826  -2.4715 H              1 S1                 0.0000
     28 ****         3.1022   1.2987  -2.8840 H              1 S1                 0.0000
     29 ****         0.2962   0.4827  -4.9794 H              1 S1                 0.0000
     30 ****         1.8226  -0.1115  -4.3565 H              1 S1                 0.0000
     31 ****        -0.0415  -1.2053  -3.1691 H              1 S1                 0.0000
     32 ****        -0.7613   0.3375  -2.7518 H              1 S1                 0.0000
     33 ****         0.7801   0.6374   0.9489 H              1 S1                 0.0000
     34 ****        -3.4205   0.1034   4.4418 LP             1 S1                 0.0000
     35 ****        -1.8761  -0.9124   4.2309 LP             1 S1                 0.0000
     36 ****         0.2700  -2.4968  -1.8333 LP             1 S1                 0.0000
     37 ****         1.8321  -0.5722  -1.8964 LP             1 S1                 0.0000
     38 ****         1.7556   2.2189  -4.5605 LP             1 S1                 0.0000
     39 ****         0.4771   2.3237  -3.5500 LP             1 S1                 0.0000
@<TRIPOS>BOND
    1    1    2 1     
    2    1   19 1     
    3    1   20 1     
    4    2    3 2     
    5    2    4 2     
    6    2    5 1     
    7    5    6 1     
    8    6    7 1     
    9    6   21 1     
   10    6   22 1     
   11    7   18 ar    
   12    7    8 ar    
   13    8    9 ar    
   14    8   23 1     
   15    9   10 ar    
   16    9   24 1     
   17   10   11 ar    
   18   11   12 1     
   19   11   18 ar    
   20   12   17 1     
   21   12   13 1     
   22   13   14 1     
   23   13   25 1     
   24   13   26 1     
   25   14   15 1     
   26   14   27 1     
   27   14   28 1     
   28   15   16 1     
   29   16   17 1     
   30   16   29 1     
   31   16   30 1     
   32   17   31 1     
   33   17   32 1     
   34   18   33 1     
   35    1   34 1     
   36    5   35 1     
   37   10   36 1     
   38   12   37 1     
   39   15   38 1     
   40   15   39 1     
@<TRIPOS>SUBSTRUCTURE
      1 S1             1
@<TRIPOS>SET
LONE_PAIRS      STATIC     ATOMS    <user>   **** ""
8 34 3 4 35 36 37 38 39
DONOR_HYDROGENS      STATIC     ATOMS    <user>   **** ""
2 19 20
ATOM$BLUE        STATIC     ATOMS    COLORGROUP SYSTEM
8 34 3 4 35 36 37 38 39
ATOM$RED        STATIC     ATOMS    COLORGROUP SYSTEM
2 19 20
