AV-unprocessed.smi:1489|AV-procd|sdf|6028|dock5
  -GOLD-   22720 6133D 1   1.00000     0.00000
 Structure written by MMmdl.
 47 49  0  0  0  0  0  0  0  0  2 V2000
  146.4134  138.5526  154.7749 O   0  0  0  0  0  0  0  0  0  0  0  0
  147.1839  138.0387  153.9648 C   0  0  0  0  0  0  0  0  0  0  0  0
  148.5144  138.2284  153.9402 N   0  0  0  0  0  0  0  0  0  0  0  0
  149.3002  139.0606  154.7820 C   0  0  0  0  0  0  0  0  0  0  0  0
  150.7022  139.0230  154.6243 C   0  0  0  0  0  0  0  0  0  0  0  0
  151.5191  139.8446  155.4277 C   0  0  0  0  0  0  0  0  0  0  0  0
  150.9186  140.7062  156.3751 C   0  0  0  0  0  0  0  0  0  0  0  0
  151.6394  141.5671  157.2148 N   0  0  0  0  0  0  0  0  0  0  0  0
  151.2874  142.9730  157.1058 C   0  0  0  0  0  0  0  0  0  0  0  0
  151.8644  143.6363  158.3579 C   0  0  0  0  0  0  0  0  0  0  0  0
  152.0068  142.4982  159.3753 C   0  0  0  0  0  0  0  0  0  0  0  0
  151.5555  141.2395  158.6286 C   0  0  0  0  0  0  0  0  0  0  0  0
  149.5723  140.7247  156.4848 N   0  3  0  0  0  0  0  0  0  0  0  0
  148.7543  139.9512  155.7384 C   0  0  0  0  0  0  0  0  0  0  0  0
  146.7994  137.1900  152.9976 N   0  0  0  0  0  0  0  0  0  0  0  0
  145.4443  136.7080  152.7216 C   0  0  2  0  0  0  0  0  0  0  0  0
  144.7892  136.0317  153.9444 C   0  0  0  0  0  0  0  0  0  0  0  0
  143.3383  135.6195  153.6364 C   0  0  0  0  0  0  0  0  0  0  0  0
  143.2346  134.7397  152.3745 C   0  0  2  0  0  0  0  0  0  0  0  0
  143.7944  133.4654  152.6239 O   0  0  0  0  0  0  0  0  0  0  0  0
  143.9316  135.3906  151.1636 C   0  0  0  0  0  0  0  0  0  0  0  0
  145.3819  135.7980  151.4771 C   0  0  0  0  0  0  0  0  0  0  0  0
  149.0297  137.6717  153.2741 H   0  0  0  0  0  0  0  0  0  0  0  0
  151.1535  138.3653  153.8958 H   0  0  0  0  0  0  0  0  0  0  0  0
  152.5925  139.8118  155.3096 H   0  0  0  0  0  0  0  0  0  0  0  0
  151.6994  143.4109  156.1960 H   0  0  0  0  0  0  0  0  0  0  0  0
  150.2047  143.1009  157.0802 H   0  0  0  0  0  0  0  0  0  0  0  0
  152.8444  144.0629  158.1409 H   0  0  0  0  0  0  0  0  0  0  0  0
  151.2245  144.4417  158.7195 H   0  0  0  0  0  0  0  0  0  0  0  0
  153.0478  142.4052  159.6878 H   0  0  0  0  0  0  0  0  0  0  0  0
  151.4062  142.6664  160.2697 H   0  0  0  0  0  0  0  0  0  0  0  0
  150.5308  140.9866  158.9047 H   0  0  0  0  0  0  0  0  0  0  0  0
  152.1883  140.3847  158.8695 H   0  0  0  0  0  0  0  0  0  0  0  0
  147.7008  140.0889  155.9301 H   0  0  0  0  0  0  0  0  0  0  0  0
  147.5208  136.8293  152.3907 H   0  0  0  0  0  0  0  0  0  0  0  0
  144.8664  137.6057  152.4979 H   0  0  0  0  0  0  0  0  0  0  0  0
  145.3546  135.1491  154.2437 H   0  0  0  0  0  0  0  0  0  0  0  0
  144.8027  136.7098  154.7984 H   0  0  0  0  0  0  0  0  0  0  0  0
  142.9057  135.1031  154.4940 H   0  0  0  0  0  0  0  0  0  0  0  0
  142.7388  136.5191  153.4911 H   0  0  0  0  0  0  0  0  0  0  0  0
  142.1823  134.5819  152.1360 H   0  0  0  0  0  0  0  0  0  0  0  0
  143.3777  133.0979  153.3882 H   0  0  0  0  0  0  0  0  0  0  0  0
  143.9085  134.7165  150.3064 H   0  0  0  0  0  0  0  0  0  0  0  0
  143.3715  136.2779  150.8659 H   0  0  0  0  0  0  0  0  0  0  0  0
  145.8113  136.3112  150.6161 H   0  0  0  0  0  0  0  0  0  0  0  0
  145.9808  134.8996  151.6286 H   0  0  0  0  0  0  0  0  0  0  0  0
  149.1499  141.3572  157.1652 H   0  0  0  0  0  0  0  0  0  0  0  0
  1  2  2  0  0  0  0
  2  3  1  0  0  0  0
  2 15  1  0  0  0  0
  3  4  1  0  0  0  0
  3 23  1  0  0  0  0
  4 14  1  0  0  0  0
  4  5  2  0  0  0  0
  5  6  1  0  0  0  0
  5 24  1  0  0  0  0
  6  7  2  0  0  0  0
  6 25  1  0  0  0  0
  7  8  1  0  0  0  0
  7 13  1  0  0  0  0
  8 12  1  0  0  0  0
  8  9  1  0  0  0  0
  9 10  1  0  0  0  0
  9 26  1  0  0  0  0
  9 27  1  0  0  0  0
 10 11  1  0  0  0  0
 10 28  1  0  0  0  0
 10 29  1  0  0  0  0
 11 12  1  0  0  0  0
 11 30  1  0  0  0  0
 11 31  1  0  0  0  0
 12 32  1  0  0  0  0
 12 33  1  0  0  0  0
 13 14  2  0  0  0  0
 13 47  1  0  0  0  0
 14 34  1  0  0  0  0
 15 16  1  0  0  0  0
 15 35  1  0  0  0  0
 16 22  1  0  0  0  0
 16 17  1  0  0  0  0
 16 36  1  0  0  0  0
 17 18  1  0  0  0  0
 17 37  1  0  0  0  0
 17 38  1  0  0  0  0
 18 19  1  0  0  0  0
 18 39  1  0  0  0  0
 18 40  1  0  0  0  0
 19 20  1  0  0  0  0
 19 21  1  0  0  0  0
 19 41  1  0  0  0  0
 20 42  1  0  0  0  0
 21 22  1  0  0  0  0
 21 43  1  0  0  0  0
 21 44  1  0  0  0  0
 22 45  1  0  0  0  0
 22 46  1  0  0  0  0
M  CHG  1  13   1
M  END
> <s_m_source_file>
AV-unprocessed.smi

> <i_m_source_file_index>
1489

> <i_lp_mmshare_version>
43012

> <i_f3d_flags>
0

> <s_epik_input>
W0NIMl0xW0NIMl1bQ0BIXShbT0hdKVtDSDJdW0NIMl1bQ0BIXTFbTkhdQyg9TylbTkhdYzJbY0hdW2NIXWMobltjSF0yKU4zW0NIMl1bQ0gyXVtDSDJdW0NIMl0z

> <s_epik_cmdline>
J2VwaWtfcHl0aG9uJywgJy1waCcsICc3LjAnLCAnLXRuJywgJzgnLCAnLW1hJywgJzIwMCcsICctbWV0YWxfYmluZGluZycsICctaW1hZScsICc8aW5maWxlLm1hZT4nLCAnLW9tYWUnLCAnPG91dGZpbGUubWFlPic=

> <r_lp_tautomer_probability>
0.999994

> <r_epik_Ionization_Penalty>
1.08454

> <r_epik_Ionization_Penalty_Charging>
1.08452

> <r_epik_Ionization_Penalty_Neutral>
2.18252e-05

> <r_epik_State_Penalty>
1.14025

> <r_epik_Charging_Adjusted_Penalty>
2.22477

> <i_epik_Tot_Q>
1

> <i_epik_Tot_abs_Q>
1

> <r_epik_Metal_State_Penalty>
1.22975

> <b_epik_Metal_Only>
0

> <s_lp_Force_Field>
OPLS_2005

> <r_lp_Energy>
45.8336

> <b_lp_Chiralities_Consistent>
1

> <s_lp_Variant>
AV-unprocessed.smi:1489-4

> <Gold.Version>
5.8.1

> <Gold.Id.Protein>
6NUR|6NUR_protein|mol2

> <Gold.PLP.Fitness>
42.1417

> <Gold.PLP.PLP>
-33.3363

> <Gold.PLP.part.hbond>
-3.0000

> <Gold.PLP.part.metal>
0.0000

> <Gold.PLP.part.buried>
-4.3064

> <Gold.PLP.part.nonpolar>
-27.4746

> <Gold.PLP.part.repulsive>
0.1538

> <Gold.PLP.ligand.clash>
0.0000

> <Gold.PLP.ligand.torsion>
0.0673

> <Gold.PLP.Chemscore.Hbond>
2.9673

> <Gold.PLP.Chemscore.CHOScore>
0.0000

> <Gold.PLP.Chemscore.Metal>
0.0000

> <Gold.Chemscore.Hbonds>
donor molecule, donor type, donor heavy atom, donor atom, acceptor molecule, acceptor atom, score
      L1  H     3    23       P1  7948  0.96
      L1  H    15    35       P1  7948  1.00
      L1  H    20    42       P1 10957  0.94

> <Gold.PLP.Chemscore.Internal.Correction>
0.0381

> <Gold.Rescore>
     Score         DG    S(hbond)    S(metal)    S(lipo)     H(rot)  DE(clash)    DE(int)     intcor
     19.31     -20.80       2.87        0.00      86.07       1.69       0.12       1.38       ----

> <Gold.Chemscore.Fitness>
19.3053

> <Gold.Chemscore.DG>
-20.8004

> <Gold.Chemscore.ZeroCoef>
-5.4800

> <Gold.Chemscore.Hbond>
2.8693

> <Gold.Chemscore.Metal>
0.0000

> <Gold.Chemscore.Lipo>
86.0750

> <Gold.Chemscore.Internal_Hbond>
0.0000

> <Gold.Chemscore.DEClash>
0.1193

> <Gold.Chemscore.DEInternal>
1.3757

> <Gold.Chemscore.Rot>
1.6929

> <Gold.Chemscore.Internal.Correction>
   9.000000E+99

> <Gold.Chemscore.Hbonds>
donor molecule, donor type, donor heavy atom, donor atom, acceptor molecule, acceptor atom, score
      L1  H     3    23       P1  7948  0.89
      L1  H    15    35       P1  7948  0.99
      L1  H    20    42       P1 10957  0.79

> <Gold.Chemscore.Hbond.Weighted>
-9.5833

> <Gold.Chemscore.Metal.Weighted>
-0.0000

> <Gold.Chemscore.Lipo.Weighted>
-10.0708

> <Gold.Chemscore.Internal_Hbond.Weighted>
0.0000

> <Gold.Chemscore.DEClash.Weighted>
0.1193

> <Gold.Chemscore.DEInternal.Weighted>
1.3757

> <Gold.Chemscore.Rot.Weighted>
4.3338

> <Gold.Chemscore.Internal.Correction.Weighted>
   9.000000E+99

> <Gold.Protein.RotatedTorsions>
[ 6907 6896 6895 6894 ] final   69.40 input  -60.11 | X-H torsion
[ 7974 7965 7964 7962 ] final   60.98 input  175.53 | X-H torsion
[ 8008 7997 7996 7995 ] final   81.28 input   59.86 | X-H torsion
[ 10167 10162 10161 10158 ] final   30.55 input  -65.29 | X-H torsion
[ 10718 10713 10712 10709 ] final  -77.59 input   66.30 | X-H torsion
[ 10763 10752 10751 10750 ] final  -33.19 input  -60.55 | X-H torsion
[ 11005 11000 10999 10996 ] final -123.45 input  -57.11 | X-H torsion

> <Gold.Protein.ActiveResidues>
 VAL166  LYS551  ARG553  GLY616  TRP617  ASP618  TYR619  PRO620  LYS621  CYS622 
 ASP623  PHE694  ASN695  SER759  ASP760  ASP761  ALA762  ILE779  LEU786  VAL792 
 PHE793  MET794  SER795  GLU796  ALA797  LYS798  CYS799  TRP800  GLU811  SER814 

> <Gold.Protein.RotatedAtoms>
  152.4683  134.5021  159.9727 H   0  0  0  0  0  0  0  0  0  0  0  0  # atno 6907 bound_to 6896
  151.5054  133.3490  159.2884 H   0  0  0  0  0  0  0  0  0  0  0  0  # atno 6908 bound_to 6896
  150.8679  134.8075  159.7195 H   0  0  0  0  0  0  0  0  0  0  0  0  # atno 6909 bound_to 6896
  145.8899  139.3503  143.0655 H   0  0  0  0  0  0  0  0  0  0  0  0  # atno 7974 bound_to 7965
  155.8950  140.3436  155.5984 H   0  0  0  0  0  0  0  0  0  0  0  0  # atno 8008 bound_to 7997
  155.7566  140.0827  157.2194 H   0  0  0  0  0  0  0  0  0  0  0  0  # atno 8009 bound_to 7997
  154.4037  140.1543  156.2772 H   0  0  0  0  0  0  0  0  0  0  0  0  # atno 8010 bound_to 7997
  140.4668  144.0823  150.6226 H   0  0  0  0  0  0  0  0  0  0  0  0  # atno 10167 bound_to 10162
  156.0141  130.4495  150.3368 H   0  0  0  0  0  0  0  0  0  0  0  0  # atno 10718 bound_to 10713
  153.8262  135.6870  153.4820 H   0  0  0  0  0  0  0  0  0  0  0  0  # atno 10763 bound_to 10752
  153.1539  135.4607  154.9674 H   0  0  0  0  0  0  0  0  0  0  0  0  # atno 10764 bound_to 10752
  154.7906  135.3300  154.7729 H   0  0  0  0  0  0  0  0  0  0  0  0  # atno 10765 bound_to 10752
  140.9918  134.0529  157.3646 H   0  0  0  0  0  0  0  0  0  0  0  0  # atno 11005 bound_to 11000
  145.8921  140.9297  143.0547 LP  0  0  0  0  0  0  0  0  0  0  0  0  # atno 17320 bound_to 7965
  144.6730  140.0920  143.7464 LP  0  0  0  0  0  0  0  0  0  0  0  0  # atno 17321 bound_to 7965
  140.4026  143.2696  151.9929 LP  0  0  0  0  0  0  0  0  0  0  0  0  # atno 17342 bound_to 10162
  139.4813  144.5984  151.7649 LP  0  0  0  0  0  0  0  0  0  0  0  0  # atno 17343 bound_to 10162
  157.1465  131.0310  151.2904 LP  0  0  0  0  0  0  0  0  0  0  0  0  # atno 17370 bound_to 10713
  157.4428  130.7554  149.7084 LP  0  0  0  0  0  0  0  0  0  0  0  0  # atno 17371 bound_to 10713
  139.8996  135.0159  156.7201 LP  0  0  0  0  0  0  0  0  0  0  0  0  # atno 17394 bound_to 11000
  140.7029  133.9291  155.8035 LP  0  0  0  0  0  0  0  0  0  0  0  0  # atno 17395 bound_to 11000

$$$$
