AV-unprocessed.smi:2216|AV-procd|sdf|8967|dock4
  -GOLD-   2272012183D 1   1.00000     0.00000
 Structure written by MMmdl.
 40 41  0  0  0  0  0  0  0  0  2 V2000
  152.3429  143.8461  161.3859 C   0  0  0  0  0  0  0  0  0  0  0  0
  152.1927  142.9425  160.1738 C   0  0  0  0  0  0  0  0  0  0  0  0
  151.2540  143.1767  159.2227 C   0  0  0  0  0  0  0  0  0  0  0  0
  151.1084  142.3159  158.0490 C   0  0  0  0  0  0  0  0  0  0  0  0
  150.1878  142.4615  157.0031 N   0  0  0  0  0  0  0  0  0  0  0  0
  149.4974  141.5077  156.3537 C   0  0  0  0  0  0  0  0  0  0  0  0
  149.5826  140.2954  156.5481 O   0  0  0  0  0  0  0  0  0  0  0  0
  148.6877  142.0489  155.4323 N   0  0  0  0  0  0  0  0  0  0  0  0
  147.8189  141.2982  154.5334 C   0  0  0  0  0  0  0  0  0  0  0  0
  147.0478  142.2348  153.5881 C   0  0  0  0  0  0  0  0  0  0  0  0
  146.1050  143.1928  154.3329 C   0  0  1  0  0  0  0  0  0  0  0  0
  145.3181  144.0961  153.3634 C   0  0  0  0  0  0  0  0  0  0  0  0
  144.3318  144.9829  154.1318 C   0  0  0  0  0  0  0  0  0  0  0  0
  143.4504  144.1135  155.0347 C   0  0  0  0  0  0  0  0  0  0  0  0
  144.3217  143.2036  155.9151 C   0  0  0  0  0  0  0  0  0  0  0  0
  145.1839  142.4175  155.0982 O   0  0  0  0  0  0  0  0  0  0  0  0
  152.0220  141.2815  158.0340 C   0  0  0  0  0  0  0  0  0  0  0  0
  152.9785  140.9824  158.9393 N   0  5  0  0  0  0  0  0  0  0  0  0
  153.1011  141.7864  160.0342 C   0  0  0  0  0  0  0  0  0  0  0  0
  153.9459  141.5731  160.9029 O   0  0  0  0  0  0  0  0  0  0  0  0
  151.6143  144.6572  161.3708 H   0  0  0  0  0  0  0  0  0  0  0  0
  153.3392  144.2887  161.4096 H   0  0  0  0  0  0  0  0  0  0  0  0
  152.1955  143.2785  162.3051 H   0  0  0  0  0  0  0  0  0  0  0  0
  150.6163  144.0357  159.3529 H   0  0  0  0  0  0  0  0  0  0  0  0
  150.0317  143.4134  156.7057 H   0  0  0  0  0  0  0  0  0  0  0  0
  148.6795  143.0540  155.3408 H   0  0  0  0  0  0  0  0  0  0  0  0
  148.4022  140.5708  153.9662 H   0  0  0  0  0  0  0  0  0  0  0  0
  147.1188  140.7252  155.1417 H   0  0  0  0  0  0  0  0  0  0  0  0
  147.7649  142.8168  153.0080 H   0  0  0  0  0  0  0  0  0  0  0  0
  146.4752  141.6484  152.8683 H   0  0  0  0  0  0  0  0  0  0  0  0
  146.6965  143.8162  155.0061 H   0  0  0  0  0  0  0  0  0  0  0  0
  146.0022  144.7171  152.7844 H   0  0  0  0  0  0  0  0  0  0  0  0
  144.7726  143.4806  152.6468 H   0  0  0  0  0  0  0  0  0  0  0  0
  144.8813  145.7039  154.7385 H   0  0  0  0  0  0  0  0  0  0  0  0
  143.7169  145.5583  153.4391 H   0  0  0  0  0  0  0  0  0  0  0  0
  142.8102  144.7410  155.6553 H   0  0  0  0  0  0  0  0  0  0  0  0
  142.7888  143.5007  154.4213 H   0  0  0  0  0  0  0  0  0  0  0  0
  144.9097  143.7917  156.6213 H   0  0  0  0  0  0  0  0  0  0  0  0
  143.6913  142.5372  156.5039 H   0  0  0  0  0  0  0  0  0  0  0  0
  151.9746  140.5879  157.1668 H   0  0  0  0  0  0  0  0  0  0  0  0
  1  2  1  0  0  0  0
  1 21  1  0  0  0  0
  1 22  1  0  0  0  0
  1 23  1  0  0  0  0
  2 19  1  0  0  0  0
  2  3  2  0  0  0  0
  3  4  1  0  0  0  0
  3 24  1  0  0  0  0
  4  5  1  0  0  0  0
  4 17  2  0  0  0  0
  5  6  1  0  0  0  0
  5 25  1  0  0  0  0
  6  7  2  0  0  0  0
  6  8  1  0  0  0  0
  8  9  1  0  0  0  0
  8 26  1  0  0  0  0
  9 10  1  0  0  0  0
  9 27  1  0  0  0  0
  9 28  1  0  0  0  0
 10 11  1  0  0  0  0
 10 29  1  0  0  0  0
 10 30  1  0  0  0  0
 11 16  1  0  0  0  0
 11 12  1  0  0  0  0
 11 31  1  0  0  0  0
 12 13  1  0  0  0  0
 12 32  1  0  0  0  0
 12 33  1  0  0  0  0
 13 14  1  0  0  0  0
 13 34  1  0  0  0  0
 13 35  1  0  0  0  0
 14 15  1  0  0  0  0
 14 36  1  0  0  0  0
 14 37  1  0  0  0  0
 15 16  1  0  0  0  0
 15 38  1  0  0  0  0
 15 39  1  0  0  0  0
 17 18  1  0  0  0  0
 17 40  1  0  0  0  0
 18 19  1  0  0  0  0
 19 20  2  0  0  0  0
M  CHG  1  18  -1
M  END
> <s_m_source_file>
AV-unprocessed.smi

> <i_m_source_file_index>
2216

> <i_lp_mmshare_version>
43012

> <i_f3d_flags>
0

> <s_epik_input>
Tz1jMVtuSF1bY0hdYyhbY0hdYzFbQ0gzXSlbTkhdQyg9TylbTkhdW0NIMl1bQ0gyXVtDQEBIXTJbQ0gyXVtDSDJdW0NIMl1bQ0gyXU8y

> <s_epik_cmdline>
J2VwaWtfcHl0aG9uJywgJy1waCcsICc3LjAnLCAnLXRuJywgJzgnLCAnLW1hJywgJzIwMCcsICctbWV0YWxfYmluZGluZycsICctaW1hZScsICc8aW5maWxlLm1hZT4nLCAnLW9tYWUnLCAnPG91dGZpbGUubWFlPic=

> <r_lp_tautomer_probability>
1

> <r_epik_Ionization_Penalty>
7.55627

> <r_epik_Ionization_Penalty_Charging>
1.50531

> <r_epik_Ionization_Penalty_Neutral>
6.05097

> <r_epik_State_Penalty>
6.05091

> <r_epik_Charging_Adjusted_Penalty>
7.55622

> <i_epik_Tot_Q>
-1

> <i_epik_Tot_abs_Q>
1

> <r_epik_Metal_State_Penalty>
2.00009

> <b_epik_Metal_Only>
1

> <s_lp_Force_Field>
OPLS_2005

> <r_lp_Energy>
20.9745

> <b_lp_Chiralities_Consistent>
1

> <s_lp_Variant>
AV-unprocessed.smi:2216-4

> <Gold.Version>
5.8.1

> <Gold.Id.Protein>
6NUR|6NUR_protein|mol2

> <Gold.PLP.Fitness>
44.5301

> <Gold.PLP.PLP>
-39.2137

> <Gold.PLP.part.hbond>
-2.0000

> <Gold.PLP.part.metal>
0.0000

> <Gold.PLP.part.buried>
-8.8433

> <Gold.PLP.part.nonpolar>
-29.4613

> <Gold.PLP.part.repulsive>
0.3463

> <Gold.PLP.ligand.clash>
0.0000

> <Gold.PLP.ligand.torsion>
0.3157

> <Gold.PLP.Chemscore.Hbond>
1.9760

> <Gold.PLP.Chemscore.CHOScore>
0.0000

> <Gold.PLP.Chemscore.Metal>
0.0000

> <Gold.Chemscore.Hbonds>
donor molecule, donor type, donor heavy atom, donor atom, acceptor molecule, acceptor atom, score
      L1  H     5    25       P1  8028  0.98
      L1  H     8    26       P1  8028  1.00

> <Gold.PLP.Chemscore.Internal.Correction>
0.0197

> <Gold.Rescore>
     Score         DG    S(hbond)    S(metal)    S(lipo)     H(rot)  DE(clash)    DE(int)     intcor
     16.71     -19.49       1.97        0.00      95.69       1.47       1.44       1.34       ----

> <Gold.Chemscore.Fitness>
16.7098

> <Gold.Chemscore.DG>
-19.4910

> <Gold.Chemscore.ZeroCoef>
-5.4800

> <Gold.Chemscore.Hbond>
1.9704

> <Gold.Chemscore.Metal>
0.0000

> <Gold.Chemscore.Lipo>
95.6851

> <Gold.Chemscore.Internal_Hbond>
0.0000

> <Gold.Chemscore.DEClash>
1.4402

> <Gold.Chemscore.DEInternal>
1.3410

> <Gold.Chemscore.Rot>
1.4709

> <Gold.Chemscore.Internal.Correction>
   9.000000E+99

> <Gold.Chemscore.Hbonds>
donor molecule, donor type, donor heavy atom, donor atom, acceptor molecule, acceptor atom, score
      L1  H     5    25       P1  8028  0.88
      L1  H     8    26       P1  8028  1.00

> <Gold.Chemscore.Hbond.Weighted>
-6.5813

> <Gold.Chemscore.Metal.Weighted>
-0.0000

> <Gold.Chemscore.Lipo.Weighted>
-11.1952

> <Gold.Chemscore.Internal_Hbond.Weighted>
0.0000

> <Gold.Chemscore.DEClash.Weighted>
1.4402

> <Gold.Chemscore.DEInternal.Weighted>
1.3410

> <Gold.Chemscore.Rot.Weighted>
3.7654

> <Gold.Chemscore.Internal.Correction.Weighted>
   9.000000E+99

> <Gold.Protein.RotatedTorsions>
[ 6907 6896 6895 6894 ] final  -76.25 input  -60.11 | X-H torsion
[ 7974 7965 7964 7962 ] final  -62.33 input  175.53 | X-H torsion
[ 8008 7997 7996 7995 ] final  164.41 input   59.86 | X-H torsion
[ 10167 10162 10161 10158 ] final   -1.65 input  -65.29 | X-H torsion
[ 10718 10713 10712 10709 ] final -135.09 input   66.30 | X-H torsion
[ 10763 10752 10751 10750 ] final  -25.00 input  -60.55 | X-H torsion
[ 11005 11000 10999 10996 ] final   20.90 input  -57.11 | X-H torsion

> <Gold.Protein.ActiveResidues>
 VAL166  LYS551  ARG553  GLY616  TRP617  ASP618  TYR619  PRO620  LYS621  CYS622 
 ASP623  PHE694  ASN695  SER759  ASP760  ASP761  ALA762  ILE779  LEU786  VAL792 
 PHE793  MET794  SER795  GLU796  ALA797  LYS798  CYS799  TRP800  GLU811  SER814 

> <Gold.Protein.RotatedAtoms>
  150.7033  134.4600  159.5375 H   0  0  0  0  0  0  0  0  0  0  0  0  # atno 6907 bound_to 6896
  152.2276  134.8350  160.0487 H   0  0  0  0  0  0  0  0  0  0  0  0  # atno 6908 bound_to 6896
  151.9178  133.3542  159.3923 H   0  0  0  0  0  0  0  0  0  0  0  0  # atno 6909 bound_to 6896
  145.7926  140.8701  143.0273 H   0  0  0  0  0  0  0  0  0  0  0  0  # atno 7974 bound_to 7965
  156.1882  140.1697  156.8143 H   0  0  0  0  0  0  0  0  0  0  0  0  # atno 8008 bound_to 7997
  154.5439  140.0731  156.8589 H   0  0  0  0  0  0  0  0  0  0  0  0  # atno 8009 bound_to 7997
  155.3159  140.3370  155.4245 H   0  0  0  0  0  0  0  0  0  0  0  0  # atno 8010 bound_to 7997
  140.6819  143.6750  150.8153 H   0  0  0  0  0  0  0  0  0  0  0  0  # atno 10167 bound_to 10162
  156.2624  130.7217  151.1156 H   0  0  0  0  0  0  0  0  0  0  0  0  # atno 10718 bound_to 10713
  153.6927  135.6961  153.5085 H   0  0  0  0  0  0  0  0  0  0  0  0  # atno 10763 bound_to 10752
  153.2401  135.4309  155.0687 H   0  0  0  0  0  0  0  0  0  0  0  0  # atno 10764 bound_to 10752
  154.8368  135.3505  154.6469 H   0  0  0  0  0  0  0  0  0  0  0  0  # atno 10765 bound_to 10752
  140.3975  134.1753  155.7663 H   0  0  0  0  0  0  0  0  0  0  0  0  # atno 11005 bound_to 11000
  144.6779  140.0145  143.7484 LP  0  0  0  0  0  0  0  0  0  0  0  0  # atno 17320 bound_to 7965
  145.9961  139.3053  143.0956 LP  0  0  0  0  0  0  0  0  0  0  0  0  # atno 17321 bound_to 7965
  140.0451  143.5306  152.2700 LP  0  0  0  0  0  0  0  0  0  0  0  0  # atno 17342 bound_to 10162
  139.6148  144.7617  151.2872 LP  0  0  0  0  0  0  0  0  0  0  0  0  # atno 17343 bound_to 10162
  157.7255  131.0652  150.5949 LP  0  0  0  0  0  0  0  0  0  0  0  0  # atno 17370 bound_to 10713
  156.6038  130.4361  149.5886 LP  0  0  0  0  0  0  0  0  0  0  0  0  # atno 17371 bound_to 10713
  141.1869  133.8293  157.1053 LP  0  0  0  0  0  0  0  0  0  0  0  0  # atno 17394 bound_to 11000
  140.0360  134.9878  157.0872 LP  0  0  0  0  0  0  0  0  0  0  0  0  # atno 17395 bound_to 11000

$$$$
