#       Name:                AV-unprocessed.smi:1991
#       Creating user name   scv26
#       Creation time:       Fri Mar 27 10:27:22 2020


#       File generated by GOLD software.
#

@<TRIPOS>MOLECULE
AV-unprocessed.smi:1991
    52    53     1
SMALL
NO_CHARGES


@<TRIPOS>ATOM
      1 ****        -3.2833  -3.0913   1.4086 C.3            1 S1                 0.0000
      2 ****        -2.6908  -2.3395   0.2071 C.3            1 S1                 0.0000
      3 ****        -3.0513  -3.0579  -0.9700 O.3            1 S1                 0.0000
      4 ****        -2.8405  -2.3708  -2.1996 C.3            1 S1                 0.0000
      5 ****        -3.4173  -3.2033  -3.3508 C.3            1 S1                 0.0000
      6 ****        -3.2477  -2.5441  -4.4964 F              1 S1                 0.0000
      7 ****        -2.7874  -4.3748  -3.4332 F              1 S1                 0.0000
      8 ****        -4.7210  -3.4073  -3.1642 F              1 S1                 0.0000
      9 ****        -1.1622  -2.2167   0.3168 C.2            1 S1                 0.0000
     10 ****        -0.4806  -3.1934   0.6283 O.2            1 S1                 0.0000
     11 ****        -0.6427  -1.0082   0.0490 N.am           1 S1                 0.0000
     12 ****         0.7732  -0.6575   0.0957 C.3            1 S1                 0.0000
     13 ****         1.1456   0.1145   1.3587 C.ar           1 S1                 0.0000
     14 ****         0.9376  -0.4823   2.6217 C.ar           1 S1                 0.0000
     15 ****         1.2802   0.2275   3.7865 C.ar           1 S1                 0.0000
     16 ****         1.8260   1.5157   3.6450 C.ar           1 S1                 0.0000
     17 ****         2.0366   2.1000   2.4477 N.ar           1 S1                 0.0000
     18 ****         1.7069   1.4189   1.3230 C.ar           1 S1                 0.0000
     19 ****         1.9368   2.0650   0.0982 N.3            1 S1                 0.0000
     20 ****         3.3428   2.3323  -0.1772 C.3            1 S1                 0.0000
     21 ****         3.4985   2.9009  -1.5980 C.3            1 S1                 0.0000
     22 ****         2.6844   4.0618  -1.7401 O.3            1 S1                 0.0000
     23 ****         1.3026   3.7757  -1.5412 C.3            1 S1                 0.0000
     24 ****         1.0882   3.2295  -0.1192 C.3            1 S1                 0.0000
     25 ****        -3.0184  -2.6070   2.3494 H              1 S1                 0.0000
     26 ****        -2.9311  -4.1228   1.4506 H              1 S1                 0.0000
     27 ****        -4.3714  -3.1192   1.3479 H              1 S1                 0.0000
     28 ****        -3.1379  -1.3440   0.1764 H              1 S1                 0.0000
     29 ****        -3.3294  -1.3960  -2.1707 H              1 S1                 0.0000
     30 ****        -1.7777  -2.1975  -2.3721 H              1 S1                 0.0000
     31 ****        -1.2818  -0.2681  -0.2018 H              1 S1                 0.0000
     32 ****         1.4013  -1.5478   0.0407 H              1 S1                 0.0000
     33 ****         0.9940  -0.0920  -0.8083 H              1 S1                 0.0000
     34 ****         0.5206  -1.4753   2.7010 H              1 S1                 0.0000
     35 ****         1.1291  -0.2059   4.7640 H              1 S1                 0.0000
     36 ****         2.1020   2.0920   4.5156 H              1 S1                 0.0000
     37 ****         3.7341   3.0440   0.5512 H              1 S1                 0.0000
     38 ****         3.9206   1.4128  -0.0755 H              1 S1                 0.0000
     39 ****         4.5383   3.1701  -1.7841 H              1 S1                 0.0000
     40 ****         3.2225   2.1569  -2.3471 H              1 S1                 0.0000
     41 ****         0.7255   4.6892  -1.6849 H              1 S1                 0.0000
     42 ****         0.9579   3.0594  -2.2887 H              1 S1                 0.0000
     43 ****         0.0419   2.9570   0.0243 H              1 S1                 0.0000
     44 ****         1.3256   4.0012   0.6144 H              1 S1                 0.0000
     45 ****        -4.0233  -3.2841  -0.9067 LP             1 S1                 0.0000
     46 ****        -2.5138  -3.9009  -0.9926 LP             1 S1                 0.0000
     47 ****        -0.9208  -4.0724   0.8115 LP             1 S1                 0.0000
     48 ****         0.5133  -3.1078   0.6982 LP             1 S1                 0.0000
     49 ****         2.4285   3.0182   2.3908 LP             1 S1                 0.0000
     50 ****         1.6560   1.3941  -0.5882 LP             1 S1                 0.0000
     51 ****         2.8078   4.4313  -2.6611 LP             1 S1                 0.0000
     52 ****         2.9729   4.7423  -1.0665 LP             1 S1                 0.0000
@<TRIPOS>BOND
    1    1    2 1     
    2    1   25 1     
    3    1   26 1     
    4    1   27 1     
    5    2    3 1     
    6    2    9 1     
    7    2   28 1     
    8    3    4 1     
    9    4    5 1     
   10    4   29 1     
   11    4   30 1     
   12    5    6 1     
   13    5    7 1     
   14    5    8 1     
   15    9   10 2     
   16    9   11 am    
   17   11   12 1     
   18   11   31 1     
   19   12   13 1     
   20   12   32 1     
   21   12   33 1     
   22   13   18 ar    
   23   13   14 ar    
   24   14   15 ar    
   25   14   34 1     
   26   15   16 ar    
   27   15   35 1     
   28   16   17 ar    
   29   16   36 1     
   30   17   18 ar    
   31   18   19 1     
   32   19   24 1     
   33   19   20 1     
   34   20   21 1     
   35   20   37 1     
   36   20   38 1     
   37   21   22 1     
   38   21   39 1     
   39   21   40 1     
   40   22   23 1     
   41   23   24 1     
   42   23   41 1     
   43   23   42 1     
   44   24   43 1     
   45   24   44 1     
   46    3   45 1     
   47    3   46 1     
   48   10   47 1     
   49   10   48 1     
   50   17   49 1     
   51   19   50 1     
   52   22   51 1     
   53   22   52 1     
@<TRIPOS>SUBSTRUCTURE
      1 S1             1
@<TRIPOS>SET
LONE_PAIRS      STATIC     ATOMS    <user>   **** ""
8 45 46 47 48 49 50 51 52
DONOR_HYDROGENS      STATIC     ATOMS    <user>   **** ""
1 31
ATOM$BLUE        STATIC     ATOMS    COLORGROUP SYSTEM
8 45 46 47 48 49 50 51 52
ATOM$RED        STATIC     ATOMS    COLORGROUP SYSTEM
1 31
