AV-unprocessed.smi:1952|AV-procd|sdf|7886|dock6
  -GOLD-   2272010 43D 1   1.00000     0.00000
 Structure written by MMmdl.
 40 41  0  0  0  0  0  0  0  0  2 V2000
  146.3911  152.4175  159.5720 C   0  0  0  0  0  0  0  0  0  0  0  0
  146.2399  151.2277  158.6871 C   0  0  0  0  0  0  0  0  0  0  0  0
  145.8426  149.9405  158.9176 C   0  0  0  0  0  0  0  0  0  0  0  0
  145.9381  149.3417  157.6333 C   0  0  0  0  0  0  0  0  0  0  0  0
  145.6035  147.9772  157.4375 N   0  0  0  0  0  0  0  0  0  0  0  0
  145.1889  147.0973  158.3645 C   0  0  0  0  0  0  0  0  0  0  0  0
  145.0098  147.3535  159.5555 O   0  0  0  0  0  0  0  0  0  0  0  0
  144.9971  145.8802  157.8332 N   0  0  0  0  0  0  0  0  0  0  0  0
  144.5075  144.6978  158.5441 C   0  0  1  0  0  0  0  0  0  0  0  0
  143.2573  144.1707  157.8265 C   0  0  0  0  0  0  0  0  0  0  0  0
  145.5952  143.6028  158.6465 C   0  0  0  0  0  0  0  0  0  0  0  0
  146.9239  144.1313  159.0473 N   0  3  0  0  0  0  0  0  0  0  0  0
  146.9729  144.6062  160.4516 C   0  0  0  0  0  0  0  0  0  0  0  0
  148.3530  145.2099  160.7590 C   0  0  0  0  0  0  0  0  0  0  0  0
  149.3617  144.2378  160.5107 O   0  0  0  0  0  0  0  0  0  0  0  0
  149.3805  143.8253  159.1496 C   0  0  0  0  0  0  0  0  0  0  0  0
  148.0311  143.1828  158.7840 C   0  0  0  0  0  0  0  0  0  0  0  0
  146.3501  150.1879  156.7018 N   0  0  0  0  0  0  0  0  0  0  0  0
  146.5473  151.4005  157.3728 O   0  0  0  0  0  0  0  0  0  0  0  0
  145.9165  152.2475  160.5385 H   0  0  0  0  0  0  0  0  0  0  0  0
  145.9319  153.2974  159.1211 H   0  0  0  0  0  0  0  0  0  0  0  0
  147.4447  152.6368  159.7461 H   0  0  0  0  0  0  0  0  0  0  0  0
  145.5370  149.5017  159.8558 H   0  0  0  0  0  0  0  0  0  0  0  0
  145.6913  147.6365  156.4914 H   0  0  0  0  0  0  0  0  0  0  0  0
  145.1729  145.7670  156.8452 H   0  0  0  0  0  0  0  0  0  0  0  0
  144.1936  144.9914  159.5468 H   0  0  0  0  0  0  0  0  0  0  0  0
  142.8363  143.3124  158.3510 H   0  0  0  0  0  0  0  0  0  0  0  0
  143.4847  143.8579  156.8067 H   0  0  0  0  0  0  0  0  0  0  0  0
  142.4813  144.9352  157.7750 H   0  0  0  0  0  0  0  0  0  0  0  0
  145.2911  142.8208  159.3439 H   0  0  0  0  0  0  0  0  0  0  0  0
  145.6816  143.1198  157.6717 H   0  0  0  0  0  0  0  0  0  0  0  0
  146.2029  145.3565  160.6280 H   0  0  0  0  0  0  0  0  0  0  0  0
  146.7700  143.7750  161.1289 H   0  0  0  0  0  0  0  0  0  0  0  0
  148.5318  146.1020  160.1564 H   0  0  0  0  0  0  0  0  0  0  0  0
  148.4057  145.5154  161.8042 H   0  0  0  0  0  0  0  0  0  0  0  0
  149.5937  144.6778  158.5025 H   0  0  0  0  0  0  0  0  0  0  0  0
  150.1895  143.1083  159.0089 H   0  0  0  0  0  0  0  0  0  0  0  0
  147.8785  142.2708  159.3634 H   0  0  0  0  0  0  0  0  0  0  0  0
  148.0354  142.8989  157.7310 H   0  0  0  0  0  0  0  0  0  0  0  0
  147.0978  144.9362  158.4616 H   0  0  0  0  0  0  0  0  0  0  0  0
  1  2  1  0  0  0  0
  1 20  1  0  0  0  0
  1 21  1  0  0  0  0
  1 22  1  0  0  0  0
  2 19  1  0  0  0  0
  2  3  2  0  0  0  0
  3  4  1  0  0  0  0
  3 23  1  0  0  0  0
  4  5  1  0  0  0  0
  4 18  2  0  0  0  0
  5  6  1  0  0  0  0
  5 24  1  0  0  0  0
  6  7  2  0  0  0  0
  6  8  1  0  0  0  0
  8  9  1  0  0  0  0
  8 25  1  0  0  0  0
  9 10  1  0  0  0  0
  9 11  1  0  0  0  0
  9 26  1  0  0  0  0
 10 27  1  0  0  0  0
 10 28  1  0  0  0  0
 10 29  1  0  0  0  0
 11 12  1  0  0  0  0
 11 30  1  0  0  0  0
 11 31  1  0  0  0  0
 12 17  1  0  0  0  0
 12 13  1  0  0  0  0
 12 40  1  0  0  0  0
 13 14  1  0  0  0  0
 13 32  1  0  0  0  0
 13 33  1  0  0  0  0
 14 15  1  0  0  0  0
 14 34  1  0  0  0  0
 14 35  1  0  0  0  0
 15 16  1  0  0  0  0
 16 17  1  0  0  0  0
 16 36  1  0  0  0  0
 16 37  1  0  0  0  0
 17 38  1  0  0  0  0
 17 39  1  0  0  0  0
 18 19  1  0  0  0  0
M  CHG  1  12   1
M  END
> <s_m_source_file>
AV-unprocessed.smi

> <i_m_source_file_index>
1952

> <i_lp_mmshare_version>
43012

> <i_f3d_flags>
0

> <s_epik_input>
W0NIM11jMVtjSF1jKG5vMSlbTkhdQyg9TylbTkhdW0NASF0oW0NIM10pW0NIMl1OMltDSDJdW0NIMl1PW0NIMl1bQ0gyXTI=

> <s_epik_cmdline>
J2VwaWtfcHl0aG9uJywgJy1waCcsICc3LjAnLCAnLXRuJywgJzgnLCAnLW1hJywgJzIwMCcsICctbWV0YWxfYmluZGluZycsICctaW1hZScsICc8aW5maWxlLm1hZT4nLCAnLW9tYWUnLCAnPG91dGZpbGUubWFlPic=

> <r_epik_Ionization_Penalty>
0.707079

> <r_epik_Ionization_Penalty_Charging>
0.707039

> <r_epik_Ionization_Penalty_Neutral>
4.01892e-05

> <r_epik_State_Penalty>
0.730276

> <r_epik_Charging_Adjusted_Penalty>
1.43732

> <i_epik_Tot_Q>
1

> <i_epik_Tot_abs_Q>
1

> <r_epik_Metal_State_Penalty>
0.744847

> <b_epik_Metal_Only>
0

> <s_lp_Force_Field>
OPLS_2005

> <r_lp_Energy>
19.2195

> <b_lp_Chiralities_Consistent>
1

> <s_lp_Variant>
AV-unprocessed.smi:1952-4

> <Gold.Version>
5.8.1

> <Gold.Id.Protein>
6NUR|6NUR_protein|mol2

> <Gold.PLP.Fitness>
37.8373

> <Gold.PLP.PLP>
-30.6964

> <Gold.PLP.part.hbond>
-6.0961

> <Gold.PLP.part.metal>
0.0000

> <Gold.PLP.part.buried>
-5.2788

> <Gold.PLP.part.nonpolar>
-21.8067

> <Gold.PLP.part.repulsive>
2.4981

> <Gold.PLP.ligand.clash>
0.0000

> <Gold.PLP.ligand.torsion>
0.2075

> <Gold.PLP.Chemscore.Hbond>
2.5120

> <Gold.PLP.Chemscore.CHOScore>
0.0000

> <Gold.PLP.Chemscore.Metal>
0.0000

> <Gold.Chemscore.Hbonds>
donor molecule, donor type, donor heavy atom, donor atom, acceptor molecule, acceptor atom, score
      L1  H    12    40       P1  8029  2.00
      P1  H  6933  6944       L1    15  0.23

> <Gold.PLP.Chemscore.Internal.Correction>
0.0198

> <Gold.Rescore>
     Score         DG    S(hbond)    S(metal)    S(lipo)     H(rot)  DE(clash)    DE(int)     intcor
      7.29     -11.61       1.00        0.00      59.03       1.61       2.75       1.57       ----

> <Gold.Chemscore.Fitness>
7.2912

> <Gold.Chemscore.DG>
-11.6098

> <Gold.Chemscore.ZeroCoef>
-5.4800

> <Gold.Chemscore.Hbond>
0.9997

> <Gold.Chemscore.Metal>
0.0000

> <Gold.Chemscore.Lipo>
59.0309

> <Gold.Chemscore.Internal_Hbond>
0.0000

> <Gold.Chemscore.DEClash>
2.7497

> <Gold.Chemscore.DEInternal>
1.5689

> <Gold.Chemscore.Rot>
1.6078

> <Gold.Chemscore.Internal.Correction>
   9.000000E+99

> <Gold.Chemscore.Hbonds>
donor molecule, donor type, donor heavy atom, donor atom, acceptor molecule, acceptor atom, score
      L1  H    12    40       P1  8029  0.99
      P1  H  6933  6944       L1    15  0.02

> <Gold.Chemscore.Hbond.Weighted>
-3.3390

> <Gold.Chemscore.Metal.Weighted>
-0.0000

> <Gold.Chemscore.Lipo.Weighted>
-6.9066

> <Gold.Chemscore.Internal_Hbond.Weighted>
0.0000

> <Gold.Chemscore.DEClash.Weighted>
2.7497

> <Gold.Chemscore.DEInternal.Weighted>
1.5689

> <Gold.Chemscore.Rot.Weighted>
4.1158

> <Gold.Chemscore.Internal.Correction.Weighted>
   9.000000E+99

> <Gold.Protein.RotatedTorsions>
[ 6907 6896 6895 6894 ] final   11.42 input  -60.11 | X-H torsion
[ 7974 7965 7964 7962 ] final   60.07 input  175.53 | X-H torsion
[ 8008 7997 7996 7995 ] final  147.73 input   59.86 | X-H torsion
[ 10167 10162 10161 10158 ] final -163.84 input  -65.29 | X-H torsion
[ 10718 10713 10712 10709 ] final  -59.44 input   66.30 | X-H torsion
[ 10763 10752 10751 10750 ] final   54.13 input  -60.55 | X-H torsion
[ 11005 11000 10999 10996 ] final  150.43 input  -57.11 | X-H torsion

> <Gold.Protein.ActiveResidues>
 VAL166  LYS551  ARG553  GLY616  TRP617  ASP618  TYR619  PRO620  LYS621  CYS622 
 ASP623  PHE694  ASN695  SER759  ASP760  ASP761  ALA762  ILE779  LEU786  VAL792 
 PHE793  MET794  SER795  GLU796  ALA797  LYS798  CYS799  TRP800  GLU811  SER814 

> <Gold.Protein.RotatedAtoms>
  151.7541  135.0826  160.0335 H   0  0  0  0  0  0  0  0  0  0  0  0  # atno 6907 bound_to 6896
  152.3397  133.6048  159.5876 H   0  0  0  0  0  0  0  0  0  0  0  0  # atno 6908 bound_to 6896
  150.7472  133.9657  159.3571 H   0  0  0  0  0  0  0  0  0  0  0  0  # atno 6909 bound_to 6896
  145.9001  139.3575  143.0598 H   0  0  0  0  0  0  0  0  0  0  0  0  # atno 7974 bound_to 7965
  156.2815  140.2147  156.5585 H   0  0  0  0  0  0  0  0  0  0  0  0  # atno 8008 bound_to 7997
  154.7232  140.0501  157.0682 H   0  0  0  0  0  0  0  0  0  0  0  0  # atno 8009 bound_to 7997
  155.0450  140.3150  155.4714 H   0  0  0  0  0  0  0  0  0  0  0  0  # atno 8010 bound_to 7997
  139.6292  144.0472  152.2001 H   0  0  0  0  0  0  0  0  0  0  0  0  # atno 10167 bound_to 10162
  156.1062  130.4180  150.0715 H   0  0  0  0  0  0  0  0  0  0  0  0  # atno 10718 bound_to 10713
  152.9801  135.5755  154.4855 H   0  0  0  0  0  0  0  0  0  0  0  0  # atno 10763 bound_to 10752
  154.4397  135.2775  155.1858 H   0  0  0  0  0  0  0  0  0  0  0  0  # atno 10764 bound_to 10752
  154.3531  135.6205  153.5706 H   0  0  0  0  0  0  0  0  0  0  0  0  # atno 10765 bound_to 10752
  140.1130  134.8912  157.1964 H   0  0  0  0  0  0  0  0  0  0  0  0  # atno 11005 bound_to 11000
  145.8802  140.9367  143.0605 LP  0  0  0  0  0  0  0  0  0  0  0  0  # atno 17320 bound_to 7965
  144.6735  140.0769  143.7471 LP  0  0  0  0  0  0  0  0  0  0  0  0  # atno 17321 bound_to 7965
  140.0133  144.6207  150.7628 LP  0  0  0  0  0  0  0  0  0  0  0  0  # atno 17342 bound_to 10162
  140.7429  143.2839  151.3520 LP  0  0  0  0  0  0  0  0  0  0  0  0  # atno 17343 bound_to 10162
  156.8690  130.9518  151.3611 LP  0  0  0  0  0  0  0  0  0  0  0  0  # atno 17370 bound_to 10713
  157.6238  130.8676  149.9155 LP  0  0  0  0  0  0  0  0  0  0  0  0  # atno 17371 bound_to 10713
  140.3065  134.3072  155.7277 LP  0  0  0  0  0  0  0  0  0  0  0  0  # atno 17394 bound_to 11000
  141.2135  133.7624  156.9716 LP  0  0  0  0  0  0  0  0  0  0  0  0  # atno 17395 bound_to 11000

$$$$
