AV-unprocessed.smi:3092|AV-procd|sdf|11785|dock10
  -GOLD-   2272017163D 1   1.00000     0.00000
 Structure written by MMmdl.
 26 27  0  0  0  0  0  0  0  0  3 V2000
  153.8600  141.0125  160.3718 C   0  0  0  0  0  0  0  0  0  0  0  0
  153.2141  142.2130  160.9069 N   0  0  0  0  0  0  0  0  0  0  0  0
  153.1744  142.5906  162.2247 C   0  0  0  0  0  0  0  0  0  0  0  0
  152.4716  143.7649  162.2768 C   0  0  0  0  0  0  0  0  0  0  0  0
  152.1118  144.0564  160.9895 N   0  3  0  0  0  0  0  0  0  0  0  0
  152.5635  143.1149  160.1501 C   0  0  0  0  0  0  0  0  0  0  0  0
  152.3548  143.1020  158.6608 C   0  0  1  0  0  0  0  0  0  0  0  0
  151.4652  141.9794  158.1319 C   0  0  0  0  0  0  0  0  0  0  0  0
  151.0537  142.4825  156.7405 C   0  0  0  0  0  0  0  0  0  0  0  0
  151.2225  143.9521  156.7525 N   0  3  0  0  0  0  0  0  0  0  0  0
  151.6699  144.3481  158.1001 C   0  0  0  0  0  0  0  0  0  0  0  0
  154.3102  140.4453  161.1871 H   0  0  0  0  0  0  0  0  0  0  0  0
  154.6375  141.3047  159.6653 H   0  0  0  0  0  0  0  0  0  0  0  0
  153.1150  140.3926  159.8717 H   0  0  0  0  0  0  0  0  0  0  0  0
  153.6371  142.0100  163.0103 H   0  0  0  0  0  0  0  0  0  0  0  0
  152.2069  144.3978  163.1116 H   0  0  0  0  0  0  0  0  0  0  0  0
  153.3354  143.0114  158.1932 H   0  0  0  0  0  0  0  0  0  0  0  0
  151.9670  141.0115  158.1086 H   0  0  0  0  0  0  0  0  0  0  0  0
  150.5742  141.8785  158.7534 H   0  0  0  0  0  0  0  0  0  0  0  0
  151.7032  142.0654  155.9702 H   0  0  0  0  0  0  0  0  0  0  0  0
  150.0267  142.2072  156.4986 H   0  0  0  0  0  0  0  0  0  0  0  0
  151.9384  144.1960  156.0824 H   0  0  0  0  0  0  0  0  0  0  0  0
  150.7872  144.6028  158.6888 H   0  0  0  0  0  0  0  0  0  0  0  0
  152.3241  145.2200  158.0745 H   0  0  0  0  0  0  0  0  0  0  0  0
  150.3600  144.4197  156.5106 H   0  0  0  0  0  0  0  0  0  0  0  0
  151.5761  144.8690  160.7114 H   0  0  0  0  0  0  0  0  0  0  0  0
  1  2  1  0  0  0  0
  1 12  1  0  0  0  0
  1 13  1  0  0  0  0
  1 14  1  0  0  0  0
  2  6  1  0  0  0  0
  2  3  1  0  0  0  0
  3  4  2  0  0  0  0
  3 15  1  0  0  0  0
  4  5  1  0  0  0  0
  4 16  1  0  0  0  0
  5  6  2  0  0  0  0
  5 26  1  0  0  0  0
  6  7  1  0  0  0  0
  7 11  1  0  0  0  0
  7  8  1  0  0  0  0
  7 17  1  0  0  0  0
  8  9  1  0  0  0  0
  8 18  1  0  0  0  0
  8 19  1  0  0  0  0
  9 10  1  0  0  0  0
  9 20  1  0  0  0  0
  9 21  1  0  0  0  0
 10 11  1  0  0  0  0
 10 22  1  0  0  0  0
 10 25  1  0  0  0  0
 11 23  1  0  0  0  0
 11 24  1  0  0  0  0
M  CHG  1   5   1
M  CHG  1  10   1
M  END
> <s_m_source_file>
AV-unprocessed.smi

> <i_m_source_file_index>
3092

> <i_lp_mmshare_version>
43012

> <i_f3d_flags>
0

> <s_epik_input>
W0NIM11uMVtjSF1bY0hdbmMxW0NAQEhdMltDSDJdW0NIMl1bTkhdW0NIMl0y

> <s_epik_cmdline>
J2VwaWtfcHl0aG9uJywgJy1waCcsICc3LjAnLCAnLXRuJywgJzgnLCAnLW1hJywgJzIwMCcsICctbWV0YWxfYmluZGluZycsICctaW1hZScsICc8aW5maWxlLm1hZT4nLCAnLW9tYWUnLCAnPG91dGZpbGUubWFlPic=

> <r_lp_tautomer_probability>
1

> <r_epik_Ionization_Penalty>
0.803493

> <r_epik_Ionization_Penalty_Charging>
0.000689375

> <r_epik_Ionization_Penalty_Neutral>
0.802804

> <r_epik_State_Penalty>
0.834355

> <r_epik_Charging_Adjusted_Penalty>
0.835044

> <i_epik_Tot_Q>
2

> <i_epik_Tot_abs_Q>
2

> <r_epik_Metal_State_Penalty>
4.76097

> <b_epik_Metal_Only>
0

> <s_lp_Force_Field>
OPLS_2005

> <r_lp_Energy>
35.9538

> <b_lp_Chiralities_Consistent>
1

> <s_lp_Variant>
AV-unprocessed.smi:3092-4

> <Gold.Version>
5.8.1

> <Gold.Id.Protein>
6NUR|6NUR_protein|mol2

> <Gold.PLP.Fitness>
40.6091

> <Gold.PLP.PLP>
-34.7536

> <Gold.PLP.part.hbond>
-1.0000

> <Gold.PLP.part.metal>
0.0000

> <Gold.PLP.part.buried>
-3.4154

> <Gold.PLP.part.nonpolar>
-29.9743

> <Gold.PLP.part.repulsive>
0.0931

> <Gold.PLP.ligand.clash>
0.0000

> <Gold.PLP.ligand.torsion>
0.0735

> <Gold.PLP.Chemscore.Hbond>
2.0000

> <Gold.PLP.Chemscore.CHOScore>
0.0000

> <Gold.PLP.Chemscore.Metal>
0.0000

> <Gold.Chemscore.Hbonds>
donor molecule, donor type, donor heavy atom, donor atom, acceptor molecule, acceptor atom, score
      L1  H    10    25       P1  8028  2.00

> <Gold.PLP.Chemscore.Internal.Correction>
0.0025

> <Gold.Rescore>
     Score         DG    S(hbond)    S(metal)    S(lipo)     H(rot)  DE(clash)    DE(int)     intcor
     14.90     -14.93       1.00        0.00      74.14       1.00       0.02       0.01       ----

> <Gold.Chemscore.Fitness>
14.9013

> <Gold.Chemscore.DG>
-14.9289

> <Gold.Chemscore.ZeroCoef>
-5.4800

> <Gold.Chemscore.Hbond>
0.9985

> <Gold.Chemscore.Metal>
0.0000

> <Gold.Chemscore.Lipo>
74.1356

> <Gold.Chemscore.Internal_Hbond>
0.0000

> <Gold.Chemscore.DEClash>
0.0195

> <Gold.Chemscore.DEInternal>
0.0082

> <Gold.Chemscore.Rot>
1.0000

> <Gold.Chemscore.Internal.Correction>
   9.000000E+99

> <Gold.Chemscore.Hbonds>
donor molecule, donor type, donor heavy atom, donor atom, acceptor molecule, acceptor atom, score
      L1  H    10    25       P1  8028  0.98

> <Gold.Chemscore.Hbond.Weighted>
-3.3351

> <Gold.Chemscore.Metal.Weighted>
-0.0000

> <Gold.Chemscore.Lipo.Weighted>
-8.6739

> <Gold.Chemscore.Internal_Hbond.Weighted>
0.0000

> <Gold.Chemscore.DEClash.Weighted>
0.0195

> <Gold.Chemscore.DEInternal.Weighted>
0.0082

> <Gold.Chemscore.Rot.Weighted>
2.5600

> <Gold.Chemscore.Internal.Correction.Weighted>
   9.000000E+99

> <Gold.Protein.RotatedTorsions>
[ 6907 6896 6895 6894 ] final  136.32 input  -60.11 | X-H torsion
[ 7974 7965 7964 7962 ] final  172.05 input  175.53 | X-H torsion
[ 8008 7997 7996 7995 ] final  -50.10 input   59.86 | X-H torsion
[ 10167 10162 10161 10158 ] final   14.94 input  -65.29 | X-H torsion
[ 10718 10713 10712 10709 ] final  136.93 input   66.30 | X-H torsion
[ 10763 10752 10751 10750 ] final  159.21 input  -60.55 | X-H torsion
[ 11005 11000 10999 10996 ] final  -75.32 input  -57.11 | X-H torsion

> <Gold.Protein.ActiveResidues>
 VAL166  LYS551  ARG553  GLY616  TRP617  ASP618  TYR619  PRO620  LYS621  CYS622 
 ASP623  PHE694  ASN695  SER759  ASP760  ASP761  ALA762  ILE779  LEU786  VAL792 
 PHE793  MET794  SER795  GLU796  ALA797  LYS798  CYS799  TRP800  GLU811  SER814 

> <Gold.Protein.RotatedAtoms>
  152.2906  133.5558  159.5554 H   0  0  0  0  0  0  0  0  0  0  0  0  # atno 6907 bound_to 6896
  150.7234  134.0434  159.3782 H   0  0  0  0  0  0  0  0  0  0  0  0  # atno 6908 bound_to 6896
  151.8340  135.0612  160.0491 H   0  0  0  0  0  0  0  0  0  0  0  0  # atno 6909 bound_to 6896
  144.7278  139.9441  143.6429 H   0  0  0  0  0  0  0  0  0  0  0  0  # atno 7974 bound_to 7965
  154.4055  140.1280  156.4610 H   0  0  0  0  0  0  0  0  0  0  0  0  # atno 8008 bound_to 7997
  155.7273  140.3492  155.5023 H   0  0  0  0  0  0  0  0  0  0  0  0  # atno 8009 bound_to 7997
  155.9160  140.1044  157.1234 H   0  0  0  0  0  0  0  0  0  0  0  0  # atno 8010 bound_to 7997
  140.5901  143.8812  150.6866 H   0  0  0  0  0  0  0  0  0  0  0  0  # atno 10167 bound_to 10162
  157.4415  131.1058  151.0138 H   0  0  0  0  0  0  0  0  0  0  0  0  # atno 10718 bound_to 10713
  154.2282  135.2779  155.2900 H   0  0  0  0  0  0  0  0  0  0  0  0  # atno 10763 bound_to 10752
  154.5646  135.5637  153.7042 H   0  0  0  0  0  0  0  0  0  0  0  0  # atno 10764 bound_to 10752
  153.0026  135.6306  154.2423 H   0  0  0  0  0  0  0  0  0  0  0  0  # atno 10765 bound_to 10752
  141.1644  133.6942  156.7499 H   0  0  0  0  0  0  0  0  0  0  0  0  # atno 11005 bound_to 11000
  146.0762  139.3750  143.0492 LP  0  0  0  0  0  0  0  0  0  0  0  0  # atno 17320 bound_to 7965
  145.7902  140.9818  143.1053 LP  0  0  0  0  0  0  0  0  0  0  0  0  # atno 17321 bound_to 7965
  140.2333  143.3719  152.1548 LP  0  0  0  0  0  0  0  0  0  0  0  0  # atno 17342 bound_to 10162
  139.5222  144.7056  151.5365 LP  0  0  0  0  0  0  0  0  0  0  0  0  # atno 17343 bound_to 10162
  157.0999  130.5977  149.5458 LP  0  0  0  0  0  0  0  0  0  0  0  0  # atno 17370 bound_to 10713
  155.9950  130.5016  150.7444 LP  0  0  0  0  0  0  0  0  0  0  0  0  # atno 17371 bound_to 10713
  140.2612  134.8465  157.3760 LP  0  0  0  0  0  0  0  0  0  0  0  0  # atno 17394 bound_to 11000
  140.1610  134.4729  155.7895 LP  0  0  0  0  0  0  0  0  0  0  0  0  # atno 17395 bound_to 11000

$$$$
