AV-unprocessed.smi:1774|AV-procd|sdf|7169|dock1
  -GOLD-   22720 8403D 1   1.00000     0.00000
 Structure written by MMmdl.
 46 47  0  0  0  0  0  0  0  0  2 V2000
  147.8268  133.0007  152.4161 C   0  0  0  0  0  0  0  0  0  0  0  0
  146.5285  133.0336  151.6264 C   0  0  0  0  0  0  0  0  0  0  0  0
  145.9725  131.8228  151.1612 C   0  0  0  0  0  0  0  0  0  0  0  0
  144.7717  131.8552  150.4321 C   0  0  0  0  0  0  0  0  0  0  0  0
  144.1740  133.1052  150.1969 C   0  0  0  0  0  0  0  0  0  0  0  0
  144.6982  134.2669  150.6380 N   0  0  0  0  0  0  0  0  0  0  0  0
  145.8561  134.2529  151.3450 C   0  0  0  0  0  0  0  0  0  0  0  0
  146.4643  135.4396  151.8440 N   0  0  0  0  0  0  0  0  0  0  0  0
  145.8681  136.5629  152.2813 C   0  0  0  0  0  0  0  0  0  0  0  0
  144.6537  136.7660  152.3038 O   0  0  0  0  0  0  0  0  0  0  0  0
  146.7694  137.4602  152.7065 N   0  0  0  0  0  0  0  0  0  0  0  0
  146.4363  138.7599  153.2778 C   0  0  0  0  0  0  0  0  0  0  0  0
  147.5061  139.8182  152.9477 C   0  0  0  0  0  0  0  0  0  0  0  0
  148.5496  139.9016  153.9990 N   0  3  1  0  0  0  0  0  0  0  0  0
  149.7349  139.0674  153.6954 C   0  0  0  0  0  0  0  0  0  0  0  0
  150.7317  139.1051  154.8683 C   0  0  1  0  0  0  0  0  0  0  0  0
  152.0135  138.3240  154.5591 C   0  0  0  0  0  0  0  0  0  0  0  0
  151.0963  140.4561  155.1398 O   0  0  0  0  0  0  0  0  0  0  0  0
  150.0043  141.3244  155.4430 C   0  0  2  0  0  0  0  0  0  0  0  0
  149.4013  141.0422  156.8306 C   0  0  0  0  0  0  0  0  0  0  0  0
  148.9670  141.2925  154.3036 C   0  0  0  0  0  0  0  0  0  0  0  0
  148.1766  131.9785  152.5621 H   0  0  0  0  0  0  0  0  0  0  0  0
  147.6885  133.4505  153.3996 H   0  0  0  0  0  0  0  0  0  0  0  0
  148.6069  133.5508  151.8893 H   0  0  0  0  0  0  0  0  0  0  0  0
  146.4576  130.8785  151.3598 H   0  0  0  0  0  0  0  0  0  0  0  0
  144.3204  130.9463  150.0626 H   0  0  0  0  0  0  0  0  0  0  0  0
  143.2512  133.1753  149.6403 H   0  0  0  0  0  0  0  0  0  0  0  0
  147.4720  135.4184  151.8926 H   0  0  0  0  0  0  0  0  0  0  0  0
  147.7485  137.2186  152.6537 H   0  0  0  0  0  0  0  0  0  0  0  0
  145.4508  139.0626  152.9227 H   0  0  0  0  0  0  0  0  0  0  0  0
  146.3519  138.6433  154.3586 H   0  0  0  0  0  0  0  0  0  0  0  0
  147.9697  139.5436  151.9988 H   0  0  0  0  0  0  0  0  0  0  0  0
  147.0591  140.8023  152.7972 H   0  0  0  0  0  0  0  0  0  0  0  0
  149.4249  138.0373  153.5151 H   0  0  0  0  0  0  0  0  0  0  0  0
  150.2080  139.4259  152.7795 H   0  0  0  0  0  0  0  0  0  0  0  0
  150.2731  138.6631  155.7530 H   0  0  0  0  0  0  0  0  0  0  0  0
  151.7947  137.2767  154.3491 H   0  0  0  0  0  0  0  0  0  0  0  0
  152.7018  138.3554  155.4039 H   0  0  0  0  0  0  0  0  0  0  0  0
  152.5306  138.7384  153.6932 H   0  0  0  0  0  0  0  0  0  0  0  0
  150.4225  142.3307  155.4814 H   0  0  0  0  0  0  0  0  0  0  0  0
  148.6635  141.8010  157.0923 H   0  0  0  0  0  0  0  0  0  0  0  0
  150.1738  141.0569  157.5997 H   0  0  0  0  0  0  0  0  0  0  0  0
  148.9009  140.0754  156.8773 H   0  0  0  0  0  0  0  0  0  0  0  0
  149.4000  141.7373  153.4059 H   0  0  0  0  0  0  0  0  0  0  0  0
  148.1086  141.9075  154.5721 H   0  0  0  0  0  0  0  0  0  0  0  0
  148.1426  139.5198  154.8408 H   0  0  0  0  0  0  0  0  0  0  0  0
  1  2  1  0  0  0  0
  1 22  1  0  0  0  0
  1 23  1  0  0  0  0
  1 24  1  0  0  0  0
  2  7  1  0  0  0  0
  2  3  2  0  0  0  0
  3  4  1  0  0  0  0
  3 25  1  0  0  0  0
  4  5  2  0  0  0  0
  4 26  1  0  0  0  0
  5  6  1  0  0  0  0
  5 27  1  0  0  0  0
  6  7  2  0  0  0  0
  7  8  1  0  0  0  0
  8  9  1  0  0  0  0
  8 28  1  0  0  0  0
  9 10  2  0  0  0  0
  9 11  1  0  0  0  0
 11 12  1  0  0  0  0
 11 29  1  0  0  0  0
 12 13  1  0  0  0  0
 12 30  1  0  0  0  0
 12 31  1  0  0  0  0
 13 14  1  0  0  0  0
 13 32  1  0  0  0  0
 13 33  1  0  0  0  0
 14 21  1  0  0  0  0
 14 15  1  0  0  0  0
 14 46  1  0  0  0  0
 15 16  1  0  0  0  0
 15 34  1  0  0  0  0
 15 35  1  0  0  0  0
 16 17  1  0  0  0  0
 16 18  1  0  0  0  0
 16 36  1  0  0  0  0
 17 37  1  0  0  0  0
 17 38  1  0  0  0  0
 17 39  1  0  0  0  0
 18 19  1  0  0  0  0
 19 20  1  0  0  0  0
 19 21  1  0  0  0  0
 19 40  1  0  0  0  0
 20 41  1  0  0  0  0
 20 42  1  0  0  0  0
 20 43  1  0  0  0  0
 21 44  1  0  0  0  0
 21 45  1  0  0  0  0
M  CHG  1  14   1
M  END
> <s_m_source_file>
AV-unprocessed.smi

> <i_m_source_file_index>
1774

> <i_lp_mmshare_version>
43012

> <i_f3d_flags>
0

> <s_epik_input>
W0NIM11jMVtjSF1bY0hdW2NIXW5jMVtOSF1DKD1PKVtOSF1bQ0gyXVtDSDJdTjJbQ0gyXVtDQEBIXShbQ0gzXSlPW0NAQEhdKFtDSDNdKVtDSDJdMg==

> <s_epik_cmdline>
J2VwaWtfcHl0aG9uJywgJy1waCcsICc3LjAnLCAnLXRuJywgJzgnLCAnLW1hJywgJzIwMCcsICctbWV0YWxfYmluZGluZycsICctaW1hZScsICc8aW5maWxlLm1hZT4nLCAnLW9tYWUnLCAnPG91dGZpbGUubWFlPic=

> <r_epik_Ionization_Penalty>
0.602573

> <r_epik_Ionization_Penalty_Charging>
0.602531

> <r_epik_Ionization_Penalty_Neutral>
4.21996e-05

> <r_epik_State_Penalty>
0.617039

> <r_epik_Charging_Adjusted_Penalty>
1.21957

> <i_epik_Tot_Q>
1

> <i_epik_Tot_abs_Q>
1

> <r_epik_Metal_State_Penalty>
0.617042

> <b_epik_Metal_Only>
0

> <s_lp_Force_Field>
OPLS_2005

> <r_lp_Energy>
18.7656

> <b_lp_Chiralities_Consistent>
1

> <s_lp_Variant>
AV-unprocessed.smi:1774-6

> <Gold.Version>
5.8.1

> <Gold.Id.Protein>
6NUR|6NUR_protein|mol2

> <Gold.PLP.Fitness>
47.2027

> <Gold.PLP.PLP>
-37.7893

> <Gold.PLP.part.hbond>
-3.8842

> <Gold.PLP.part.metal>
0.0000

> <Gold.PLP.part.buried>
-1.1512

> <Gold.PLP.part.nonpolar>
-34.5493

> <Gold.PLP.part.repulsive>
0.5766

> <Gold.PLP.ligand.clash>
0.0000

> <Gold.PLP.ligand.torsion>
1.1351

> <Gold.PLP.Chemscore.Hbond>
2.8880

> <Gold.PLP.Chemscore.CHOScore>
1.0000

> <Gold.PLP.Chemscore.Metal>
0.0000

> <Gold.Chemscore.Hbonds>
donor molecule, donor type, donor heavy atom, donor atom, acceptor molecule, acceptor atom, score
      L1  H     8    28       P1  7948  1.00
      L1  H    11    29       P1  7948  0.91
      P1  H  7989  7998       L1    18  0.90
      L1  C     5    27       P1 10186  0.91

> <Gold.PLP.Chemscore.Internal.Correction>
0.0196

> <Gold.Rescore>
     Score         DG    S(hbond)    S(metal)    S(lipo)     H(rot)  DE(clash)    DE(int)     intcor
     16.45     -21.22       2.33        0.00     100.71       1.49       2.61       2.16       ----

> <Gold.Chemscore.Fitness>
16.4500

> <Gold.Chemscore.DG>
-21.2237

> <Gold.Chemscore.ZeroCoef>
-5.4800

> <Gold.Chemscore.Hbond>
2.3312

> <Gold.Chemscore.Metal>
0.0000

> <Gold.Chemscore.Lipo>
100.7148

> <Gold.Chemscore.Internal_Hbond>
0.0000

> <Gold.Chemscore.DEClash>
2.6132

> <Gold.Chemscore.DEInternal>
2.1604

> <Gold.Chemscore.Rot>
1.4946

> <Gold.Chemscore.Internal.Correction>
   9.000000E+99

> <Gold.Chemscore.Hbonds>
donor molecule, donor type, donor heavy atom, donor atom, acceptor molecule, acceptor atom, score
      L1  H     8    28       P1  7948  0.94
      L1  H    11    29       P1  7948  0.90
      P1  H  7989  7998       L1    18  0.09

> <Gold.Chemscore.Hbond.Weighted>
-7.7861

> <Gold.Chemscore.Metal.Weighted>
-0.0000

> <Gold.Chemscore.Lipo.Weighted>
-11.7836

> <Gold.Chemscore.Internal_Hbond.Weighted>
0.0000

> <Gold.Chemscore.DEClash.Weighted>
2.6132

> <Gold.Chemscore.DEInternal.Weighted>
2.1604

> <Gold.Chemscore.Rot.Weighted>
3.8261

> <Gold.Chemscore.Internal.Correction.Weighted>
   9.000000E+99

> <Gold.Protein.RotatedTorsions>
[ 6907 6896 6895 6894 ] final  156.46 input  -60.11 | X-H torsion
[ 7974 7965 7964 7962 ] final -178.17 input  175.53 | X-H torsion
[ 8008 7997 7996 7995 ] final -126.44 input   59.86 | X-H torsion
[ 10167 10162 10161 10158 ] final  176.01 input  -65.29 | X-H torsion
[ 10718 10713 10712 10709 ] final  121.22 input   66.30 | X-H torsion
[ 10763 10752 10751 10750 ] final   73.65 input  -60.55 | X-H torsion
[ 11005 11000 10999 10996 ] final -155.08 input  -57.11 | X-H torsion

> <Gold.Protein.ActiveResidues>
 VAL166  LYS551  ARG553  GLY616  TRP617  ASP618  TYR619  PRO620  LYS621  CYS622 
 ASP623  PHE694  ASN695  SER759  ASP760  ASP761  ALA762  ILE779  LEU786  VAL792 
 PHE793  MET794  SER795  GLU796  ALA797  LYS798  CYS799  TRP800  GLU811  SER814 

> <Gold.Protein.RotatedAtoms>
  152.0293  133.3931  159.4290 H   0  0  0  0  0  0  0  0  0  0  0  0  # atno 6907 bound_to 6896
  150.6883  134.3538  159.4930 H   0  0  0  0  0  0  0  0  0  0  0  0  # atno 6908 bound_to 6896
  152.1323  134.9125  160.0609 H   0  0  0  0  0  0  0  0  0  0  0  0  # atno 6909 bound_to 6896
  144.7130  140.0909  143.6421 H   0  0  0  0  0  0  0  0  0  0  0  0  # atno 7974 bound_to 7965
  155.2298  140.0425  157.2960 H   0  0  0  0  0  0  0  0  0  0  0  0  # atno 8008 bound_to 7997
  154.5896  140.2423  155.7910 H   0  0  0  0  0  0  0  0  0  0  0  0  # atno 8009 bound_to 7997
  156.2250  140.2957  156.0052 H   0  0  0  0  0  0  0  0  0  0  0  0  # atno 8010 bound_to 7997
  139.5198  144.2965  152.0417 H   0  0  0  0  0  0  0  0  0  0  0  0  # atno 10167 bound_to 10162
  157.5833  131.1072  150.8144 H   0  0  0  0  0  0  0  0  0  0  0  0  # atno 10718 bound_to 10713
  153.0535  135.5055  154.7925 H   0  0  0  0  0  0  0  0  0  0  0  0  # atno 10763 bound_to 10752
  154.6769  135.2962  154.9669 H   0  0  0  0  0  0  0  0  0  0  0  0  # atno 10764 bound_to 10752
  154.0468  135.6709  153.4848 H   0  0  0  0  0  0  0  0  0  0  0  0  # atno 10765 bound_to 10752
  140.6904  134.4048  157.5219 H   0  0  0  0  0  0  0  0  0  0  0  0  # atno 11005 bound_to 11000
  145.9621  139.2808  143.1149 LP  0  0  0  0  0  0  0  0  0  0  0  0  # atno 17320 bound_to 7965
  145.9209  140.9115  143.0405 LP  0  0  0  0  0  0  0  0  0  0  0  0  # atno 17321 bound_to 7965
  140.2414  144.4265  150.6258 LP  0  0  0  0  0  0  0  0  0  0  0  0  # atno 17342 bound_to 10162
  140.6288  143.2184  151.6540 LP  0  0  0  0  0  0  0  0  0  0  0  0  # atno 17343 bound_to 10162
  156.8584  130.5105  149.5306 LP  0  0  0  0  0  0  0  0  0  0  0  0  # atno 17370 bound_to 10713
  156.0880  130.5874  150.9683 LP  0  0  0  0  0  0  0  0  0  0  0  0  # atno 17371 bound_to 10713
  139.8925  134.8753  156.2267 LP  0  0  0  0  0  0  0  0  0  0  0  0  # atno 17394 bound_to 11000
  141.0246  133.7022  156.1326 LP  0  0  0  0  0  0  0  0  0  0  0  0  # atno 17395 bound_to 11000

$$$$
