#       Name:                AV-unprocessed.smi:1300
#       Creating user name   scv26
#       Creation time:       Fri Mar 27 04:57:57 2020


#       File generated by GOLD software.
#

@<TRIPOS>MOLECULE
AV-unprocessed.smi:1300
    41    42     1
SMALL
NO_CHARGES


@<TRIPOS>ATOM
      1 ****        -3.4488   2.4827   0.7278 C.3            1 S1                 0.0000
      2 ****        -2.7819   1.1321   0.6860 C.2            1 S1                 0.0000
      3 ****        -1.4908   1.1561   0.6362 N.2            1 S1                 0.0000
      4 ****        -0.7474  -0.0054   0.5894 N.am           1 S1                 0.0000
      5 ****         0.7031   0.2182   0.5437 C.3            1 S1                 0.0000
      6 ****         1.2866   0.0298  -0.8736 C.3            1 S1                 0.0000
      7 ****         0.9105   1.1365  -1.6717 O.3            1 S1                 0.0000
      8 ****         2.8000  -0.1368  -0.8140 C.ar           1 S1                 0.0000
      9 ****         3.6451   0.9930  -0.7261 C.ar           1 S1                 0.0000
     10 ****         5.0425   0.8341  -0.6572 C.ar           1 S1                 0.0000
     11 ****         5.6061  -0.4554  -0.6701 C.ar           1 S1                 0.0000
     12 ****         4.7709  -1.5857  -0.7493 C.ar           1 S1                 0.0000
     13 ****         3.3726  -1.4293  -0.8186 C.ar           1 S1                 0.0000
     14 ****         2.5841  -2.5290  -0.8835 F              1 S1                 0.0000
     15 ****        -1.2725  -1.2633   0.5901 C.2            1 S1                 0.0000
     16 ****        -0.5701  -2.2745   0.5460 O.2            1 S1                 0.0000
     17 ****        -2.7356  -1.2880   0.6479 C.2            1 S1                 0.0000
     18 ****        -3.3248  -2.5884   0.6482 C.1            1 S1                 0.0000
     19 ****        -3.8204  -3.6346   0.6426 N.1            1 S1                 0.0000
     20 ****        -3.4790  -0.1538   0.6981 C.2            1 S1                 0.0000
     21 ****        -5.0004  -0.1402   0.7628 C.3            1 S1                 0.0000
     22 ****        -4.5355   2.4217   0.7224 H              1 S1                 0.0000
     23 ****        -3.1551   3.0827  -0.1343 H              1 S1                 0.0000
     24 ****        -3.1571   3.0271   1.6264 H              1 S1                 0.0000
     25 ****         0.9630   1.2047   0.9336 H              1 S1                 0.0000
     26 ****         1.1768  -0.4875   1.2291 H              1 S1                 0.0000
     27 ****         0.8612  -0.8578  -1.3423 H              1 S1                 0.0000
     28 ****         1.1881   0.9723  -2.5600 H              1 S1                 0.0000
     29 ****         3.2257   1.9884  -0.7070 H              1 S1                 0.0000
     30 ****         5.6820   1.7021  -0.5917 H              1 S1                 0.0000
     31 ****         6.6777  -0.5778  -0.6156 H              1 S1                 0.0000
     32 ****         5.2032  -2.5755  -0.7542 H              1 S1                 0.0000
     33 ****        -5.4226  -1.1437   0.8006 H              1 S1                 0.0000
     34 ****        -5.4155   0.3563  -0.1148 H              1 S1                 0.0000
     35 ****        -5.3405   0.3874   1.6548 H              1 S1                 0.0000
     36 ****        -1.0191   2.0379   0.6314 LP             1 S1                 0.0000
     37 ****         1.3511   1.9659  -1.3282 LP             1 S1                 0.0000
     38 ****        -0.0826   1.2508  -1.6440 LP             1 S1                 0.0000
     39 ****         0.4256  -2.1903   0.5078 LP             1 S1                 0.0000
     40 ****        -0.9957  -3.1794   0.5484 LP             1 S1                 0.0000
     41 ****        -4.2485  -4.5383   0.6377 LP             1 S1                 0.0000
@<TRIPOS>BOND
    1    1    2 1     
    2    1   22 1     
    3    1   23 1     
    4    1   24 1     
    5    2   20 1     
    6    2    3 2     
    7    3    4 1     
    8    4    5 1     
    9    4   15 am    
   10    5    6 1     
   11    5   25 1     
   12    5   26 1     
   13    6    7 1     
   14    6    8 1     
   15    6   27 1     
   16    7   28 1     
   17    8   13 ar    
   18    8    9 ar    
   19    9   10 ar    
   20    9   29 1     
   21   10   11 ar    
   22   10   30 1     
   23   11   12 ar    
   24   11   31 1     
   25   12   13 ar    
   26   12   32 1     
   27   13   14 1     
   28   15   16 2     
   29   15   17 1     
   30   17   18 1     
   31   17   20 2     
   32   18   19 3     
   33   20   21 1     
   34   21   33 1     
   35   21   34 1     
   36   21   35 1     
   37    3   36 1     
   38    7   37 1     
   39    7   38 1     
   40   16   39 1     
   41   16   40 1     
   42   19   41 1     
@<TRIPOS>SUBSTRUCTURE
      1 S1             1
@<TRIPOS>SET
LONE_PAIRS      STATIC     ATOMS    <user>   **** ""
6 36 37 38 39 40 41
DONOR_HYDROGENS      STATIC     ATOMS    <user>   **** ""
1 28
ATOM$BLUE        STATIC     ATOMS    COLORGROUP SYSTEM
6 36 37 38 39 40 41
ATOM$RED        STATIC     ATOMS    COLORGROUP SYSTEM
1 28
