AV-unprocessed.smi:1522|AV-procd|sdf|6137|dock1
  -GOLD-   22720 6283D 1   1.00000     0.00000
 Structure written by MMmdl.
 34 35  0  0  0  0  0  0  0  0  3 V2000
  150.0520  135.3227  154.9063 C   0  0  0  0  0  0  0  0  0  0  0  0
  149.0802  136.4230  155.3909 C   0  0  1  0  0  0  0  0  0  0  0  0
  149.4723  136.9172  156.8035 C   0  0  0  0  0  0  0  0  0  0  0  0
  148.6403  136.3138  157.8371 N   0  0  0  0  0  0  0  0  0  0  0  0
  148.9667  136.2167  159.1318 C   0  0  0  0  0  0  0  0  0  0  0  0
  150.0468  136.6612  159.5271 O   0  0  0  0  0  0  0  0  0  0  0  0
  148.0222  135.6097  159.8847 N   0  5  0  0  0  0  0  0  0  0  0  0
  147.8606  135.9604  161.1712 C   0  0  0  0  0  0  0  0  0  0  0  0
  147.8692  137.2417  161.5724 N   0  0  0  0  0  0  0  0  0  0  0  0
  147.6800  137.3864  162.9402 N   0  0  0  0  0  0  0  0  0  0  0  0
  147.5252  136.2049  163.5371 C   0  0  0  0  0  0  0  0  0  0  0  0
  147.5922  134.8087  162.4828 S   0  0  0  0  0  0  0  0  0  0  0  0
  149.0319  137.5611  154.4279 N   0  3  0  0  0  0  0  0  0  0  0  0
  147.8430  138.4361  154.5279 C   0  0  0  0  0  0  0  0  0  0  0  0
  148.2473  139.7342  153.8391 C   0  0  0  0  0  0  0  0  0  0  0  0
  149.7107  139.8905  154.2354 C   0  0  0  0  0  0  0  0  0  0  0  0
  150.2175  138.4564  154.4425 C   0  0  0  0  0  0  0  0  0  0  0  0
  150.1004  134.4886  155.6064 H   0  0  0  0  0  0  0  0  0  0  0  0
  151.0637  135.7130  154.7909 H   0  0  0  0  0  0  0  0  0  0  0  0
  149.7464  134.8973  153.9508 H   0  0  0  0  0  0  0  0  0  0  0  0
  148.0798  135.9899  155.4430 H   0  0  0  0  0  0  0  0  0  0  0  0
  150.5189  136.6823  157.0046 H   0  0  0  0  0  0  0  0  0  0  0  0
  149.3688  137.9997  156.8850 H   0  0  0  0  0  0  0  0  0  0  0  0
  147.7477  135.9381  157.5525 H   0  0  0  0  0  0  0  0  0  0  0  0
  147.3661  136.1554  164.6038 H   0  0  0  0  0  0  0  0  0  0  0  0
  146.9633  137.9876  154.0653 H   0  0  0  0  0  0  0  0  0  0  0  0
  147.6165  138.6318  155.5776 H   0  0  0  0  0  0  0  0  0  0  0  0
  148.1644  139.6211  152.7573 H   0  0  0  0  0  0  0  0  0  0  0  0
  147.6329  140.5839  154.1383 H   0  0  0  0  0  0  0  0  0  0  0  0
  150.2881  140.4367  153.4888 H   0  0  0  0  0  0  0  0  0  0  0  0
  149.7792  140.4420  155.1741 H   0  0  0  0  0  0  0  0  0  0  0  0
  150.7593  138.3944  155.3873 H   0  0  0  0  0  0  0  0  0  0  0  0
  150.9008  138.1578  153.6468 H   0  0  0  0  0  0  0  0  0  0  0  0
  149.0001  137.1601  153.5014 H   0  0  0  0  0  0  0  0  0  0  0  0
  1  2  1  0  0  0  0
  1 18  1  0  0  0  0
  1 19  1  0  0  0  0
  1 20  1  0  0  0  0
  2  3  1  0  0  0  0
  2 13  1  0  0  0  0
  2 21  1  0  0  0  0
  3  4  1  0  0  0  0
  3 22  1  0  0  0  0
  3 23  1  0  0  0  0
  4  5  1  0  0  0  0
  4 24  1  0  0  0  0
  5  6  2  0  0  0  0
  5  7  1  0  0  0  0
  7  8  1  0  0  0  0
  8 12  1  0  0  0  0
  8  9  2  0  0  0  0
  9 10  1  0  0  0  0
 10 11  2  0  0  0  0
 11 12  1  0  0  0  0
 11 25  1  0  0  0  0
 13 17  1  0  0  0  0
 13 14  1  0  0  0  0
 13 34  1  0  0  0  0
 14 15  1  0  0  0  0
 14 26  1  0  0  0  0
 14 27  1  0  0  0  0
 15 16  1  0  0  0  0
 15 28  1  0  0  0  0
 15 29  1  0  0  0  0
 16 17  1  0  0  0  0
 16 30  1  0  0  0  0
 16 31  1  0  0  0  0
 17 32  1  0  0  0  0
 17 33  1  0  0  0  0
M  CHG  1   7  -1
M  CHG  1  13   1
M  END
> <s_m_source_file>
AV-unprocessed.smi

> <i_m_source_file_index>
1522

> <i_lp_mmshare_version>
43012

> <i_f3d_flags>
0

> <s_epik_input>
W0NIMl0xW0NIMl1bQ0gyXVtDSDJdTjFbQ0BIXShbQ0gzXSlbQ0gyXVtOSF1DKD1PKVtOSF1jMm5uW2NIXXMy

> <s_epik_cmdline>
J2VwaWtfcHl0aG9uJywgJy1waCcsICc3LjAnLCAnLXRuJywgJzgnLCAnLW1hJywgJzIwMCcsICctbWV0YWxfYmluZGluZycsICctaW1hZScsICc8aW5maWxlLm1hZT4nLCAnLW9tYWUnLCAnPG91dGZpbGUubWFlPic=

> <r_lp_tautomer_probability>
1

> <r_epik_Ionization_Penalty>
3.04208

> <r_epik_Ionization_Penalty_Charging>
3.00964

> <r_epik_Ionization_Penalty_Neutral>
0.0324455

> <r_epik_State_Penalty>
3.0051

> <r_epik_Charging_Adjusted_Penalty>
6.01474

> <i_epik_Tot_Q>
0

> <i_epik_Tot_abs_Q>
2

> <r_epik_Metal_State_Penalty>
0.454155

> <b_epik_Metal_Only>
1

> <s_lp_Force_Field>
OPLS_2005

> <r_lp_Energy>
23.3187

> <b_lp_Chiralities_Consistent>
1

> <s_lp_Variant>
AV-unprocessed.smi:1522-4

> <Gold.Version>
5.8.1

> <Gold.Id.Protein>
6NUR|6NUR_protein|mol2

> <Gold.PLP.Fitness>
34.9665

> <Gold.PLP.PLP>
-26.3704

> <Gold.PLP.part.hbond>
-5.4762

> <Gold.PLP.part.metal>
0.0000

> <Gold.PLP.part.buried>
-1.1383

> <Gold.PLP.part.nonpolar>
-20.1755

> <Gold.PLP.part.repulsive>
0.0386

> <Gold.PLP.ligand.clash>
0.0000

> <Gold.PLP.ligand.torsion>
1.5338

> <Gold.PLP.Chemscore.Hbond>
3.8592

> <Gold.PLP.Chemscore.CHOScore>
0.0000

> <Gold.PLP.Chemscore.Metal>
0.0000

> <Gold.Chemscore.Hbonds>
donor molecule, donor type, donor heavy atom, donor atom, acceptor molecule, acceptor atom, score
      L1  H    13    34       P1  7948  2.00
      P1  H  6896  6907       L1     6  0.90
      P1  H  6934  6947       L1     9  0.67

> <Gold.PLP.Chemscore.Internal.Correction>
0.0861

> <Gold.Rescore>
     Score         DG    S(hbond)    S(metal)    S(lipo)     H(rot)  DE(clash)    DE(int)     intcor
     12.32     -14.76       2.10        0.00      56.08       1.68       0.92       1.51       ----

> <Gold.Chemscore.Fitness>
12.3227

> <Gold.Chemscore.DG>
-14.7559

> <Gold.Chemscore.ZeroCoef>
-5.4800

> <Gold.Chemscore.Hbond>
2.0976

> <Gold.Chemscore.Metal>
0.0000

> <Gold.Chemscore.Lipo>
56.0763

> <Gold.Chemscore.Internal_Hbond>
0.0000

> <Gold.Chemscore.DEClash>
0.9201

> <Gold.Chemscore.DEInternal>
1.5132

> <Gold.Chemscore.Rot>
1.6762

> <Gold.Chemscore.Internal.Correction>
   9.000000E+99

> <Gold.Chemscore.Hbonds>
donor molecule, donor type, donor heavy atom, donor atom, acceptor molecule, acceptor atom, score
      L1  H    13    34       P1  7948  1.00
      P1  H  6896  6907       L1     6  0.18
      P1  H  6934  6947       L1     9  0.16

> <Gold.Chemscore.Hbond.Weighted>
-7.0060

> <Gold.Chemscore.Metal.Weighted>
-0.0000

> <Gold.Chemscore.Lipo.Weighted>
-6.5609

> <Gold.Chemscore.Internal_Hbond.Weighted>
0.0000

> <Gold.Chemscore.DEClash.Weighted>
0.9201

> <Gold.Chemscore.DEInternal.Weighted>
1.5132

> <Gold.Chemscore.Rot.Weighted>
4.2910

> <Gold.Chemscore.Internal.Correction.Weighted>
   9.000000E+99

> <Gold.Protein.RotatedTorsions>
[ 6907 6896 6895 6894 ] final  -40.67 input  -60.11 | X-H torsion
[ 7974 7965 7964 7962 ] final   -9.69 input  175.53 | X-H torsion
[ 8008 7997 7996 7995 ] final   95.79 input   59.86 | X-H torsion
[ 10167 10162 10161 10158 ] final  -20.46 input  -65.29 | X-H torsion
[ 10718 10713 10712 10709 ] final -147.21 input   66.30 | X-H torsion
[ 10763 10752 10751 10750 ] final   19.68 input  -60.55 | X-H torsion
[ 11005 11000 10999 10996 ] final -129.24 input  -57.11 | X-H torsion

> <Gold.Protein.ActiveResidues>
 VAL166  LYS551  ARG553  GLY616  TRP617  ASP618  TYR619  PRO620  LYS621  CYS622 
 ASP623  PHE694  ASN695  SER759  ASP760  ASP761  ALA762  ILE779  LEU786  VAL792 
 PHE793  MET794  SER795  GLU796  ALA797  LYS798  CYS799  TRP800  GLU811  SER814 

> <Gold.Protein.RotatedAtoms>
  150.9757  134.9122  159.7814 H   0  0  0  0  0  0  0  0  0  0  0  0  # atno 6907 bound_to 6896
  152.5205  134.3479  159.9250 H   0  0  0  0  0  0  0  0  0  0  0  0  # atno 6908 bound_to 6896
  151.3487  133.3893  159.2712 H   0  0  0  0  0  0  0  0  0  0  0  0  # atno 6909 bound_to 6896
  146.2244  140.2653  142.8354 H   0  0  0  0  0  0  0  0  0  0  0  0  # atno 7974 bound_to 7965
  156.0727  140.3281  155.7596 H   0  0  0  0  0  0  0  0  0  0  0  0  # atno 8008 bound_to 7997
  155.5279  140.0591  157.2912 H   0  0  0  0  0  0  0  0  0  0  0  0  # atno 8009 bound_to 7997
  154.4539  140.1932  156.0455 H   0  0  0  0  0  0  0  0  0  0  0  0  # atno 8010 bound_to 7997
  140.7276  143.4720  151.0233 H   0  0  0  0  0  0  0  0  0  0  0  0  # atno 10167 bound_to 10162
  156.4047  130.7951  151.2164 H   0  0  0  0  0  0  0  0  0  0  0  0  # atno 10718 bound_to 10713
  153.1141  135.6704  153.9448 H   0  0  0  0  0  0  0  0  0  0  0  0  # atno 10763 bound_to 10752
  153.8983  135.3039  155.3449 H   0  0  0  0  0  0  0  0  0  0  0  0  # atno 10764 bound_to 10752
  154.7559  135.5012  153.9451 H   0  0  0  0  0  0  0  0  0  0  0  0  # atno 10765 bound_to 10752
  140.9448  134.1144  157.4117 H   0  0  0  0  0  0  0  0  0  0  0  0  # atno 11005 bound_to 11000
  144.9309  140.7973  143.5690 LP  0  0  0  0  0  0  0  0  0  0  0  0  # atno 17320 bound_to 7965
  145.2597  139.1997  143.4899 LP  0  0  0  0  0  0  0  0  0  0  0  0  # atno 17321 bound_to 7965
  139.8413  143.7560  152.3180 LP  0  0  0  0  0  0  0  0  0  0  0  0  # atno 17342 bound_to 10162
  139.7710  144.7476  151.0225 LP  0  0  0  0  0  0  0  0  0  0  0  0  # atno 17343 bound_to 10162
  157.7505  131.0276  150.4013 LP  0  0  0  0  0  0  0  0  0  0  0  0  # atno 17370 bound_to 10713
  156.4299  130.3970  149.6767 LP  0  0  0  0  0  0  0  0  0  0  0  0  # atno 17371 bound_to 10713
  139.8830  135.0048  156.6272 LP  0  0  0  0  0  0  0  0  0  0  0  0  # atno 17394 bound_to 11000
  140.7684  133.8759  155.8472 LP  0  0  0  0  0  0  0  0  0  0  0  0  # atno 17395 bound_to 11000

$$$$
