AV-unprocessed.smi:1623|AV-procd|sdf|6501|dock6
  -GOLD-   22720 7163D 1   1.00000     0.00000
 Structure written by MMmdl.
 42 43  0  0  0  0  0  0  0  0  1 V2000
  147.0025  137.1635  162.9752 C   0  0  0  0  0  0  0  0  0  0  0  0
  147.5444  136.3496  161.8313 C   0  0  0  0  0  0  0  0  0  0  0  0
  148.3681  136.9469  161.0342 N   0  0  0  0  0  0  0  0  0  0  0  0
  148.9213  136.2939  159.9499 N   0  0  0  0  0  0  0  0  0  0  0  0
  149.8317  137.1246  159.1534 C   0  0  0  0  0  0  0  0  0  0  0  0
  149.1141  138.3457  158.5368 C   0  0  2  0  0  0  0  0  0  0  0  0
  148.0666  137.9382  157.6805 O   0  0  0  0  0  0  0  0  0  0  0  0
  150.0617  139.2379  157.7192 C   0  0  0  0  0  0  0  0  0  0  0  0
  150.8853  139.9920  158.5988 O   0  0  0  0  0  0  0  0  0  0  0  0
  151.8800  140.7668  157.9456 C   0  0  0  0  0  0  0  0  0  0  0  0
  151.9302  142.2088  158.4304 C   0  0  0  0  0  0  0  0  0  0  0  0
  151.3943  143.2305  157.6169 C   0  0  0  0  0  0  0  0  0  0  0  0
  151.4255  144.5718  158.0437 C   0  0  0  0  0  0  0  0  0  0  0  0
  151.9967  144.9011  159.2869 C   0  0  0  0  0  0  0  0  0  0  0  0
  152.5384  143.8885  160.1010 C   0  0  0  0  0  0  0  0  0  0  0  0
  152.5102  142.5445  159.6780 C   0  0  0  0  0  0  0  0  0  0  0  0
  153.1921  141.3332  160.7062 Cl  0  0  0  0  0  0  0  0  0  0  0  0
  148.6608  135.0008  159.6059 C   0  0  0  0  0  0  0  0  0  0  0  0
  149.1668  134.4601  158.6215 O   0  0  0  0  0  0  0  0  0  0  0  0
  147.7307  134.3284  160.5160 C   0  0  0  0  0  0  0  0  0  0  0  0
  147.4313  132.9703  160.1948 C   0  0  0  0  0  0  0  0  0  0  0  0
  147.2042  131.8621  159.9490 N   0  0  0  0  0  0  0  0  0  0  0  0
  147.1898  134.9544  161.5909 C   0  0  0  0  0  0  0  0  0  0  0  0
  146.2190  134.2984  162.5633 C   0  0  0  0  0  0  0  0  0  0  0  0
  145.9144  137.1106  163.0093 H   0  0  0  0  0  0  0  0  0  0  0  0
  147.2753  138.2167  162.8898 H   0  0  0  0  0  0  0  0  0  0  0  0
  147.3899  136.7973  163.9261 H   0  0  0  0  0  0  0  0  0  0  0  0
  150.6234  137.4776  159.8175 H   0  0  0  0  0  0  0  0  0  0  0  0
  150.3517  136.5457  158.3878 H   0  0  0  0  0  0  0  0  0  0  0  0
  148.6733  138.9576  159.3249 H   0  0  0  0  0  0  0  0  0  0  0  0
  147.2465  138.0565  158.1354 H   0  0  0  0  0  0  0  0  0  0  0  0
  150.6690  138.6465  157.0321 H   0  0  0  0  0  0  0  0  0  0  0  0
  149.4582  139.9124  157.1106 H   0  0  0  0  0  0  0  0  0  0  0  0
  152.8494  140.3092  158.1443 H   0  0  0  0  0  0  0  0  0  0  0  0
  151.7377  140.7226  156.8646 H   0  0  0  0  0  0  0  0  0  0  0  0
  150.9521  142.9886  156.6617 H   0  0  0  0  0  0  0  0  0  0  0  0
  151.0113  145.3478  157.4169 H   0  0  0  0  0  0  0  0  0  0  0  0
  152.0213  145.9297  159.6153 H   0  0  0  0  0  0  0  0  0  0  0  0
  152.9781  144.1453  161.0536 H   0  0  0  0  0  0  0  0  0  0  0  0
  146.1480  133.2221  162.4092 H   0  0  0  0  0  0  0  0  0  0  0  0
  145.2202  134.7185  162.4417 H   0  0  0  0  0  0  0  0  0  0  0  0
  146.5354  134.4545  163.5951 H   0  0  0  0  0  0  0  0  0  0  0  0
  1  2  1  0  0  0  0
  1 25  1  0  0  0  0
  1 26  1  0  0  0  0
  1 27  1  0  0  0  0
  2 23  1  0  0  0  0
  2  3  2  0  0  0  0
  3  4  1  0  0  0  0
  4  5  1  0  0  0  0
  4 18  1  0  0  0  0
  5  6  1  0  0  0  0
  5 28  1  0  0  0  0
  5 29  1  0  0  0  0
  6  7  1  0  0  0  0
  6  8  1  0  0  0  0
  6 30  1  0  0  0  0
  7 31  1  0  0  0  0
  8  9  1  0  0  0  0
  8 32  1  0  0  0  0
  8 33  1  0  0  0  0
  9 10  1  0  0  0  0
 10 11  1  0  0  0  0
 10 34  1  0  0  0  0
 10 35  1  0  0  0  0
 11 16  1  0  0  0  0
 11 12  2  0  0  0  0
 12 13  1  0  0  0  0
 12 36  1  0  0  0  0
 13 14  2  0  0  0  0
 13 37  1  0  0  0  0
 14 15  1  0  0  0  0
 14 38  1  0  0  0  0
 15 16  2  0  0  0  0
 15 39  1  0  0  0  0
 16 17  1  0  0  0  0
 18 19  2  0  0  0  0
 18 20  1  0  0  0  0
 20 21  1  0  0  0  0
 20 23  2  0  0  0  0
 21 22  3  0  0  0  0
 23 24  1  0  0  0  0
 24 40  1  0  0  0  0
 24 41  1  0  0  0  0
 24 42  1  0  0  0  0
M  END
> <s_m_source_file>
AV-unprocessed.smi

> <i_m_source_file_index>
1623

> <i_lp_mmshare_version>
43012

> <i_f3d_flags>
0

> <s_epik_input>
TiNDYyhjMVtDSDNdKWMoPU8pbihuYzFbQ0gzXSlbQ0gyXVtDQEhdKFtPSF0pW0NIMl1PW0NIMl1jMltjSF1bY0hdW2NIXVtjSF1jMkNs

> <s_epik_cmdline>
J2VwaWtfcHl0aG9uJywgJy1waCcsICc3LjAnLCAnLXRuJywgJzgnLCAnLW1hJywgJzIwMCcsICctbWV0YWxfYmluZGluZycsICctaW1hZScsICc8aW5maWxlLm1hZT4nLCAnLW9tYWUnLCAnPG91dGZpbGUubWFlPic=

> <r_lp_tautomer_probability>
1

> <r_epik_Ionization_Penalty>
6.50533e-08

> <r_epik_Ionization_Penalty_Charging>
2.19172e-10

> <r_epik_Ionization_Penalty_Neutral>
6.48342e-08

> <r_epik_State_Penalty>
-0

> <r_epik_Charging_Adjusted_Penalty>
2.19172e-10

> <i_epik_Tot_Q>
0

> <i_epik_Tot_abs_Q>
0

> <r_epik_Metal_State_Penalty>
-0

> <b_epik_Metal_Only>
0

> <s_lp_Force_Field>
OPLS_2005

> <r_lp_Energy>
31.4415

> <b_lp_Chiralities_Consistent>
1

> <s_lp_Variant>
AV-unprocessed.smi:1623-1

> <Gold.Version>
5.8.1

> <Gold.Id.Protein>
6NUR|6NUR_protein|mol2

> <Gold.PLP.Fitness>
53.9589

> <Gold.PLP.PLP>
-49.1325

> <Gold.PLP.part.hbond>
-3.0000

> <Gold.PLP.part.metal>
0.0000

> <Gold.PLP.part.buried>
-3.6679

> <Gold.PLP.part.nonpolar>
-43.6632

> <Gold.PLP.part.repulsive>
0.0000

> <Gold.PLP.ligand.clash>
0.0000

> <Gold.PLP.ligand.torsion>
0.6808

> <Gold.PLP.Chemscore.Hbond>
2.0434

> <Gold.PLP.Chemscore.CHOScore>
0.0000

> <Gold.PLP.Chemscore.Metal>
0.0000

> <Gold.Chemscore.Hbonds>
donor molecule, donor type, donor heavy atom, donor atom, acceptor molecule, acceptor atom, score
      P1  H  6896  6907       L1    19  0.75
      P1  H  6931  6943       L1     3  1.00
      P1  H  6934  6947       L1     3  0.06

> <Gold.PLP.Chemscore.Internal.Correction>
0.0579

> <Gold.Rescore>
     Score         DG    S(hbond)    S(metal)    S(lipo)     H(rot)  DE(clash)    DE(int)     intcor
     18.87     -19.92       1.50        0.00     134.96       2.48       0.42       0.64       ----

> <Gold.Chemscore.Fitness>
18.8665

> <Gold.Chemscore.DG>
-19.9247

> <Gold.Chemscore.ZeroCoef>
-5.4800

> <Gold.Chemscore.Hbond>
1.4960

> <Gold.Chemscore.Metal>
0.0000

> <Gold.Chemscore.Lipo>
134.9644

> <Gold.Chemscore.Internal_Hbond>
0.0000

> <Gold.Chemscore.DEClash>
0.4223

> <Gold.Chemscore.DEInternal>
0.6359

> <Gold.Chemscore.Rot>
2.4777

> <Gold.Chemscore.Internal.Correction>
   9.000000E+99

> <Gold.Chemscore.Hbonds>
donor molecule, donor type, donor heavy atom, donor atom, acceptor molecule, acceptor atom, score
      P1  H  6896  6907       L1    19  0.09
      P1  H  6931  6943       L1     3  0.59
      P1  H  6934  6947       L1     3  0.01

> <Gold.Chemscore.Hbond.Weighted>
-4.9968

> <Gold.Chemscore.Metal.Weighted>
-0.0000

> <Gold.Chemscore.Lipo.Weighted>
-15.7908

> <Gold.Chemscore.Internal_Hbond.Weighted>
0.0000

> <Gold.Chemscore.DEClash.Weighted>
0.4223

> <Gold.Chemscore.DEInternal.Weighted>
0.6359

> <Gold.Chemscore.Rot.Weighted>
6.3428

> <Gold.Chemscore.Internal.Correction.Weighted>
   9.000000E+99

> <Gold.Protein.RotatedTorsions>
[ 6907 6896 6895 6894 ] final  -99.04 input  -60.11 | X-H torsion
[ 7974 7965 7964 7962 ] final  -95.41 input  175.53 | X-H torsion
[ 8008 7997 7996 7995 ] final -160.76 input   59.86 | X-H torsion
[ 10167 10162 10161 10158 ] final  133.87 input  -65.29 | X-H torsion
[ 10718 10713 10712 10709 ] final  -93.04 input   66.30 | X-H torsion
[ 10763 10752 10751 10750 ] final -103.29 input  -60.55 | X-H torsion
[ 11005 11000 10999 10996 ] final  144.96 input  -57.11 | X-H torsion

> <Gold.Protein.ActiveResidues>
 VAL166  LYS551  ARG553  GLY616  TRP617  ASP618  TYR619  PRO620  LYS621  CYS622 
 ASP623  PHE694  ASN695  SER759  ASP760  ASP761  ALA762  ILE779  LEU786  VAL792 
 PHE793  MET794  SER795  GLU796  ALA797  LYS798  CYS799  TRP800  GLU811  SER814 

> <Gold.Protein.RotatedAtoms>
  150.7066  134.1102  159.3996 H   0  0  0  0  0  0  0  0  0  0  0  0  # atno 6907 bound_to 6896
  151.9088  135.0345  160.0522 H   0  0  0  0  0  0  0  0  0  0  0  0  # atno 6908 bound_to 6896
  152.2353  133.5055  159.5275 H   0  0  0  0  0  0  0  0  0  0  0  0  # atno 6909 bound_to 6896
  145.3604  140.9491  143.2504 H   0  0  0  0  0  0  0  0  0  0  0  0  # atno 7974 bound_to 7965
  155.7823  140.0866  157.2053 H   0  0  0  0  0  0  0  0  0  0  0  0  # atno 8008 bound_to 7997
  154.3989  140.1505  156.3124 H   0  0  0  0  0  0  0  0  0  0  0  0  # atno 8009 bound_to 7997
  155.8642  140.3429  155.5779 H   0  0  0  0  0  0  0  0  0  0  0  0  # atno 8010 bound_to 7997
  139.5279  144.6595  151.5058 H   0  0  0  0  0  0  0  0  0  0  0  0  # atno 10167 bound_to 10162
  156.0009  130.5011  150.5717 H   0  0  0  0  0  0  0  0  0  0  0  0  # atno 10718 bound_to 10713
  154.7796  135.4829  153.9817 H   0  0  0  0  0  0  0  0  0  0  0  0  # atno 10763 bound_to 10752
  153.1476  135.6785  153.8938 H   0  0  0  0  0  0  0  0  0  0  0  0  # atno 10764 bound_to 10752
  153.8593  135.3157  155.3415 H   0  0  0  0  0  0  0  0  0  0  0  0  # atno 10765 bound_to 10752
  140.0674  134.9171  157.1287 H   0  0  0  0  0  0  0  0  0  0  0  0  # atno 11005 bound_to 11000
  144.8651  139.5120  143.6794 LP  0  0  0  0  0  0  0  0  0  0  0  0  # atno 17320 bound_to 7965
  146.2930  139.7194  142.9147 LP  0  0  0  0  0  0  0  0  0  0  0  0  # atno 17321 bound_to 7965
  140.6436  143.8839  150.6715 LP  0  0  0  0  0  0  0  0  0  0  0  0  # atno 17342 bound_to 10162
  140.2182  143.3830  152.1664 LP  0  0  0  0  0  0  0  0  0  0  0  0  # atno 17343 bound_to 10162
  157.3611  131.0750  151.1636 LP  0  0  0  0  0  0  0  0  0  0  0  0  # atno 17370 bound_to 10713
  157.2420  130.6574  149.5894 LP  0  0  0  0  0  0  0  0  0  0  0  0  # atno 17371 bound_to 10713
  140.3678  134.2423  155.7180 LP  0  0  0  0  0  0  0  0  0  0  0  0  # atno 17394 bound_to 11000
  141.1998  133.8002  157.0518 LP  0  0  0  0  0  0  0  0  0  0  0  0  # atno 17395 bound_to 11000

$$$$
