AV-unprocessed.smi:651|AV-procd|sdf|3191|dock2
  -GOLD-   22720 0113D 1   1.00000     0.00000
 Structure written by MMmdl.
 39 40  0  0  0  0  0  0  0  0  2 V2000
  143.7230  132.4122  149.2437 C   0  0  0  0  0  0  0  0  0  0  0  0
  144.3439  133.4297  150.1770 C   0  0  0  0  0  0  0  0  0  0  0  0
  145.6486  133.2812  150.6944 C   0  0  0  0  0  0  0  0  0  0  0  0
  146.1656  134.2723  151.5547 C   0  0  0  0  0  0  0  0  0  0  0  0
  145.3689  135.3921  151.8809 C   0  0  0  0  0  0  0  0  0  0  0  0
  145.8994  136.4808  152.7978 C   0  0  0  0  0  0  0  0  0  0  0  0
  146.4161  135.8696  154.1002 C   0  0  0  0  0  0  0  0  0  0  0  0
  145.6157  135.4960  154.9565 O   0  0  0  0  0  0  0  0  0  0  0  0
  147.7515  135.7914  154.2356 N   0  0  0  0  0  0  0  0  0  0  0  0
  148.5056  135.2981  155.3925 C   0  0  1  0  0  0  0  0  0  0  0  0
  148.0897  133.8838  155.8492 C   0  0  0  0  0  0  0  0  0  0  0  0
  149.3260  133.0029  155.6659 C   0  0  0  0  0  0  0  0  0  0  0  0
  150.5069  133.9585  155.8237 C   0  0  0  0  0  0  0  0  0  0  0  0
  150.0408  135.2665  155.1654 C   0  0  2  0  0  0  0  0  0  0  0  0
  150.7583  136.5063  155.7200 C   0  0  0  0  0  0  0  0  0  0  0  0
  150.0020  137.4270  156.3227 N   0  0  0  0  0  0  0  0  0  0  0  0
  151.9764  136.6338  155.6085 O   0  0  0  0  0  0  0  0  0  0  0  0
  144.0689  135.4842  151.3363 C   0  0  0  0  0  0  0  0  0  0  0  0
  143.6115  134.5148  150.5141 N   0  3  0  0  0  0  0  0  0  0  0  0
  144.3234  131.5031  149.1994 H   0  0  0  0  0  0  0  0  0  0  0  0
  143.6466  132.8208  148.2355 H   0  0  0  0  0  0  0  0  0  0  0  0
  142.7226  132.1413  149.5825 H   0  0  0  0  0  0  0  0  0  0  0  0
  146.2487  132.4209  150.4357 H   0  0  0  0  0  0  0  0  0  0  0  0
  147.1637  134.1723  151.9561 H   0  0  0  0  0  0  0  0  0  0  0  0
  146.7063  137.0173  152.2966 H   0  0  0  0  0  0  0  0  0  0  0  0
  145.1196  137.2130  153.0131 H   0  0  0  0  0  0  0  0  0  0  0  0
  148.3096  136.1225  153.4620 H   0  0  0  0  0  0  0  0  0  0  0  0
  148.2592  135.9816  156.2068 H   0  0  0  0  0  0  0  0  0  0  0  0
  147.8249  133.9124  156.9069 H   0  0  0  0  0  0  0  0  0  0  0  0
  147.2239  133.4872  155.3179 H   0  0  0  0  0  0  0  0  0  0  0  0
  149.3591  132.1751  156.3746 H   0  0  0  0  0  0  0  0  0  0  0  0
  149.3309  132.5783  154.6614 H   0  0  0  0  0  0  0  0  0  0  0  0
  150.7162  134.1025  156.8849 H   0  0  0  0  0  0  0  0  0  0  0  0
  151.4117  133.5638  155.3602 H   0  0  0  0  0  0  0  0  0  0  0  0
  150.2575  135.1837  154.0993 H   0  0  0  0  0  0  0  0  0  0  0  0
  150.4281  138.2577  156.7074 H   0  0  0  0  0  0  0  0  0  0  0  0
  149.0048  137.2858  156.3951 H   0  0  0  0  0  0  0  0  0  0  0  0
  143.3890  136.3021  151.5262 H   0  0  0  0  0  0  0  0  0  0  0  0
  142.6710  134.6073  150.1293 H   0  0  0  0  0  0  0  0  0  0  0  0
  1  2  1  0  0  0  0
  1 20  1  0  0  0  0
  1 21  1  0  0  0  0
  1 22  1  0  0  0  0
  2 19  1  0  0  0  0
  2  3  2  0  0  0  0
  3  4  1  0  0  0  0
  3 23  1  0  0  0  0
  4  5  2  0  0  0  0
  4 24  1  0  0  0  0
  5  6  1  0  0  0  0
  5 18  1  0  0  0  0
  6  7  1  0  0  0  0
  6 25  1  0  0  0  0
  6 26  1  0  0  0  0
  7  8  2  0  0  0  0
  7  9  1  0  0  0  0
  9 10  1  0  0  0  0
  9 27  1  0  0  0  0
 10 14  1  0  0  0  0
 10 11  1  0  0  0  0
 10 28  1  0  0  0  0
 11 12  1  0  0  0  0
 11 29  1  0  0  0  0
 11 30  1  0  0  0  0
 12 13  1  0  0  0  0
 12 31  1  0  0  0  0
 12 32  1  0  0  0  0
 13 14  1  0  0  0  0
 13 33  1  0  0  0  0
 13 34  1  0  0  0  0
 14 15  1  0  0  0  0
 14 35  1  0  0  0  0
 15 16  1  0  0  0  0
 15 17  2  0  0  0  0
 16 36  1  0  0  0  0
 16 37  1  0  0  0  0
 18 19  2  0  0  0  0
 18 38  1  0  0  0  0
 19 39  1  0  0  0  0
M  CHG  1  19   1
M  END
> <s_m_source_file>
AV-unprocessed.smi

> <i_m_source_file_index>
651

> <i_lp_mmshare_version>
43012

> <i_f3d_flags>
0

> <s_epik_input>
W0NIM11jMVtjSF1bY0hdYyhbY0hdbjEpW0NIMl1DKD1PKVtOSF1bQ0BASF0yW0NIMl1bQ0gyXVtDSDJdW0NASF0yQyg9TylbTkgyXQ==

> <s_epik_cmdline>
J2VwaWtfcHl0aG9uJywgJy1waCcsICc3LjAnLCAnLXRuJywgJzgnLCAnLW1hJywgJzIwMCcsICctbWV0YWxfYmluZGluZycsICctaW1hZScsICc8aW5maWxlLm1hZT4nLCAnLW9tYWUnLCAnPG91dGZpbGUubWFlPic=

> <r_epik_Ionization_Penalty>
2.14971

> <r_epik_Ionization_Penalty_Charging>
2.14971

> <r_epik_Ionization_Penalty_Neutral>
1.65229e-07

> <r_epik_State_Penalty>
2.28946

> <r_epik_Charging_Adjusted_Penalty>
4.43917

> <i_epik_Tot_Q>
1

> <i_epik_Tot_abs_Q>
1

> <r_epik_Metal_State_Penalty>
2.30508

> <b_epik_Metal_Only>
0

> <s_lp_Force_Field>
OPLS_2005

> <r_lp_Energy>
21.472

> <b_lp_Chiralities_Consistent>
1

> <s_lp_Variant>
AV-unprocessed.smi:651-8

> <Gold.Version>
5.8.1

> <Gold.Id.Protein>
6NUR|6NUR_protein|mol2

> <Gold.PLP.Fitness>
38.9173

> <Gold.PLP.PLP>
-27.4671

> <Gold.PLP.part.hbond>
-3.0000

> <Gold.PLP.part.metal>
0.0000

> <Gold.PLP.part.buried>
-3.9975

> <Gold.PLP.part.nonpolar>
-21.3285

> <Gold.PLP.part.repulsive>
0.1208

> <Gold.PLP.ligand.clash>
0.0000

> <Gold.PLP.ligand.torsion>
0.2836

> <Gold.PLP.Chemscore.Hbond>
4.0000

> <Gold.PLP.Chemscore.CHOScore>
0.0000

> <Gold.PLP.Chemscore.Metal>
0.0000

> <Gold.Chemscore.Hbonds>
donor molecule, donor type, donor heavy atom, donor atom, acceptor molecule, acceptor atom, score
      L1  H     9    27       P1  7948  1.00
      L1  H    19    39       P1 10186  2.00
      P1  H 10752 10765       L1    17  1.00

> <Gold.PLP.Chemscore.Internal.Correction>
0.0175

> <Gold.Rescore>
     Score         DG    S(hbond)    S(metal)    S(lipo)     H(rot)  DE(clash)    DE(int)     intcor
     18.06     -18.59       2.92        0.00      73.21       2.04       0.15       0.38       ----

> <Gold.Chemscore.Fitness>
18.0567

> <Gold.Chemscore.DG>
-18.5886

> <Gold.Chemscore.ZeroCoef>
-5.4800

> <Gold.Chemscore.Hbond>
2.9228

> <Gold.Chemscore.Metal>
0.0000

> <Gold.Chemscore.Lipo>
73.2069

> <Gold.Chemscore.Internal_Hbond>
0.0000

> <Gold.Chemscore.DEClash>
0.1518

> <Gold.Chemscore.DEInternal>
0.3802

> <Gold.Chemscore.Rot>
2.0386

> <Gold.Chemscore.Internal.Correction>
   9.000000E+99

> <Gold.Chemscore.Hbonds>
donor molecule, donor type, donor heavy atom, donor atom, acceptor molecule, acceptor atom, score
      L1  H     9    27       P1  7948  0.99
      L1  H    19    39       P1 10186  0.60
      P1  H 10752 10765       L1    17  0.99

> <Gold.Chemscore.Hbond.Weighted>
-9.7622

> <Gold.Chemscore.Metal.Weighted>
-0.0000

> <Gold.Chemscore.Lipo.Weighted>
-8.5652

> <Gold.Chemscore.Internal_Hbond.Weighted>
0.0000

> <Gold.Chemscore.DEClash.Weighted>
0.1518

> <Gold.Chemscore.DEInternal.Weighted>
0.3802

> <Gold.Chemscore.Rot.Weighted>
5.2188

> <Gold.Chemscore.Internal.Correction.Weighted>
   9.000000E+99

> <Gold.Protein.RotatedTorsions>
[ 6907 6896 6895 6894 ] final  121.85 input  -60.11 | X-H torsion
[ 7974 7965 7964 7962 ] final  109.62 input  175.53 | X-H torsion
[ 8008 7997 7996 7995 ] final  117.49 input   59.86 | X-H torsion
[ 10167 10162 10161 10158 ] final  150.42 input  -65.29 | X-H torsion
[ 10718 10713 10712 10709 ] final -134.40 input   66.30 | X-H torsion
[ 10763 10752 10751 10750 ] final -167.64 input  -60.55 | X-H torsion
[ 11005 11000 10999 10996 ] final  115.56 input  -57.11 | X-H torsion

> <Gold.Protein.ActiveResidues>
 VAL166  LYS551  ARG553  GLY616  TRP617  ASP618  TYR619  PRO620  LYS621  CYS622 
 ASP623  PHE694  ASN695  SER759  ASP760  ASP761  ALA762  ILE779  LEU786  VAL792 
 PHE793  MET794  SER795  GLU796  ALA797  LYS798  CYS799  TRP800  GLU811  SER814 

> <Gold.Protein.RotatedAtoms>
  152.4289  133.7243  159.6550 H   0  0  0  0  0  0  0  0  0  0  0  0  # atno 6907 bound_to 6896
  150.8167  133.8314  159.3163 H   0  0  0  0  0  0  0  0  0  0  0  0  # atno 6908 bound_to 6896
  151.6008  135.1049  160.0111 H   0  0  0  0  0  0  0  0  0  0  0  0  # atno 6909 bound_to 6896
  145.2654  139.2686  143.3994 H   0  0  0  0  0  0  0  0  0  0  0  0  # atno 7974 bound_to 7965
  156.2497  140.2895  156.0687 H   0  0  0  0  0  0  0  0  0  0  0  0  # atno 8008 bound_to 7997
  155.1695  140.0401  157.2877 H   0  0  0  0  0  0  0  0  0  0  0  0  # atno 8009 bound_to 7997
  154.6336  140.2505  155.7412 H   0  0  0  0  0  0  0  0  0  0  0  0  # atno 8010 bound_to 7997
  139.4850  144.5523  151.7378 H   0  0  0  0  0  0  0  0  0  0  0  0  # atno 10167 bound_to 10162
  156.2550  130.7176  151.1089 H   0  0  0  0  0  0  0  0  0  0  0  0  # atno 10718 bound_to 10713
  154.6711  135.2939  154.9740 H   0  0  0  0  0  0  0  0  0  0  0  0  # atno 10763 bound_to 10752
  154.0767  135.6610  153.4836 H   0  0  0  0  0  0  0  0  0  0  0  0  # atno 10764 bound_to 10752
  153.0487  135.5187  154.7708 H   0  0  0  0  0  0  0  0  0  0  0  0  # atno 10765 bound_to 10752
  139.9014  134.9586  156.7064 H   0  0  0  0  0  0  0  0  0  0  0  0  # atno 11005 bound_to 11000
  146.3262  140.3082  142.8625 LP  0  0  0  0  0  0  0  0  0  0  0  0  # atno 17320 bound_to 7965
  144.9381  140.8049  143.5647 LP  0  0  0  0  0  0  0  0  0  0  0  0  # atno 17321 bound_to 7965
  140.5079  144.1069  150.5987 LP  0  0  0  0  0  0  0  0  0  0  0  0  # atno 17342 bound_to 10162
  140.3985  143.2716  151.9976 LP  0  0  0  0  0  0  0  0  0  0  0  0  # atno 17343 bound_to 10162
  157.7229  131.0669  150.6058 LP  0  0  0  0  0  0  0  0  0  0  0  0  # atno 17370 bound_to 10713
  156.6141  130.4388  149.5847 LP  0  0  0  0  0  0  0  0  0  0  0  0  # atno 17371 bound_to 10713
  140.7110  133.9223  155.8084 LP  0  0  0  0  0  0  0  0  0  0  0  0  # atno 17394 bound_to 11000
  141.0300  134.0769  157.4024 LP  0  0  0  0  0  0  0  0  0  0  0  0  # atno 17395 bound_to 11000

$$$$
