AV-unprocessed.smi:2155|AV-procd|sdf|8778|dock4
  -GOLD-   2272011553D 1   1.00000     0.00000
 Structure written by MMmdl.
 42 43  0  0  0  0  0  0  0  0  1 V2000
  154.1268  140.8013  160.2097 C   0  0  0  0  0  0  0  0  0  0  0  0
  153.3081  141.9029  160.6719 N   0  0  0  0  0  0  0  0  0  0  0  0
  153.4795  142.3808  161.9940 C   0  0  0  0  0  0  0  0  0  0  0  0
  154.3007  141.8978  162.7743 O   0  0  0  0  0  0  0  0  0  0  0  0
  152.6091  143.4951  162.3495 C   0  0  0  0  0  0  0  0  0  0  0  0
  151.7316  144.0032  161.4568 C   0  0  0  0  0  0  0  0  0  0  0  0
  151.5914  143.5236  160.1672 N   0  0  0  0  0  0  0  0  0  0  0  0
  150.6038  144.1343  159.2677 C   0  0  0  0  0  0  0  0  0  0  0  0
  149.4605  143.1836  158.8859 C   0  0  0  0  0  0  0  0  0  0  0  0
  148.4933  143.0224  159.6317 O   0  0  0  0  0  0  0  0  0  0  0  0
  149.5802  142.5706  157.7004 N   0  0  0  0  0  0  0  0  0  0  0  0
  148.6038  141.6370  157.1526 C   0  0  0  0  0  0  0  0  0  0  0  0
  148.8233  141.4111  155.6469 C   0  0  0  0  0  0  0  0  0  0  0  0
  150.0086  140.5113  155.3293 C   0  0  0  0  0  0  0  0  0  0  0  0
  149.8805  139.4006  154.5773 C   0  0  0  0  0  0  0  0  0  0  0  0
  151.0312  138.4787  154.2140 C   0  0  0  0  0  0  0  0  0  0  0  0
  152.4028  139.1146  154.4955 C   0  0  0  0  0  0  0  0  0  0  0  0
  152.4135  139.8297  155.8523 C   0  0  0  0  0  0  0  0  0  0  0  0
  151.3515  140.9423  155.9077 C   0  0  0  0  0  0  0  0  0  0  0  0
  152.3946  142.4445  159.7408 C   0  0  0  0  0  0  0  0  0  0  0  0
  152.2956  142.0002  158.5940 O   0  0  0  0  0  0  0  0  0  0  0  0
  154.6733  140.3431  161.0335 H   0  0  0  0  0  0  0  0  0  0  0  0
  154.8181  141.2070  159.4697 H   0  0  0  0  0  0  0  0  0  0  0  0
  153.4625  140.0557  159.7686 H   0  0  0  0  0  0  0  0  0  0  0  0
  152.6681  143.9193  163.3413 H   0  0  0  0  0  0  0  0  0  0  0  0
  151.1068  144.8268  161.7707 H   0  0  0  0  0  0  0  0  0  0  0  0
  150.1692  145.0164  159.7400 H   0  0  0  0  0  0  0  0  0  0  0  0
  151.0942  144.4976  158.3624 H   0  0  0  0  0  0  0  0  0  0  0  0
  150.4030  142.7549  157.1448 H   0  0  0  0  0  0  0  0  0  0  0  0
  148.6705  140.6904  157.6908 H   0  0  0  0  0  0  0  0  0  0  0  0
  147.5976  142.0238  157.3201 H   0  0  0  0  0  0  0  0  0  0  0  0
  147.9272  140.9729  155.2066 H   0  0  0  0  0  0  0  0  0  0  0  0
  148.9598  142.3761  155.1567 H   0  0  0  0  0  0  0  0  0  0  0  0
  148.9092  139.1159  154.1997 H   0  0  0  0  0  0  0  0  0  0  0  0
  150.9179  137.5584  154.7877 H   0  0  0  0  0  0  0  0  0  0  0  0
  150.9573  138.2079  153.1605 H   0  0  0  0  0  0  0  0  0  0  0  0
  153.1813  138.3518  154.4608 H   0  0  0  0  0  0  0  0  0  0  0  0
  152.6395  139.8343  153.7109 H   0  0  0  0  0  0  0  0  0  0  0  0
  152.2197  139.1019  156.6416 H   0  0  0  0  0  0  0  0  0  0  0  0
  153.4002  140.2476  156.0535 H   0  0  0  0  0  0  0  0  0  0  0  0
  151.6999  141.8106  155.3474 H   0  0  0  0  0  0  0  0  0  0  0  0
  151.2175  141.2653  156.9406 H   0  0  0  0  0  0  0  0  0  0  0  0
  1  2  1  0  0  0  0
  1 22  1  0  0  0  0
  1 23  1  0  0  0  0
  1 24  1  0  0  0  0
  2 20  1  0  0  0  0
  2  3  1  0  0  0  0
  3  4  2  0  0  0  0
  3  5  1  0  0  0  0
  5  6  2  0  0  0  0
  5 25  1  0  0  0  0
  6  7  1  0  0  0  0
  6 26  1  0  0  0  0
  7  8  1  0  0  0  0
  7 20  1  0  0  0  0
  8  9  1  0  0  0  0
  8 27  1  0  0  0  0
  8 28  1  0  0  0  0
  9 10  2  0  0  0  0
  9 11  1  0  0  0  0
 11 12  1  0  0  0  0
 11 29  1  0  0  0  0
 12 13  1  0  0  0  0
 12 30  1  0  0  0  0
 12 31  1  0  0  0  0
 13 14  1  0  0  0  0
 13 32  1  0  0  0  0
 13 33  1  0  0  0  0
 14 19  1  0  0  0  0
 14 15  2  0  0  0  0
 15 16  1  0  0  0  0
 15 34  1  0  0  0  0
 16 17  1  0  0  0  0
 16 35  1  0  0  0  0
 16 36  1  0  0  0  0
 17 18  1  0  0  0  0
 17 37  1  0  0  0  0
 17 38  1  0  0  0  0
 18 19  1  0  0  0  0
 18 39  1  0  0  0  0
 18 40  1  0  0  0  0
 19 41  1  0  0  0  0
 19 42  1  0  0  0  0
 20 21  2  0  0  0  0
M  END
> <s_m_source_file>
AV-unprocessed.smi

> <i_m_source_file_index>
2155

> <i_lp_mmshare_version>
43012

> <i_f3d_flags>
0

> <s_epik_input>
W0NIM11uMWMoPU8pW2NIXVtjSF1uKGMxPU8pW0NIMl1DKD1PKVtOSF1bQ0gyXVtDSDJdQzI9W0NIXVtDSDJdW0NIMl1bQ0gyXVtDSDJdMg==

> <s_epik_cmdline>
J2VwaWtfcHl0aG9uJywgJy1waCcsICc3LjAnLCAnLXRuJywgJzgnLCAnLW1hJywgJzIwMCcsICctbWV0YWxfYmluZGluZycsICctaW1hZScsICc8aW5maWxlLm1hZT4nLCAnLW9tYWUnLCAnPG91dGZpbGUubWFlPic=

> <r_lp_tautomer_probability>
1

> <r_epik_Ionization_Penalty>
3.01725e-08

> <r_epik_Ionization_Penalty_Charging>
1.20689e-08

> <r_epik_Ionization_Penalty_Neutral>
1.81035e-08

> <r_epik_State_Penalty>
-0

> <r_epik_Charging_Adjusted_Penalty>
1.20689e-08

> <i_epik_Tot_Q>
0

> <i_epik_Tot_abs_Q>
0

> <r_epik_Metal_State_Penalty>
-0

> <b_epik_Metal_Only>
0

> <s_lp_Force_Field>
OPLS_2005

> <r_lp_Energy>
16.2907

> <b_lp_Chiralities_Consistent>
1

> <s_lp_Variant>
AV-unprocessed.smi:2155-1

> <Gold.Version>
5.8.1

> <Gold.Id.Protein>
6NUR|6NUR_protein|mol2

> <Gold.PLP.Fitness>
50.9126

> <Gold.PLP.PLP>
-50.6578

> <Gold.PLP.part.hbond>
-3.0000

> <Gold.PLP.part.metal>
0.0000

> <Gold.PLP.part.buried>
-6.8036

> <Gold.PLP.part.nonpolar>
-42.1030

> <Gold.PLP.part.repulsive>
0.1782

> <Gold.PLP.ligand.clash>
0.0000

> <Gold.PLP.ligand.torsion>
0.5282

> <Gold.PLP.Chemscore.Hbond>
0.4155

> <Gold.PLP.Chemscore.CHOScore>
0.0000

> <Gold.PLP.Chemscore.Metal>
0.0000

> <Gold.Chemscore.Hbonds>
donor molecule, donor type, donor heavy atom, donor atom, acceptor molecule, acceptor atom, score
      P1  H  6933  6944       L1    10  0.51

> <Gold.PLP.Chemscore.Internal.Correction>
0.0647

> <Gold.Rescore>
     Score         DG    S(hbond)    S(metal)    S(lipo)     H(rot)  DE(clash)    DE(int)     intcor
     12.41     -13.12       0.58        0.00      91.30       1.94       0.15       0.57       ----

> <Gold.Chemscore.Fitness>
12.4059

> <Gold.Chemscore.DG>
-13.1219

> <Gold.Chemscore.ZeroCoef>
-5.4800

> <Gold.Chemscore.Hbond>
0.5759

> <Gold.Chemscore.Metal>
0.0000

> <Gold.Chemscore.Lipo>
91.3012

> <Gold.Chemscore.Internal_Hbond>
0.0000

> <Gold.Chemscore.DEClash>
0.1464

> <Gold.Chemscore.DEInternal>
0.5695

> <Gold.Chemscore.Rot>
1.9390

> <Gold.Chemscore.Internal.Correction>
   9.000000E+99

> <Gold.Chemscore.Hbonds>
donor molecule, donor type, donor heavy atom, donor atom, acceptor molecule, acceptor atom, score
      P1  H  6933  6944       L1    10  0.50

> <Gold.Chemscore.Hbond.Weighted>
-1.9236

> <Gold.Chemscore.Metal.Weighted>
-0.0000

> <Gold.Chemscore.Lipo.Weighted>
-10.6822

> <Gold.Chemscore.Internal_Hbond.Weighted>
0.0000

> <Gold.Chemscore.DEClash.Weighted>
0.1464

> <Gold.Chemscore.DEInternal.Weighted>
0.5695

> <Gold.Chemscore.Rot.Weighted>
4.9639

> <Gold.Chemscore.Internal.Correction.Weighted>
   9.000000E+99

> <Gold.Protein.RotatedTorsions>
[ 6907 6896 6895 6894 ] final  110.79 input  -60.11 | X-H torsion
[ 7974 7965 7964 7962 ] final -157.84 input  175.53 | X-H torsion
[ 8008 7997 7996 7995 ] final  -70.92 input   59.86 | X-H torsion
[ 10167 10162 10161 10158 ] final  147.95 input  -65.29 | X-H torsion
[ 10718 10713 10712 10709 ] final  104.51 input   66.30 | X-H torsion
[ 10763 10752 10751 10750 ] final  124.99 input  -60.55 | X-H torsion
[ 11005 11000 10999 10996 ] final   11.19 input  -57.11 | X-H torsion

> <Gold.Protein.ActiveResidues>
 VAL166  LYS551  ARG553  GLY616  TRP617  ASP618  TYR619  PRO620  LYS621  CYS622 
 ASP623  PHE694  ASN695  SER759  ASP760  ASP761  ALA762  ILE779  LEU786  VAL792 
 PHE793  MET794  SER795  GLU796  ALA797  LYS798  CYS799  TRP800  GLU811  SER814 

> <Gold.Protein.RotatedAtoms>
  152.5002  133.8750  159.7317 H   0  0  0  0  0  0  0  0  0  0  0  0  # atno 6907 bound_to 6896
  150.9227  133.6853  159.2835 H   0  0  0  0  0  0  0  0  0  0  0  0  # atno 6908 bound_to 6896
  151.4224  135.1004  159.9670 H   0  0  0  0  0  0  0  0  0  0  0  0  # atno 6909 bound_to 6896
  144.7531  140.3912  143.6033 H   0  0  0  0  0  0  0  0  0  0  0  0  # atno 7974 bound_to 7965
  154.5048  140.0825  156.7872 H   0  0  0  0  0  0  0  0  0  0  0  0  # atno 8008 bound_to 7997
  155.3919  140.3433  155.4233 H   0  0  0  0  0  0  0  0  0  0  0  0  # atno 8009 bound_to 7997
  156.1502  140.1556  156.8770 H   0  0  0  0  0  0  0  0  0  0  0  0  # atno 8010 bound_to 7997
  139.4882  144.5717  151.7043 H   0  0  0  0  0  0  0  0  0  0  0  0  # atno 10167 bound_to 10162
  157.6738  131.0805  150.5717 H   0  0  0  0  0  0  0  0  0  0  0  0  # atno 10718 bound_to 10713
  153.6701  135.3332  155.3151 H   0  0  0  0  0  0  0  0  0  0  0  0  # atno 10763 bound_to 10752
  154.8493  135.4384  154.1714 H   0  0  0  0  0  0  0  0  0  0  0  0  # atno 10764 bound_to 10752
  153.2703  135.6999  153.7563 H   0  0  0  0  0  0  0  0  0  0  0  0  # atno 10765 bound_to 10752
  140.5060  134.0698  155.7806 H   0  0  0  0  0  0  0  0  0  0  0  0  # atno 11005 bound_to 11000
  145.6874  139.1631  143.2666 LP  0  0  0  0  0  0  0  0  0  0  0  0  # atno 17320 bound_to 7965
  146.1507  140.6929  142.9323 LP  0  0  0  0  0  0  0  0  0  0  0  0  # atno 17321 bound_to 7965
  140.5305  144.0738  150.6052 LP  0  0  0  0  0  0  0  0  0  0  0  0  # atno 17342 bound_to 10162
  140.3726  143.2846  152.0261 LP  0  0  0  0  0  0  0  0  0  0  0  0  # atno 17343 bound_to 10162
  156.6018  130.4356  149.5894 LP  0  0  0  0  0  0  0  0  0  0  0  0  # atno 17370 bound_to 10713
  156.2500  130.6901  151.1636 LP  0  0  0  0  0  0  0  0  0  0  0  0  # atno 17371 bound_to 10713
  141.1410  133.9137  157.2325 LP  0  0  0  0  0  0  0  0  0  0  0  0  # atno 17394 bound_to 11000
  139.9686  135.0135  156.9452 LP  0  0  0  0  0  0  0  0  0  0  0  0  # atno 17395 bound_to 11000

$$$$
