AV-unprocessed.smi:3240|AV-procd|sdf|12384|dock8
  -GOLD-   2272018253D 1   1.00000     0.00000
 Structure written by MMmdl.
 43 44  0  0  0  0  0  0  0  0  1 V2000
  153.5889  137.3325  156.7835 C   0  0  0  0  0  0  0  0  0  0  0  0
  152.5968  138.1157  155.9731 C   0  0  0  0  0  0  0  0  0  0  0  0
  152.7637  138.6436  154.6613 C   0  0  0  0  0  0  0  0  0  0  0  0
  151.6942  139.2897  154.2269 N   0  0  0  0  0  0  0  0  0  0  0  0
  150.8113  139.2037  155.2447 N   0  0  0  0  0  0  0  0  0  0  0  0
  149.4991  139.8148  155.1216 C   0  0  0  0  0  0  0  0  0  0  0  0
  149.5604  141.3491  154.9677 C   0  0  1  0  0  0  0  0  0  0  0  0
  148.1600  141.9946  154.9078 C   0  0  0  0  0  0  0  0  0  0  0  0
  150.3717  141.9062  156.0545 N   0  0  0  0  0  0  0  0  0  0  0  0
  149.6568  142.1791  157.3052 C   0  0  0  0  0  0  0  0  0  0  0  0
  150.6122  142.5186  158.4716 C   0  0  0  0  0  0  0  0  0  0  0  0
  149.8008  142.8641  159.5797 O   0  0  0  0  0  0  0  0  0  0  0  0
  151.5435  141.3372  158.8466 C   0  0  0  0  0  0  0  0  0  0  0  0
  152.5918  141.7128  159.9100 C   0  0  0  0  0  0  0  0  0  0  0  0
  153.4130  142.9370  159.4829 C   0  0  0  0  0  0  0  0  0  0  0  0
  152.4974  144.1283  159.1714 C   0  0  0  0  0  0  0  0  0  0  0  0
  151.4522  143.7644  158.1017 C   0  0  0  0  0  0  0  0  0  0  0  0
  151.3283  138.4962  156.3090 C   0  0  0  0  0  0  0  0  0  0  0  0
  154.2171  136.7027  156.1535 H   0  0  0  0  0  0  0  0  0  0  0  0
  153.0974  136.6772  157.5028 H   0  0  0  0  0  0  0  0  0  0  0  0
  154.2529  137.9886  157.3467 H   0  0  0  0  0  0  0  0  0  0  0  0
  153.6264  138.5756  154.0150 H   0  0  0  0  0  0  0  0  0  0  0  0
  148.9789  139.3692  154.2714 H   0  0  0  0  0  0  0  0  0  0  0  0
  148.9239  139.5495  156.0098 H   0  0  0  0  0  0  0  0  0  0  0  0
  150.0605  141.5584  154.0213 H   0  0  0  0  0  0  0  0  0  0  0  0
  147.5570  141.5684  154.1061 H   0  0  0  0  0  0  0  0  0  0  0  0
  148.2102  143.0651  154.7136 H   0  0  0  0  0  0  0  0  0  0  0  0
  147.6174  141.8475  155.8422 H   0  0  0  0  0  0  0  0  0  0  0  0
  150.8289  142.7545  155.7356 H   0  0  0  0  0  0  0  0  0  0  0  0
  148.9756  143.0169  157.1509 H   0  0  0  0  0  0  0  0  0  0  0  0
  149.0376  141.3280  157.5880 H   0  0  0  0  0  0  0  0  0  0  0  0
  150.2289  142.5619  160.3665 H   0  0  0  0  0  0  0  0  0  0  0  0
  150.9636  140.4867  159.2065 H   0  0  0  0  0  0  0  0  0  0  0  0
  152.0620  140.9929  157.9508 H   0  0  0  0  0  0  0  0  0  0  0  0
  152.0964  141.9185  160.8596 H   0  0  0  0  0  0  0  0  0  0  0  0
  153.2561  140.8671  160.0888 H   0  0  0  0  0  0  0  0  0  0  0  0
  154.1180  143.2056  160.2703 H   0  0  0  0  0  0  0  0  0  0  0  0
  154.0086  142.6912  158.6029 H   0  0  0  0  0  0  0  0  0  0  0  0
  151.9962  144.4538  160.0837 H   0  0  0  0  0  0  0  0  0  0  0  0
  153.0944  144.9746  158.8313 H   0  0  0  0  0  0  0  0  0  0  0  0
  151.9719  143.5804  157.1603 H   0  0  0  0  0  0  0  0  0  0  0  0
  150.8004  144.6204  157.9214 H   0  0  0  0  0  0  0  0  0  0  0  0
  150.7569  138.3267  157.2094 H   0  0  0  0  0  0  0  0  0  0  0  0
  1  2  1  0  0  0  0
  1 19  1  0  0  0  0
  1 20  1  0  0  0  0
  1 21  1  0  0  0  0
  2 18  2  0  0  0  0
  2  3  1  0  0  0  0
  3  4  2  0  0  0  0
  3 22  1  0  0  0  0
  4  5  1  0  0  0  0
  5  6  1  0  0  0  0
  5 18  1  0  0  0  0
  6  7  1  0  0  0  0
  6 23  1  0  0  0  0
  6 24  1  0  0  0  0
  7  8  1  0  0  0  0
  7  9  1  0  0  0  0
  7 25  1  0  0  0  0
  8 26  1  0  0  0  0
  8 27  1  0  0  0  0
  8 28  1  0  0  0  0
  9 10  1  0  0  0  0
  9 29  1  0  0  0  0
 10 11  1  0  0  0  0
 10 30  1  0  0  0  0
 10 31  1  0  0  0  0
 11 17  1  0  0  0  0
 11 12  1  0  0  0  0
 11 13  1  0  0  0  0
 12 32  1  0  0  0  0
 13 14  1  0  0  0  0
 13 33  1  0  0  0  0
 13 34  1  0  0  0  0
 14 15  1  0  0  0  0
 14 35  1  0  0  0  0
 14 36  1  0  0  0  0
 15 16  1  0  0  0  0
 15 37  1  0  0  0  0
 15 38  1  0  0  0  0
 16 17  1  0  0  0  0
 16 39  1  0  0  0  0
 16 40  1  0  0  0  0
 17 41  1  0  0  0  0
 17 42  1  0  0  0  0
 18 43  1  0  0  0  0
M  END
> <s_m_source_file>
AV-unprocessed.smi

> <i_m_source_file_index>
3240

> <i_lp_mmshare_version>
43012

> <i_f3d_flags>
0

> <s_epik_input>
W0NIM11jMVtjSF1ubihbY0hdMSlbQ0gyXVtDQEhdKFtDSDNdKVtOSF1bQ0gyXUMyKFtPSF0pW0NIMl1bQ0gyXVtDSDJdW0NIMl1bQ0gyXTI=

> <s_epik_cmdline>
J2VwaWtfcHl0aG9uJywgJy1waCcsICc3LjAnLCAnLXRuJywgJzgnLCAnLW1hJywgJzIwMCcsICctbWV0YWxfYmluZGluZycsICctaW1hZScsICc8aW5maWxlLm1hZT4nLCAnLW9tYWUnLCAnPG91dGZpbGUubWFlPic=

> <r_lp_tautomer_probability>
1

> <r_epik_Ionization_Penalty>
2.35969

> <r_epik_Ionization_Penalty_Charging>
0

> <r_epik_Ionization_Penalty_Neutral>
2.35969

> <r_epik_State_Penalty>
2.51455

> <r_epik_Charging_Adjusted_Penalty>
2.51455

> <i_epik_Tot_Q>
0

> <i_epik_Tot_abs_Q>
0

> <r_epik_Metal_State_Penalty>
2.51446

> <b_epik_Metal_Only>
0

> <s_lp_Force_Field>
OPLS_2005

> <r_lp_Energy>
22.6589

> <b_lp_Chiralities_Consistent>
1

> <s_lp_Variant>
AV-unprocessed.smi:3240-4

> <Gold.Version>
5.8.1

> <Gold.Id.Protein>
6NUR|6NUR_protein|mol2

> <Gold.PLP.Fitness>
38.8694

> <Gold.PLP.PLP>
-36.4265

> <Gold.PLP.part.hbond>
-2.8117

> <Gold.PLP.part.metal>
0.0000

> <Gold.PLP.part.buried>
0.6758

> <Gold.PLP.part.nonpolar>
-34.3951

> <Gold.PLP.part.repulsive>
0.1157

> <Gold.PLP.ligand.clash>
0.0000

> <Gold.PLP.ligand.torsion>
0.3106

> <Gold.PLP.Chemscore.Hbond>
1.0000

> <Gold.PLP.Chemscore.CHOScore>
0.0000

> <Gold.PLP.Chemscore.Metal>
0.0000

> <Gold.Chemscore.Hbonds>
donor molecule, donor type, donor heavy atom, donor atom, acceptor molecule, acceptor atom, score
      P1  H  7989  7998       L1     4  0.99

> <Gold.PLP.Chemscore.Internal.Correction>
0.0640

> <Gold.Rescore>
     Score         DG    S(hbond)    S(metal)    S(lipo)     H(rot)  DE(clash)    DE(int)     intcor
     15.45     -16.66       0.96        0.00     112.99       2.04       0.86       0.34       ----

> <Gold.Chemscore.Fitness>
15.4532

> <Gold.Chemscore.DG>
-16.6588

> <Gold.Chemscore.ZeroCoef>
-5.4800

> <Gold.Chemscore.Hbond>
0.9561

> <Gold.Chemscore.Metal>
0.0000

> <Gold.Chemscore.Lipo>
112.9902

> <Gold.Chemscore.Internal_Hbond>
0.0000

> <Gold.Chemscore.DEClash>
0.8625

> <Gold.Chemscore.DEInternal>
0.3431

> <Gold.Chemscore.Rot>
2.0447

> <Gold.Chemscore.Internal.Correction>
   9.000000E+99

> <Gold.Chemscore.Hbonds>
donor molecule, donor type, donor heavy atom, donor atom, acceptor molecule, acceptor atom, score
      P1  H  7989  7998       L1     4  0.77

> <Gold.Chemscore.Hbond.Weighted>
-3.1933

> <Gold.Chemscore.Metal.Weighted>
-0.0000

> <Gold.Chemscore.Lipo.Weighted>
-13.2198

> <Gold.Chemscore.Internal_Hbond.Weighted>
0.0000

> <Gold.Chemscore.DEClash.Weighted>
0.8625

> <Gold.Chemscore.DEInternal.Weighted>
0.3431

> <Gold.Chemscore.Rot.Weighted>
5.2344

> <Gold.Chemscore.Internal.Correction.Weighted>
   9.000000E+99

> <Gold.Protein.RotatedTorsions>
[ 6907 6896 6895 6894 ] final  -39.35 input  -60.11 | X-H torsion
[ 7974 7965 7964 7962 ] final  -23.76 input  175.53 | X-H torsion
[ 8008 7997 7996 7995 ] final   -3.44 input   59.86 | X-H torsion
[ 10167 10162 10161 10158 ] final   27.55 input  -65.29 | X-H torsion
[ 10718 10713 10712 10709 ] final  -15.02 input   66.30 | X-H torsion
[ 10763 10752 10751 10750 ] final  117.30 input  -60.55 | X-H torsion
[ 11005 11000 10999 10996 ] final   42.97 input  -57.11 | X-H torsion

> <Gold.Protein.ActiveResidues>
 VAL166  LYS551  ARG553  GLY616  TRP617  ASP618  TYR619  PRO620  LYS621  CYS622 
 ASP623  PHE694  ASN695  SER759  ASP760  ASP761  ALA762  ILE779  LEU786  VAL792 
 PHE793  MET794  SER795  GLU796  ALA797  LYS798  CYS799  TRP800  GLU811  SER814 

> <Gold.Protein.RotatedAtoms>
  150.9914  134.9247  159.7901 H   0  0  0  0  0  0  0  0  0  0  0  0  # atno 6907 bound_to 6896
  152.5252  134.3277  159.9181 H   0  0  0  0  0  0  0  0  0  0  0  0  # atno 6908 bound_to 6896
  151.3283  133.3970  159.2695 H   0  0  0  0  0  0  0  0  0  0  0  0  # atno 6909 bound_to 6896
  146.1597  140.4659  142.8577 H   0  0  0  0  0  0  0  0  0  0  0  0  # atno 7974 bound_to 7965
  154.6249  140.2509  155.7504 H   0  0  0  0  0  0  0  0  0  0  0  0  # atno 8008 bound_to 7997
  156.2447  140.2919  156.0493 H   0  0  0  0  0  0  0  0  0  0  0  0  # atno 8009 bound_to 7997
  155.1838  140.0389  157.2877 H   0  0  0  0  0  0  0  0  0  0  0  0  # atno 8010 bound_to 7997
  140.4928  144.0439  150.6303 H   0  0  0  0  0  0  0  0  0  0  0  0  # atno 10167 bound_to 10162
  156.6076  130.4841  149.6214 H   0  0  0  0  0  0  0  0  0  0  0  0  # atno 10718 bound_to 10713
  153.5503  135.3541  155.2756 H   0  0  0  0  0  0  0  0  0  0  0  0  # atno 10763 bound_to 10752
  154.8707  135.4112  154.2944 H   0  0  0  0  0  0  0  0  0  0  0  0  # atno 10764 bound_to 10752
  153.3669  135.7062  153.6736 H   0  0  0  0  0  0  0  0  0  0  0  0  # atno 10765 bound_to 10752
  140.1689  134.4247  155.8270 H   0  0  0  0  0  0  0  0  0  0  0  0  # atno 11005 bound_to 11000
  144.8010  140.6212  143.6478 LP  0  0  0  0  0  0  0  0  0  0  0  0  # atno 17320 bound_to 7965
  145.4620  139.1512  143.3861 LP  0  0  0  0  0  0  0  0  0  0  0  0  # atno 17321 bound_to 7965
  140.3713  143.2853  152.0275 LP  0  0  0  0  0  0  0  0  0  0  0  0  # atno 17342 bound_to 10162
  139.4855  144.6228  151.7223 LP  0  0  0  0  0  0  0  0  0  0  0  0  # atno 17343 bound_to 10162
  156.2416  130.6855  151.1561 LP  0  0  0  0  0  0  0  0  0  0  0  0  # atno 17370 bound_to 10713
  157.7263  131.0647  150.5916 LP  0  0  0  0  0  0  0  0  0  0  0  0  # atno 17371 bound_to 10713
  141.2216  133.6947  156.7728 LP  0  0  0  0  0  0  0  0  0  0  0  0  # atno 17394 bound_to 11000
  140.2401  134.8620  157.3564 LP  0  0  0  0  0  0  0  0  0  0  0  0  # atno 17395 bound_to 11000

$$$$
