AV-unprocessed.smi:200|AV-procd|sdf|1579|dock3
  -GOLD-   2262019463D 1   1.00000     0.00000
 Structure written by MMmdl.
 56 59  0  0  0  0  0  0  0  0  1 V2000
  151.2525  137.9336  154.1328 C   0  0  0  0  0  0  0  0  0  0  0  0
  151.8649  136.9712  154.9725 O   0  0  0  0  0  0  0  0  0  0  0  0
  151.4493  137.0850  156.3232 C   0  0  0  0  0  0  0  0  0  0  0  0
  151.7628  138.5054  156.8256 C   0  0  0  0  0  0  0  0  0  0  0  0
  151.1416  138.8225  158.1168 N   0  0  0  0  0  0  0  0  0  0  0  0
  149.8145  138.5784  158.2265 C   0  0  0  0  0  0  0  0  0  0  0  0
  148.9732  139.4545  157.6234 N   0  0  0  0  0  0  0  0  0  0  0  0
  147.6517  139.2729  157.6986 C   0  0  0  0  0  0  0  0  0  0  0  0
  146.9768  138.2954  158.3070 N   0  0  0  0  0  0  0  0  0  0  0  0
  147.8199  137.4030  158.9004 C   0  0  0  0  0  0  0  0  0  0  0  0
  149.2422  137.4685  158.9114 C   0  0  0  0  0  0  0  0  0  0  0  0
  149.7594  136.3849  159.6108 N   0  0  0  0  0  0  0  0  0  0  0  0
  148.7047  135.7211  159.9963 C   0  0  0  0  0  0  0  0  0  0  0  0
  147.4980  136.2559  159.6049 N   0  0  0  0  0  0  0  0  0  0  0  0
  146.1782  135.7159  159.8945 C   0  0  0  0  0  0  0  0  0  0  0  0
  145.8665  135.5710  161.3991 C   0  0  0  0  0  0  0  0  0  0  0  0
  145.8352  136.9455  162.0916 C   0  0  0  0  0  0  0  0  0  0  0  0
  147.1190  137.5357  162.1289 O   0  0  0  0  0  0  0  0  0  0  0  0
  144.6900  134.6489  161.7480 C   0  0  0  0  0  0  0  0  0  0  0  0
  145.4787  133.9118  162.7057 O   0  0  0  0  0  0  0  0  0  0  0  0
  146.6730  134.5032  162.1529 C   0  0  0  0  0  0  0  0  0  0  0  0
  151.5459  140.0207  158.8600 C   0  0  1  0  0  0  0  0  0  0  0  0
  152.9913  140.0191  159.3642 C   0  0  0  0  0  0  0  0  0  0  0  0
  153.2148  141.4828  159.7372 C   0  0  0  0  0  0  0  0  0  0  0  0
  152.4866  142.2811  158.6435 C   0  0  2  0  0  0  0  0  0  0  0  0
  151.9612  143.6389  159.1285 C   0  0  0  0  0  0  0  0  0  0  0  0
  151.3867  141.3485  158.0990 C   0  0  0  0  0  0  0  0  0  0  0  0
  151.6102  137.8084  153.1109 H   0  0  0  0  0  0  0  0  0  0  0  0
  151.4942  138.9480  154.4529 H   0  0  0  0  0  0  0  0  0  0  0  0
  150.1681  137.8166  154.1266 H   0  0  0  0  0  0  0  0  0  0  0  0
  150.3736  136.9137  156.3822 H   0  0  0  0  0  0  0  0  0  0  0  0
  151.9247  136.3236  156.9431 H   0  0  0  0  0  0  0  0  0  0  0  0
  152.8435  138.6116  156.8971 H   0  0  0  0  0  0  0  0  0  0  0  0
  151.4442  139.2300  156.0780 H   0  0  0  0  0  0  0  0  0  0  0  0
  147.0487  140.0170  157.1994 H   0  0  0  0  0  0  0  0  0  0  0  0
  148.7785  134.8105  160.5732 H   0  0  0  0  0  0  0  0  0  0  0  0
  145.4374  136.3574  159.4156 H   0  0  0  0  0  0  0  0  0  0  0  0
  146.0954  134.7522  159.3907 H   0  0  0  0  0  0  0  0  0  0  0  0
  145.1719  137.6270  161.5578 H   0  0  0  0  0  0  0  0  0  0  0  0
  145.4409  136.8782  163.1057 H   0  0  0  0  0  0  0  0  0  0  0  0
  147.4147  137.5533  163.0265 H   0  0  0  0  0  0  0  0  0  0  0  0
  143.8420  135.1596  162.2058 H   0  0  0  0  0  0  0  0  0  0  0  0
  144.3627  134.0165  160.9210 H   0  0  0  0  0  0  0  0  0  0  0  0
  147.2015  133.8006  161.5072 H   0  0  0  0  0  0  0  0  0  0  0  0
  147.3389  134.9048  162.9174 H   0  0  0  0  0  0  0  0  0  0  0  0
  150.9212  140.0912  159.7529 H   0  0  0  0  0  0  0  0  0  0  0  0
  153.1396  139.3436  160.2070 H   0  0  0  0  0  0  0  0  0  0  0  0
  153.6963  139.7406  158.5821 H   0  0  0  0  0  0  0  0  0  0  0  0
  152.7648  141.6785  160.7117 H   0  0  0  0  0  0  0  0  0  0  0  0
  154.2725  141.7393  159.8061 H   0  0  0  0  0  0  0  0  0  0  0  0
  153.1970  142.4601  157.8350 H   0  0  0  0  0  0  0  0  0  0  0  0
  151.2377  143.5189  159.9353 H   0  0  0  0  0  0  0  0  0  0  0  0
  151.4712  144.1800  158.3186 H   0  0  0  0  0  0  0  0  0  0  0  0
  152.7750  144.2627  159.4994 H   0  0  0  0  0  0  0  0  0  0  0  0
  151.5283  141.2207  157.0259 H   0  0  0  0  0  0  0  0  0  0  0  0
  150.3842  141.7543  158.2403 H   0  0  0  0  0  0  0  0  0  0  0  0
  1  2  1  0  0  0  0
  1 28  1  0  0  0  0
  1 29  1  0  0  0  0
  1 30  1  0  0  0  0
  2  3  1  0  0  0  0
  3  4  1  0  0  0  0
  3 31  1  0  0  0  0
  3 32  1  0  0  0  0
  4  5  1  0  0  0  0
  4 33  1  0  0  0  0
  4 34  1  0  0  0  0
  5  6  1  0  0  0  0
  5 22  1  0  0  0  0
  6 11  1  0  0  0  0
  6  7  2  0  0  0  0
  7  8  1  0  0  0  0
  8  9  2  0  0  0  0
  8 35  1  0  0  0  0
  9 10  1  0  0  0  0
 10 14  1  0  0  0  0
 10 11  2  0  0  0  0
 11 12  1  0  0  0  0
 12 13  2  0  0  0  0
 13 14  1  0  0  0  0
 13 36  1  0  0  0  0
 14 15  1  0  0  0  0
 15 16  1  0  0  0  0
 15 37  1  0  0  0  0
 15 38  1  0  0  0  0
 16 21  1  0  0  0  0
 16 17  1  0  0  0  0
 16 19  1  0  0  0  0
 17 18  1  0  0  0  0
 17 39  1  0  0  0  0
 17 40  1  0  0  0  0
 18 41  1  0  0  0  0
 19 20  1  0  0  0  0
 19 42  1  0  0  0  0
 19 43  1  0  0  0  0
 20 21  1  0  0  0  0
 21 44  1  0  0  0  0
 21 45  1  0  0  0  0
 22 27  1  0  0  0  0
 22 23  1  0  0  0  0
 22 46  1  0  0  0  0
 23 24  1  0  0  0  0
 23 47  1  0  0  0  0
 23 48  1  0  0  0  0
 24 25  1  0  0  0  0
 24 49  1  0  0  0  0
 24 50  1  0  0  0  0
 25 26  1  0  0  0  0
 25 27  1  0  0  0  0
 25 51  1  0  0  0  0
 26 52  1  0  0  0  0
 26 53  1  0  0  0  0
 26 54  1  0  0  0  0
 27 55  1  0  0  0  0
 27 56  1  0  0  0  0
M  END
> <s_m_source_file>
AV-unprocessed.smi

> <i_m_source_file_index>
200

> <i_lp_mmshare_version>
43012

> <i_f3d_flags>
0

> <s_epik_input>
W0NIM11bQ0BASF0oW0NIMl0xKVtDSDJdW0NIMl1bQ0BIXTFOKFtDSDJdW0NIMl1PW0NIM10pYyhuW2NIXW4yKWMoYzIzKW5bY0hdbjNbQ0gyXUM0KFtDSDJdW09IXSlbQ0gyXU9bQ0gyXTQ=

> <s_epik_cmdline>
J2VwaWtfcHl0aG9uJywgJy1waCcsICc3LjAnLCAnLXRuJywgJzgnLCAnLW1hJywgJzIwMCcsICctbWV0YWxfYmluZGluZycsICctaW1hZScsICc8aW5maWxlLm1hZT4nLCAnLW9tYWUnLCAnPG91dGZpbGUubWFlPic=

> <r_lp_tautomer_probability>
1

> <r_epik_Ionization_Penalty>
0.00363087

> <r_epik_Ionization_Penalty_Charging>
0

> <r_epik_Ionization_Penalty_Neutral>
0.00363087

> <r_epik_State_Penalty>
0.0024341

> <r_epik_Charging_Adjusted_Penalty>
0.0024341

> <i_epik_Tot_Q>
0

> <i_epik_Tot_abs_Q>
0

> <r_epik_Metal_State_Penalty>
-0

> <b_epik_Metal_Only>
0

> <s_lp_Force_Field>
OPLS_2005

> <r_lp_Energy>
49.9898

> <b_lp_Chiralities_Consistent>
1

> <s_lp_Variant>
AV-unprocessed.smi:200-4

> <Gold.Version>
5.8.1

> <Gold.Id.Protein>
6NUR|6NUR_protein|mol2

> <Gold.PLP.Fitness>
47.7162

> <Gold.PLP.PLP>
-40.2537

> <Gold.PLP.part.hbond>
-4.6802

> <Gold.PLP.part.metal>
0.0000

> <Gold.PLP.part.buried>
-6.3868

> <Gold.PLP.part.nonpolar>
-28.7994

> <Gold.PLP.part.repulsive>
0.1663

> <Gold.PLP.ligand.clash>
0.0000

> <Gold.PLP.ligand.torsion>
0.9147

> <Gold.PLP.Chemscore.Hbond>
2.6400

> <Gold.PLP.Chemscore.CHOScore>
0.0000

> <Gold.PLP.Chemscore.Metal>
0.0000

> <Gold.Chemscore.Hbonds>
donor molecule, donor type, donor heavy atom, donor atom, acceptor molecule, acceptor atom, score
      P1  H  6896  6907       L1    12  0.95
      P1  H  6934  6947       L1    18  0.64
      P1  H 10752 10765       L1     2  1.00

> <Gold.PLP.Chemscore.Internal.Correction>
1.3720

> <Gold.Rescore>
     Score         DG    S(hbond)    S(metal)    S(lipo)     H(rot)  DE(clash)    DE(int)     intcor
     13.87     -16.31       2.47        0.00      93.76       3.28       0.01       2.43       ----

> <Gold.Chemscore.Fitness>
13.8714

> <Gold.Chemscore.DG>
-16.3139

> <Gold.Chemscore.ZeroCoef>
-5.4800

> <Gold.Chemscore.Hbond>
2.4702

> <Gold.Chemscore.Metal>
0.0000

> <Gold.Chemscore.Lipo>
93.7639

> <Gold.Chemscore.Internal_Hbond>
0.0000

> <Gold.Chemscore.DEClash>
0.0089

> <Gold.Chemscore.DEInternal>
2.4337

> <Gold.Chemscore.Rot>
3.2761

> <Gold.Chemscore.Internal.Correction>
   9.000000E+99

> <Gold.Chemscore.Hbonds>
donor molecule, donor type, donor heavy atom, donor atom, acceptor molecule, acceptor atom, score
      P1  H  6896  6907       L1    12  0.22
      P1  H  6934  6947       L1    18  0.47
      P1  H 10752 10765       L1     2  0.93

> <Gold.Chemscore.Hbond.Weighted>
-8.2504

> <Gold.Chemscore.Metal.Weighted>
-0.0000

> <Gold.Chemscore.Lipo.Weighted>
-10.9704

> <Gold.Chemscore.Internal_Hbond.Weighted>
0.0000

> <Gold.Chemscore.DEClash.Weighted>
0.0089

> <Gold.Chemscore.DEInternal.Weighted>
2.4337

> <Gold.Chemscore.Rot.Weighted>
8.3868

> <Gold.Chemscore.Internal.Correction.Weighted>
   9.000000E+99

> <Gold.Protein.RotatedTorsions>
[ 6907 6896 6895 6894 ] final  -31.74 input  -60.11 | X-H torsion
[ 7974 7965 7964 7962 ] final  -59.58 input  175.53 | X-H torsion
[ 8008 7997 7996 7995 ] final -118.76 input   59.86 | X-H torsion
[ 10167 10162 10161 10158 ] final  -95.71 input  -65.29 | X-H torsion
[ 10718 10713 10712 10709 ] final    8.80 input   66.30 | X-H torsion
[ 10763 10752 10751 10750 ] final  176.58 input  -60.55 | X-H torsion
[ 11005 11000 10999 10996 ] final -127.52 input  -57.11 | X-H torsion

> <Gold.Protein.ActiveResidues>
 VAL166  LYS551  ARG553  GLY616  TRP617  ASP618  TYR619  PRO620  LYS621  CYS622 
 ASP623  PHE694  ASN695  SER759  ASP760  ASP761  ALA762  ILE779  LEU786  VAL792 
 PHE793  MET794  SER795  GLU796  ALA797  LYS798  CYS799  TRP800  GLU811  SER814 

> <Gold.Protein.RotatedAtoms>
  151.0880  134.9899  159.8388 H   0  0  0  0  0  0  0  0  0  0  0  0  # atno 6907 bound_to 6896
  152.5426  134.2100  159.8756 H   0  0  0  0  0  0  0  0  0  0  0  0  # atno 6908 bound_to 6896
  151.2134  133.4499  159.2632 H   0  0  0  0  0  0  0  0  0  0  0  0  # atno 6909 bound_to 6896
  145.8258  140.8511  143.0109 H   0  0  0  0  0  0  0  0  0  0  0  0  # atno 7974 bound_to 7965
  155.1048  140.0396  157.2707 H   0  0  0  0  0  0  0  0  0  0  0  0  # atno 8008 bound_to 7997
  154.6730  140.2616  155.6962 H   0  0  0  0  0  0  0  0  0  0  0  0  # atno 8009 bound_to 7997
  156.2665  140.2794  156.1246 H   0  0  0  0  0  0  0  0  0  0  0  0  # atno 8010 bound_to 7997
  140.3013  143.3160  152.0245 H   0  0  0  0  0  0  0  0  0  0  0  0  # atno 10167 bound_to 10162
  156.9569  130.5918  149.5660 H   0  0  0  0  0  0  0  0  0  0  0  0  # atno 10718 bound_to 10713
  154.4830  135.2775  155.1556 H   0  0  0  0  0  0  0  0  0  0  0  0  # atno 10763 bound_to 10752
  154.3258  135.6200  153.5532 H   0  0  0  0  0  0  0  0  0  0  0  0  # atno 10764 bound_to 10752
  152.9878  135.5753  154.5235 H   0  0  0  0  0  0  0  0  0  0  0  0  # atno 10765 bound_to 10752
  140.9592  134.0959  157.3985 H   0  0  0  0  0  0  0  0  0  0  0  0  # atno 11005 bound_to 11000
  144.6744  140.0600  143.7476 LP  0  0  0  0  0  0  0  0  0  0  0  0  # atno 17320 bound_to 7965
  145.9625  139.2811  143.1147 LP  0  0  0  0  0  0  0  0  0  0  0  0  # atno 17321 bound_to 7965
  139.4914  144.6453  151.6791 LP  0  0  0  0  0  0  0  0  0  0  0  0  # atno 17342 bound_to 10162
  140.5648  144.0208  150.6187 LP  0  0  0  0  0  0  0  0  0  0  0  0  # atno 17343 bound_to 10162
  156.0338  130.5428  150.8603 LP  0  0  0  0  0  0  0  0  0  0  0  0  # atno 17370 bound_to 10713
  157.5684  131.0946  150.9455 LP  0  0  0  0  0  0  0  0  0  0  0  0  # atno 17371 bound_to 10713
  139.8872  135.0088  156.6548 LP  0  0  0  0  0  0  0  0  0  0  0  0  # atno 17394 bound_to 11000
  140.7492  133.8912  155.8334 LP  0  0  0  0  0  0  0  0  0  0  0  0  # atno 17395 bound_to 11000

$$$$
