AV-unprocessed.smi:1603|AV-procd|sdf|6445|dock9
  -GOLD-   22720 7 93D 1   1.00000     0.00000
 Structure written by MMmdl.
 44 46  0  0  0  0  0  0  0  0  1 V2000
  153.0479  139.4981  158.1023 O   0  0  0  0  0  0  0  0  0  0  0  0
  152.7871  140.5833  158.6227 C   0  0  0  0  0  0  0  0  0  0  0  0
  153.3420  141.0134  159.9153 C   0  0  0  0  0  0  0  0  0  0  0  0
  154.3084  140.0710  160.6279 C   0  0  0  0  0  0  0  0  0  0  0  0
  154.5653  140.4755  161.8727 F   0  0  0  0  0  0  0  0  0  0  0  0
  153.7975  138.8411  160.6951 F   0  0  0  0  0  0  0  0  0  0  0  0
  155.4687  140.0053  159.9733 F   0  0  0  0  0  0  0  0  0  0  0  0
  153.0011  142.2179  160.4347 C   0  0  0  0  0  0  0  0  0  0  0  0
  152.0843  143.0868  159.7256 C   0  0  0  0  0  0  0  0  0  0  0  0
  151.6473  144.4244  160.2507 C   0  0  0  0  0  0  0  0  0  0  0  0
  150.1906  144.7777  160.4473 C   0  0  0  0  0  0  0  0  0  0  0  0
  150.9919  145.4510  159.3567 C   0  0  0  0  0  0  0  0  0  0  0  0
  151.6075  142.7119  158.5867 N   0  0  0  0  0  0  0  0  0  0  0  0
  151.9554  141.4941  158.0347 N   0  0  0  0  0  0  0  0  0  0  0  0
  151.3306  141.2421  156.7280 C   0  0  0  0  0  0  0  0  0  0  0  0
  149.8030  141.0361  156.8341 C   0  0  2  0  0  0  0  0  0  0  0  0
  149.5929  139.7602  157.4059 O   0  0  0  0  0  0  0  0  0  0  0  0
  149.0690  141.1023  155.4752 C   0  0  0  0  0  0  0  0  0  0  0  0
  147.9392  142.0293  155.4239 N   0  0  0  0  0  0  0  0  0  0  0  0
  147.3797  142.0978  154.0782 C   0  0  0  0  0  0  0  0  0  0  0  0
  146.1894  143.0693  153.9992 C   0  0  0  0  0  0  0  0  0  0  0  0
  145.1934  142.6779  154.9383 O   0  0  0  0  0  0  0  0  0  0  0  0
  145.6840  142.6402  156.2746 C   0  0  0  0  0  0  0  0  0  0  0  0
  146.8774  141.6727  156.3621 C   0  0  0  0  0  0  0  0  0  0  0  0
  153.4025  142.5528  161.3795 H   0  0  0  0  0  0  0  0  0  0  0  0
  152.3480  144.7925  160.9980 H   0  0  0  0  0  0  0  0  0  0  0  0
  149.4367  144.0569  160.1362 H   0  0  0  0  0  0  0  0  0  0  0  0
  149.9326  145.3727  161.3211 H   0  0  0  0  0  0  0  0  0  0  0  0
  151.2678  146.4931  159.5045 H   0  0  0  0  0  0  0  0  0  0  0  0
  150.7725  145.1682  158.3287 H   0  0  0  0  0  0  0  0  0  0  0  0
  151.5544  142.0257  156.0024 H   0  0  0  0  0  0  0  0  0  0  0  0
  151.7874  140.3403  156.3153 H   0  0  0  0  0  0  0  0  0  0  0  0
  149.3914  141.7789  157.5193 H   0  0  0  0  0  0  0  0  0  0  0  0
  149.8784  139.1043  156.7885 H   0  0  0  0  0  0  0  0  0  0  0  0
  149.7842  141.4274  154.7216 H   0  0  0  0  0  0  0  0  0  0  0  0
  148.7602  140.1047  155.1582 H   0  0  0  0  0  0  0  0  0  0  0  0
  148.1484  142.4143  153.3724 H   0  0  0  0  0  0  0  0  0  0  0  0
  147.0549  141.1054  153.7615 H   0  0  0  0  0  0  0  0  0  0  0  0
  146.5109  144.0919  154.2026 H   0  0  0  0  0  0  0  0  0  0  0  0
  145.7585  143.0610  152.9982 H   0  0  0  0  0  0  0  0  0  0  0  0
  145.9765  143.6432  156.5895 H   0  0  0  0  0  0  0  0  0  0  0  0
  144.8836  142.3162  156.9398 H   0  0  0  0  0  0  0  0  0  0  0  0
  146.5345  140.6561  156.1636 H   0  0  0  0  0  0  0  0  0  0  0  0
  147.2585  141.6803  157.3830 H   0  0  0  0  0  0  0  0  0  0  0  0
  1  2  2  0  0  0  0
  2 14  1  0  0  0  0
  2  3  1  0  0  0  0
  3  4  1  0  0  0  0
  3  8  2  0  0  0  0
  4  5  1  0  0  0  0
  4  6  1  0  0  0  0
  4  7  1  0  0  0  0
  8  9  1  0  0  0  0
  8 25  1  0  0  0  0
  9 10  1  0  0  0  0
  9 13  2  0  0  0  0
 10 12  1  0  0  0  0
 10 11  1  0  0  0  0
 10 26  1  0  0  0  0
 11 12  1  0  0  0  0
 11 27  1  0  0  0  0
 11 28  1  0  0  0  0
 12 29  1  0  0  0  0
 12 30  1  0  0  0  0
 13 14  1  0  0  0  0
 14 15  1  0  0  0  0
 15 16  1  0  0  0  0
 15 31  1  0  0  0  0
 15 32  1  0  0  0  0
 16 17  1  0  0  0  0
 16 18  1  0  0  0  0
 16 33  1  0  0  0  0
 17 34  1  0  0  0  0
 18 19  1  0  0  0  0
 18 35  1  0  0  0  0
 18 36  1  0  0  0  0
 19 24  1  0  0  0  0
 19 20  1  0  0  0  0
 20 21  1  0  0  0  0
 20 37  1  0  0  0  0
 20 38  1  0  0  0  0
 21 22  1  0  0  0  0
 21 39  1  0  0  0  0
 21 40  1  0  0  0  0
 22 23  1  0  0  0  0
 23 24  1  0  0  0  0
 23 41  1  0  0  0  0
 23 42  1  0  0  0  0
 24 43  1  0  0  0  0
 24 44  1  0  0  0  0
M  END
> <s_m_source_file>
AV-unprocessed.smi

> <i_m_source_file_index>
1603

> <i_lp_mmshare_version>
43012

> <i_f3d_flags>
0

> <s_epik_input>
Tz1jMWMoQyhGKShGKUYpW2NIXWMoW0NIXTJbQ0gyXVtDSDJdMilubjFbQ0gyXVtDQEhdKFtPSF0pW0NIMl1OM1tDSDJdW0NIMl1PW0NIMl1bQ0gyXTM=

> <s_epik_cmdline>
J2VwaWtfcHl0aG9uJywgJy1waCcsICc3LjAnLCAnLXRuJywgJzgnLCAnLW1hJywgJzIwMCcsICctbWV0YWxfYmluZGluZycsICctaW1hZScsICc8aW5maWxlLm1hZT4nLCAnLW9tYWUnLCAnPG91dGZpbGUubWFlPic=

> <r_lp_tautomer_probability>
1

> <r_epik_Ionization_Penalty>
0.450313

> <r_epik_Ionization_Penalty_Charging>
7.22079e-10

> <r_epik_Ionization_Penalty_Neutral>
0.450313

> <r_epik_State_Penalty>
0.45306

> <r_epik_Charging_Adjusted_Penalty>
0.45306

> <i_epik_Tot_Q>
0

> <i_epik_Tot_abs_Q>
0

> <r_epik_Metal_State_Penalty>
0.45306

> <b_epik_Metal_Only>
0

> <s_lp_Force_Field>
OPLS_2005

> <r_lp_Energy>
49.46

> <b_lp_Chiralities_Consistent>
1

> <s_lp_Variant>
AV-unprocessed.smi:1603-3

> <Gold.Version>
5.8.1

> <Gold.Id.Protein>
6NUR|6NUR_protein|mol2

> <Gold.PLP.Fitness>
47.0006

> <Gold.PLP.PLP>
-46.2306

> <Gold.PLP.part.hbond>
-1.0000

> <Gold.PLP.part.metal>
0.0000

> <Gold.PLP.part.buried>
-7.6711

> <Gold.PLP.part.nonpolar>
-39.4752

> <Gold.PLP.part.repulsive>
1.4045

> <Gold.PLP.ligand.clash>
0.0789

> <Gold.PLP.ligand.torsion>
1.4156

> <Gold.PLP.Chemscore.Hbond>
1.0000

> <Gold.PLP.Chemscore.CHOScore>
0.0000

> <Gold.PLP.Chemscore.Metal>
0.0000

> <Gold.Chemscore.Hbonds>
donor molecule, donor type, donor heavy atom, donor atom, acceptor molecule, acceptor atom, score
      P1  H  7997  8010       L1     1  0.95

> <Gold.PLP.Chemscore.Internal.Correction>
0.6801

> <Gold.Rescore>
     Score         DG    S(hbond)    S(metal)    S(lipo)     H(rot)  DE(clash)    DE(int)     intcor
     10.50     -14.28       0.92        0.00     102.08       2.43       0.32       3.46       ----

> <Gold.Chemscore.Fitness>
10.5000

> <Gold.Chemscore.DG>
-14.2848

> <Gold.Chemscore.ZeroCoef>
-5.4800

> <Gold.Chemscore.Hbond>
0.9205

> <Gold.Chemscore.Metal>
0.0000

> <Gold.Chemscore.Lipo>
102.0838

> <Gold.Chemscore.Internal_Hbond>
0.0000

> <Gold.Chemscore.DEClash>
0.3224

> <Gold.Chemscore.DEInternal>
3.4625

> <Gold.Chemscore.Rot>
2.4272

> <Gold.Chemscore.Internal.Correction>
   9.000000E+99

> <Gold.Chemscore.Hbonds>
donor molecule, donor type, donor heavy atom, donor atom, acceptor molecule, acceptor atom, score
      P1  H  7997  8010       L1     1  0.21

> <Gold.Chemscore.Hbond.Weighted>
-3.0746

> <Gold.Chemscore.Metal.Weighted>
-0.0000

> <Gold.Chemscore.Lipo.Weighted>
-11.9438

> <Gold.Chemscore.Internal_Hbond.Weighted>
0.0000

> <Gold.Chemscore.DEClash.Weighted>
0.3224

> <Gold.Chemscore.DEInternal.Weighted>
3.4625

> <Gold.Chemscore.Rot.Weighted>
6.2135

> <Gold.Chemscore.Internal.Correction.Weighted>
   9.000000E+99

> <Gold.Protein.RotatedTorsions>
[ 6907 6896 6895 6894 ] final -101.51 input  -60.11 | X-H torsion
[ 7974 7965 7964 7962 ] final  130.05 input  175.53 | X-H torsion
[ 8008 7997 7996 7995 ] final   40.14 input   59.86 | X-H torsion
[ 10167 10162 10161 10158 ] final -177.24 input  -65.29 | X-H torsion
[ 10718 10713 10712 10709 ] final  -55.32 input   66.30 | X-H torsion
[ 10763 10752 10751 10750 ] final    6.38 input  -60.55 | X-H torsion
[ 11005 11000 10999 10996 ] final   97.49 input  -57.11 | X-H torsion

> <Gold.Protein.ActiveResidues>
 VAL166  LYS551  ARG553  GLY616  TRP617  ASP618  TYR619  PRO620  LYS621  CYS622 
 ASP623  PHE694  ASN695  SER759  ASP760  ASP761  ALA762  ILE779  LEU786  VAL792 
 PHE793  MET794  SER795  GLU796  ALA797  LYS798  CYS799  TRP800  GLU811  SER814 

> <Gold.Protein.RotatedAtoms>
  150.7158  134.0723  159.3868 H   0  0  0  0  0  0  0  0  0  0  0  0  # atno 6907 bound_to 6896
  151.8705  135.0489  160.0488 H   0  0  0  0  0  0  0  0  0  0  0  0  # atno 6908 bound_to 6896
  152.2647  133.5292  159.5439 H   0  0  0  0  0  0  0  0  0  0  0  0  # atno 6909 bound_to 6896
  145.0221  139.4123  143.5192 H   0  0  0  0  0  0  0  0  0  0  0  0  # atno 7974 bound_to 7965
  155.2482  140.3350  155.4285 H   0  0  0  0  0  0  0  0  0  0  0  0  # atno 8008 bound_to 7997
  156.2227  140.1816  156.7482 H   0  0  0  0  0  0  0  0  0  0  0  0  # atno 8009 bound_to 7997
  154.5850  140.0647  156.9143 H   0  0  0  0  0  0  0  0  0  0  0  0  # atno 8010 bound_to 7997
  139.5490  144.2159  152.1042 H   0  0  0  0  0  0  0  0  0  0  0  0  # atno 10167 bound_to 10162
  156.1378  130.4156  150.0155 H   0  0  0  0  0  0  0  0  0  0  0  0  # atno 10718 bound_to 10713
  153.2484  135.6911  153.7706 H   0  0  0  0  0  0  0  0  0  0  0  0  # atno 10763 bound_to 10752
  153.6810  135.3328  155.3179 H   0  0  0  0  0  0  0  0  0  0  0  0  # atno 10764 bound_to 10752
  154.8384  135.4522  154.1432 H   0  0  0  0  0  0  0  0  0  0  0  0  # atno 10765 bound_to 10752
  139.8776  134.9003  156.4315 H   0  0  0  0  0  0  0  0  0  0  0  0  # atno 11005 bound_to 11000
  146.3487  139.9724  142.8705 LP  0  0  0  0  0  0  0  0  0  0  0  0  # atno 17320 bound_to 7965
  145.1882  140.9799  143.4226 LP  0  0  0  0  0  0  0  0  0  0  0  0  # atno 17321 bound_to 7965
  140.1651  144.4989  150.6610 LP  0  0  0  0  0  0  0  0  0  0  0  0  # atno 17342 bound_to 10162
  140.6747  143.2300  151.5537 LP  0  0  0  0  0  0  0  0  0  0  0  0  # atno 17343 bound_to 10162
  156.8049  130.9304  151.3645 LP  0  0  0  0  0  0  0  0  0  0  0  0  # atno 17370 bound_to 10713
  157.6548  130.8915  149.9707 LP  0  0  0  0  0  0  0  0  0  0  0  0  # atno 17371 bound_to 10713
  140.9063  133.7743  155.9739 LP  0  0  0  0  0  0  0  0  0  0  0  0  # atno 17394 bound_to 11000
  140.8595  134.2857  157.5240 LP  0  0  0  0  0  0  0  0  0  0  0  0  # atno 17395 bound_to 11000

$$$$
