AV-unprocessed.smi:1452|AV-procd|sdf|5904|dock1
  -GOLD-   22720 5593D 1   1.00000     0.00000
 Structure written by MMmdl.
 40 42  0  0  0  0  0  0  0  0  2 V2000
  145.0208  137.7786  153.0506 O   0  0  0  0  0  0  0  0  0  0  0  0
  146.0663  137.2327  152.7028 C   0  0  0  0  0  0  0  0  0  0  0  0
  147.2611  137.8376  152.8714 N   0  0  0  0  0  0  0  0  0  0  0  0
  147.5984  139.1081  153.4240 C   0  0  0  0  0  0  0  0  0  0  0  0
  148.8481  139.1488  154.0826 C   0  0  0  0  0  0  0  0  0  0  0  0
  149.2951  140.3561  154.6536 C   0  0  0  0  0  0  0  0  0  0  0  0
  148.4814  141.4977  154.5478 C   0  0  0  0  0  0  0  0  0  0  0  0
  147.2543  141.3760  153.8716 C   0  0  0  0  0  0  0  0  0  0  0  0
  146.8239  140.2193  153.3243 N   0  0  0  0  0  0  0  0  0  0  0  0
  146.0975  136.0133  152.1400 N   0  0  0  0  0  0  0  0  0  0  0  0
  144.9445  135.1474  151.9066 C   0  0  1  0  0  0  0  0  0  0  0  0
  144.5121  135.1151  150.4275 C   0  0  0  0  0  0  0  0  0  0  0  0
  144.2056  133.6413  150.1427 C   0  0  0  0  0  0  0  0  0  0  0  0
  145.1571  132.9349  151.0082 N   0  3  2  0  0  0  0  0  0  0  0  0
  144.9970  131.4785  151.1923 C   0  0  0  0  0  0  0  0  0  0  0  0
  146.2120  130.9498  151.9845 C   0  0  0  0  0  0  0  0  0  0  0  0
  146.4441  131.7369  153.2943 C   0  0  0  0  0  0  0  0  0  0  0  0
  146.4728  133.2610  153.0499 C   0  0  0  0  0  0  0  0  0  0  0  0
  145.2013  133.6696  152.2839 C   0  0  1  0  0  0  0  0  0  0  0  0
  148.0422  137.3395  152.4695 H   0  0  0  0  0  0  0  0  0  0  0  0
  149.4637  138.2634  154.1530 H   0  0  0  0  0  0  0  0  0  0  0  0
  150.2465  140.4043  155.1626 H   0  0  0  0  0  0  0  0  0  0  0  0
  148.7901  142.4418  154.9718 H   0  0  0  0  0  0  0  0  0  0  0  0
  146.6008  142.2293  153.7658 H   0  0  0  0  0  0  0  0  0  0  0  0
  147.0029  135.6452  151.8832 H   0  0  0  0  0  0  0  0  0  0  0  0
  144.0991  135.5098  152.4948 H   0  0  0  0  0  0  0  0  0  0  0  0
  143.6593  135.7638  150.2249 H   0  0  0  0  0  0  0  0  0  0  0  0
  145.3318  135.4415  149.7852 H   0  0  0  0  0  0  0  0  0  0  0  0
  143.1845  133.3967  150.4398 H   0  0  0  0  0  0  0  0  0  0  0  0
  144.3349  133.3783  149.0924 H   0  0  0  0  0  0  0  0  0  0  0  0
  144.0653  131.2654  151.7184 H   0  0  0  0  0  0  0  0  0  0  0  0
  144.9399  130.9881  150.2198 H   0  0  0  0  0  0  0  0  0  0  0  0
  146.0833  129.8893  152.2032 H   0  0  0  0  0  0  0  0  0  0  0  0
  147.1046  131.0271  151.3623 H   0  0  0  0  0  0  0  0  0  0  0  0
  145.6461  131.5009  153.9995 H   0  0  0  0  0  0  0  0  0  0  0  0
  147.3737  131.4157  153.7649 H   0  0  0  0  0  0  0  0  0  0  0  0
  146.5311  133.7868  154.0033 H   0  0  0  0  0  0  0  0  0  0  0  0
  147.3640  133.5309  152.4814 H   0  0  0  0  0  0  0  0  0  0  0  0
  144.3395  133.3516  152.8748 H   0  0  0  0  0  0  0  0  0  0  0  0
  146.0607  133.0705  150.5781 H   0  0  0  0  0  0  0  0  0  0  0  0
  1  2  2  0  0  0  0
  2  3  1  0  0  0  0
  2 10  1  0  0  0  0
  3  4  1  0  0  0  0
  3 20  1  0  0  0  0
  4  9  1  0  0  0  0
  4  5  2  0  0  0  0
  5  6  1  0  0  0  0
  5 21  1  0  0  0  0
  6  7  2  0  0  0  0
  6 22  1  0  0  0  0
  7  8  1  0  0  0  0
  7 23  1  0  0  0  0
  8  9  2  0  0  0  0
  8 24  1  0  0  0  0
 10 11  1  0  0  0  0
 10 25  1  0  0  0  0
 11 19  1  0  0  0  0
 11 12  1  0  0  0  0
 11 26  1  0  0  0  0
 12 13  1  0  0  0  0
 12 27  1  0  0  0  0
 12 28  1  0  0  0  0
 13 14  1  0  0  0  0
 13 29  1  0  0  0  0
 13 30  1  0  0  0  0
 14 19  1  0  0  0  0
 14 15  1  0  0  0  0
 14 40  1  0  0  0  0
 15 16  1  0  0  0  0
 15 31  1  0  0  0  0
 15 32  1  0  0  0  0
 16 17  1  0  0  0  0
 16 33  1  0  0  0  0
 16 34  1  0  0  0  0
 17 18  1  0  0  0  0
 17 35  1  0  0  0  0
 17 36  1  0  0  0  0
 18 19  1  0  0  0  0
 18 37  1  0  0  0  0
 18 38  1  0  0  0  0
 19 39  1  0  0  0  0
M  CHG  1  14   1
M  END
> <s_m_source_file>
AV-unprocessed.smi

> <i_m_source_file_index>
1452

> <i_lp_mmshare_version>
43012

> <i_f3d_flags>
0

> <s_epik_input>
W0NIMl0xW0NIMl1bQ0gyXVtDSDJdW0NASF0oTjEyKVtDQEBIXShbQ0gyXVtDSDJdMilbTkhdQyg9TylbTkhdYzNbY0hdW2NIXVtjSF1bY0hdbjM=

> <s_epik_cmdline>
J2VwaWtfcHl0aG9uJywgJy1waCcsICc3LjAnLCAnLXRuJywgJzgnLCAnLW1hJywgJzIwMCcsICctbWV0YWxfYmluZGluZycsICctaW1hZScsICc8aW5maWxlLm1hZT4nLCAnLW9tYWUnLCAnPG91dGZpbGUubWFlPic=

> <r_epik_Ionization_Penalty>
0.00100813

> <r_epik_Ionization_Penalty_Charging>
0.000974069

> <r_epik_Ionization_Penalty_Neutral>
3.40643e-05

> <r_epik_State_Penalty>
0.000633842

> <r_epik_Charging_Adjusted_Penalty>
0.00160791

> <i_epik_Tot_Q>
1

> <i_epik_Tot_abs_Q>
1

> <r_epik_Metal_State_Penalty>
-0

> <b_epik_Metal_Only>
0

> <s_lp_Force_Field>
OPLS_2005

> <r_lp_Energy>
45.5748

> <b_lp_Chiralities_Consistent>
1

> <s_lp_Variant>
AV-unprocessed.smi:1452-2

> <Gold.Version>
5.8.1

> <Gold.Id.Protein>
6NUR|6NUR_protein|mol2

> <Gold.PLP.Fitness>
35.4651

> <Gold.PLP.PLP>
-30.9123

> <Gold.PLP.part.hbond>
-1.9847

> <Gold.PLP.part.metal>
0.0000

> <Gold.PLP.part.buried>
-3.5157

> <Gold.PLP.part.nonpolar>
-26.6056

> <Gold.PLP.part.repulsive>
1.1668

> <Gold.PLP.ligand.clash>
0.0000

> <Gold.PLP.ligand.torsion>
0.4238

> <Gold.PLP.Chemscore.Hbond>
1.8000

> <Gold.PLP.Chemscore.CHOScore>
0.0000

> <Gold.PLP.Chemscore.Metal>
0.0000

> <Gold.Chemscore.Hbonds>
donor molecule, donor type, donor heavy atom, donor atom, acceptor molecule, acceptor atom, score
      L1  H     3    20       P1  7948  1.00
      L1  H    10    25       P1  7948  0.80

> <Gold.PLP.Chemscore.Internal.Correction>
0.0005

> <Gold.Rescore>
     Score         DG    S(hbond)    S(metal)    S(lipo)     H(rot)  DE(clash)    DE(int)     intcor
     16.51     -18.00       1.85        0.00      76.04       1.00       0.17       1.32       ----

> <Gold.Chemscore.Fitness>
16.5100

> <Gold.Chemscore.DG>
-18.0006

> <Gold.Chemscore.ZeroCoef>
-5.4800

> <Gold.Chemscore.Hbond>
1.8515

> <Gold.Chemscore.Metal>
0.0000

> <Gold.Chemscore.Lipo>
76.0380

> <Gold.Chemscore.Internal_Hbond>
0.0000

> <Gold.Chemscore.DEClash>
0.1656

> <Gold.Chemscore.DEInternal>
1.3250

> <Gold.Chemscore.Rot>
1.0000

> <Gold.Chemscore.Internal.Correction>
   9.000000E+99

> <Gold.Chemscore.Hbonds>
donor molecule, donor type, donor heavy atom, donor atom, acceptor molecule, acceptor atom, score
      L1  H     3    20       P1  7948  0.94
      L1  H    10    25       P1  7948  0.76

> <Gold.Chemscore.Hbond.Weighted>
-6.1841

> <Gold.Chemscore.Metal.Weighted>
-0.0000

> <Gold.Chemscore.Lipo.Weighted>
-8.8964

> <Gold.Chemscore.Internal_Hbond.Weighted>
0.0000

> <Gold.Chemscore.DEClash.Weighted>
0.1656

> <Gold.Chemscore.DEInternal.Weighted>
1.3250

> <Gold.Chemscore.Rot.Weighted>
2.5600

> <Gold.Chemscore.Internal.Correction.Weighted>
   9.000000E+99

> <Gold.Protein.RotatedTorsions>
[ 6907 6896 6895 6894 ] final -129.44 input  -60.11 | X-H torsion
[ 7974 7965 7964 7962 ] final  100.08 input  175.53 | X-H torsion
[ 8008 7997 7996 7995 ] final -174.81 input   59.86 | X-H torsion
[ 10167 10162 10161 10158 ] final  -48.96 input  -65.29 | X-H torsion
[ 10718 10713 10712 10709 ] final -153.63 input   66.30 | X-H torsion
[ 10763 10752 10751 10750 ] final  -77.69 input  -60.55 | X-H torsion
[ 11005 11000 10999 10996 ] final   64.75 input  -57.11 | X-H torsion

> <Gold.Protein.ActiveResidues>
 VAL166  LYS551  ARG553  GLY616  TRP617  ASP618  TYR619  PRO620  LYS621  CYS622 
 ASP623  PHE694  ASN695  SER759  ASP760  ASP761  ALA762  ILE779  LEU786  VAL792 
 PHE793  MET794  SER795  GLU796  ALA797  LYS798  CYS799  TRP800  GLU811  SER814 

> <Gold.Protein.RotatedAtoms>
  150.9288  133.6792  159.2815 H   0  0  0  0  0  0  0  0  0  0  0  0  # atno 6907 bound_to 6896
  151.4221  135.0998  159.9626 H   0  0  0  0  0  0  0  0  0  0  0  0  # atno 6908 bound_to 6896
  152.5016  133.8737  159.7366 H   0  0  0  0  0  0  0  0  0  0  0  0  # atno 6909 bound_to 6896
  145.3903  139.2364  143.3355 H   0  0  0  0  0  0  0  0  0  0  0  0  # atno 7974 bound_to 7965
  155.9748  140.1170  157.0780 H   0  0  0  0  0  0  0  0  0  0  0  0  # atno 8008 bound_to 7997
  154.4166  140.1156  156.5423 H   0  0  0  0  0  0  0  0  0  0  0  0  # atno 8009 bound_to 7997
  155.6549  140.3473  155.4763 H   0  0  0  0  0  0  0  0  0  0  0  0  # atno 8010 bound_to 7997
  140.6707  143.2718  151.4146 H   0  0  0  0  0  0  0  0  0  0  0  0  # atno 10167 bound_to 10162
  156.4884  130.8336  151.2560 H   0  0  0  0  0  0  0  0  0  0  0  0  # atno 10718 bound_to 10713
  154.5163  135.5755  153.6644 H   0  0  0  0  0  0  0  0  0  0  0  0  # atno 10763 bound_to 10752
  152.9907  135.6171  154.2814 H   0  0  0  0  0  0  0  0  0  0  0  0  # atno 10764 bound_to 10752
  154.2732  135.2853  155.2709 H   0  0  0  0  0  0  0  0  0  0  0  0  # atno 10765 bound_to 10752
  139.9938  134.6549  156.0044 H   0  0  0  0  0  0  0  0  0  0  0  0  # atno 11005 bound_to 11000
  146.2800  140.4585  142.8780 LP  0  0  0  0  0  0  0  0  0  0  0  0  # atno 17320 bound_to 7965
  144.8445  140.6907  143.6208 LP  0  0  0  0  0  0  0  0  0  0  0  0  # atno 17321 bound_to 7965
  139.5975  144.1367  152.2160 LP  0  0  0  0  0  0  0  0  0  0  0  0  # atno 17342 bound_to 10162
  140.0741  144.5755  150.7170 LP  0  0  0  0  0  0  0  0  0  0  0  0  # atno 17343 bound_to 10162
  157.7476  131.0022  150.2990 LP  0  0  0  0  0  0  0  0  0  0  0  0  # atno 17370 bound_to 10713
  156.3451  130.3822  149.7376 LP  0  0  0  0  0  0  0  0  0  0  0  0  # atno 17371 bound_to 10713
  141.1588  133.6540  156.4249 LP  0  0  0  0  0  0  0  0  0  0  0  0  # atno 17394 bound_to 11000
  140.4856  134.6623  157.5189 LP  0  0  0  0  0  0  0  0  0  0  0  0  # atno 17395 bound_to 11000

$$$$
