AV-unprocessed.smi:2321|AV-procd|sdf|9281|dock4
  -GOLD-   2272012503D 1   1.00000     0.00000
 Structure written by MMmdl.
 36 37  0  0  0  0  0  0  0  0  1 V2000
  150.3510  140.5389  155.8967 O   0  0  0  0  0  0  0  0  0  0  0  0
  149.9686  141.7017  156.0068 C   0  0  0  0  0  0  0  0  0  0  0  0
  150.4624  142.5939  156.8876 N   0  0  0  0  0  0  0  0  0  0  0  0
  151.5011  142.4286  157.8428 C   0  0  0  0  0  0  0  0  0  0  0  0
  151.9575  141.1735  158.3128 C   0  0  0  0  0  0  0  0  0  0  0  0
  152.9848  141.1484  159.2775 C   0  0  0  0  0  0  0  0  0  0  0  0
  153.5563  142.2609  159.7856 N   0  0  0  0  0  0  0  0  0  0  0  0
  153.1089  143.4556  159.3445 C   0  0  0  0  0  0  0  0  0  0  0  0
  152.0867  143.5924  158.3845 C   0  0  0  0  0  0  0  0  0  0  0  0
  151.6806  144.8230  157.9884 F   0  0  0  0  0  0  0  0  0  0  0  0
  149.0065  142.1940  155.2047 N   0  0  0  0  0  0  0  0  0  0  0  0
  148.2590  141.5091  154.1442 C   0  0  2  0  0  0  0  0  0  0  0  0
  146.9587  142.2746  153.8327 C   0  0  0  0  0  0  0  0  0  0  0  0
  145.9250  142.1503  154.9647 C   0  0  0  0  0  0  0  0  0  0  0  0
  145.6343  140.6790  155.2982 C   0  0  0  0  0  0  0  0  0  0  0  0
  146.9235  139.9115  155.6591 C   0  0  1  0  0  0  0  0  0  0  0  0
  146.6390  138.4376  156.0148 C   0  0  0  0  0  0  0  0  0  0  0  0
  147.7598  137.8109  156.3736 F   0  0  0  0  0  0  0  0  0  0  0  0
  145.7676  138.3722  157.0214 F   0  0  0  0  0  0  0  0  0  0  0  0
  146.1102  137.8081  154.9657 F   0  0  0  0  0  0  0  0  0  0  0  0
  147.9546  140.0396  154.5149 C   0  0  0  0  0  0  0  0  0  0  0  0
  150.0997  143.5328  156.8093 H   0  0  0  0  0  0  0  0  0  0  0  0
  151.5384  140.2412  157.9678 H   0  0  0  0  0  0  0  0  0  0  0  0
  153.3539  140.2068  159.6559 H   0  0  0  0  0  0  0  0  0  0  0  0
  153.5787  144.3295  159.7710 H   0  0  0  0  0  0  0  0  0  0  0  0
  148.7769  143.1688  155.3351 H   0  0  0  0  0  0  0  0  0  0  0  0
  148.8633  141.5227  153.2355 H   0  0  0  0  0  0  0  0  0  0  0  0
  147.1748  143.3256  153.6365 H   0  0  0  0  0  0  0  0  0  0  0  0
  146.5246  141.8791  152.9135 H   0  0  0  0  0  0  0  0  0  0  0  0
  146.2878  142.6627  155.8564 H   0  0  0  0  0  0  0  0  0  0  0  0
  145.0014  142.6533  154.6772 H   0  0  0  0  0  0  0  0  0  0  0  0
  144.9249  140.6309  156.1247 H   0  0  0  0  0  0  0  0  0  0  0  0
  145.1463  140.2035  154.4465 H   0  0  0  0  0  0  0  0  0  0  0  0
  147.3490  140.3799  156.5479 H   0  0  0  0  0  0  0  0  0  0  0  0
  147.5715  139.5288  153.6308 H   0  0  0  0  0  0  0  0  0  0  0  0
  148.8747  139.5187  154.7804 H   0  0  0  0  0  0  0  0  0  0  0  0
  1  2  2  0  0  0  0
  2  3  1  0  0  0  0
  2 11  1  0  0  0  0
  3  4  1  0  0  0  0
  3 22  1  0  0  0  0
  4  9  1  0  0  0  0
  4  5  2  0  0  0  0
  5  6  1  0  0  0  0
  5 23  1  0  0  0  0
  6  7  2  0  0  0  0
  6 24  1  0  0  0  0
  7  8  1  0  0  0  0
  8  9  2  0  0  0  0
  8 25  1  0  0  0  0
  9 10  1  0  0  0  0
 11 12  1  0  0  0  0
 11 26  1  0  0  0  0
 12 21  1  0  0  0  0
 12 13  1  0  0  0  0
 12 27  1  0  0  0  0
 13 14  1  0  0  0  0
 13 28  1  0  0  0  0
 13 29  1  0  0  0  0
 14 15  1  0  0  0  0
 14 30  1  0  0  0  0
 14 31  1  0  0  0  0
 15 16  1  0  0  0  0
 15 32  1  0  0  0  0
 15 33  1  0  0  0  0
 16 17  1  0  0  0  0
 16 21  1  0  0  0  0
 16 34  1  0  0  0  0
 17 18  1  0  0  0  0
 17 19  1  0  0  0  0
 17 20  1  0  0  0  0
 21 35  1  0  0  0  0
 21 36  1  0  0  0  0
M  END
> <s_m_source_file>
AV-unprocessed.smi

> <i_m_source_file_index>
2321

> <i_lp_mmshare_version>
43012

> <i_f3d_flags>
0

> <s_epik_input>
RkMoRikoRilbQ0BASF0oW0NIMl0xKVtDSDJdW0NIMl1bQ0gyXVtDQEhdMVtOSF1DKD1PKVtOSF1jMltjSF1bY0hdbltjSF1jMkY=

> <s_epik_cmdline>
J2VwaWtfcHl0aG9uJywgJy1waCcsICc3LjAnLCAnLXRuJywgJzgnLCAnLW1hJywgJzIwMCcsICctbWV0YWxfYmluZGluZycsICctaW1hZScsICc8aW5maWxlLm1hZT4nLCAnLW9tYWUnLCAnPG91dGZpbGUubWFlPic=

> <r_epik_Ionization_Penalty>
0.00319438

> <r_epik_Ionization_Penalty_Charging>
0

> <r_epik_Ionization_Penalty_Neutral>
0.00319438

> <r_epik_State_Penalty>
0.00222511

> <r_epik_Charging_Adjusted_Penalty>
0.00222511

> <i_epik_Tot_Q>
0

> <i_epik_Tot_abs_Q>
0

> <r_epik_Metal_State_Penalty>
-0

> <b_epik_Metal_Only>
0

> <s_lp_Force_Field>
OPLS_2005

> <r_lp_Energy>
25.9848

> <b_lp_Chiralities_Consistent>
1

> <s_lp_Variant>
AV-unprocessed.smi:2321-1

> <Gold.Version>
5.8.1

> <Gold.Id.Protein>
6NUR|6NUR_protein|mol2

> <Gold.PLP.Fitness>
39.5985

> <Gold.PLP.PLP>
-34.7695

> <Gold.PLP.part.hbond>
-2.0000

> <Gold.PLP.part.metal>
0.0000

> <Gold.PLP.part.buried>
-6.7481

> <Gold.PLP.part.nonpolar>
-26.0673

> <Gold.PLP.part.repulsive>
0.2597

> <Gold.PLP.ligand.clash>
0.0000

> <Gold.PLP.ligand.torsion>
0.3835

> <Gold.PLP.Chemscore.Hbond>
1.8580

> <Gold.PLP.Chemscore.CHOScore>
0.0000

> <Gold.PLP.Chemscore.Metal>
0.0000

> <Gold.Chemscore.Hbonds>
donor molecule, donor type, donor heavy atom, donor atom, acceptor molecule, acceptor atom, score
      L1  H     3    22       P1  8028  0.84
      L1  H    11    26       P1  8028  1.00

> <Gold.PLP.Chemscore.Internal.Correction>
0.0219

> <Gold.Rescore>
     Score         DG    S(hbond)    S(metal)    S(lipo)     H(rot)  DE(clash)    DE(int)     intcor
     15.87     -19.00       1.94        0.00      82.01       1.00       0.38       2.75       ----

> <Gold.Chemscore.Fitness>
15.8684

> <Gold.Chemscore.DG>
-18.9989

> <Gold.Chemscore.ZeroCoef>
-5.4800

> <Gold.Chemscore.Hbond>
1.9411

> <Gold.Chemscore.Metal>
0.0000

> <Gold.Chemscore.Lipo>
82.0143

> <Gold.Chemscore.Internal_Hbond>
0.0000

> <Gold.Chemscore.DEClash>
0.3801

> <Gold.Chemscore.DEInternal>
2.7504

> <Gold.Chemscore.Rot>
1.0000

> <Gold.Chemscore.Internal.Correction>
   9.000000E+99

> <Gold.Chemscore.Hbonds>
donor molecule, donor type, donor heavy atom, donor atom, acceptor molecule, acceptor atom, score
      L1  H     3    22       P1  8028  0.79
      L1  H    11    26       P1  8028  0.97

> <Gold.Chemscore.Hbond.Weighted>
-6.4832

> <Gold.Chemscore.Metal.Weighted>
-0.0000

> <Gold.Chemscore.Lipo.Weighted>
-9.5957

> <Gold.Chemscore.Internal_Hbond.Weighted>
0.0000

> <Gold.Chemscore.DEClash.Weighted>
0.3801

> <Gold.Chemscore.DEInternal.Weighted>
2.7504

> <Gold.Chemscore.Rot.Weighted>
2.5600

> <Gold.Chemscore.Internal.Correction.Weighted>
   9.000000E+99

> <Gold.Protein.RotatedTorsions>
[ 6907 6896 6895 6894 ] final   77.60 input  -60.11 | X-H torsion
[ 7974 7965 7964 7962 ] final   59.39 input  175.53 | X-H torsion
[ 8008 7997 7996 7995 ] final  -45.69 input   59.86 | X-H torsion
[ 10167 10162 10161 10158 ] final   44.66 input  -65.29 | X-H torsion
[ 10718 10713 10712 10709 ] final  164.83 input   66.30 | X-H torsion
[ 10763 10752 10751 10750 ] final  151.14 input  -60.55 | X-H torsion
[ 11005 11000 10999 10996 ] final -118.98 input  -57.11 | X-H torsion

> <Gold.Protein.ActiveResidues>
 VAL166  LYS551  ARG553  GLY616  TRP617  ASP618  TYR619  PRO620  LYS621  CYS622 
 ASP623  PHE694  ASN695  SER759  ASP760  ASP761  ALA762  ILE779  LEU786  VAL792 
 PHE793  MET794  SER795  GLU796  ALA797  LYS798  CYS799  TRP800  GLU811  SER814 

> <Gold.Protein.RotatedAtoms>
  152.5124  134.3792  159.9344 H   0  0  0  0  0  0  0  0  0  0  0  0  # atno 6907 bound_to 6896
  151.3748  133.3835  159.2711 H   0  0  0  0  0  0  0  0  0  0  0  0  # atno 6908 bound_to 6896
  150.9549  134.8965  159.7754 H   0  0  0  0  0  0  0  0  0  0  0  0  # atno 6909 bound_to 6896
  145.9077  139.3629  143.0554 H   0  0  0  0  0  0  0  0  0  0  0  0  # atno 7974 bound_to 7965
  154.4002  140.1390  156.3888 H   0  0  0  0  0  0  0  0  0  0  0  0  # atno 8008 bound_to 7997
  155.7934  140.3478  155.5341 H   0  0  0  0  0  0  0  0  0  0  0  0  # atno 8009 bound_to 7997
  155.8556  140.0948  157.1637 H   0  0  0  0  0  0  0  0  0  0  0  0  # atno 8010 bound_to 7997
  140.3320  144.2577  150.6167 H   0  0  0  0  0  0  0  0  0  0  0  0  # atno 10167 bound_to 10162
  157.0888  131.0412  151.2545 H   0  0  0  0  0  0  0  0  0  0  0  0  # atno 10718 bound_to 10713
  154.0990  135.2847  155.3255 H   0  0  0  0  0  0  0  0  0  0  0  0  # atno 10763 bound_to 10752
  154.6568  135.5349  153.7972 H   0  0  0  0  0  0  0  0  0  0  0  0  # atno 10764 bound_to 10752
  153.0386  135.6524  154.1155 H   0  0  0  0  0  0  0  0  0  0  0  0  # atno 10765 bound_to 10752
  141.0247  134.0071  157.3231 H   0  0  0  0  0  0  0  0  0  0  0  0  # atno 11005 bound_to 11000
  145.8711  140.9419  143.0650 LP  0  0  0  0  0  0  0  0  0  0  0  0  # atno 17320 bound_to 7965
  144.6740  140.0656  143.7474 LP  0  0  0  0  0  0  0  0  0  0  0  0  # atno 17321 bound_to 7965
  140.5388  143.2227  151.8118 LP  0  0  0  0  0  0  0  0  0  0  0  0  # atno 17342 bound_to 10162
  139.4855  144.4627  151.9522 LP  0  0  0  0  0  0  0  0  0  0  0  0  # atno 17343 bound_to 10162
  157.4738  130.7724  149.7349 LP  0  0  0  0  0  0  0  0  0  0  0  0  # atno 17370 bound_to 10713
  155.9903  130.3945  150.3032 LP  0  0  0  0  0  0  0  0  0  0  0  0  # atno 17371 bound_to 10713
  139.9168  135.0197  156.7914 LP  0  0  0  0  0  0  0  0  0  0  0  0  # atno 17394 bound_to 11000
  140.6511  133.9730  155.7756 LP  0  0  0  0  0  0  0  0  0  0  0  0  # atno 17395 bound_to 11000

$$$$
