AV-unprocessed.smi:2892|AV-procd|sdf|11119|dock9
  -GOLD-   2272015593D 1   1.00000     0.00000
 Structure written by MMmdl.
 42 42  0  0  0  0  0  0  0  0  2 V2000
  151.8430  138.9395  154.8333 C   0  0  0  0  0  0  0  0  0  0  0  0
  151.5050  137.4431  154.7558 C   0  0  0  0  0  0  0  0  0  0  0  0
  150.2971  137.0102  155.6294 C   0  0  1  0  0  0  0  0  0  0  0  0
  148.9810  137.5534  155.0280 C   0  0  0  0  0  0  0  0  0  0  0  0
  150.2230  135.4637  155.8286 C   0  0  2  0  0  0  0  0  0  0  0  0
  149.8949  134.8269  154.5528 N   0  0  0  0  0  0  0  0  0  0  0  0
  149.6497  133.5200  154.3595 C   0  0  0  0  0  0  0  0  0  0  0  0
  149.7538  132.6711  155.2446 O   0  0  0  0  0  0  0  0  0  0  0  0
  149.2320  133.1031  152.9460 C   0  0  0  0  0  0  0  0  0  0  0  0
  147.7322  132.9969  152.8431 C   0  0  0  0  0  0  0  0  0  0  0  0
  146.7902  132.8413  153.9000 C   0  0  0  0  0  0  0  0  0  0  0  0
  145.5888  132.7487  153.2588 C   0  0  0  0  0  0  0  0  0  0  0  0
  145.8324  132.8699  151.9058 N   0  0  0  0  0  0  0  0  0  0  0  0
  144.8929  132.7917  150.7974 C   0  0  0  0  0  0  0  0  0  0  0  0
  143.4861  132.4096  151.2835 C   0  0  0  0  0  0  0  0  0  0  0  0
  145.4125  131.8283  149.7200 C   0  0  0  0  0  0  0  0  0  0  0  0
  147.1498  133.0240  151.6528 N   0  0  0  0  0  0  0  0  0  0  0  0
  149.1124  135.0944  156.8314 C   0  0  0  0  0  0  0  0  0  0  0  0
  149.4652  134.5031  157.8750 O   0  0  0  0  0  0  0  0  0  0  0  0
  147.9360  135.4117  156.5423 O   0  5  0  0  0  0  0  0  0  0  0  0
  152.7644  139.1509  154.2903 H   0  0  0  0  0  0  0  0  0  0  0  0
  151.9888  139.2575  155.8659 H   0  0  0  0  0  0  0  0  0  0  0  0
  151.0620  139.5586  154.3936 H   0  0  0  0  0  0  0  0  0  0  0  0
  151.3292  137.1612  153.7171 H   0  0  0  0  0  0  0  0  0  0  0  0
  152.4044  136.9081  155.0584 H   0  0  0  0  0  0  0  0  0  0  0  0
  150.4180  137.4720  156.6112 H   0  0  0  0  0  0  0  0  0  0  0  0
  148.8000  137.1362  154.0371 H   0  0  0  0  0  0  0  0  0  0  0  0
  148.9942  138.6383  154.9347 H   0  0  0  0  0  0  0  0  0  0  0  0
  148.1172  137.3152  155.6485 H   0  0  0  0  0  0  0  0  0  0  0  0
  151.1847  135.0977  156.1941 H   0  0  0  0  0  0  0  0  0  0  0  0
  149.7732  135.4466  153.7654 H   0  0  0  0  0  0  0  0  0  0  0  0
  149.6124  133.8388  152.2369 H   0  0  0  0  0  0  0  0  0  0  0  0
  149.7026  132.1523  152.6914 H   0  0  0  0  0  0  0  0  0  0  0  0
  146.9728  132.7820  154.9624 H   0  0  0  0  0  0  0  0  0  0  0  0
  144.5929  132.6011  153.6491 H   0  0  0  0  0  0  0  0  0  0  0  0
  144.8244  133.7849  150.3495 H   0  0  0  0  0  0  0  0  0  0  0  0
  142.7728  132.4251  150.4593 H   0  0  0  0  0  0  0  0  0  0  0  0
  143.1294  133.1084  152.0406 H   0  0  0  0  0  0  0  0  0  0  0  0
  143.4679  131.4089  151.7163 H   0  0  0  0  0  0  0  0  0  0  0  0
  144.7438  131.8046  148.8593 H   0  0  0  0  0  0  0  0  0  0  0  0
  145.4986  130.8113  150.1034 H   0  0  0  0  0  0  0  0  0  0  0  0
  146.3973  132.1332  149.3641 H   0  0  0  0  0  0  0  0  0  0  0  0
  1  2  1  0  0  0  0
  1 21  1  0  0  0  0
  1 22  1  0  0  0  0
  1 23  1  0  0  0  0
  2  3  1  0  0  0  0
  2 24  1  0  0  0  0
  2 25  1  0  0  0  0
  3  4  1  0  0  0  0
  3  5  1  0  0  0  0
  3 26  1  0  0  0  0
  4 27  1  0  0  0  0
  4 28  1  0  0  0  0
  4 29  1  0  0  0  0
  5  6  1  0  0  0  0
  5 18  1  0  0  0  0
  5 30  1  0  0  0  0
  6  7  1  0  0  0  0
  6 31  1  0  0  0  0
  7  8  2  0  0  0  0
  7  9  1  0  0  0  0
  9 10  1  0  0  0  0
  9 32  1  0  0  0  0
  9 33  1  0  0  0  0
 10 17  2  0  0  0  0
 10 11  1  0  0  0  0
 11 12  2  0  0  0  0
 11 34  1  0  0  0  0
 12 13  1  0  0  0  0
 12 35  1  0  0  0  0
 13 14  1  0  0  0  0
 13 17  1  0  0  0  0
 14 15  1  0  0  0  0
 14 16  1  0  0  0  0
 14 36  1  0  0  0  0
 15 37  1  0  0  0  0
 15 38  1  0  0  0  0
 15 39  1  0  0  0  0
 16 40  1  0  0  0  0
 16 41  1  0  0  0  0
 16 42  1  0  0  0  0
 18 19  2  0  0  0  0
 18 20  1  0  0  0  0
M  CHG  1  20  -1
M  END
> <s_m_source_file>
AV-unprocessed.smi

> <i_m_source_file_index>
2892

> <i_lp_mmshare_version>
43012

> <i_f3d_flags>
0

> <s_epik_input>
W0NIM11bQ0gyXVtDQEhdKFtDSDNdKVtDQEBIXShDKD1PKVtPSF0pW05IXUMoPU8pW0NIMl1jMVtjSF1bY0hdbihuMSlbQ0hdKFtDSDNdKVtDSDNd

> <s_epik_cmdline>
J2VwaWtfcHl0aG9uJywgJy1waCcsICc3LjAnLCAnLXRuJywgJzgnLCAnLW1hJywgJzIwMCcsICctbWV0YWxfYmluZGluZycsICctaW1hZScsICc8aW5maWxlLm1hZT4nLCAnLW9tYWUnLCAnPG91dGZpbGUubWFlPic=

> <r_lp_tautomer_probability>
1

> <r_epik_Ionization_Penalty>
0.000286846

> <r_epik_Ionization_Penalty_Charging>
0.000224481

> <r_epik_Ionization_Penalty_Neutral>
6.23655e-05

> <r_epik_State_Penalty>
-0

> <r_epik_Charging_Adjusted_Penalty>
0.000224481

> <i_epik_Tot_Q>
-1

> <i_epik_Tot_abs_Q>
1

> <r_epik_Metal_State_Penalty>
-0

> <b_epik_Metal_Only>
0

> <s_lp_Force_Field>
OPLS_2005

> <r_lp_Energy>
14.4899

> <b_lp_Chiralities_Consistent>
1

> <s_lp_Variant>
AV-unprocessed.smi:2892-2

> <Gold.Version>
5.8.1

> <Gold.Id.Protein>
6NUR|6NUR_protein|mol2

> <Gold.PLP.Fitness>
39.5359

> <Gold.PLP.PLP>
-30.7762

> <Gold.PLP.part.hbond>
-1.7606

> <Gold.PLP.part.metal>
0.0000

> <Gold.PLP.part.buried>
-5.1558

> <Gold.PLP.part.nonpolar>
-23.6054

> <Gold.PLP.part.repulsive>
0.2821

> <Gold.PLP.ligand.clash>
0.0000

> <Gold.PLP.ligand.torsion>
0.9425

> <Gold.PLP.Chemscore.Hbond>
2.4997

> <Gold.PLP.Chemscore.CHOScore>
1.0000

> <Gold.PLP.Chemscore.Metal>
0.0000

> <Gold.Chemscore.Hbonds>
donor molecule, donor type, donor heavy atom, donor atom, acceptor molecule, acceptor atom, score
      L1  H     6    31       P1  7948  0.42
      P1  H  6896  6908       L1    19  2.00
      L1  C    12    35       P1 10957  1.00

> <Gold.PLP.Chemscore.Internal.Correction>
0.1456

> <Gold.Rescore>
     Score         DG    S(hbond)    S(metal)    S(lipo)     H(rot)  DE(clash)    DE(int)     intcor
      8.28     -11.45       1.05        0.00      73.19       2.39       0.03       3.15       ----

> <Gold.Chemscore.Fitness>
8.2825

> <Gold.Chemscore.DG>
-11.4546

> <Gold.Chemscore.ZeroCoef>
-5.4800

> <Gold.Chemscore.Hbond>
1.0541

> <Gold.Chemscore.Metal>
0.0000

> <Gold.Chemscore.Lipo>
73.1897

> <Gold.Chemscore.Internal_Hbond>
0.0000

> <Gold.Chemscore.DEClash>
0.0251

> <Gold.Chemscore.DEInternal>
3.1470

> <Gold.Chemscore.Rot>
2.3865

> <Gold.Chemscore.Internal.Correction>
   9.000000E+99

> <Gold.Chemscore.Hbonds>
donor molecule, donor type, donor heavy atom, donor atom, acceptor molecule, acceptor atom, score
      L1  H     6    31       P1  7948  0.04
      P1  H  6896  6908       L1    19  0.99

> <Gold.Chemscore.Hbond.Weighted>
-3.5208

> <Gold.Chemscore.Metal.Weighted>
-0.0000

> <Gold.Chemscore.Lipo.Weighted>
-8.5632

> <Gold.Chemscore.Internal_Hbond.Weighted>
0.0000

> <Gold.Chemscore.DEClash.Weighted>
0.0251

> <Gold.Chemscore.DEInternal.Weighted>
3.1470

> <Gold.Chemscore.Rot.Weighted>
6.1093

> <Gold.Chemscore.Internal.Correction.Weighted>
   9.000000E+99

> <Gold.Protein.RotatedTorsions>
[ 6907 6896 6895 6894 ] final  144.58 input  -60.11 | X-H torsion
[ 7974 7965 7964 7962 ] final  -82.32 input  175.53 | X-H torsion
[ 8008 7997 7996 7995 ] final  -50.15 input   59.86 | X-H torsion
[ 10167 10162 10161 10158 ] final  -35.87 input  -65.29 | X-H torsion
[ 10718 10713 10712 10709 ] final   13.93 input   66.30 | X-H torsion
[ 10763 10752 10751 10750 ] final  120.57 input  -60.55 | X-H torsion
[ 11005 11000 10999 10996 ] final  -46.12 input  -57.11 | X-H torsion

> <Gold.Protein.ActiveResidues>
 VAL166  LYS551  ARG553  GLY616  TRP617  ASP618  TYR619  PRO620  LYS621  CYS622 
 ASP623  PHE694  ASN695  SER759  ASP760  ASP761  ALA762  ILE779  LEU786  VAL792 
 PHE793  MET794  SER795  GLU796  ALA797  LYS798  CYS799  TRP800  GLU811  SER814 

> <Gold.Protein.RotatedAtoms>
  152.1919  133.4779  159.5012 H   0  0  0  0  0  0  0  0  0  0  0  0  # atno 6907 bound_to 6896
  150.6953  134.1701  159.4218 H   0  0  0  0  0  0  0  0  0  0  0  0  # atno 6908 bound_to 6896
  151.9616  135.0120  160.0598 H   0  0  0  0  0  0  0  0  0  0  0  0  # atno 6909 bound_to 6896
  145.5349  140.9517  143.1582 H   0  0  0  0  0  0  0  0  0  0  0  0  # atno 7974 bound_to 7965
  154.4057  140.1279  156.4619 H   0  0  0  0  0  0  0  0  0  0  0  0  # atno 8008 bound_to 7997
  155.7264  140.3492  155.5019 H   0  0  0  0  0  0  0  0  0  0  0  0  # atno 8009 bound_to 7997
  155.9167  140.1045  157.1228 H   0  0  0  0  0  0  0  0  0  0  0  0  # atno 8010 bound_to 7997
  140.7155  143.3447  151.2281 H   0  0  0  0  0  0  0  0  0  0  0  0  # atno 10167 bound_to 10162
  157.0317  130.6195  149.5736 H   0  0  0  0  0  0  0  0  0  0  0  0  # atno 10718 bound_to 10713
  153.6006  135.3448  155.2944 H   0  0  0  0  0  0  0  0  0  0  0  0  # atno 10763 bound_to 10752
  154.8637  135.4226  154.2417 H   0  0  0  0  0  0  0  0  0  0  0  0  # atno 10764 bound_to 10752
  153.3244  135.7040  153.7073 H   0  0  0  0  0  0  0  0  0  0  0  0  # atno 10765 bound_to 10752
  141.0559  133.6726  156.3109 H   0  0  0  0  0  0  0  0  0  0  0  0  # atno 11005 bound_to 11000
  144.7606  139.6965  143.7236 LP  0  0  0  0  0  0  0  0  0  0  0  0  # atno 17320 bound_to 7965
  146.2019  139.5319  142.9737 LP  0  0  0  0  0  0  0  0  0  0  0  0  # atno 17321 bound_to 7965
  139.6964  143.9606  152.2884 LP  0  0  0  0  0  0  0  0  0  0  0  0  # atno 17342 bound_to 10162
  139.9285  144.6756  150.8388 LP  0  0  0  0  0  0  0  0  0  0  0  0  # atno 17343 bound_to 10162
  156.0067  130.5155  150.7854 LP  0  0  0  0  0  0  0  0  0  0  0  0  # atno 17370 bound_to 10713
  157.5172  131.0929  151.0124 LP  0  0  0  0  0  0  0  0  0  0  0  0  # atno 17371 bound_to 10713
  140.5965  134.5597  157.5509 LP  0  0  0  0  0  0  0  0  0  0  0  0  # atno 17394 bound_to 11000
  139.9389  134.7823  156.0729 LP  0  0  0  0  0  0  0  0  0  0  0  0  # atno 17395 bound_to 11000

$$$$
