AV-unprocessed.smi:2822|AV-procd|sdf|10862|dock6
  -GOLD-   2272015303D 1   1.00000     0.00000
 Structure written by MMmdl.
 41 43  0  0  0  0  0  0  0  0  3 V2000
  149.9661  138.3594  154.1938 Cl  0  0  0  0  0  0  0  0  0  0  0  0
  148.8807  139.7033  154.1186 C   0  0  0  0  0  0  0  0  0  0  0  0
  149.2612  140.9296  154.7019 C   0  0  0  0  0  0  0  0  0  0  0  0
  148.4258  141.9888  154.6538 N   0  3  0  0  0  0  0  0  0  0  0  0
  147.2145  141.9351  154.0606 C   0  0  0  0  0  0  0  0  0  0  0  0
  146.7780  140.7370  153.4595 C   0  0  0  0  0  0  0  0  0  0  0  0
  147.6180  139.5953  153.4847 C   0  0  0  0  0  0  0  0  0  0  0  0
  147.2423  138.3737  152.9038 N   0  0  0  0  0  0  0  0  0  0  0  0
  145.8582  138.1124  152.5377 C   0  0  0  0  0  0  0  0  0  0  0  0
  145.6066  136.6158  152.3038 C   0  0  2  0  0  0  0  0  0  0  0  0
  145.9050  136.2153  150.8415 C   0  0  0  0  0  0  0  0  0  0  0  0
  145.5468  134.8002  150.5787 N   0  3  1  0  0  0  0  0  0  0  0  0
  146.5410  133.8303  151.1135 C   0  0  0  0  0  0  0  0  0  0  0  0
  146.1598  132.3854  150.7605 C   0  0  0  0  0  0  0  0  0  0  0  0
  144.7549  132.0546  151.2754 C   0  0  0  0  0  0  0  0  0  0  0  0
  143.7429  133.0604  150.7102 C   0  0  0  0  0  0  0  0  0  0  0  0
  144.1431  134.5243  150.9925 C   0  0  1  0  0  0  0  0  0  0  0  0
  143.9077  134.9673  152.4519 C   0  0  0  0  0  0  0  0  0  0  0  0
  144.2353  136.3463  152.5818 O   0  0  0  0  0  0  0  0  0  0  0  0
  150.2042  141.0938  155.2028 H   0  0  0  0  0  0  0  0  0  0  0  0
  146.6345  142.8464  154.0830 H   0  0  0  0  0  0  0  0  0  0  0  0
  145.8076  140.7156  152.9868 H   0  0  0  0  0  0  0  0  0  0  0  0
  147.8766  137.5894  152.9676 H   0  0  0  0  0  0  0  0  0  0  0  0
  145.1912  138.4890  153.3142 H   0  0  0  0  0  0  0  0  0  0  0  0
  145.6349  138.6616  151.6223 H   0  0  0  0  0  0  0  0  0  0  0  0
  146.2385  136.0432  152.9845 H   0  0  0  0  0  0  0  0  0  0  0  0
  145.3238  136.8439  150.1655 H   0  0  0  0  0  0  0  0  0  0  0  0
  146.9540  136.3880  150.5971 H   0  0  0  0  0  0  0  0  0  0  0  0
  147.5236  134.0571  150.6980 H   0  0  0  0  0  0  0  0  0  0  0  0
  146.6299  133.9279  152.1954 H   0  0  0  0  0  0  0  0  0  0  0  0
  146.1995  132.2463  149.6794 H   0  0  0  0  0  0  0  0  0  0  0  0
  146.8859  131.6937  151.1890 H   0  0  0  0  0  0  0  0  0  0  0  0
  144.4777  131.0411  150.9838 H   0  0  0  0  0  0  0  0  0  0  0  0
  144.7415  132.0783  152.3655 H   0  0  0  0  0  0  0  0  0  0  0  0
  143.6702  132.9149  149.6314 H   0  0  0  0  0  0  0  0  0  0  0  0
  142.7483  132.8566  151.1082 H   0  0  0  0  0  0  0  0  0  0  0  0
  143.5034  135.1502  150.3682 H   0  0  0  0  0  0  0  0  0  0  0  0
  142.8593  134.8357  152.7200 H   0  0  0  0  0  0  0  0  0  0  0  0
  144.4895  134.3746  153.1586 H   0  0  0  0  0  0  0  0  0  0  0  0
  145.5733  134.6817  149.5758 H   0  0  0  0  0  0  0  0  0  0  0  0
  148.7228  142.8657  155.0831 H   0  0  0  0  0  0  0  0  0  0  0  0
  1  2  1  0  0  0  0
  2  7  1  0  0  0  0
  2  3  2  0  0  0  0
  3  4  1  0  0  0  0
  3 20  1  0  0  0  0
  4  5  2  0  0  0  0
  4 41  1  0  0  0  0
  5  6  1  0  0  0  0
  5 21  1  0  0  0  0
  6  7  2  0  0  0  0
  6 22  1  0  0  0  0
  7  8  1  0  0  0  0
  8  9  1  0  0  0  0
  8 23  1  0  0  0  0
  9 10  1  0  0  0  0
  9 24  1  0  0  0  0
  9 25  1  0  0  0  0
 10 19  1  0  0  0  0
 10 11  1  0  0  0  0
 10 26  1  0  0  0  0
 11 12  1  0  0  0  0
 11 27  1  0  0  0  0
 11 28  1  0  0  0  0
 12 17  1  0  0  0  0
 12 13  1  0  0  0  0
 12 40  1  0  0  0  0
 13 14  1  0  0  0  0
 13 29  1  0  0  0  0
 13 30  1  0  0  0  0
 14 15  1  0  0  0  0
 14 31  1  0  0  0  0
 14 32  1  0  0  0  0
 15 16  1  0  0  0  0
 15 33  1  0  0  0  0
 15 34  1  0  0  0  0
 16 17  1  0  0  0  0
 16 35  1  0  0  0  0
 16 36  1  0  0  0  0
 17 18  1  0  0  0  0
 17 37  1  0  0  0  0
 18 19  1  0  0  0  0
 18 38  1  0  0  0  0
 18 39  1  0  0  0  0
M  CHG  1   4   1
M  CHG  1  12   1
M  END
> <s_m_source_file>
AV-unprocessed.smi

> <i_m_source_file_index>
2822

> <i_lp_mmshare_version>
43012

> <i_f3d_flags>
0

> <s_epik_input>
Q2xjMVtjSF1uW2NIXVtjSF1jMVtOSF1bQ0gyXVtDQEhdKFtDSDJdMilPW0NIMl1bQ0BASF0oTjIzKVtDSDJdW0NIMl1bQ0gyXVtDSDJdMw==

> <s_epik_cmdline>
J2VwaWtfcHl0aG9uJywgJy1waCcsICc3LjAnLCAnLXRuJywgJzgnLCAnLW1hJywgJzIwMCcsICctbWV0YWxfYmluZGluZycsICctaW1hZScsICc8aW5maWxlLm1hZT4nLCAnLW9tYWUnLCAnPG91dGZpbGUubWFlPic=

> <r_lp_tautomer_probability>
1

> <r_epik_Ionization_Penalty>
0.254999

> <r_epik_Ionization_Penalty_Charging>
0.254956

> <r_epik_Ionization_Penalty_Neutral>
4.33524e-05

> <r_epik_State_Penalty>
0.230978

> <r_epik_Charging_Adjusted_Penalty>
0.485934

> <i_epik_Tot_Q>
2

> <i_epik_Tot_abs_Q>
2

> <r_epik_Metal_State_Penalty>
3.47007

> <b_epik_Metal_Only>
0

> <s_lp_Force_Field>
OPLS_2005

> <r_lp_Energy>
40.6949

> <b_lp_Chiralities_Consistent>
1

> <s_lp_Variant>
AV-unprocessed.smi:2822-3

> <Gold.Version>
5.8.1

> <Gold.Id.Protein>
6NUR|6NUR_protein|mol2

> <Gold.PLP.Fitness>
47.0804

> <Gold.PLP.PLP>
-36.4076

> <Gold.PLP.part.hbond>
-3.0148

> <Gold.PLP.part.metal>
0.0000

> <Gold.PLP.part.buried>
-1.4623

> <Gold.PLP.part.nonpolar>
-33.2352

> <Gold.PLP.part.repulsive>
0.4581

> <Gold.PLP.ligand.clash>
0.0000

> <Gold.PLP.ligand.torsion>
0.4837

> <Gold.PLP.Chemscore.Hbond>
3.8800

> <Gold.PLP.Chemscore.CHOScore>
0.0000

> <Gold.PLP.Chemscore.Metal>
0.0000

> <Gold.Chemscore.Hbonds>
donor molecule, donor type, donor heavy atom, donor atom, acceptor molecule, acceptor atom, score
      L1  H     4    41       P1  8028  2.00
      L1  H     8    23       P1  7948  0.83
      L1  H    12    40       P1  7921  1.00

> <Gold.PLP.Chemscore.Internal.Correction>
0.0002

> <Gold.Rescore>
     Score         DG    S(hbond)    S(metal)    S(lipo)     H(rot)  DE(clash)    DE(int)     intcor
     23.25     -23.79       2.81        0.00     102.35       1.20       0.05       0.49       ----

> <Gold.Chemscore.Fitness>
23.2463

> <Gold.Chemscore.DG>
-23.7942

> <Gold.Chemscore.ZeroCoef>
-5.4800

> <Gold.Chemscore.Hbond>
2.8148

> <Gold.Chemscore.Metal>
0.0000

> <Gold.Chemscore.Lipo>
102.3516

> <Gold.Chemscore.Internal_Hbond>
0.0000

> <Gold.Chemscore.DEClash>
0.0547

> <Gold.Chemscore.DEInternal>
0.4932

> <Gold.Chemscore.Rot>
1.1962

> <Gold.Chemscore.Internal.Correction>
   9.000000E+99

> <Gold.Chemscore.Hbonds>
donor molecule, donor type, donor heavy atom, donor atom, acceptor molecule, acceptor atom, score
      L1  H     4    41       P1  8028  0.99
      L1  H     8    23       P1  7948  0.77
      L1  H    12    40       P1  7921  0.89

> <Gold.Chemscore.Hbond.Weighted>
-9.4014

> <Gold.Chemscore.Metal.Weighted>
-0.0000

> <Gold.Chemscore.Lipo.Weighted>
-11.9751

> <Gold.Chemscore.Internal_Hbond.Weighted>
0.0000

> <Gold.Chemscore.DEClash.Weighted>
0.0547

> <Gold.Chemscore.DEInternal.Weighted>
0.4932

> <Gold.Chemscore.Rot.Weighted>
3.0623

> <Gold.Chemscore.Internal.Correction.Weighted>
   9.000000E+99

> <Gold.Protein.RotatedTorsions>
[ 6907 6896 6895 6894 ] final  -10.33 input  -60.11 | X-H torsion
[ 7974 7965 7964 7962 ] final    9.64 input  175.53 | X-H torsion
[ 8008 7997 7996 7995 ] final  -14.84 input   59.86 | X-H torsion
[ 10167 10162 10161 10158 ] final  102.44 input  -65.29 | X-H torsion
[ 10718 10713 10712 10709 ] final -177.28 input   66.30 | X-H torsion
[ 10763 10752 10751 10750 ] final -136.13 input  -60.55 | X-H torsion
[ 11005 11000 10999 10996 ] final -150.53 input  -57.11 | X-H torsion

> <Gold.Protein.ActiveResidues>
 VAL166  LYS551  ARG553  GLY616  TRP617  ASP618  TYR619  PRO620  LYS621  CYS622 
 ASP623  PHE694  ASN695  SER759  ASP760  ASP761  ALA762  ILE779  LEU786  VAL792 
 PHE793  MET794  SER795  GLU796  ALA797  LYS798  CYS799  TRP800  GLU811  SER814 

> <Gold.Protein.RotatedAtoms>
  151.4037  135.0975  159.9563 H   0  0  0  0  0  0  0  0  0  0  0  0  # atno 6907 bound_to 6896
  152.5042  133.8863  159.7382 H   0  0  0  0  0  0  0  0  0  0  0  0  # atno 6908 bound_to 6896
  150.9343  133.6674  159.2832 H   0  0  0  0  0  0  0  0  0  0  0  0  # atno 6909 bound_to 6896
  146.2400  139.9753  142.8442 H   0  0  0  0  0  0  0  0  0  0  0  0  # atno 7974 bound_to 7965
  154.5178  140.2212  155.9033 H   0  0  0  0  0  0  0  0  0  0  0  0  # atno 8008 bound_to 7997
  156.1627  140.3139  155.8800 H   0  0  0  0  0  0  0  0  0  0  0  0  # atno 8009 bound_to 7997
  155.3719  140.0467  157.3036 H   0  0  0  0  0  0  0  0  0  0  0  0  # atno 8010 bound_to 7997
  139.7350  144.7026  151.0663 H   0  0  0  0  0  0  0  0  0  0  0  0  # atno 10167 bound_to 10162
  156.8271  130.9640  151.3108 H   0  0  0  0  0  0  0  0  0  0  0  0  # atno 10718 bound_to 10713
  154.8690  135.3682  154.5010 H   0  0  0  0  0  0  0  0  0  0  0  0  # atno 10763 bound_to 10752
  153.5651  135.7022  153.5534 H   0  0  0  0  0  0  0  0  0  0  0  0  # atno 10764 bound_to 10752
  153.3592  135.4051  155.1669 H   0  0  0  0  0  0  0  0  0  0  0  0  # atno 10765 bound_to 10752
  140.7392  134.3534  157.5151 H   0  0  0  0  0  0  0  0  0  0  0  0  # atno 11005 bound_to 11000
  145.1643  140.9688  143.4359 LP  0  0  0  0  0  0  0  0  0  0  0  0  # atno 17320 bound_to 7965
  145.0087  139.3530  143.6131 LP  0  0  0  0  0  0  0  0  0  0  0  0  # atno 17321 bound_to 7965
  140.7777  143.4996  150.9789 LP  0  0  0  0  0  0  0  0  0  0  0  0  # atno 17342 bound_to 10162
  139.8684  143.7224  152.3168 LP  0  0  0  0  0  0  0  0  0  0  0  0  # atno 17343 bound_to 10162
  157.6426  130.8818  149.9477 LP  0  0  0  0  0  0  0  0  0  0  0  0  # atno 17370 bound_to 10713
  156.0955  130.3660  150.0314 LP  0  0  0  0  0  0  0  0  0  0  0  0  # atno 17371 bound_to 10713
  139.8810  134.9069  156.2934 LP  0  0  0  0  0  0  0  0  0  0  0  0  # atno 17394 bound_to 11000
  140.9852  133.7242  156.0731 LP  0  0  0  0  0  0  0  0  0  0  0  0  # atno 17395 bound_to 11000

$$$$
