AV-unprocessed.smi:2668|AV-procd|sdf|10339|dock1
  -GOLD-   2272014363D 1   1.00000     0.00000
 Structure written by MMmdl.
 54 55  0  0  0  0  0  0  0  0  3 V2000
  143.2822  132.7648  151.1178 C   0  0  0  0  0  0  0  0  0  0  0  0
  144.7191  132.5274  151.4046 N   0  3  0  0  0  0  0  0  0  0  0  0
  145.1234  131.1871  150.9115 C   0  0  0  0  0  0  0  0  0  0  0  0
  145.6172  133.6354  150.9398 C   0  0  2  0  0  0  0  0  0  0  0  0
  147.1202  133.2939  151.0431 C   0  0  0  0  0  0  0  0  0  0  0  0
  147.5969  133.1918  152.5043 C   0  0  0  0  0  0  0  0  0  0  0  0
  147.3382  134.4572  153.2565 N   0  3  2  0  0  0  0  0  0  0  0  0
  147.9390  134.5303  154.6396 C   0  0  0  0  0  0  0  0  0  0  0  0
  149.2667  133.7414  154.7259 C   0  0  0  0  0  0  0  0  0  0  0  0
  148.2420  135.9990  155.0282 C   0  0  0  0  0  0  0  0  0  0  0  0
  146.9578  133.9566  155.7066 C   0  0  0  0  0  0  0  0  0  0  0  0
  147.4130  134.1307  157.0870 N   0  0  0  0  0  0  0  0  0  0  0  0
  146.9330  135.0293  157.9589 C   0  0  0  0  0  0  0  0  0  0  0  0
  146.0154  135.8051  157.6963 O   0  0  0  0  0  0  0  0  0  0  0  0
  147.5941  134.9729  159.1277 N   0  0  0  0  0  0  0  0  0  0  0  0
  147.3749  135.7409  160.3031 C   0  0  0  0  0  0  0  0  0  0  0  0
  147.8445  135.2235  161.5283 C   0  0  0  0  0  0  0  0  0  0  0  0
  147.6256  135.9542  162.7115 C   0  0  0  0  0  0  0  0  0  0  0  0
  146.9333  137.1775  162.6244 C   0  0  0  0  0  0  0  0  0  0  0  0
  146.4632  137.6799  161.4634 N   0  0  0  0  0  0  0  0  0  0  0  0
  146.6788  136.9753  160.3317 C   0  0  0  0  0  0  0  0  0  0  0  0
  145.8950  134.8352  153.1771 C   0  0  0  0  0  0  0  0  0  0  0  0
  145.4221  134.9557  151.7176 C   0  0  0  0  0  0  0  0  0  0  0  0
  143.1201  132.9570  150.0564 H   0  0  0  0  0  0  0  0  0  0  0  0
  142.8891  133.6043  151.6893 H   0  0  0  0  0  0  0  0  0  0  0  0
  142.6787  131.9006  151.3982 H   0  0  0  0  0  0  0  0  0  0  0  0
  145.1937  131.1741  149.8231 H   0  0  0  0  0  0  0  0  0  0  0  0
  144.4016  130.4261  151.2105 H   0  0  0  0  0  0  0  0  0  0  0  0
  146.0800  130.8744  151.3273 H   0  0  0  0  0  0  0  0  0  0  0  0
  145.3801  133.8199  149.8908 H   0  0  0  0  0  0  0  0  0  0  0  0
  147.3738  132.3888  150.4935 H   0  0  0  0  0  0  0  0  0  0  0  0
  147.6923  134.0815  150.5500 H   0  0  0  0  0  0  0  0  0  0  0  0
  147.1065  132.3529  152.9981 H   0  0  0  0  0  0  0  0  0  0  0  0
  148.6600  132.9623  152.4716 H   0  0  0  0  0  0  0  0  0  0  0  0
  149.7048  133.8291  155.7210 H   0  0  0  0  0  0  0  0  0  0  0  0
  150.0110  134.1098  154.0200 H   0  0  0  0  0  0  0  0  0  0  0  0
  149.1303  132.6766  154.5387 H   0  0  0  0  0  0  0  0  0  0  0  0
  148.4900  136.0857  156.0868 H   0  0  0  0  0  0  0  0  0  0  0  0
  147.3905  136.6535  154.8396 H   0  0  0  0  0  0  0  0  0  0  0  0
  149.0982  136.4029  154.4878 H   0  0  0  0  0  0  0  0  0  0  0  0
  145.9839  134.4397  155.6293 H   0  0  0  0  0  0  0  0  0  0  0  0
  146.7491  132.9038  155.5072 H   0  0  0  0  0  0  0  0  0  0  0  0
  148.1829  133.5511  157.3879 H   0  0  0  0  0  0  0  0  0  0  0  0
  148.3852  134.3469  159.1636 H   0  0  0  0  0  0  0  0  0  0  0  0
  148.3707  134.2807  161.5639 H   0  0  0  0  0  0  0  0  0  0  0  0
  147.9795  135.5861  163.6632 H   0  0  0  0  0  0  0  0  0  0  0  0
  146.7472  137.7646  163.5114 H   0  0  0  0  0  0  0  0  0  0  0  0
  146.2575  137.4159  159.4418 H   0  0  0  0  0  0  0  0  0  0  0  0
  145.2835  134.0986  153.6984 H   0  0  0  0  0  0  0  0  0  0  0  0
  145.7120  135.7925  153.6607 H   0  0  0  0  0  0  0  0  0  0  0  0
  146.0008  135.7420  151.2300 H   0  0  0  0  0  0  0  0  0  0  0  0
  144.3925  135.3077  151.6758 H   0  0  0  0  0  0  0  0  0  0  0  0
  144.7973  132.4875  152.4108 H   0  0  0  0  0  0  0  0  0  0  0  0
  147.8295  135.1711  152.7371 H   0  0  0  0  0  0  0  0  0  0  0  0
  1  2  1  0  0  0  0
  1 24  1  0  0  0  0
  1 25  1  0  0  0  0
  1 26  1  0  0  0  0
  2  3  1  0  0  0  0
  2  4  1  0  0  0  0
  2 53  1  0  0  0  0
  3 27  1  0  0  0  0
  3 28  1  0  0  0  0
  3 29  1  0  0  0  0
  4 23  1  0  0  0  0
  4  5  1  0  0  0  0
  4 30  1  0  0  0  0
  5  6  1  0  0  0  0
  5 31  1  0  0  0  0
  5 32  1  0  0  0  0
  6  7  1  0  0  0  0
  6 33  1  0  0  0  0
  6 34  1  0  0  0  0
  7  8  1  0  0  0  0
  7 22  1  0  0  0  0
  7 54  1  0  0  0  0
  8  9  1  0  0  0  0
  8 10  1  0  0  0  0
  8 11  1  0  0  0  0
  9 35  1  0  0  0  0
  9 36  1  0  0  0  0
  9 37  1  0  0  0  0
 10 38  1  0  0  0  0
 10 39  1  0  0  0  0
 10 40  1  0  0  0  0
 11 12  1  0  0  0  0
 11 41  1  0  0  0  0
 11 42  1  0  0  0  0
 12 13  1  0  0  0  0
 12 43  1  0  0  0  0
 13 14  2  0  0  0  0
 13 15  1  0  0  0  0
 15 16  1  0  0  0  0
 15 44  1  0  0  0  0
 16 21  1  0  0  0  0
 16 17  2  0  0  0  0
 17 18  1  0  0  0  0
 17 45  1  0  0  0  0
 18 19  2  0  0  0  0
 18 46  1  0  0  0  0
 19 20  1  0  0  0  0
 19 47  1  0  0  0  0
 20 21  2  0  0  0  0
 21 48  1  0  0  0  0
 22 23  1  0  0  0  0
 22 49  1  0  0  0  0
 22 50  1  0  0  0  0
 23 51  1  0  0  0  0
 23 52  1  0  0  0  0
M  CHG  1   2   1
M  CHG  1   7   1
M  END
> <s_m_source_file>
AV-unprocessed.smi

> <i_m_source_file_index>
2668

> <i_lp_mmshare_version>
43012

> <i_f3d_flags>
0

> <s_epik_input>
W0NIM11OKFtDSDNdKVtDSF0xW0NIMl1bQ0gyXU4oW0NIMl1bQ0gyXTEpQyhbQ0gzXSkoW0NIM10pW0NIMl1bTkhdQyg9TylbTkhdYzJbY0hdW2NIXVtjSF1uW2NIXTI=

> <s_epik_cmdline>
J2VwaWtfcHl0aG9uJywgJy1waCcsICc3LjAnLCAnLXRuJywgJzgnLCAnLW1hJywgJzIwMCcsICctbWV0YWxfYmluZGluZycsICctaW1hZScsICc8aW5maWxlLm1hZT4nLCAnLW9tYWUnLCAnPG91dGZpbGUubWFlPic=

> <r_epik_Ionization_Penalty>
0.210461

> <r_epik_Ionization_Penalty_Charging>
0.206231

> <r_epik_Ionization_Penalty_Neutral>
0.00422959

> <r_epik_State_Penalty>
0.176025

> <r_epik_Charging_Adjusted_Penalty>
0.382256

> <i_epik_Tot_Q>
2

> <i_epik_Tot_abs_Q>
2

> <r_epik_Metal_State_Penalty>
0.176152

> <b_epik_Metal_Only>
0

> <s_lp_Force_Field>
OPLS_2005

> <r_lp_Energy>
56.664

> <b_lp_Chiralities_Consistent>
1

> <s_lp_Variant>
AV-unprocessed.smi:2668-2

> <Gold.Version>
5.8.1

> <Gold.Id.Protein>
6NUR|6NUR_protein|mol2

> <Gold.PLP.Fitness>
40.1052

> <Gold.PLP.PLP>
-33.6067

> <Gold.PLP.part.hbond>
-2.0000

> <Gold.PLP.part.metal>
0.0000

> <Gold.PLP.part.buried>
-3.4083

> <Gold.PLP.part.nonpolar>
-27.2592

> <Gold.PLP.part.repulsive>
0.0668

> <Gold.PLP.ligand.clash>
0.0000

> <Gold.PLP.ligand.torsion>
1.1037

> <Gold.PLP.Chemscore.Hbond>
2.8500

> <Gold.PLP.Chemscore.CHOScore>
0.0000

> <Gold.PLP.Chemscore.Metal>
0.0000

> <Gold.Chemscore.Hbonds>
donor molecule, donor type, donor heavy atom, donor atom, acceptor molecule, acceptor atom, score
      L1  H     7    54       P1  7948  2.00
      P1  H  6934  6947       L1    20  0.80

> <Gold.PLP.Chemscore.Internal.Correction>
0.1560

> <Gold.Rescore>
     Score         DG    S(hbond)    S(metal)    S(lipo)     H(rot)  DE(clash)    DE(int)     intcor
     13.76     -16.11       1.17        0.00      94.47       1.69       0.07       2.29       ----

> <Gold.Chemscore.Fitness>
13.7572

> <Gold.Chemscore.DG>
-16.1134

> <Gold.Chemscore.ZeroCoef>
-5.4800

> <Gold.Chemscore.Hbond>
1.1678

> <Gold.Chemscore.Metal>
0.0000

> <Gold.Chemscore.Lipo>
94.4744

> <Gold.Chemscore.Internal_Hbond>
0.0000

> <Gold.Chemscore.DEClash>
0.0689

> <Gold.Chemscore.DEInternal>
2.2872

> <Gold.Chemscore.Rot>
1.6877

> <Gold.Chemscore.Internal.Correction>
   9.000000E+99

> <Gold.Chemscore.Hbonds>
donor molecule, donor type, donor heavy atom, donor atom, acceptor molecule, acceptor atom, score
      L1  H     7    54       P1  7948  0.99
      P1  H  6934  6947       L1    20  0.10

> <Gold.Chemscore.Hbond.Weighted>
-3.9004

> <Gold.Chemscore.Metal.Weighted>
-0.0000

> <Gold.Chemscore.Lipo.Weighted>
-11.0535

> <Gold.Chemscore.Internal_Hbond.Weighted>
0.0000

> <Gold.Chemscore.DEClash.Weighted>
0.0689

> <Gold.Chemscore.DEInternal.Weighted>
2.2872

> <Gold.Chemscore.Rot.Weighted>
4.3205

> <Gold.Chemscore.Internal.Correction.Weighted>
   9.000000E+99

> <Gold.Protein.RotatedTorsions>
[ 6907 6896 6895 6894 ] final  177.09 input  -60.11 | X-H torsion
[ 7974 7965 7964 7962 ] final  -84.94 input  175.53 | X-H torsion
[ 8008 7997 7996 7995 ] final  176.35 input   59.86 | X-H torsion
[ 10167 10162 10161 10158 ] final  175.22 input  -65.29 | X-H torsion
[ 10718 10713 10712 10709 ] final -113.89 input   66.30 | X-H torsion
[ 10763 10752 10751 10750 ] final  118.21 input  -60.55 | X-H torsion
[ 11005 11000 10999 10996 ] final -146.21 input  -57.11 | X-H torsion

> <Gold.Protein.ActiveResidues>
 VAL166  LYS551  ARG553  GLY616  TRP617  ASP618  TYR619  PRO620  LYS621  CYS622 
 ASP623  PHE694  ASN695  SER759  ASP760  ASP761  ALA762  ILE779  LEU786  VAL792 
 PHE793  MET794  SER795  GLU796  ALA797  LYS798  CYS799  TRP800  GLU811  SER814 

> <Gold.Protein.RotatedAtoms>
  151.7096  133.3312  159.3287 H   0  0  0  0  0  0  0  0  0  0  0  0  # atno 6907 bound_to 6896
  150.7700  134.6544  159.6315 H   0  0  0  0  0  0  0  0  0  0  0  0  # atno 6908 bound_to 6896
  152.3720  134.6723  160.0225 H   0  0  0  0  0  0  0  0  0  0  0  0  # atno 6909 bound_to 6896
  145.4998  140.9548  143.1766 H   0  0  0  0  0  0  0  0  0  0  0  0  # atno 7974 bound_to 7965
  156.0774  140.1386  156.9755 H   0  0  0  0  0  0  0  0  0  0  0  0  # atno 8008 bound_to 7997
  154.4565  140.0959  156.6823 H   0  0  0  0  0  0  0  0  0  0  0  0  # atno 8009 bound_to 7997
  155.5131  140.3454  155.4394 H   0  0  0  0  0  0  0  0  0  0  0  0  # atno 8010 bound_to 7997
  139.5169  144.3057  152.0338 H   0  0  0  0  0  0  0  0  0  0  0  0  # atno 10167 bound_to 10162
  156.0795  130.5997  150.8702 H   0  0  0  0  0  0  0  0  0  0  0  0  # atno 10718 bound_to 10713
  153.5642  135.3515  155.2812 H   0  0  0  0  0  0  0  0  0  0  0  0  # atno 10763 bound_to 10752
  154.8691  135.4144  154.2796 H   0  0  0  0  0  0  0  0  0  0  0  0  # atno 10764 bound_to 10752
  153.3549  135.7057  153.6828 H   0  0  0  0  0  0  0  0  0  0  0  0  # atno 10765 bound_to 10752
  140.7843  134.3043  157.5035 H   0  0  0  0  0  0  0  0  0  0  0  0  # atno 11005 bound_to 11000
  144.7786  139.6575  143.7164 LP  0  0  0  0  0  0  0  0  0  0  0  0  # atno 17320 bound_to 7965
  146.2233  139.5675  142.9604 LP  0  0  0  0  0  0  0  0  0  0  0  0  # atno 17321 bound_to 7965
  140.2503  144.4176  150.6224 LP  0  0  0  0  0  0  0  0  0  0  0  0  # atno 17342 bound_to 10162
  140.6229  143.2178  151.6657 LP  0  0  0  0  0  0  0  0  0  0  0  0  # atno 17343 bound_to 10162
  157.5906  131.0944  150.9125 LP  0  0  0  0  0  0  0  0  0  0  0  0  # atno 17370 bound_to 10713
  156.9302  130.5347  149.5279 LP  0  0  0  0  0  0  0  0  0  0  0  0  # atno 17371 bound_to 10713
  139.8738  134.9337  156.3587 LP  0  0  0  0  0  0  0  0  0  0  0  0  # atno 17394 bound_to 11000
  140.9452  133.7488  156.0199 LP  0  0  0  0  0  0  0  0  0  0  0  0  # atno 17395 bound_to 11000

$$$$
