AV-unprocessed.smi:1738|AV-procd|sdf|7004|dock4
  -GOLD-   22720 8213D 1   1.00000     0.00000
 Structure written by MMmdl.
 46 48  0  0  0  0  0  0  0  0  2 V2000
  152.2415  139.1981  159.2027 C   0  0  0  0  0  0  0  0  0  0  0  0
  153.1589  137.7148  158.6195 S   0  0  0  0  0  0  0  0  0  0  0  0
  154.4364  138.1702  158.0490 O   0  0  0  0  0  0  0  0  0  0  0  0
  153.1610  136.7181  159.7017 O   0  0  0  0  0  0  0  0  0  0  0  0
  152.1420  137.0823  157.2901 C   0  0  0  0  0  0  0  0  0  0  0  0
  152.0730  137.7624  156.0580 C   0  0  0  0  0  0  0  0  0  0  0  0
  151.2257  137.2449  155.0595 C   0  0  0  0  0  0  0  0  0  0  0  0
  150.4701  136.0780  155.3369 C   0  0  0  0  0  0  0  0  0  0  0  0
  149.5820  135.4440  154.4235 N   0  0  0  0  0  0  0  0  0  0  0  0
  148.9717  134.2493  154.5131 C   0  0  0  0  0  0  0  0  0  0  0  0
  149.0918  133.4494  155.4398 O   0  0  0  0  0  0  0  0  0  0  0  0
  148.2013  134.0195  153.4400 N   0  0  0  0  0  0  0  0  0  0  0  0
  147.3853  132.8266  153.2294 C   0  0  1  0  0  0  0  0  0  0  0  0
  146.5551  132.8895  151.9528 C   0  0  0  0  0  0  0  0  0  0  0  0
  146.2102  131.4180  151.7179 C   0  0  0  0  0  0  0  0  0  0  0  0
  147.3716  130.6425  152.2118 N   0  3  2  0  0  0  0  0  0  0  0  0
  147.0203  129.3506  152.8504 C   0  0  0  0  0  0  0  0  0  0  0  0
  148.2883  128.6043  153.3050 C   0  0  0  0  0  0  0  0  0  0  0  0
  149.2543  129.4914  154.1180 C   0  0  0  0  0  0  0  0  0  0  0  0
  148.6962  130.9036  154.3529 C   0  0  0  0  0  0  0  0  0  0  0  0
  148.2232  131.5515  153.0314 C   0  0  2  0  0  0  0  0  0  0  0  0
  150.6169  135.4893  156.6120 C   0  0  0  0  0  0  0  0  0  0  0  0
  151.4247  135.9759  157.5771 N   0  0  0  0  0  0  0  0  0  0  0  0
  152.7868  139.6621  160.0242 H   0  0  0  0  0  0  0  0  0  0  0  0
  151.2509  138.9011  159.5470 H   0  0  0  0  0  0  0  0  0  0  0  0
  152.1426  139.9103  158.3836 H   0  0  0  0  0  0  0  0  0  0  0  0
  152.6533  138.6545  155.8752 H   0  0  0  0  0  0  0  0  0  0  0  0
  151.1831  137.7555  154.1114 H   0  0  0  0  0  0  0  0  0  0  0  0
  149.3976  135.9672  153.5800 H   0  0  0  0  0  0  0  0  0  0  0  0
  148.1629  134.7302  152.7238 H   0  0  0  0  0  0  0  0  0  0  0  0
  146.6969  132.6891  154.0663 H   0  0  0  0  0  0  0  0  0  0  0  0
  145.6708  133.5204  152.0499 H   0  0  0  0  0  0  0  0  0  0  0  0
  147.1551  133.2688  151.1240 H   0  0  0  0  0  0  0  0  0  0  0  0
  145.3189  131.1628  152.2937 H   0  0  0  0  0  0  0  0  0  0  0  0
  146.0023  131.1999  150.6701 H   0  0  0  0  0  0  0  0  0  0  0  0
  146.3637  129.5294  153.7035 H   0  0  0  0  0  0  0  0  0  0  0  0
  146.4583  128.7365  152.1458 H   0  0  0  0  0  0  0  0  0  0  0  0
  148.0023  127.7308  153.8921 H   0  0  0  0  0  0  0  0  0  0  0  0
  148.8123  128.2177  152.4300 H   0  0  0  0  0  0  0  0  0  0  0  0
  149.4835  129.0195  155.0740 H   0  0  0  0  0  0  0  0  0  0  0  0
  150.2027  129.5684  153.5848 H   0  0  0  0  0  0  0  0  0  0  0  0
  147.8688  130.8492  155.0619 H   0  0  0  0  0  0  0  0  0  0  0  0
  149.4568  131.5256  154.8252 H   0  0  0  0  0  0  0  0  0  0  0  0
  149.0947  131.7825  152.4165 H   0  0  0  0  0  0  0  0  0  0  0  0
  150.0630  134.5984  156.8703 H   0  0  0  0  0  0  0  0  0  0  0  0
  147.9288  130.4118  151.4013 H   0  0  0  0  0  0  0  0  0  0  0  0
  1  2  1  0  0  0  0
  1 24  1  0  0  0  0
  1 25  1  0  0  0  0
  1 26  1  0  0  0  0
  2  3  2  0  0  0  0
  2  4  2  0  0  0  0
  2  5  1  0  0  0  0
  5 23  1  0  0  0  0
  5  6  2  0  0  0  0
  6  7  1  0  0  0  0
  6 27  1  0  0  0  0
  7  8  2  0  0  0  0
  7 28  1  0  0  0  0
  8  9  1  0  0  0  0
  8 22  1  0  0  0  0
  9 10  1  0  0  0  0
  9 29  1  0  0  0  0
 10 11  2  0  0  0  0
 10 12  1  0  0  0  0
 12 13  1  0  0  0  0
 12 30  1  0  0  0  0
 13 21  1  0  0  0  0
 13 14  1  0  0  0  0
 13 31  1  0  0  0  0
 14 15  1  0  0  0  0
 14 32  1  0  0  0  0
 14 33  1  0  0  0  0
 15 16  1  0  0  0  0
 15 34  1  0  0  0  0
 15 35  1  0  0  0  0
 16 21  1  0  0  0  0
 16 17  1  0  0  0  0
 16 46  1  0  0  0  0
 17 18  1  0  0  0  0
 17 36  1  0  0  0  0
 17 37  1  0  0  0  0
 18 19  1  0  0  0  0
 18 38  1  0  0  0  0
 18 39  1  0  0  0  0
 19 20  1  0  0  0  0
 19 40  1  0  0  0  0
 19 41  1  0  0  0  0
 20 21  1  0  0  0  0
 20 42  1  0  0  0  0
 20 43  1  0  0  0  0
 21 44  1  0  0  0  0
 22 23  2  0  0  0  0
 22 45  1  0  0  0  0
M  CHG  1  16   1
M  END
> <s_m_source_file>
AV-unprocessed.smi

> <i_m_source_file_index>
1738

> <i_lp_mmshare_version>
43012

> <i_f3d_flags>
0

> <s_epik_input>
W0NIM11TKD1PKSg9TyljMVtjSF1bY0hdYyhbY0hdbjEpW05IXUMoPU8pW05IXVtDQEhdKFtDSDJdW0NIMl0yKVtDQEBIXShOMjMpW0NIMl1bQ0gyXVtDSDJdW0NIMl0z

> <s_epik_cmdline>
J2VwaWtfcHl0aG9uJywgJy1waCcsICc3LjAnLCAnLXRuJywgJzgnLCAnLW1hJywgJzIwMCcsICctbWV0YWxfYmluZGluZycsICctaW1hZScsICc8aW5maWxlLm1hZT4nLCAnLW9tYWUnLCAnPG91dGZpbGUubWFlPic=

> <r_epik_Ionization_Penalty>
0.00100042

> <r_epik_Ionization_Penalty_Charging>
0.000974069

> <r_epik_Ionization_Penalty_Neutral>
2.63543e-05

> <r_epik_State_Penalty>
0.000633842

> <r_epik_Charging_Adjusted_Penalty>
0.00160791

> <i_epik_Tot_Q>
1

> <i_epik_Tot_abs_Q>
1

> <r_epik_Metal_State_Penalty>
-0

> <b_epik_Metal_Only>
0

> <s_lp_Force_Field>
OPLS_2005

> <r_lp_Energy>
42.7986

> <b_lp_Chiralities_Consistent>
1

> <s_lp_Variant>
AV-unprocessed.smi:1738-8

> <Gold.Version>
5.8.1

> <Gold.Id.Protein>
6NUR|6NUR_protein|mol2

> <Gold.PLP.Fitness>
46.0944

> <Gold.PLP.PLP>
-31.8080

> <Gold.PLP.part.hbond>
-5.8788

> <Gold.PLP.part.metal>
0.0000

> <Gold.PLP.part.buried>
-1.8751

> <Gold.PLP.part.nonpolar>
-23.8099

> <Gold.PLP.part.repulsive>
0.0822

> <Gold.PLP.ligand.clash>
0.0000

> <Gold.PLP.ligand.torsion>
1.0807

> <Gold.PLP.Chemscore.Hbond>
4.8068

> <Gold.PLP.Chemscore.CHOScore>
0.0000

> <Gold.PLP.Chemscore.Metal>
0.0000

> <Gold.Chemscore.Hbonds>
donor molecule, donor type, donor heavy atom, donor atom, acceptor molecule, acceptor atom, score
      L1  H     9    29       P1  7948  1.00
      L1  H    12    30       P1  7948  0.99
      L1  H    16    46       P1 10747  1.00
      P1  H  6896  6908       L1     4  0.98
      P1  H  7997  8008       L1     3  0.90

> <Gold.PLP.Chemscore.Internal.Correction>
2.0274

> <Gold.Rescore>
     Score         DG    S(hbond)    S(metal)    S(lipo)     H(rot)  DE(clash)    DE(int)     intcor
     21.69     -25.62       4.39        0.00      68.69       1.00       0.04       3.90       ----

> <Gold.Chemscore.Fitness>
21.6879

> <Gold.Chemscore.DG>
-25.6202

> <Gold.Chemscore.ZeroCoef>
-5.4800

> <Gold.Chemscore.Hbond>
4.3903

> <Gold.Chemscore.Metal>
0.0000

> <Gold.Chemscore.Lipo>
68.6880

> <Gold.Chemscore.Internal_Hbond>
0.0000

> <Gold.Chemscore.DEClash>
0.0354

> <Gold.Chemscore.DEInternal>
3.8970

> <Gold.Chemscore.Rot>
1.0000

> <Gold.Chemscore.Internal.Correction>
   9.000000E+99

> <Gold.Chemscore.Hbonds>
donor molecule, donor type, donor heavy atom, donor atom, acceptor molecule, acceptor atom, score
      L1  H     9    29       P1  7948  0.55
      L1  H    12    30       P1  7948  0.56
      L1  H    16    46       P1 10747  0.93
      P1  H  6896  6908       L1     4  0.92
      P1  H  7997  8008       L1     3  0.82

> <Gold.Chemscore.Hbond.Weighted>
-14.6637

> <Gold.Chemscore.Metal.Weighted>
-0.0000

> <Gold.Chemscore.Lipo.Weighted>
-8.0365

> <Gold.Chemscore.Internal_Hbond.Weighted>
0.0000

> <Gold.Chemscore.DEClash.Weighted>
0.0354

> <Gold.Chemscore.DEInternal.Weighted>
3.8970

> <Gold.Chemscore.Rot.Weighted>
2.5600

> <Gold.Chemscore.Internal.Correction.Weighted>
   9.000000E+99

> <Gold.Protein.RotatedTorsions>
[ 6907 6896 6895 6894 ] final  -83.55 input  -60.11 | X-H torsion
[ 7974 7965 7964 7962 ] final  -52.91 input  175.53 | X-H torsion
[ 8008 7997 7996 7995 ] final -106.99 input   59.86 | X-H torsion
[ 10167 10162 10161 10158 ] final  138.74 input  -65.29 | X-H torsion
[ 10718 10713 10712 10709 ] final   27.49 input   66.30 | X-H torsion
[ 10763 10752 10751 10750 ] final   36.07 input  -60.55 | X-H torsion
[ 11005 11000 10999 10996 ] final  -49.11 input  -57.11 | X-H torsion

> <Gold.Protein.ActiveResidues>
 VAL166  LYS551  ARG553  GLY616  TRP617  ASP618  TYR619  PRO620  LYS621  CYS622 
 ASP623  PHE694  ASN695  SER759  ASP760  ASP761  ALA762  ILE779  LEU786  VAL792 
 PHE793  MET794  SER795  GLU796  ALA797  LYS798  CYS799  TRP800  GLU811  SER814 

> <Gold.Protein.RotatedAtoms>
  150.6884  134.3494  159.4902 H   0  0  0  0  0  0  0  0  0  0  0  0  # atno 6907 bound_to 6896
  152.1337  134.9113  160.0566 H   0  0  0  0  0  0  0  0  0  0  0  0  # atno 6908 bound_to 6896
  152.0273  133.3888  159.4319 H   0  0  0  0  0  0  0  0  0  0  0  0  # atno 6909 bound_to 6896
  145.9027  140.7981  142.9735 H   0  0  0  0  0  0  0  0  0  0  0  0  # atno 7974 bound_to 7965
  154.9227  140.0407  157.2006 H   0  0  0  0  0  0  0  0  0  0  0  0  # atno 8008 bound_to 7997
  154.8237  140.2888  155.5747 H   0  0  0  0  0  0  0  0  0  0  0  0  # atno 8009 bound_to 7997
  156.2982  140.2514  156.3150 H   0  0  0  0  0  0  0  0  0  0  0  0  # atno 8010 bound_to 7997
  139.5101  144.6335  151.5756 H   0  0  0  0  0  0  0  0  0  0  0  0  # atno 10167 bound_to 10162
  157.2208  130.6978  149.6269 H   0  0  0  0  0  0  0  0  0  0  0  0  # atno 10718 bound_to 10713
  153.0092  135.6316  154.1927 H   0  0  0  0  0  0  0  0  0  0  0  0  # atno 10763 bound_to 10752
  154.1670  135.2820  155.3094 H   0  0  0  0  0  0  0  0  0  0  0  0  # atno 10764 bound_to 10752
  154.5938  135.5609  153.7365 H   0  0  0  0  0  0  0  0  0  0  0  0  # atno 10765 bound_to 10752
  141.0740  133.6671  156.3538 H   0  0  0  0  0  0  0  0  0  0  0  0  # atno 11005 bound_to 11000
  144.6737  140.1702  143.7415 LP  0  0  0  0  0  0  0  0  0  0  0  0  # atno 17320 bound_to 7965
  145.8771  139.2302  143.1627 LP  0  0  0  0  0  0  0  0  0  0  0  0  # atno 17321 bound_to 7965
  140.6076  143.9495  150.6430 LP  0  0  0  0  0  0  0  0  0  0  0  0  # atno 17342 bound_to 10162
  140.2727  143.3444  152.1223 LP  0  0  0  0  0  0  0  0  0  0  0  0  # atno 17343 bound_to 10162
  155.9682  130.4520  150.5758 LP  0  0  0  0  0  0  0  0  0  0  0  0  # atno 17370 bound_to 10713
  157.3577  131.0744  151.1661 LP  0  0  0  0  0  0  0  0  0  0  0  0  # atno 17371 bound_to 10713
  140.5613  134.5931  157.5434 LP  0  0  0  0  0  0  0  0  0  0  0  0  # atno 17394 bound_to 11000
  139.9552  134.7547  156.0357 LP  0  0  0  0  0  0  0  0  0  0  0  0  # atno 17395 bound_to 11000

$$$$
