AV-unprocessed.smi:265|AV-procd|sdf|2024|dock1
  -GOLD-   2262021223D 1   1.00000     0.00000
 Structure written by MMmdl.
 52 56  0  0  0  0  0  0  0  0  1 V2000
  144.1376  132.8643  148.9685 C   0  0  0  0  0  0  0  0  0  0  0  0
  144.0963  132.9505  150.5030 C   0  0  1  0  0  0  0  0  0  0  0  0
  144.4628  131.7028  151.0916 O   0  0  0  0  0  0  0  0  0  0  0  0
  145.5317  131.8878  152.0098 C   0  0  0  0  0  0  0  0  0  0  0  0
  145.4163  133.3435  152.4425 C   0  0  0  0  0  0  0  0  0  0  0  0
  144.9813  134.0350  151.1586 C   0  0  1  0  0  0  0  0  0  0  0  0
  146.1358  134.2886  150.3728 O   0  0  0  0  0  0  0  0  0  0  0  0
  144.2332  135.3704  151.3825 C   0  0  0  0  0  0  0  0  0  0  0  0
  145.0546  136.3991  152.0019 N   0  0  0  0  0  0  0  0  0  0  0  0
  145.8692  137.2992  151.3528 C   0  0  0  0  0  0  0  0  0  0  0  0
  146.5139  138.1264  152.1290 N   0  0  0  0  0  0  0  0  0  0  0  0
  146.1014  137.7809  153.4106 C   0  0  0  0  0  0  0  0  0  0  0  0
  146.4060  138.2670  154.7131 C   0  0  0  0  0  0  0  0  0  0  0  0
  147.2517  139.3070  154.9241 N   0  0  0  0  0  0  0  0  0  0  0  0
  147.8763  139.9251  153.7551 C   0  0  0  0  0  0  0  0  0  0  0  0
  148.4640  141.2981  154.1157 C   0  0  0  0  0  0  0  0  0  0  0  0
  149.4121  141.2170  155.3236 C   0  0  2  0  0  0  0  0  0  0  0  0
  150.5909  140.5019  154.9767 O   0  0  0  0  0  0  0  0  0  0  0  0
  151.6031  140.5368  155.9842 C   0  0  0  0  0  0  0  0  0  0  0  0
  151.0545  140.1791  157.3781 C   0  0  0  0  0  0  0  0  0  0  0  0
  151.8292  139.8784  158.2833 O   0  0  0  0  0  0  0  0  0  0  0  0
  149.7278  140.2502  157.5729 N   0  0  0  0  0  0  0  0  0  0  0  0
  148.7535  140.4827  156.5119 C   0  0  2  0  0  0  0  0  0  0  0  0
  148.1381  139.1386  156.0738 C   0  0  0  0  0  0  0  0  0  0  0  0
  145.8069  137.6498  155.7668 N   0  0  0  0  0  0  0  0  0  0  0  0
  144.9594  136.6370  155.5629 C   0  0  0  0  0  0  0  0  0  0  0  0
  144.5773  136.0884  154.4082 N   0  0  0  0  0  0  0  0  0  0  0  0
  145.1839  136.6943  153.3479 C   0  0  0  0  0  0  0  0  0  0  0  0
  149.6901  142.2319  155.6143 H   0  0  0  0  0  0  0  0  0  0  0  0
  147.9601  141.1120  156.9176 H   0  0  0  0  0  0  0  0  0  0  0  0
  143.8711  133.8193  148.5151 H   0  0  0  0  0  0  0  0  0  0  0  0
  143.4328  132.1166  148.6047 H   0  0  0  0  0  0  0  0  0  0  0  0
  145.1272  132.5826  148.6075 H   0  0  0  0  0  0  0  0  0  0  0  0
  143.0613  133.1172  150.8041 H   0  0  0  0  0  0  0  0  0  0  0  0
  145.4665  131.1926  152.8469 H   0  0  0  0  0  0  0  0  0  0  0  0
  146.4775  131.7139  151.4951 H   0  0  0  0  0  0  0  0  0  0  0  0
  144.6348  133.4275  153.1987 H   0  0  0  0  0  0  0  0  0  0  0  0
  146.3387  133.7404  152.8688 H   0  0  0  0  0  0  0  0  0  0  0  0
  145.8581  134.6197  149.5325 H   0  0  0  0  0  0  0  0  0  0  0  0
  143.8637  135.7564  150.4314 H   0  0  0  0  0  0  0  0  0  0  0  0
  143.3545  135.2134  152.0092 H   0  0  0  0  0  0  0  0  0  0  0  0
  145.9759  137.3183  150.2779 H   0  0  0  0  0  0  0  0  0  0  0  0
  148.6624  139.2698  153.3772 H   0  0  0  0  0  0  0  0  0  0  0  0
  147.1433  140.0446  152.9559 H   0  0  0  0  0  0  0  0  0  0  0  0
  148.9851  141.7208  153.2563 H   0  0  0  0  0  0  0  0  0  0  0  0
  147.6482  141.9837  154.3483 H   0  0  0  0  0  0  0  0  0  0  0  0
  152.3992  139.8441  155.7111 H   0  0  0  0  0  0  0  0  0  0  0  0
  152.0416  141.5347  156.0230 H   0  0  0  0  0  0  0  0  0  0  0  0
  149.3693  140.0544  158.4962 H   0  0  0  0  0  0  0  0  0  0  0  0
  147.6158  138.6892  156.9178 H   0  0  0  0  0  0  0  0  0  0  0  0
  148.9279  138.4399  155.7935 H   0  0  0  0  0  0  0  0  0  0  0  0
  144.5246  136.2051  156.4522 H   0  0  0  0  0  0  0  0  0  0  0  0
  1  2  1  0  0  0  0
  1 31  1  0  0  0  0
  1 32  1  0  0  0  0
  1 33  1  0  0  0  0
  2  6  1  0  0  0  0
  2  3  1  0  0  0  0
  2 34  1  0  0  0  0
  3  4  1  0  0  0  0
  4  5  1  0  0  0  0
  4 35  1  0  0  0  0
  4 36  1  0  0  0  0
  5  6  1  0  0  0  0
  5 37  1  0  0  0  0
  5 38  1  0  0  0  0
  6  7  1  0  0  0  0
  6  8  1  0  0  0  0
  7 39  1  0  0  0  0
  8  9  1  0  0  0  0
  8 40  1  0  0  0  0
  8 41  1  0  0  0  0
  9 28  1  0  0  0  0
  9 10  1  0  0  0  0
 10 11  2  0  0  0  0
 10 42  1  0  0  0  0
 11 12  1  0  0  0  0
 12 28  2  0  0  0  0
 12 13  1  0  0  0  0
 13 14  1  0  0  0  0
 13 25  2  0  0  0  0
 14 24  1  0  0  0  0
 14 15  1  0  0  0  0
 15 16  1  0  0  0  0
 15 43  1  0  0  0  0
 15 44  1  0  0  0  0
 16 17  1  0  0  0  0
 16 45  1  0  0  0  0
 16 46  1  0  0  0  0
 17 29  1  0  0  0  0
 17 23  1  0  0  0  0
 17 18  1  0  0  0  0
 18 19  1  0  0  0  0
 19 20  1  0  0  0  0
 19 47  1  0  0  0  0
 19 48  1  0  0  0  0
 20 21  2  0  0  0  0
 20 22  1  0  0  0  0
 22 23  1  0  0  0  0
 22 49  1  0  0  0  0
 23 30  1  0  0  0  0
 23 24  1  0  0  0  0
 24 50  1  0  0  0  0
 24 51  1  0  0  0  0
 25 26  1  0  0  0  0
 26 27  2  0  0  0  0
 26 52  1  0  0  0  0
 27 28  1  0  0  0  0
M  END
> <s_m_source_file>
AV-unprocessed.smi

> <i_m_source_file_index>
265

> <i_lp_mmshare_version>
43012

> <i_f3d_flags>
0

> <s_epik_input>
W0NIMl0xW0NIMl1PW0NAQEhdKFtDSDNdKVtDQEBdMShbT0hdKVtDSDJdbihbY0hdbjIpYyhjMjMpbltjSF1uYzNOKFtDSDJdW0NIMl00KVtDSDJdW0NAQEhdKFtDQEhdNDUpW05IXUMoPU8pW0NIMl1PNQ==

> <s_epik_cmdline>
J2VwaWtfcHl0aG9uJywgJy1waCcsICc3LjAnLCAnLXRuJywgJzgnLCAnLW1hJywgJzIwMCcsICctbWV0YWxfYmluZGluZycsICctaW1hZScsICc8aW5maWxlLm1hZT4nLCAnLW9tYWUnLCAnPG91dGZpbGUubWFlPic=

> <r_lp_tautomer_probability>
1

> <r_epik_Ionization_Penalty>
0.00221504

> <r_epik_Ionization_Penalty_Charging>
0

> <r_epik_Ionization_Penalty_Neutral>
0.00221504

> <r_epik_State_Penalty>
-0

> <r_epik_Charging_Adjusted_Penalty>
0

> <i_epik_Tot_Q>
0

> <i_epik_Tot_abs_Q>
0

> <r_epik_Metal_State_Penalty>
-0

> <b_epik_Metal_Only>
0

> <s_lp_Force_Field>
OPLS_2005

> <r_lp_Energy>
44.7189

> <b_lp_Chiralities_Consistent>
1

> <s_lp_Variant>
AV-unprocessed.smi:265-10

> <Gold.Version>
5.8.1

> <Gold.Id.Protein>
6NUR|6NUR_protein|mol2

> <Gold.PLP.Fitness>
40.1562

> <Gold.PLP.PLP>
-33.9909

> <Gold.PLP.part.hbond>
-2.0000

> <Gold.PLP.part.metal>
0.0000

> <Gold.PLP.part.buried>
-3.3519

> <Gold.PLP.part.nonpolar>
-29.1225

> <Gold.PLP.part.repulsive>
1.1016

> <Gold.PLP.ligand.clash>
0.0000

> <Gold.PLP.ligand.torsion>
0.6579

> <Gold.PLP.Chemscore.Hbond>
2.0000

> <Gold.PLP.Chemscore.CHOScore>
0.3520

> <Gold.PLP.Chemscore.Metal>
0.0000

> <Gold.Chemscore.Hbonds>
donor molecule, donor type, donor heavy atom, donor atom, acceptor molecule, acceptor atom, score
      L1  H     7    39       P1  7921  0.99
      P1  H  7989  7998       L1    18  0.95
      L1  C    10    42       P1 10171  0.35

> <Gold.PLP.Chemscore.Internal.Correction>
0.4252

> <Gold.Rescore>
     Score         DG    S(hbond)    S(metal)    S(lipo)     H(rot)  DE(clash)    DE(int)     intcor
      8.96     -12.25       1.15        0.00      74.14       2.25       1.16       2.12       ----

> <Gold.Chemscore.Fitness>
8.9618

> <Gold.Chemscore.DG>
-12.2465

> <Gold.Chemscore.ZeroCoef>
-5.4800

> <Gold.Chemscore.Hbond>
1.1497

> <Gold.Chemscore.Metal>
0.0000

> <Gold.Chemscore.Lipo>
74.1393

> <Gold.Chemscore.Internal_Hbond>
0.0000

> <Gold.Chemscore.DEClash>
1.1609

> <Gold.Chemscore.DEInternal>
2.1238

> <Gold.Chemscore.Rot>
2.2453

> <Gold.Chemscore.Internal.Correction>
   9.000000E+99

> <Gold.Chemscore.Hbonds>
donor molecule, donor type, donor heavy atom, donor atom, acceptor molecule, acceptor atom, score
      L1  H     7    39       P1  7921  0.70
      P1  H  7989  7998       L1    18  0.20

> <Gold.Chemscore.Hbond.Weighted>
-3.8401

> <Gold.Chemscore.Metal.Weighted>
-0.0000

> <Gold.Chemscore.Lipo.Weighted>
-8.6743

> <Gold.Chemscore.Internal_Hbond.Weighted>
0.0000

> <Gold.Chemscore.DEClash.Weighted>
1.1609

> <Gold.Chemscore.DEInternal.Weighted>
2.1238

> <Gold.Chemscore.Rot.Weighted>
5.7479

> <Gold.Chemscore.Internal.Correction.Weighted>
   9.000000E+99

> <Gold.Protein.RotatedTorsions>
[ 6907 6896 6895 6894 ] final  -14.73 input  -60.11 | X-H torsion
[ 7974 7965 7964 7962 ] final   45.96 input  175.53 | X-H torsion
[ 8008 7997 7996 7995 ] final  170.64 input   59.86 | X-H torsion
[ 10167 10162 10161 10158 ] final  -70.05 input  -65.29 | X-H torsion
[ 10718 10713 10712 10709 ] final -176.83 input   66.30 | X-H torsion
[ 10763 10752 10751 10750 ] final  -61.93 input  -60.55 | X-H torsion
[ 11005 11000 10999 10996 ] final  134.47 input  -57.11 | X-H torsion

> <Gold.Protein.ActiveResidues>
 VAL166  LYS551  ARG553  GLY616  TRP617  ASP618  TYR619  PRO620  LYS621  CYS622 
 ASP623  PHE694  ASN695  SER759  ASP760  ASP761  ALA762  ILE779  LEU786  VAL792 
 PHE793  MET794  SER795  GLU796  ALA797  LYS798  CYS799  TRP800  GLU811  SER814 

> <Gold.Protein.RotatedAtoms>
  151.3349  135.0850  159.9351 H   0  0  0  0  0  0  0  0  0  0  0  0  # atno 6907 bound_to 6896
  152.5225  133.9505  159.7680 H   0  0  0  0  0  0  0  0  0  0  0  0  # atno 6908 bound_to 6896
  150.9851  133.6153  159.2746 H   0  0  0  0  0  0  0  0  0  0  0  0  # atno 6909 bound_to 6896
  146.0433  139.4907  142.9764 H   0  0  0  0  0  0  0  0  0  0  0  0  # atno 7974 bound_to 7965
  156.1346  140.1532  156.9013 H   0  0  0  0  0  0  0  0  0  0  0  0  # atno 8008 bound_to 7997
  154.4937  140.0844  156.7689 H   0  0  0  0  0  0  0  0  0  0  0  0  # atno 8009 bound_to 7997
  155.4192  140.3422  155.4272 H   0  0  0  0  0  0  0  0  0  0  0  0  # atno 8010 bound_to 7997
  140.5383  143.2316  151.7137 H   0  0  0  0  0  0  0  0  0  0  0  0  # atno 10167 bound_to 10162
  156.8205  130.9618  151.3112 H   0  0  0  0  0  0  0  0  0  0  0  0  # atno 10718 bound_to 10713
  154.2921  135.6251  153.5389 H   0  0  0  0  0  0  0  0  0  0  0  0  # atno 10763 bound_to 10752
  152.9851  135.5658  154.5378 H   0  0  0  0  0  0  0  0  0  0  0  0  # atno 10764 bound_to 10752
  154.4991  135.2871  155.1411 H   0  0  0  0  0  0  0  0  0  0  0  0  # atno 10765 bound_to 10752
  139.9917  134.9512  156.9871 H   0  0  0  0  0  0  0  0  0  0  0  0  # atno 11005 bound_to 11000
  145.6848  141.0181  143.1587 LP  0  0  0  0  0  0  0  0  0  0  0  0  # atno 17320 bound_to 7965
  144.7085  139.8464  143.7422 LP  0  0  0  0  0  0  0  0  0  0  0  0  # atno 17321 bound_to 7965
  139.4979  144.4009  152.0182 LP  0  0  0  0  0  0  0  0  0  0  0  0  # atno 17342 bound_to 10162
  140.3116  144.3531  150.6032 LP  0  0  0  0  0  0  0  0  0  0  0  0  # atno 17343 bound_to 10162
  157.6459  130.8844  149.9538 LP  0  0  0  0  0  0  0  0  0  0  0  0  # atno 17370 bound_to 10713
  156.0992  130.3657  150.0250 LP  0  0  0  0  0  0  0  0  0  0  0  0  # atno 17371 bound_to 10713
  140.4895  134.1207  155.7230 LP  0  0  0  0  0  0  0  0  0  0  0  0  # atno 17394 bound_to 11000
  141.1571  133.8862  157.1947 LP  0  0  0  0  0  0  0  0  0  0  0  0  # atno 17395 bound_to 11000

$$$$
