AV-unprocessed.smi:2759|AV-procd|sdf|10627|dock4
  -GOLD-   2272015 73D 1   1.00000     0.00000
 Structure written by MMmdl.
 43 44  0  0  0  0  0  0  0  0  1 V2000
  149.7284  131.8666  154.8285 C   0  0  0  0  0  0  0  0  0  0  0  0
  148.8776  133.1256  154.5770 C   0  0  0  0  0  0  0  0  0  0  0  0
  148.2069  133.0062  153.1945 C   0  0  0  0  0  0  0  0  0  0  0  0
  149.6932  134.4398  154.7098 C   0  0  1  0  0  0  0  0  0  0  0  0
  148.8335  135.5331  154.4430 O   0  0  0  0  0  0  0  0  0  0  0  0
  150.3047  134.6682  156.1100 C   0  0  0  0  0  0  0  0  0  0  0  0
  151.0482  135.9597  156.2216 C   0  0  0  0  0  0  0  0  0  0  0  0
  150.6194  137.1679  155.8651 N   0  0  0  0  0  0  0  0  0  0  0  0
  151.7117  137.9295  156.1529 C   0  0  0  0  0  0  0  0  0  0  0  0
  151.7455  139.4117  155.9440 C   0  0  0  0  0  0  0  0  0  0  0  0
  152.0110  140.1678  157.2515 C   0  0  0  0  0  0  0  0  0  0  0  0
  152.9171  139.8180  158.0093 O   0  0  0  0  0  0  0  0  0  0  0  0
  151.2021  141.2080  157.5070 N   0  0  0  0  0  0  0  0  0  0  0  0
  151.2846  142.0675  158.6854 C   0  0  0  0  0  0  0  0  0  0  0  0
  150.4648  143.3567  158.4844 C   0  0  0  0  0  0  0  0  0  0  0  0
  151.3823  144.5104  158.8934 C   0  0  0  0  0  0  0  0  0  0  0  0
  152.7870  144.0025  158.5855 C   0  0  0  0  0  0  0  0  0  0  0  0
  152.7348  142.5186  158.9500 C   0  0  0  0  0  0  0  0  0  0  0  0
  152.7685  137.2724  156.6183 N   0  0  0  0  0  0  0  0  0  0  0  0
  152.3293  135.9415  156.6623 O   0  0  0  0  0  0  0  0  0  0  0  0
  150.5987  131.8387  154.1721 H   0  0  0  0  0  0  0  0  0  0  0  0
  149.1494  130.9607  154.6463 H   0  0  0  0  0  0  0  0  0  0  0  0
  150.0792  131.8060  155.8577 H   0  0  0  0  0  0  0  0  0  0  0  0
  148.0839  133.1391  155.3258 H   0  0  0  0  0  0  0  0  0  0  0  0
  148.9469  133.0190  152.3937 H   0  0  0  0  0  0  0  0  0  0  0  0
  147.5042  133.8192  153.0116 H   0  0  0  0  0  0  0  0  0  0  0  0
  147.6439  132.0762  153.1094 H   0  0  0  0  0  0  0  0  0  0  0  0
  150.4894  134.4352  153.9638 H   0  0  0  0  0  0  0  0  0  0  0  0
  148.8865  135.7412  153.5224 H   0  0  0  0  0  0  0  0  0  0  0  0
  149.5322  134.6292  156.8793 H   0  0  0  0  0  0  0  0  0  0  0  0
  151.0168  133.8822  156.3546 H   0  0  0  0  0  0  0  0  0  0  0  0
  152.5135  139.6524  155.2072 H   0  0  0  0  0  0  0  0  0  0  0  0
  150.7931  139.7445  155.5304 H   0  0  0  0  0  0  0  0  0  0  0  0
  150.4822  141.4267  156.8337 H   0  0  0  0  0  0  0  0  0  0  0  0
  150.9058  141.5336  159.5592 H   0  0  0  0  0  0  0  0  0  0  0  0
  150.1872  143.4789  157.4362 H   0  0  0  0  0  0  0  0  0  0  0  0
  149.5400  143.3497  159.0622 H   0  0  0  0  0  0  0  0  0  0  0  0
  151.1468  145.4396  158.3739 H   0  0  0  0  0  0  0  0  0  0  0  0
  151.2868  144.6939  159.9644 H   0  0  0  0  0  0  0  0  0  0  0  0
  152.9928  144.1132  157.5199 H   0  0  0  0  0  0  0  0  0  0  0  0
  153.5597  144.5427  159.1333 H   0  0  0  0  0  0  0  0  0  0  0  0
  152.9579  142.4015  160.0113 H   0  0  0  0  0  0  0  0  0  0  0  0
  153.4789  141.9380  158.4028 H   0  0  0  0  0  0  0  0  0  0  0  0
  1  2  1  0  0  0  0
  1 21  1  0  0  0  0
  1 22  1  0  0  0  0
  1 23  1  0  0  0  0
  2  3  1  0  0  0  0
  2  4  1  0  0  0  0
  2 24  1  0  0  0  0
  3 25  1  0  0  0  0
  3 26  1  0  0  0  0
  3 27  1  0  0  0  0
  4  5  1  0  0  0  0
  4  6  1  0  0  0  0
  4 28  1  0  0  0  0
  5 29  1  0  0  0  0
  6  7  1  0  0  0  0
  6 30  1  0  0  0  0
  6 31  1  0  0  0  0
  7 20  1  0  0  0  0
  7  8  2  0  0  0  0
  8  9  1  0  0  0  0
  9 10  1  0  0  0  0
  9 19  2  0  0  0  0
 10 11  1  0  0  0  0
 10 32  1  0  0  0  0
 10 33  1  0  0  0  0
 11 12  2  0  0  0  0
 11 13  1  0  0  0  0
 13 14  1  0  0  0  0
 13 34  1  0  0  0  0
 14 18  1  0  0  0  0
 14 15  1  0  0  0  0
 14 35  1  0  0  0  0
 15 16  1  0  0  0  0
 15 36  1  0  0  0  0
 15 37  1  0  0  0  0
 16 17  1  0  0  0  0
 16 38  1  0  0  0  0
 16 39  1  0  0  0  0
 17 18  1  0  0  0  0
 17 40  1  0  0  0  0
 17 41  1  0  0  0  0
 18 42  1  0  0  0  0
 18 43  1  0  0  0  0
 19 20  1  0  0  0  0
M  END
> <s_m_source_file>
AV-unprocessed.smi

> <i_m_source_file_index>
2759

> <i_lp_mmshare_version>
43012

> <i_f3d_flags>
0

> <s_epik_input>
W0NIM11bQ0hdKFtDSDNdKVtDQEhdKFtPSF0pW0NIMl1jMW5jKG5vMSlbQ0gyXUMoPU8pW05IXVtDSF0yW0NIMl1bQ0gyXVtDSDJdW0NIMl0y

> <s_epik_cmdline>
J2VwaWtfcHl0aG9uJywgJy1waCcsICc3LjAnLCAnLXRuJywgJzgnLCAnLW1hJywgJzIwMCcsICctbWV0YWxfYmluZGluZycsICctaW1hZScsICc8aW5maWxlLm1hZT4nLCAnLW9tYWUnLCAnPG91dGZpbGUubWFlPic=

> <r_lp_tautomer_probability>
1

> <r_epik_Ionization_Penalty>
1.20032e-07

> <r_epik_Ionization_Penalty_Charging>
0

> <r_epik_Ionization_Penalty_Neutral>
1.20032e-07

> <r_epik_State_Penalty>
-0

> <r_epik_Charging_Adjusted_Penalty>
0

> <i_epik_Tot_Q>
0

> <i_epik_Tot_abs_Q>
0

> <r_epik_Metal_State_Penalty>
-0

> <b_epik_Metal_Only>
0

> <s_lp_Force_Field>
OPLS_2005

> <r_lp_Energy>
21.2868

> <b_lp_Chiralities_Consistent>
1

> <s_lp_Variant>
AV-unprocessed.smi:2759-2

> <Gold.Version>
5.8.1

> <Gold.Id.Protein>
6NUR|6NUR_protein|mol2

> <Gold.PLP.Fitness>
45.7165

> <Gold.PLP.PLP>
-37.4403

> <Gold.PLP.part.hbond>
-3.6406

> <Gold.PLP.part.metal>
0.0000

> <Gold.PLP.part.buried>
-3.6016

> <Gold.PLP.part.nonpolar>
-29.5571

> <Gold.PLP.part.repulsive>
0.1163

> <Gold.PLP.ligand.clash>
0.0000

> <Gold.PLP.ligand.torsion>
0.3873

> <Gold.PLP.Chemscore.Hbond>
3.0000

> <Gold.PLP.Chemscore.CHOScore>
0.0000

> <Gold.PLP.Chemscore.Metal>
0.0000

> <Gold.Chemscore.Hbonds>
donor molecule, donor type, donor heavy atom, donor atom, acceptor molecule, acceptor atom, score
      L1  H     5    29       P1  7948  1.00
      P1  H  7997  8008       L1    12  1.00
      P1  H 10752 10764       L1    20  0.70

> <Gold.PLP.Chemscore.Internal.Correction>
0.0507

> <Gold.Rescore>
     Score         DG    S(hbond)    S(metal)    S(lipo)     H(rot)  DE(clash)    DE(int)     intcor
     13.28     -17.62       2.61        0.00      87.39       2.65       0.15       4.20       ----

> <Gold.Chemscore.Fitness>
13.2754

> <Gold.Chemscore.DG>
-17.6182

> <Gold.Chemscore.ZeroCoef>
-5.4800

> <Gold.Chemscore.Hbond>
2.6074

> <Gold.Chemscore.Metal>
0.0000

> <Gold.Chemscore.Lipo>
87.3879

> <Gold.Chemscore.Internal_Hbond>
0.0000

> <Gold.Chemscore.DEClash>
0.1454

> <Gold.Chemscore.DEInternal>
4.1974

> <Gold.Chemscore.Rot>
2.6543

> <Gold.Chemscore.Internal.Correction>
   9.000000E+99

> <Gold.Chemscore.Hbonds>
donor molecule, donor type, donor heavy atom, donor atom, acceptor molecule, acceptor atom, score
      L1  H     5    29       P1  7948  0.94
      P1  H  7997  8008       L1    12  0.49
      P1  H 10752 10764       L1    20  0.04

> <Gold.Chemscore.Hbond.Weighted>
-8.7088

> <Gold.Chemscore.Metal.Weighted>
-0.0000

> <Gold.Chemscore.Lipo.Weighted>
-10.2244

> <Gold.Chemscore.Internal_Hbond.Weighted>
0.0000

> <Gold.Chemscore.DEClash.Weighted>
0.1454

> <Gold.Chemscore.DEInternal.Weighted>
4.1974

> <Gold.Chemscore.Rot.Weighted>
6.7950

> <Gold.Chemscore.Internal.Correction.Weighted>
   9.000000E+99

> <Gold.Protein.RotatedTorsions>
[ 6907 6896 6895 6894 ] final  -32.22 input  -60.11 | X-H torsion
[ 7974 7965 7964 7962 ] final  101.40 input  175.53 | X-H torsion
[ 8008 7997 7996 7995 ] final  -82.04 input   59.86 | X-H torsion
[ 10167 10162 10161 10158 ] final  -71.62 input  -65.29 | X-H torsion
[ 10718 10713 10712 10709 ] final  173.23 input   66.30 | X-H torsion
[ 10763 10752 10751 10750 ] final  -11.59 input  -60.55 | X-H torsion
[ 11005 11000 10999 10996 ] final   15.74 input  -57.11 | X-H torsion

> <Gold.Protein.ActiveResidues>
 VAL166  LYS551  ARG553  GLY616  TRP617  ASP618  TYR619  PRO620  LYS621  CYS622 
 ASP623  PHE694  ASN695  SER759  ASP760  ASP761  ALA762  ILE779  LEU786  VAL792 
 PHE793  MET794  SER795  GLU796  ALA797  LYS798  CYS799  TRP800  GLU811  SER814 

> <Gold.Protein.RotatedAtoms>
  151.0816  134.9862  159.8358 H   0  0  0  0  0  0  0  0  0  0  0  0  # atno 6907 bound_to 6896
  152.5420  134.2174  159.8784 H   0  0  0  0  0  0  0  0  0  0  0  0  # atno 6908 bound_to 6896
  151.2205  133.4461  159.2634 H   0  0  0  0  0  0  0  0  0  0  0  0  # atno 6909 bound_to 6896
  145.3728  139.2395  143.3446 H   0  0  0  0  0  0  0  0  0  0  0  0  # atno 7974 bound_to 7965
  154.6045  140.0639  156.9413 H   0  0  0  0  0  0  0  0  0  0  0  0  # atno 8008 bound_to 7997
  155.2076  140.3320  155.4315 H   0  0  0  0  0  0  0  0  0  0  0  0  # atno 8009 bound_to 7997
  156.2339  140.1854  156.7154 H   0  0  0  0  0  0  0  0  0  0  0  0  # atno 8010 bound_to 7997
  140.5258  143.2326  151.7350 H   0  0  0  0  0  0  0  0  0  0  0  0  # atno 10167 bound_to 10162
  156.9674  131.0079  151.2913 H   0  0  0  0  0  0  0  0  0  0  0  0  # atno 10718 bound_to 10713
  153.4861  135.7017  153.5911 H   0  0  0  0  0  0  0  0  0  0  0  0  # atno 10763 bound_to 10752
  153.4103  135.3850  155.2046 H   0  0  0  0  0  0  0  0  0  0  0  0  # atno 10764 bound_to 10752
  154.8719  135.3903  154.4316 H   0  0  0  0  0  0  0  0  0  0  0  0  # atno 10765 bound_to 10752
  140.4550  134.1186  155.7708 H   0  0  0  0  0  0  0  0  0  0  0  0  # atno 11005 bound_to 11000
  146.2878  140.4382  142.8751 LP  0  0  0  0  0  0  0  0  0  0  0  0  # atno 17320 bound_to 7965
  144.8564  140.7076  143.6135 LP  0  0  0  0  0  0  0  0  0  0  0  0  # atno 17321 bound_to 7965
  139.4938  144.4188  152.0001 LP  0  0  0  0  0  0  0  0  0  0  0  0  # atno 17342 bound_to 10162
  140.3287  144.3342  150.5992 LP  0  0  0  0  0  0  0  0  0  0  0  0  # atno 17343 bound_to 10162
  157.5616  130.8250  149.8273 LP  0  0  0  0  0  0  0  0  0  0  0  0  # atno 17370 bound_to 10713
  156.0297  130.3768  150.1722 LP  0  0  0  0  0  0  0  0  0  0  0  0  # atno 17371 bound_to 10713
  141.1647  133.8725  157.1748 LP  0  0  0  0  0  0  0  0  0  0  0  0  # atno 17394 bound_to 11000
  139.9982  135.0038  157.0131 LP  0  0  0  0  0  0  0  0  0  0  0  0  # atno 17395 bound_to 11000

$$$$
