AV-unprocessed.smi:3201|AV-procd|sdf|12239|dock5
  -GOLD-   2272018 73D 1   1.00000     0.00000
 Structure written by MMmdl.
 41 43  0  0  0  0  0  0  0  0  2 V2000
  148.6456  141.3352  153.7796 C   0  0  0  0  0  0  0  0  0  0  0  0
  147.8929  142.0925  154.8257 C   0  0  0  0  0  0  0  0  0  0  0  0
  147.9380  142.0158  156.1920 C   0  0  0  0  0  0  0  0  0  0  0  0
  148.7793  141.1246  157.0639 C   0  0  0  0  0  0  0  0  0  0  0  0
  150.2753  141.3071  156.7767 C   0  0  0  0  0  0  0  0  0  0  0  0
  150.6811  142.7158  156.9567 N   0  3  0  0  0  0  0  0  0  0  0  0
  150.9078  143.1219  158.3615 C   0  0  2  0  0  0  0  0  0  0  0  0
  150.9170  144.6600  158.5084 C   0  0  0  0  0  0  0  0  0  0  0  0
  152.2887  144.9394  159.1492 C   0  0  1  0  0  0  0  0  0  0  0  0
  152.2975  144.4203  160.5988 C   0  0  0  0  0  0  0  0  0  0  0  0
  152.3386  142.8919  160.4111 C   0  0  0  0  0  0  0  0  0  0  0  0
  152.3143  142.7358  158.8787 C   0  0  2  0  0  0  0  0  0  0  0  0
  153.1719  143.9199  158.4417 C   0  0  0  0  0  0  0  0  0  0  0  0
  146.9882  142.9879  156.6155 C   0  0  0  0  0  0  0  0  0  0  0  0
  146.4056  143.6098  155.6064 N   0  0  0  0  0  0  0  0  0  0  0  0
  146.9618  143.0631  154.5058 N   0  0  0  0  0  0  0  0  0  0  0  0
  146.5454  143.5224  153.1950 C   0  0  0  0  0  0  0  0  0  0  0  0
  149.2499  140.5437  154.2219 H   0  0  0  0  0  0  0  0  0  0  0  0
  149.3132  141.9977  153.2284 H   0  0  0  0  0  0  0  0  0  0  0  0
  147.9622  140.8735  153.0666 H   0  0  0  0  0  0  0  0  0  0  0  0
  148.5849  141.3287  158.1176 H   0  0  0  0  0  0  0  0  0  0  0  0
  148.5087  140.0789  156.9117 H   0  0  0  0  0  0  0  0  0  0  0  0
  150.8620  140.6768  157.4465 H   0  0  0  0  0  0  0  0  0  0  0  0
  150.4973  140.9875  155.7585 H   0  0  0  0  0  0  0  0  0  0  0  0
  151.5243  142.8899  156.4288 H   0  0  0  0  0  0  0  0  0  0  0  0
  150.1238  142.6878  158.9842 H   0  0  0  0  0  0  0  0  0  0  0  0
  150.8443  145.1577  157.5400 H   0  0  0  0  0  0  0  0  0  0  0  0
  150.0934  145.0211  159.1256 H   0  0  0  0  0  0  0  0  0  0  0  0
  152.6133  145.9760  159.0534 H   0  0  0  0  0  0  0  0  0  0  0  0
  153.1853  144.7645  161.1310 H   0  0  0  0  0  0  0  0  0  0  0  0
  151.4223  144.7480  161.1610 H   0  0  0  0  0  0  0  0  0  0  0  0
  153.2594  142.4813  160.8273 H   0  0  0  0  0  0  0  0  0  0  0  0
  151.5013  142.3885  160.8959 H   0  0  0  0  0  0  0  0  0  0  0  0
  152.6732  141.7621  158.5453 H   0  0  0  0  0  0  0  0  0  0  0  0
  153.2097  144.0553  157.3595 H   0  0  0  0  0  0  0  0  0  0  0  0
  154.1904  143.8848  158.8330 H   0  0  0  0  0  0  0  0  0  0  0  0
  146.7055  143.2568  157.6226 H   0  0  0  0  0  0  0  0  0  0  0  0
  147.4198  143.8114  152.6114 H   0  0  0  0  0  0  0  0  0  0  0  0
  145.8807  144.3834  153.2809 H   0  0  0  0  0  0  0  0  0  0  0  0
  146.0197  142.7205  152.6763 H   0  0  0  0  0  0  0  0  0  0  0  0
  149.9426  143.2942  156.5821 H   0  0  0  0  0  0  0  0  0  0  0  0
  1  2  1  0  0  0  0
  1 18  1  0  0  0  0
  1 19  1  0  0  0  0
  1 20  1  0  0  0  0
  2 16  1  0  0  0  0
  2  3  2  0  0  0  0
  3  4  1  0  0  0  0
  3 14  1  0  0  0  0
  4  5  1  0  0  0  0
  4 21  1  0  0  0  0
  4 22  1  0  0  0  0
  5  6  1  0  0  0  0
  5 23  1  0  0  0  0
  5 24  1  0  0  0  0
  6  7  1  0  0  0  0
  6 25  1  0  0  0  0
  6 41  1  0  0  0  0
  7 12  1  0  0  0  0
  7  8  1  0  0  0  0
  7 26  1  0  0  0  0
  8  9  1  0  0  0  0
  8 27  1  0  0  0  0
  8 28  1  0  0  0  0
  9 13  1  0  0  0  0
  9 10  1  0  0  0  0
  9 29  1  0  0  0  0
 10 11  1  0  0  0  0
 10 30  1  0  0  0  0
 10 31  1  0  0  0  0
 11 12  1  0  0  0  0
 11 32  1  0  0  0  0
 11 33  1  0  0  0  0
 12 13  1  0  0  0  0
 12 34  1  0  0  0  0
 13 35  1  0  0  0  0
 13 36  1  0  0  0  0
 14 15  2  0  0  0  0
 14 37  1  0  0  0  0
 15 16  1  0  0  0  0
 16 17  1  0  0  0  0
 17 38  1  0  0  0  0
 17 39  1  0  0  0  0
 17 40  1  0  0  0  0
M  CHG  1   6   1
M  END
> <s_m_source_file>
AV-unprocessed.smi

> <i_m_source_file_index>
3201

> <i_lp_mmshare_version>
43012

> <i_f3d_flags>
0

> <s_epik_input>
W0NIM11uMW5bY0hdYyhjMVtDSDNdKVtDSDJdW0NIMl1bTkhdW0NASF0oW0NIMl1bQ0BIXTIzKVtDQEhdKFtDSDJdMylbQ0gyXVtDSDJdMg==

> <s_epik_cmdline>
J2VwaWtfcHl0aG9uJywgJy1waCcsICc3LjAnLCAnLXRuJywgJzgnLCAnLW1hJywgJzIwMCcsICctbWV0YWxfYmluZGluZycsICctaW1hZScsICc8aW5maWxlLm1hZT4nLCAnLW9tYWUnLCAnPG91dGZpbGUubWFlPic=

> <r_lp_tautomer_probability>
1

> <r_epik_Ionization_Penalty>
0.000331174

> <r_epik_Ionization_Penalty_Charging>
0.000242709

> <r_epik_Ionization_Penalty_Neutral>
8.84659e-05

> <r_epik_State_Penalty>
-0

> <r_epik_Charging_Adjusted_Penalty>
0.000242709

> <i_epik_Tot_Q>
1

> <i_epik_Tot_abs_Q>
1

> <r_epik_Metal_State_Penalty>
-0

> <b_epik_Metal_Only>
0

> <s_lp_Force_Field>
OPLS_2005

> <r_lp_Energy>
49.8246

> <b_lp_Chiralities_Consistent>
1

> <s_lp_Variant>
AV-unprocessed.smi:3201-3

> <Gold.Version>
5.8.1

> <Gold.Id.Protein>
6NUR|6NUR_protein|mol2

> <Gold.PLP.Fitness>
46.3007

> <Gold.PLP.PLP>
-41.6628

> <Gold.PLP.part.hbond>
-1.0000

> <Gold.PLP.part.metal>
0.0000

> <Gold.PLP.part.buried>
-4.1600

> <Gold.PLP.part.nonpolar>
-37.2163

> <Gold.PLP.part.repulsive>
0.1770

> <Gold.PLP.ligand.clash>
0.0000

> <Gold.PLP.ligand.torsion>
0.2864

> <Gold.PLP.Chemscore.Hbond>
1.7280

> <Gold.PLP.Chemscore.CHOScore>
0.0000

> <Gold.PLP.Chemscore.Metal>
0.0000

> <Gold.Chemscore.Hbonds>
donor molecule, donor type, donor heavy atom, donor atom, acceptor molecule, acceptor atom, score
      L1  H     6    41       P1  8028  2.00

> <Gold.PLP.Chemscore.Internal.Correction>
0.0266

> <Gold.Rescore>
     Score         DG    S(hbond)    S(metal)    S(lipo)     H(rot)  DE(clash)    DE(int)     intcor
     17.95     -18.47       0.89        0.00     115.31       1.36       0.21       0.31       ----

> <Gold.Chemscore.Fitness>
17.9505

> <Gold.Chemscore.DG>
-18.4738

> <Gold.Chemscore.ZeroCoef>
-5.4800

> <Gold.Chemscore.Hbond>
0.8926

> <Gold.Chemscore.Metal>
0.0000

> <Gold.Chemscore.Lipo>
115.3089

> <Gold.Chemscore.Internal_Hbond>
0.0000

> <Gold.Chemscore.DEClash>
0.2090

> <Gold.Chemscore.DEInternal>
0.3142

> <Gold.Chemscore.Rot>
1.3588

> <Gold.Chemscore.Internal.Correction>
   9.000000E+99

> <Gold.Chemscore.Hbonds>
donor molecule, donor type, donor heavy atom, donor atom, acceptor molecule, acceptor atom, score
      L1  H     6    41       P1  8028  0.97

> <Gold.Chemscore.Hbond.Weighted>
-2.9812

> <Gold.Chemscore.Metal.Weighted>
-0.0000

> <Gold.Chemscore.Lipo.Weighted>
-13.4911

> <Gold.Chemscore.Internal_Hbond.Weighted>
0.0000

> <Gold.Chemscore.DEClash.Weighted>
0.2090

> <Gold.Chemscore.DEInternal.Weighted>
0.3142

> <Gold.Chemscore.Rot.Weighted>
3.4786

> <Gold.Chemscore.Internal.Correction.Weighted>
   9.000000E+99

> <Gold.Protein.RotatedTorsions>
[ 6907 6896 6895 6894 ] final -108.84 input  -60.11 | X-H torsion
[ 7974 7965 7964 7962 ] final  133.34 input  175.53 | X-H torsion
[ 8008 7997 7996 7995 ] final   73.12 input   59.86 | X-H torsion
[ 10167 10162 10161 10158 ] final  -56.13 input  -65.29 | X-H torsion
[ 10718 10713 10712 10709 ] final   31.08 input   66.30 | X-H torsion
[ 10763 10752 10751 10750 ] final   82.09 input  -60.55 | X-H torsion
[ 11005 11000 10999 10996 ] final  168.87 input  -57.11 | X-H torsion

> <Gold.Protein.ActiveResidues>
 VAL166  LYS551  ARG553  GLY616  TRP617  ASP618  TYR619  PRO620  LYS621  CYS622 
 ASP623  PHE694  ASN695  SER759  ASP760  ASP761  ALA762  ILE779  LEU786  VAL792 
 PHE793  MET794  SER795  GLU796  ALA797  LYS798  CYS799  TRP800  GLU811  SER814 

> <Gold.Protein.RotatedAtoms>
  150.7526  133.9617  159.3517 H   0  0  0  0  0  0  0  0  0  0  0  0  # atno 6907 bound_to 6896
  151.7544  135.0823  160.0345 H   0  0  0  0  0  0  0  0  0  0  0  0  # atno 6908 bound_to 6896
  152.3445  133.6069  159.5936 H   0  0  0  0  0  0  0  0  0  0  0  0  # atno 6909 bound_to 6896
  144.9875  139.4441  143.5356 H   0  0  0  0  0  0  0  0  0  0  0  0  # atno 7974 bound_to 7965
  155.7789  140.3482  155.5287 H   0  0  0  0  0  0  0  0  0  0  0  0  # atno 8008 bound_to 7997
  155.8748  140.0992  157.1546 H   0  0  0  0  0  0  0  0  0  0  0  0  # atno 8009 bound_to 7997
  154.4020  140.1333  156.4110 H   0  0  0  0  0  0  0  0  0  0  0  0  # atno 8010 bound_to 7997
  140.6335  143.2470  151.5180 H   0  0  0  0  0  0  0  0  0  0  0  0  # atno 10167 bound_to 10162
  157.2678  130.7193  149.6488 H   0  0  0  0  0  0  0  0  0  0  0  0  # atno 10718 bound_to 10713
  153.1173  135.4741  154.9136 H   0  0  0  0  0  0  0  0  0  0  0  0  # atno 10763 bound_to 10752
  154.7541  135.3113  154.8506 H   0  0  0  0  0  0  0  0  0  0  0  0  # atno 10764 bound_to 10752
  153.9079  135.6868  153.4806 H   0  0  0  0  0  0  0  0  0  0  0  0  # atno 10765 bound_to 10752
  140.2918  134.7667  157.3844 H   0  0  0  0  0  0  0  0  0  0  0  0  # atno 11005 bound_to 11000
  146.3423  139.9186  142.8770 LP  0  0  0  0  0  0  0  0  0  0  0  0  # atno 17320 bound_to 7965
  145.2333  140.9981  143.3978 LP  0  0  0  0  0  0  0  0  0  0  0  0  # atno 17321 bound_to 7965
  139.5547  144.2306  152.1591 LP  0  0  0  0  0  0  0  0  0  0  0  0  # atno 17342 bound_to 10162
  140.1556  144.5073  150.6662 LP  0  0  0  0  0  0  0  0  0  0  0  0  # atno 17343 bound_to 10162
  155.9663  130.4377  150.5186 LP  0  0  0  0  0  0  0  0  0  0  0  0  # atno 17370 bound_to 10713
  157.3105  131.0662  151.2004 LP  0  0  0  0  0  0  0  0  0  0  0  0  # atno 17371 bound_to 10713
  140.1189  134.5247  155.8201 LP  0  0  0  0  0  0  0  0  0  0  0  0  # atno 17394 bound_to 11000
  141.2145  133.6749  156.6828 LP  0  0  0  0  0  0  0  0  0  0  0  0  # atno 17395 bound_to 11000

$$$$
