AV-unprocessed.smi:1838|AV-procd|sdf|7483|dock4
  -GOLD-   22720 9183D 1   1.00000     0.00000
 Structure written by MMmdl.
 35 36  0  0  0  0  0  0  0  0  1 V2000
  151.5810  138.2763  154.5483 C   0  0  0  0  0  0  0  0  0  0  0  0
  150.2299  138.2252  154.1029 O   0  0  0  0  0  0  0  0  0  0  0  0
  149.4755  139.3824  154.1475 C   0  0  0  0  0  0  0  0  0  0  0  0
  150.0439  140.5007  154.6646 N   0  0  0  0  0  0  0  0  0  0  0  0
  149.3115  141.6316  154.7106 C   0  0  0  0  0  0  0  0  0  0  0  0
  147.9858  141.7085  154.2480 C   0  0  0  0  0  0  0  0  0  0  0  0
  147.3934  140.5503  153.7115 C   0  0  0  0  0  0  0  0  0  0  0  0
  148.1491  139.3525  153.6550 C   0  0  0  0  0  0  0  0  0  0  0  0
  147.6666  138.1155  153.1384 N   0  0  0  0  0  0  0  0  0  0  0  0
  146.4048  137.6858  152.9642 C   0  0  0  0  0  0  0  0  0  0  0  0
  145.3850  138.3224  153.2258 O   0  0  0  0  0  0  0  0  0  0  0  0
  146.3879  136.4465  152.4537 N   0  0  0  0  0  0  0  0  0  0  0  0
  145.1875  135.6631  152.1674 C   0  0  1  0  0  0  0  0  0  0  0  0
  145.2906  134.9777  150.7916 C   0  0  0  0  0  0  0  0  0  0  0  0
  144.1192  134.0126  150.5896 C   0  0  0  0  0  0  0  0  0  0  0  0
  144.0921  132.9592  151.7089 C   0  0  0  0  0  0  0  0  0  0  0  0
  144.2797  133.5289  153.0442 N   0  0  0  0  0  0  0  0  0  0  0  0
  144.8394  134.7177  153.3311 C   0  0  0  0  0  0  0  0  0  0  0  0
  145.0353  135.0685  154.4937 O   0  0  0  0  0  0  0  0  0  0  0  0
  152.0295  137.2876  154.4535 H   0  0  0  0  0  0  0  0  0  0  0  0
  151.6445  138.5683  155.5977 H   0  0  0  0  0  0  0  0  0  0  0  0
  152.1737  138.9673  153.9470 H   0  0  0  0  0  0  0  0  0  0  0  0
  149.7970  142.5010  155.1289 H   0  0  0  0  0  0  0  0  0  0  0  0
  147.4342  142.6355  154.3035 H   0  0  0  0  0  0  0  0  0  0  0  0
  146.3768  140.6168  153.3606 H   0  0  0  0  0  0  0  0  0  0  0  0
  148.3888  137.4651  152.8641 H   0  0  0  0  0  0  0  0  0  0  0  0
  147.2727  135.9951  152.2732 H   0  0  0  0  0  0  0  0  0  0  0  0
  144.3422  136.3526  152.1237 H   0  0  0  0  0  0  0  0  0  0  0  0
  145.2980  135.7233  149.9957 H   0  0  0  0  0  0  0  0  0  0  0  0
  146.2311  134.4301  150.7153 H   0  0  0  0  0  0  0  0  0  0  0  0
  143.1835  134.5735  150.5904 H   0  0  0  0  0  0  0  0  0  0  0  0
  144.1886  133.5263  149.6161 H   0  0  0  0  0  0  0  0  0  0  0  0
  143.1521  132.4074  151.6838 H   0  0  0  0  0  0  0  0  0  0  0  0
  144.8870  132.2308  151.5448 H   0  0  0  0  0  0  0  0  0  0  0  0
  144.0202  132.9406  153.8230 H   0  0  0  0  0  0  0  0  0  0  0  0
  1  2  1  0  0  0  0
  1 20  1  0  0  0  0
  1 21  1  0  0  0  0
  1 22  1  0  0  0  0
  2  3  1  0  0  0  0
  3  8  1  0  0  0  0
  3  4  2  0  0  0  0
  4  5  1  0  0  0  0
  5  6  2  0  0  0  0
  5 23  1  0  0  0  0
  6  7  1  0  0  0  0
  6 24  1  0  0  0  0
  7  8  2  0  0  0  0
  7 25  1  0  0  0  0
  8  9  1  0  0  0  0
  9 10  1  0  0  0  0
  9 26  1  0  0  0  0
 10 11  2  0  0  0  0
 10 12  1  0  0  0  0
 12 13  1  0  0  0  0
 12 27  1  0  0  0  0
 13 18  1  0  0  0  0
 13 14  1  0  0  0  0
 13 28  1  0  0  0  0
 14 15  1  0  0  0  0
 14 29  1  0  0  0  0
 14 30  1  0  0  0  0
 15 16  1  0  0  0  0
 15 31  1  0  0  0  0
 15 32  1  0  0  0  0
 16 17  1  0  0  0  0
 16 33  1  0  0  0  0
 16 34  1  0  0  0  0
 17 18  1  0  0  0  0
 17 35  1  0  0  0  0
 18 19  2  0  0  0  0
M  END
> <s_m_source_file>
AV-unprocessed.smi

> <i_m_source_file_index>
1838

> <i_lp_mmshare_version>
43012

> <i_f3d_flags>
0

> <s_epik_input>
W0NIM11PYzFuW2NIXVtjSF1bY0hdYzFbTkhdQyg9TylbTkhdW0NAQEhdMltDSDJdW0NIMl1bQ0gyXVtOSF1DMj1P

> <s_epik_cmdline>
J2VwaWtfcHl0aG9uJywgJy1waCcsICc3LjAnLCAnLXRuJywgJzgnLCAnLW1hJywgJzIwMCcsICctbWV0YWxfYmluZGluZycsICctaW1hZScsICc8aW5maWxlLm1hZT4nLCAnLW9tYWUnLCAnPG91dGZpbGUubWFlPic=

> <r_lp_tautomer_probability>
1

> <r_epik_Ionization_Penalty>
8.30645e-05

> <r_epik_Ionization_Penalty_Charging>
0

> <r_epik_Ionization_Penalty_Neutral>
8.30645e-05

> <r_epik_State_Penalty>
-0

> <r_epik_Charging_Adjusted_Penalty>
0

> <i_epik_Tot_Q>
0

> <i_epik_Tot_abs_Q>
0

> <r_epik_Metal_State_Penalty>
-0

> <b_epik_Metal_Only>
0

> <s_lp_Force_Field>
OPLS_2005

> <r_lp_Energy>
12.0006

> <b_lp_Chiralities_Consistent>
1

> <s_lp_Variant>
AV-unprocessed.smi:1838-2

> <Gold.Version>
5.8.1

> <Gold.Id.Protein>
6NUR|6NUR_protein|mol2

> <Gold.PLP.Fitness>
42.1275

> <Gold.PLP.PLP>
-28.3093

> <Gold.PLP.part.hbond>
-4.0000

> <Gold.PLP.part.metal>
0.0000

> <Gold.PLP.part.buried>
-1.0935

> <Gold.PLP.part.nonpolar>
-25.3866

> <Gold.PLP.part.repulsive>
2.5045

> <Gold.PLP.ligand.clash>
0.0000

> <Gold.PLP.ligand.torsion>
0.3730

> <Gold.PLP.Chemscore.Hbond>
3.8400

> <Gold.PLP.Chemscore.CHOScore>
1.0000

> <Gold.PLP.Chemscore.Metal>
0.0000

> <Gold.Chemscore.Hbonds>
donor molecule, donor type, donor heavy atom, donor atom, acceptor molecule, acceptor atom, score
      L1  H     9    26       P1  7948  1.00
      L1  H    12    27       P1  7948  0.93
      L1  H    17    35       P1 10957  1.00
      P1  H  7989  7998       L1     4  0.90
      L1  C     5    23       P1  8028  1.00

> <Gold.PLP.Chemscore.Internal.Correction>
0.0442

> <Gold.Rescore>
     Score         DG    S(hbond)    S(metal)    S(lipo)     H(rot)  DE(clash)    DE(int)     intcor
     16.49     -19.46       3.11        0.00      59.69       1.33       1.61       1.36       ----

> <Gold.Chemscore.Fitness>
16.4896

> <Gold.Chemscore.DG>
-19.4590

> <Gold.Chemscore.ZeroCoef>
-5.4800

> <Gold.Chemscore.Hbond>
3.1132

> <Gold.Chemscore.Metal>
0.0000

> <Gold.Chemscore.Lipo>
59.6873

> <Gold.Chemscore.Internal_Hbond>
0.0000

> <Gold.Chemscore.DEClash>
1.6074

> <Gold.Chemscore.DEInternal>
1.3620

> <Gold.Chemscore.Rot>
1.3292

> <Gold.Chemscore.Internal.Correction>
   9.000000E+99

> <Gold.Chemscore.Hbonds>
donor molecule, donor type, donor heavy atom, donor atom, acceptor molecule, acceptor atom, score
      L1  H     9    26       P1  7948  0.95
      L1  H    12    27       P1  7948  0.90
      L1  H    17    35       P1 10957  0.83
      P1  H  7989  7998       L1     4  0.24

> <Gold.Chemscore.Hbond.Weighted>
-10.3982

> <Gold.Chemscore.Metal.Weighted>
-0.0000

> <Gold.Chemscore.Lipo.Weighted>
-6.9834

> <Gold.Chemscore.Internal_Hbond.Weighted>
0.0000

> <Gold.Chemscore.DEClash.Weighted>
1.6074

> <Gold.Chemscore.DEInternal.Weighted>
1.3620

> <Gold.Chemscore.Rot.Weighted>
3.4027

> <Gold.Chemscore.Internal.Correction.Weighted>
   9.000000E+99

> <Gold.Protein.RotatedTorsions>
[ 6907 6896 6895 6894 ] final -111.08 input  -60.11 | X-H torsion
[ 7974 7965 7964 7962 ] final  -11.76 input  175.53 | X-H torsion
[ 8008 7997 7996 7995 ] final   34.07 input   59.86 | X-H torsion
[ 10167 10162 10161 10158 ] final -127.83 input  -65.29 | X-H torsion
[ 10718 10713 10712 10709 ] final  103.56 input   66.30 | X-H torsion
[ 10763 10752 10751 10750 ] final   98.79 input  -60.55 | X-H torsion
[ 11005 11000 10999 10996 ] final   82.47 input  -57.11 | X-H torsion

> <Gold.Protein.ActiveResidues>
 VAL166  LYS551  ARG553  GLY616  TRP617  ASP618  TYR619  PRO620  LYS621  CYS622 
 ASP623  PHE694  ASN695  SER759  ASP760  ASP761  ALA762  ILE779  LEU786  VAL792 
 PHE793  MET794  SER795  GLU796  ALA797  LYS798  CYS799  TRP800  GLU811  SER814 

> <Gold.Protein.RotatedAtoms>
  150.7666  133.9288  159.3420 H   0  0  0  0  0  0  0  0  0  0  0  0  # atno 6907 bound_to 6896
  151.7184  135.0897  160.0289 H   0  0  0  0  0  0  0  0  0  0  0  0  # atno 6908 bound_to 6896
  152.3665  133.6326  159.6090 H   0  0  0  0  0  0  0  0  0  0  0  0  # atno 6909 bound_to 6896
  146.2176  140.2959  142.8371 H   0  0  0  0  0  0  0  0  0  0  0  0  # atno 7974 bound_to 7965
  155.1489  140.3273  155.4435 H   0  0  0  0  0  0  0  0  0  0  0  0  # atno 8008 bound_to 7997
  156.2580  140.1980  156.6552 H   0  0  0  0  0  0  0  0  0  0  0  0  # atno 8009 bound_to 7997
  154.6487  140.0561  156.9917 H   0  0  0  0  0  0  0  0  0  0  0  0  # atno 8010 bound_to 7997
  139.9567  143.5996  152.2458 H   0  0  0  0  0  0  0  0  0  0  0  0  # atno 10167 bound_to 10162
  157.6768  131.0782  150.5574 H   0  0  0  0  0  0  0  0  0  0  0  0  # atno 10718 bound_to 10713
  153.2934  135.4136  155.1187 H   0  0  0  0  0  0  0  0  0  0  0  0  # atno 10763 bound_to 10752
  154.8527  135.3524  154.5950 H   0  0  0  0  0  0  0  0  0  0  0  0  # atno 10764 bound_to 10752
  153.6373  135.7058  153.5312 H   0  0  0  0  0  0  0  0  0  0  0  0  # atno 10765 bound_to 10752
  139.9063  134.8073  156.2179 H   0  0  0  0  0  0  0  0  0  0  0  0  # atno 11005 bound_to 11000
  144.9093  140.7737  143.5818 LP  0  0  0  0  0  0  0  0  0  0  0  0  # atno 17320 bound_to 7965
  145.2889  139.1891  143.4751 LP  0  0  0  0  0  0  0  0  0  0  0  0  # atno 17321 bound_to 7965
  139.6586  144.7662  151.2007 LP  0  0  0  0  0  0  0  0  0  0  0  0  # atno 17342 bound_to 10162
  140.7566  143.6046  150.8666 LP  0  0  0  0  0  0  0  0  0  0  0  0  # atno 17343 bound_to 10162
  156.5877  130.4321  149.5950 LP  0  0  0  0  0  0  0  0  0  0  0  0  # atno 17370 bound_to 10713
  156.2609  130.6962  151.1730 LP  0  0  0  0  0  0  0  0  0  0  0  0  # atno 17371 bound_to 10713
  141.0424  133.6931  156.1622 LP  0  0  0  0  0  0  0  0  0  0  0  0  # atno 17394 bound_to 11000
  140.6935  134.4641  157.5588 LP  0  0  0  0  0  0  0  0  0  0  0  0  # atno 17395 bound_to 11000

$$$$
