AV-unprocessed.smi:1259|AV-procd|sdf|5291|dock9
  -GOLD-   22720 4413D 1   1.00000     0.00000
 Structure written by MMmdl.
 34 35  0  0  0  0  0  0  0  0  1 V2000
  146.9320  138.7180  152.3157 C   0  0  0  0  0  0  0  0  0  0  0  0
  147.2707  139.9464  153.1076 C   0  0  0  0  0  0  0  0  0  0  0  0
  148.3971  140.1621  153.9536 C   0  0  0  0  0  0  0  0  0  0  0  0
  148.1928  141.4363  154.4080 C   0  0  0  0  0  0  0  0  0  0  0  0
  148.9560  142.1737  155.2580 N   0  0  0  0  0  0  0  0  0  0  0  0
  149.9982  141.7786  156.0101 C   0  0  0  0  0  0  0  0  0  0  0  0
  150.4464  140.6332  156.0634 O   0  0  0  0  0  0  0  0  0  0  0  0
  150.5036  142.8045  156.7104 N   0  0  0  0  0  0  0  0  0  0  0  0
  151.6464  142.7300  157.6153 C   0  0  2  0  0  0  0  0  0  0  0  0
  151.3089  141.7577  158.7540 C   0  0  0  0  0  0  0  0  0  0  0  0
  152.0695  144.0818  158.1657 C   0  0  0  0  0  0  0  0  0  0  0  0
  152.5117  144.2449  159.6010 C   0  0  0  0  0  0  0  0  0  0  0  0
  151.1957  144.8306  159.1440 C   0  0  0  0  0  0  0  0  0  0  0  0
  147.0267  141.9227  153.8594 N   0  0  0  0  0  0  0  0  0  0  0  0
  146.3884  143.2120  154.0396 C   0  0  0  0  0  0  0  0  0  0  0  0
  146.4589  140.9965  153.0571 N   0  0  0  0  0  0  0  0  0  0  0  0
  147.7061  137.9573  152.4186 H   0  0  0  0  0  0  0  0  0  0  0  0
  146.8335  138.9485  151.2546 H   0  0  0  0  0  0  0  0  0  0  0  0
  145.9914  138.2812  152.6520 H   0  0  0  0  0  0  0  0  0  0  0  0
  149.2056  139.4821  154.1758 H   0  0  0  0  0  0  0  0  0  0  0  0
  148.7065  143.1496  155.3226 H   0  0  0  0  0  0  0  0  0  0  0  0
  150.0703  143.7100  156.6040 H   0  0  0  0  0  0  0  0  0  0  0  0
  152.4927  142.3072  157.0705 H   0  0  0  0  0  0  0  0  0  0  0  0
  152.1584  141.6300  159.4253 H   0  0  0  0  0  0  0  0  0  0  0  0
  151.0477  140.7724  158.3664 H   0  0  0  0  0  0  0  0  0  0  0  0
  150.4676  142.1172  159.3477 H   0  0  0  0  0  0  0  0  0  0  0  0
  152.5882  144.7024  157.4368 H   0  0  0  0  0  0  0  0  0  0  0  0
  152.4717  143.3717  160.2491 H   0  0  0  0  0  0  0  0  0  0  0  0
  153.3298  144.9346  159.7979 H   0  0  0  0  0  0  0  0  0  0  0  0
  151.1354  145.9118  159.0378 H   0  0  0  0  0  0  0  0  0  0  0  0
  150.2848  144.3440  159.4876 H   0  0  0  0  0  0  0  0  0  0  0  0
  145.8850  143.2372  155.0060 H   0  0  0  0  0  0  0  0  0  0  0  0
  145.6557  143.3892  153.2513 H   0  0  0  0  0  0  0  0  0  0  0  0
  147.1365  144.0042  154.0060 H   0  0  0  0  0  0  0  0  0  0  0  0
  1  2  1  0  0  0  0
  1 17  1  0  0  0  0
  1 18  1  0  0  0  0
  1 19  1  0  0  0  0
  2 16  2  0  0  0  0
  2  3  1  0  0  0  0
  3  4  2  0  0  0  0
  3 20  1  0  0  0  0
  4  5  1  0  0  0  0
  4 14  1  0  0  0  0
  5  6  1  0  0  0  0
  5 21  1  0  0  0  0
  6  7  2  0  0  0  0
  6  8  1  0  0  0  0
  8  9  1  0  0  0  0
  8 22  1  0  0  0  0
  9 10  1  0  0  0  0
  9 11  1  0  0  0  0
  9 23  1  0  0  0  0
 10 24  1  0  0  0  0
 10 25  1  0  0  0  0
 10 26  1  0  0  0  0
 11 13  1  0  0  0  0
 11 12  1  0  0  0  0
 11 27  1  0  0  0  0
 12 13  1  0  0  0  0
 12 28  1  0  0  0  0
 12 29  1  0  0  0  0
 13 30  1  0  0  0  0
 13 31  1  0  0  0  0
 14 15  1  0  0  0  0
 14 16  1  0  0  0  0
 15 32  1  0  0  0  0
 15 33  1  0  0  0  0
 15 34  1  0  0  0  0
M  END
> <s_m_source_file>
AV-unprocessed.smi

> <i_m_source_file_index>
1259

> <i_lp_mmshare_version>
43012

> <i_f3d_flags>
0

> <s_epik_input>
W0NIM11jMVtjSF1jKG4objEpW0NIM10pW05IXUMoPU8pW05IXVtDQEhdKFtDSDNdKVtDSF0yW0NIMl1bQ0gyXTI=

> <s_epik_cmdline>
J2VwaWtfcHl0aG9uJywgJy1waCcsICc3LjAnLCAnLXRuJywgJzgnLCAnLW1hJywgJzIwMCcsICctbWV0YWxfYmluZGluZycsICctaW1hZScsICc8aW5maWxlLm1hZT4nLCAnLW9tYWUnLCAnPG91dGZpbGUubWFlPic=

> <r_lp_tautomer_probability>
1

> <r_epik_Ionization_Penalty>
0.000100032

> <r_epik_Ionization_Penalty_Charging>
0

> <r_epik_Ionization_Penalty_Neutral>
0.000100032

> <r_epik_State_Penalty>
-0

> <r_epik_Charging_Adjusted_Penalty>
0

> <i_epik_Tot_Q>
0

> <i_epik_Tot_abs_Q>
0

> <r_epik_Metal_State_Penalty>
-0

> <b_epik_Metal_Only>
0

> <s_lp_Force_Field>
OPLS_2005

> <r_lp_Energy>
14.2457

> <b_lp_Chiralities_Consistent>
1

> <s_lp_Variant>
AV-unprocessed.smi:1259-1

> <Gold.Version>
5.8.1

> <Gold.Id.Protein>
6NUR|6NUR_protein|mol2

> <Gold.PLP.Fitness>
41.1865

> <Gold.PLP.PLP>
-35.5345

> <Gold.PLP.part.hbond>
-2.0000

> <Gold.PLP.part.metal>
0.0000

> <Gold.PLP.part.buried>
-4.3294

> <Gold.PLP.part.nonpolar>
-32.3503

> <Gold.PLP.part.repulsive>
2.3511

> <Gold.PLP.ligand.clash>
0.0000

> <Gold.PLP.ligand.torsion>
0.6454

> <Gold.PLP.Chemscore.Hbond>
1.9600

> <Gold.PLP.Chemscore.CHOScore>
0.0000

> <Gold.PLP.Chemscore.Metal>
0.0000

> <Gold.Chemscore.Hbonds>
donor molecule, donor type, donor heavy atom, donor atom, acceptor molecule, acceptor atom, score
      L1  H     5    21       P1  8028  1.00
      L1  H     8    22       P1  8028  0.94

> <Gold.PLP.Chemscore.Internal.Correction>
1.0627

> <Gold.Rescore>
     Score         DG    S(hbond)    S(metal)    S(lipo)     H(rot)  DE(clash)    DE(int)     intcor
     15.81     -18.84       1.94        0.00      85.09       1.20       1.42       1.61       ----

> <Gold.Chemscore.Fitness>
15.8086

> <Gold.Chemscore.DG>
-18.8415

> <Gold.Chemscore.ZeroCoef>
-5.4800

> <Gold.Chemscore.Hbond>
1.9388

> <Gold.Chemscore.Metal>
0.0000

> <Gold.Chemscore.Lipo>
85.0880

> <Gold.Chemscore.Internal_Hbond>
0.0000

> <Gold.Chemscore.DEClash>
1.4204

> <Gold.Chemscore.DEInternal>
1.6125

> <Gold.Chemscore.Rot>
1.1990

> <Gold.Chemscore.Internal.Correction>
   9.000000E+99

> <Gold.Chemscore.Hbonds>
donor molecule, donor type, donor heavy atom, donor atom, acceptor molecule, acceptor atom, score
      L1  H     5    21       P1  8028  0.98
      L1  H     8    22       P1  8028  0.91

> <Gold.Chemscore.Hbond.Weighted>
-6.4757

> <Gold.Chemscore.Metal.Weighted>
-0.0000

> <Gold.Chemscore.Lipo.Weighted>
-9.9553

> <Gold.Chemscore.Internal_Hbond.Weighted>
0.0000

> <Gold.Chemscore.DEClash.Weighted>
1.4204

> <Gold.Chemscore.DEInternal.Weighted>
1.6125

> <Gold.Chemscore.Rot.Weighted>
3.0695

> <Gold.Chemscore.Internal.Correction.Weighted>
   9.000000E+99

> <Gold.Protein.RotatedTorsions>
[ 6907 6896 6895 6894 ] final   59.27 input  -60.11 | X-H torsion
[ 7974 7965 7964 7962 ] final   62.78 input  175.53 | X-H torsion
[ 8008 7997 7996 7995 ] final    9.84 input   59.86 | X-H torsion
[ 10167 10162 10161 10158 ] final  -74.58 input  -65.29 | X-H torsion
[ 10718 10713 10712 10709 ] final  177.56 input   66.30 | X-H torsion
[ 10763 10752 10751 10750 ] final  144.55 input  -60.55 | X-H torsion
[ 11005 11000 10999 10996 ] final  -12.44 input  -57.11 | X-H torsion

> <Gold.Protein.ActiveResidues>
 VAL166  LYS551  ARG553  GLY616  TRP617  ASP618  TYR619  PRO620  LYS621  CYS622 
 ASP623  PHE694  ASN695  SER759  ASP760  ASP761  ALA762  ILE779  LEU786  VAL792 
 PHE793  MET794  SER795  GLU796  ALA797  LYS798  CYS799  TRP800  GLU811  SER814 

> <Gold.Protein.RotatedAtoms>
  152.3900  134.6456  160.0110 H   0  0  0  0  0  0  0  0  0  0  0  0  # atno 6907 bound_to 6896
  151.6693  133.3309  159.3201 H   0  0  0  0  0  0  0  0  0  0  0  0  # atno 6908 bound_to 6896
  150.7818  134.6813  159.6490 H   0  0  0  0  0  0  0  0  0  0  0  0  # atno 6909 bound_to 6896
  145.8694  139.3368  143.0771 H   0  0  0  0  0  0  0  0  0  0  0  0  # atno 7974 bound_to 7965
  154.7854  140.2826  155.6032 H   0  0  0  0  0  0  0  0  0  0  0  0  # atno 8008 bound_to 7997
  156.2956  140.2615  156.2618 H   0  0  0  0  0  0  0  0  0  0  0  0  # atno 8009 bound_to 7997
  154.9734  140.0376  157.2234 H   0  0  0  0  0  0  0  0  0  0  0  0  # atno 8010 bound_to 7997
  140.5015  143.2360  151.7744 H   0  0  0  0  0  0  0  0  0  0  0  0  # atno 10167 bound_to 10162
  156.9035  130.9886  151.3032 H   0  0  0  0  0  0  0  0  0  0  0  0  # atno 10718 bound_to 10713
  153.9907  135.2932  155.3412 H   0  0  0  0  0  0  0  0  0  0  0  0  # atno 10763 bound_to 10752
  154.7216  135.5106  153.8824 H   0  0  0  0  0  0  0  0  0  0  0  0  # atno 10764 bound_to 10752
  153.0811  135.6679  154.0159 H   0  0  0  0  0  0  0  0  0  0  0  0  # atno 10765 bound_to 10752
  140.7657  133.8479  155.9163 H   0  0  0  0  0  0  0  0  0  0  0  0  # atno 11005 bound_to 11000
  145.9154  140.9151  143.0432 LP  0  0  0  0  0  0  0  0  0  0  0  0  # atno 17320 bound_to 7965
  144.6726  140.1217  143.7449 LP  0  0  0  0  0  0  0  0  0  0  0  0  # atno 17321 bound_to 7965
  139.4873  144.4515  151.9648 LP  0  0  0  0  0  0  0  0  0  0  0  0  # atno 17342 bound_to 10162
  140.3605  144.2979  150.5934 LP  0  0  0  0  0  0  0  0  0  0  0  0  # atno 17343 bound_to 10162
  157.6011  130.8513  149.8804 LP  0  0  0  0  0  0  0  0  0  0  0  0  # atno 17370 bound_to 10713
  156.0570  130.3706  150.1068 LP  0  0  0  0  0  0  0  0  0  0  0  0  # atno 17371 bound_to 10713
  140.9621  134.1642  157.4645 LP  0  0  0  0  0  0  0  0  0  0  0  0  # atno 17394 bound_to 11000
  139.8763  134.9948  156.5714 LP  0  0  0  0  0  0  0  0  0  0  0  0  # atno 17395 bound_to 11000

$$$$
