AV-unprocessed.smi:1554|AV-procd|sdf|6252|dock1
  -GOLD-   22720 6433D 1   1.00000     0.00000
 Structure written by MMmdl.
 48 50  0  0  0  0  0  0  0  0  2 V2000
  152.2493  142.4371  159.6097 C   0  0  0  0  0  0  0  0  0  0  0  0
  151.7677  141.6804  158.3833 C   0  0  0  0  0  0  0  0  0  0  0  0
  150.9366  142.3527  157.4591 C   0  0  0  0  0  0  0  0  0  0  0  0
  150.5101  141.6329  156.3493 C   0  0  0  0  0  0  0  0  0  0  0  0
  149.6938  142.0034  155.2785 N   0  3  0  0  0  0  0  0  0  0  0  0
  149.5558  140.9501  154.4267 C   0  0  0  0  0  0  0  0  0  0  0  0
  150.2738  139.9127  154.9363 N   0  0  0  0  0  0  0  0  0  0  0  0
  150.4618  138.5543  154.4065 C   0  0  0  0  0  0  0  0  0  0  0  0
  149.9815  137.4583  155.3778 C   0  0  2  0  0  0  0  0  0  0  0  0
  149.8670  136.2307  154.6863 O   0  0  0  0  0  0  0  0  0  0  0  0
  148.6067  137.8057  155.9829 C   0  0  0  0  0  0  0  0  0  0  0  0
  148.3270  137.2218  157.2963 N   0  0  0  0  0  0  0  0  0  0  0  0
  149.3638  137.5210  158.2830 C   0  0  0  0  0  0  0  0  0  0  0  0
  149.0311  136.9283  159.6630 C   0  0  0  0  0  0  0  0  0  0  0  0
  147.7611  137.4040  160.0957 O   0  0  0  0  0  0  0  0  0  0  0  0
  146.7102  137.0887  159.1867 C   0  0  1  0  0  0  0  0  0  0  0  0
  145.3988  137.6386  159.7575 C   0  0  0  0  0  0  0  0  0  0  0  0
  147.0426  137.6900  157.8072 C   0  0  0  0  0  0  0  0  0  0  0  0
  150.8849  140.2917  156.1378 C   0  0  0  0  0  0  0  0  0  0  0  0
  151.7029  139.6147  157.0395 C   0  0  0  0  0  0  0  0  0  0  0  0
  152.1444  140.3280  158.1768 C   0  0  0  0  0  0  0  0  0  0  0  0
  153.0326  139.6125  159.1805 C   0  0  0  0  0  0  0  0  0  0  0  0
  151.8936  143.4678  159.6080 H   0  0  0  0  0  0  0  0  0  0  0  0
  153.3388  142.4621  159.6417 H   0  0  0  0  0  0  0  0  0  0  0  0
  151.8861  141.9601  160.5203 H   0  0  0  0  0  0  0  0  0  0  0  0
  150.6437  143.3814  157.6107 H   0  0  0  0  0  0  0  0  0  0  0  0
  148.9818  140.9402  153.5114 H   0  0  0  0  0  0  0  0  0  0  0  0
  149.8945  138.4961  153.4767 H   0  0  0  0  0  0  0  0  0  0  0  0
  151.5078  138.4143  154.1327 H   0  0  0  0  0  0  0  0  0  0  0  0
  150.7312  137.3445  156.1597 H   0  0  0  0  0  0  0  0  0  0  0  0
  149.5951  136.4145  153.7995 H   0  0  0  0  0  0  0  0  0  0  0  0
  148.5092  138.8904  156.0500 H   0  0  0  0  0  0  0  0  0  0  0  0
  147.8392  137.4855  155.2764 H   0  0  0  0  0  0  0  0  0  0  0  0
  150.3248  137.1220  157.9620 H   0  0  0  0  0  0  0  0  0  0  0  0
  149.4871  138.6012  158.3756 H   0  0  0  0  0  0  0  0  0  0  0  0
  149.0250  135.8380  159.6237 H   0  0  0  0  0  0  0  0  0  0  0  0
  149.7875  137.2185  160.3923 H   0  0  0  0  0  0  0  0  0  0  0  0
  146.6288  136.0034  159.1022 H   0  0  0  0  0  0  0  0  0  0  0  0
  144.5597  137.4171  159.0976 H   0  0  0  0  0  0  0  0  0  0  0  0
  145.4478  138.7205  159.8852 H   0  0  0  0  0  0  0  0  0  0  0  0
  145.1818  137.1978  160.7308 H   0  0  0  0  0  0  0  0  0  0  0  0
  147.0500  138.7790  157.8788 H   0  0  0  0  0  0  0  0  0  0  0  0
  146.2507  137.4307  157.1034 H   0  0  0  0  0  0  0  0  0  0  0  0
  151.9848  138.5834  156.8864 H   0  0  0  0  0  0  0  0  0  0  0  0
  153.2233  138.5814  158.8807 H   0  0  0  0  0  0  0  0  0  0  0  0
  152.5600  139.5915  160.1629 H   0  0  0  0  0  0  0  0  0  0  0  0
  153.9952  140.1171  159.2689 H   0  0  0  0  0  0  0  0  0  0  0  0
  149.2611  142.9074  155.1376 H   0  0  0  0  0  0  0  0  0  0  0  0
  1  2  1  0  0  0  0
  1 23  1  0  0  0  0
  1 24  1  0  0  0  0
  1 25  1  0  0  0  0
  2 21  1  0  0  0  0
  2  3  2  0  0  0  0
  3  4  1  0  0  0  0
  3 26  1  0  0  0  0
  4 19  2  0  0  0  0
  4  5  1  0  0  0  0
  5  6  2  0  0  0  0
  5 48  1  0  0  0  0
  6  7  1  0  0  0  0
  6 27  1  0  0  0  0
  7  8  1  0  0  0  0
  7 19  1  0  0  0  0
  8  9  1  0  0  0  0
  8 28  1  0  0  0  0
  8 29  1  0  0  0  0
  9 10  1  0  0  0  0
  9 11  1  0  0  0  0
  9 30  1  0  0  0  0
 10 31  1  0  0  0  0
 11 12  1  0  0  0  0
 11 32  1  0  0  0  0
 11 33  1  0  0  0  0
 12 18  1  0  0  0  0
 12 13  1  0  0  0  0
 13 14  1  0  0  0  0
 13 34  1  0  0  0  0
 13 35  1  0  0  0  0
 14 15  1  0  0  0  0
 14 36  1  0  0  0  0
 14 37  1  0  0  0  0
 15 16  1  0  0  0  0
 16 17  1  0  0  0  0
 16 18  1  0  0  0  0
 16 38  1  0  0  0  0
 17 39  1  0  0  0  0
 17 40  1  0  0  0  0
 17 41  1  0  0  0  0
 18 42  1  0  0  0  0
 18 43  1  0  0  0  0
 19 20  1  0  0  0  0
 20 21  2  0  0  0  0
 20 44  1  0  0  0  0
 21 22  1  0  0  0  0
 22 45  1  0  0  0  0
 22 46  1  0  0  0  0
 22 47  1  0  0  0  0
M  CHG  1   5   1
M  END
> <s_m_source_file>
AV-unprocessed.smi

> <i_m_source_file_index>
1554

> <i_lp_mmshare_version>
43012

> <i_f3d_flags>
0

> <s_epik_input>
W0NIM11jKFtjSF0xKWMoW0NIM10pW2NIXWMoYzEyKW4oW2NIXW4yKVtDSDJdW0NASF0oW09IXSlbQ0gyXU4zW0NIMl1bQ0gyXU9bQ0BASF0oW0NIM10pW0NIMl0z

> <s_epik_cmdline>
J2VwaWtfcHl0aG9uJywgJy1waCcsICc3LjAnLCAnLXRuJywgJzgnLCAnLW1hJywgJzIwMCcsICctbWV0YWxfYmluZGluZycsICctaW1hZScsICc8aW5maWxlLm1hZT4nLCAnLW9tYWUnLCAnPG91dGZpbGUubWFlPic=

> <r_epik_Ionization_Penalty>
1.42504

> <r_epik_Ionization_Penalty_Charging>
1.21068

> <r_epik_Ionization_Penalty_Neutral>
0.214359

> <r_epik_State_Penalty>
1.46962

> <r_epik_Charging_Adjusted_Penalty>
2.6803

> <i_epik_Tot_Q>
1

> <i_epik_Tot_abs_Q>
1

> <r_epik_Metal_State_Penalty>
5.48754

> <b_epik_Metal_Only>
0

> <s_lp_Force_Field>
OPLS_2005

> <r_lp_Energy>
34.8696

> <b_lp_Chiralities_Consistent>
1

> <s_lp_Variant>
AV-unprocessed.smi:1554-13

> <Gold.Version>
5.8.1

> <Gold.Id.Protein>
6NUR|6NUR_protein|mol2

> <Gold.PLP.Fitness>
48.4642

> <Gold.PLP.PLP>
-35.2550

> <Gold.PLP.part.hbond>
-4.0000

> <Gold.PLP.part.metal>
0.0000

> <Gold.PLP.part.buried>
-1.8720

> <Gold.PLP.part.nonpolar>
-29.6629

> <Gold.PLP.part.repulsive>
0.1990

> <Gold.PLP.ligand.clash>
0.0000

> <Gold.PLP.ligand.torsion>
0.4270

> <Gold.PLP.Chemscore.Hbond>
3.7914

> <Gold.PLP.Chemscore.CHOScore>
0.8709

> <Gold.PLP.Chemscore.Metal>
0.0000

> <Gold.Chemscore.Hbonds>
donor molecule, donor type, donor heavy atom, donor atom, acceptor molecule, acceptor atom, score
      L1  H     5    48       P1  8028  2.00
      L1  H    10    31       P1  7948  1.00
      P1  H  6931  6943       L1    15  0.02
      P1  H  6934  6947       L1    15  0.80
      L1  C     6    27       P1  7957  0.85

> <Gold.PLP.Chemscore.Internal.Correction>
0.0761

> <Gold.Rescore>
     Score         DG    S(hbond)    S(metal)    S(lipo)     H(rot)  DE(clash)    DE(int)     intcor
     17.13     -17.69       2.34        0.00      82.24       2.04       0.10       0.45       ----

> <Gold.Chemscore.Fitness>
17.1278

> <Gold.Chemscore.DG>
-17.6862

> <Gold.Chemscore.ZeroCoef>
-5.4800

> <Gold.Chemscore.Hbond>
2.3394

> <Gold.Chemscore.Metal>
0.0000

> <Gold.Chemscore.Lipo>
82.2381

> <Gold.Chemscore.Internal_Hbond>
0.0000

> <Gold.Chemscore.DEClash>
0.1045

> <Gold.Chemscore.DEInternal>
0.4539

> <Gold.Chemscore.Rot>
2.0427

> <Gold.Chemscore.Internal.Correction>
   9.000000E+99

> <Gold.Chemscore.Hbonds>
donor molecule, donor type, donor heavy atom, donor atom, acceptor molecule, acceptor atom, score
      L1  H     5    48       P1  8028  0.97
      L1  H    10    31       P1  7948  0.62
      P1  H  6934  6947       L1    15  0.36

> <Gold.Chemscore.Hbond.Weighted>
-7.8138

> <Gold.Chemscore.Metal.Weighted>
-0.0000

> <Gold.Chemscore.Lipo.Weighted>
-9.6219

> <Gold.Chemscore.Internal_Hbond.Weighted>
0.0000

> <Gold.Chemscore.DEClash.Weighted>
0.1045

> <Gold.Chemscore.DEInternal.Weighted>
0.4539

> <Gold.Chemscore.Rot.Weighted>
5.2294

> <Gold.Chemscore.Internal.Correction.Weighted>
   9.000000E+99

> <Gold.Protein.RotatedTorsions>
[ 6907 6896 6895 6894 ] final  176.35 input  -60.11 | X-H torsion
[ 7974 7965 7964 7962 ] final  167.07 input  175.53 | X-H torsion
[ 8008 7997 7996 7995 ] final   97.95 input   59.86 | X-H torsion
[ 10167 10162 10161 10158 ] final  -69.96 input  -65.29 | X-H torsion
[ 10718 10713 10712 10709 ] final    7.50 input   66.30 | X-H torsion
[ 10763 10752 10751 10750 ] final  -97.19 input  -60.55 | X-H torsion
[ 11005 11000 10999 10996 ] final  156.79 input  -57.11 | X-H torsion

> <Gold.Protein.ActiveResidues>
 VAL166  LYS551  ARG553  GLY616  TRP617  ASP618  TYR619  PRO620  LYS621  CYS622 
 ASP623  PHE694  ASN695  SER759  ASP760  ASP761  ALA762  ILE779  LEU786  VAL792 
 PHE793  MET794  SER795  GLU796  ALA797  LYS798  CYS799  TRP800  GLU811  SER814 

> <Gold.Protein.RotatedAtoms>
  151.7215  133.3314  159.3316 H   0  0  0  0  0  0  0  0  0  0  0  0  # atno 6907 bound_to 6896
  150.7651  134.6443  159.6263 H   0  0  0  0  0  0  0  0  0  0  0  0  # atno 6908 bound_to 6896
  152.3649  134.6821  160.0247 H   0  0  0  0  0  0  0  0  0  0  0  0  # atno 6909 bound_to 6896
  144.7438  139.8707  143.6388 H   0  0  0  0  0  0  0  0  0  0  0  0  # atno 7974 bound_to 7965
  156.0955  140.3251  155.7871 H   0  0  0  0  0  0  0  0  0  0  0  0  # atno 8008 bound_to 7997
  155.4926  140.0562  157.2968 H   0  0  0  0  0  0  0  0  0  0  0  0  # atno 8009 bound_to 7997
  154.4663  140.1991  156.0124 H   0  0  0  0  0  0  0  0  0  0  0  0  # atno 8010 bound_to 7997
  140.5390  143.2316  151.7124 H   0  0  0  0  0  0  0  0  0  0  0  0  # atno 10167 bound_to 10162
  156.9378  130.5850  149.5651 H   0  0  0  0  0  0  0  0  0  0  0  0  # atno 10718 bound_to 10713
  154.7307  135.5055  153.8958 H   0  0  0  0  0  0  0  0  0  0  0  0  # atno 10763 bound_to 10752
  153.0946  135.6669  153.9795 H   0  0  0  0  0  0  0  0  0  0  0  0  # atno 10764 bound_to 10752
  153.9597  135.3049  155.3413 H   0  0  0  0  0  0  0  0  0  0  0  0  # atno 10765 bound_to 10752
  140.1708  134.8544  157.2688 H   0  0  0  0  0  0  0  0  0  0  0  0  # atno 11005 bound_to 11000
  146.1282  139.4312  143.0185 LP  0  0  0  0  0  0  0  0  0  0  0  0  # atno 17320 bound_to 7965
  145.7203  141.0077  143.1406 LP  0  0  0  0  0  0  0  0  0  0  0  0  # atno 17321 bound_to 7965
  139.4981  144.3998  152.0193 LP  0  0  0  0  0  0  0  0  0  0  0  0  # atno 17342 bound_to 10162
  140.3106  144.3543  150.6035 LP  0  0  0  0  0  0  0  0  0  0  0  0  # atno 17343 bound_to 10162
  156.0418  130.5499  150.8788 LP  0  0  0  0  0  0  0  0  0  0  0  0  # atno 17370 bound_to 10713
  157.5805  131.0946  150.9279 LP  0  0  0  0  0  0  0  0  0  0  0  0  # atno 17371 bound_to 10713
  140.2379  134.3831  155.7493 LP  0  0  0  0  0  0  0  0  0  0  0  0  # atno 17394 bound_to 11000
  141.2217  133.7249  156.8743 LP  0  0  0  0  0  0  0  0  0  0  0  0  # atno 17395 bound_to 11000

$$$$
