#       Name:                AV-unprocessed.smi:2843
#       Creating user name   scv26
#       Creation time:       Fri Mar 27 15:38:20 2020


#       File generated by GOLD software.
#

@<TRIPOS>MOLECULE
AV-unprocessed.smi:2843
    35    35     1
SMALL
NO_CHARGES


@<TRIPOS>ATOM
      1 ****        -5.0896   2.8270  -1.6888 C.3            1 S1                 0.0000
      2 ****        -3.6352   2.5649  -1.4975 C.2            1 S1                 0.0000
      3 ****        -2.9021   2.1037  -0.4415 C.2            1 S1                 0.0000
      4 ****        -1.5696   2.0879  -0.9386 C.2            1 S1                 0.0000
      5 ****        -0.3139   1.6684  -0.2297 C.3            1 S1                 0.0000
      6 ****        -0.2253  -0.1708  -0.1750 S.o2           1 S1                 0.0000
      7 ****        -1.2941  -0.6798   0.6981 O.2            1 S1                 0.0000
      8 ****        -0.0982  -0.6760  -1.5508 O.2            1 S1                 0.0000
      9 ****         1.2747  -0.4507   0.6272 N.3            1 S1                 0.0000
     10 ****         1.8611  -1.7859   0.5316 C.3            1 S1                 0.0000
     11 ****         3.1497  -1.8625   1.3605 C.3            1 S1                 0.0000
     12 ****         3.8063  -3.2474   1.2914 C.3            1 S1                 0.0000
     13 ****         4.9840  -3.2582   2.0686 O.3            1 S1                 0.0000
     14 ****        -1.5083   2.5133  -2.1898 N.2            1 S1                 0.0000
     15 ****        -2.8237   2.8187  -2.5562 O.3            1 S1                 0.0000
     16 ****        -5.6573   2.5412  -0.8030 H              1 S1                 0.0000
     17 ****        -5.4764   2.2594  -2.5353 H              1 S1                 0.0000
     18 ****        -5.2695   3.8851  -1.8794 H              1 S1                 0.0000
     19 ****        -3.2634   1.8159   0.5347 H              1 S1                 0.0000
     20 ****         0.5767   2.0406  -0.7374 H              1 S1                 0.0000
     21 ****        -0.2975   2.0461   0.7924 H              1 S1                 0.0000
     22 ****         1.2264  -0.1465   1.5994 H              1 S1                 0.0000
     23 ****         1.1364  -2.5190   0.8880 H              1 S1                 0.0000
     24 ****         2.0671  -2.0130  -0.5150 H              1 S1                 0.0000
     25 ****         3.8546  -1.1082   1.0070 H              1 S1                 0.0000
     26 ****         2.9287  -1.6172   2.4006 H              1 S1                 0.0000
     27 ****         3.1271  -4.0147   1.6647 H              1 S1                 0.0000
     28 ****         4.0571  -3.5044   0.2617 H              1 S1                 0.0000
     29 ****         5.3737  -4.1175   2.0130 H              1 S1                 0.0000
     30 ****         1.9149   0.1110   0.1032 LP             1 S1                 0.0000
     31 ****         4.7612  -3.0502   3.0210 LP             1 S1                 0.0000
     32 ****         5.6246  -2.5744   1.7192 LP             1 S1                 0.0000
     33 ****        -0.6895   2.5990  -2.7575 LP             1 S1                 0.0000
     34 ****        -2.8885   3.7845  -2.8071 LP             1 S1                 0.0000
     35 ****        -3.0972   2.2531  -3.3343 LP             1 S1                 0.0000
@<TRIPOS>BOND
    1    1    2 1     
    2    1   16 1     
    3    1   17 1     
    4    1   18 1     
    5    2   15 1     
    6    2    3 2     
    7    3    4 1     
    8    3   19 1     
    9    4    5 1     
   10    4   14 2     
   11    5    6 1     
   12    5   20 1     
   13    5   21 1     
   14    6    7 2     
   15    6    8 2     
   16    6    9 1     
   17    9   10 1     
   18    9   22 1     
   19   10   11 1     
   20   10   23 1     
   21   10   24 1     
   22   11   12 1     
   23   11   25 1     
   24   11   26 1     
   25   12   13 1     
   26   12   27 1     
   27   12   28 1     
   28   13   29 1     
   29   14   15 1     
   30    9   30 1     
   31   13   31 1     
   32   13   32 1     
   33   14   33 1     
   34   15   34 1     
   35   15   35 1     
@<TRIPOS>SUBSTRUCTURE
      1 S1             1
@<TRIPOS>SET
LONE_PAIRS      STATIC     ATOMS    <user>   **** ""
8 7 8 30 31 32 33 34 35
DONOR_HYDROGENS      STATIC     ATOMS    <user>   **** ""
2 22 29
ATOM$BLUE        STATIC     ATOMS    COLORGROUP SYSTEM
8 7 8 30 31 32 33 34 35
ATOM$RED        STATIC     ATOMS    COLORGROUP SYSTEM
2 22 29
