AV-unprocessed.smi:3347|AV-procd|sdf|12914|dock4
  -GOLD-   2272019333D 1   1.00000     0.00000
 Structure written by MMmdl.
 40 42  0  0  0  0  0  0  0  0  2 V2000
  149.6318  135.0899  156.1224 O   0  0  0  0  0  0  0  0  0  0  0  0
  149.4931  135.3270  154.9228 C   0  0  0  0  0  0  0  0  0  0  0  0
  148.8070  134.5325  154.0887 N   0  0  0  0  0  0  0  0  0  0  0  0
  148.1591  133.2767  154.4556 C   0  0  0  0  0  0  0  0  0  0  0  0
  148.5804  132.1133  153.5367 C   0  0  1  0  0  0  0  0  0  0  0  0
  149.2329  130.9491  154.2794 C   0  0  0  0  0  0  0  0  0  0  0  0
  149.0713  129.7562  153.3297 C   0  0  0  0  0  0  0  0  0  0  0  0
  147.9736  130.0993  152.3958 N   0  3  1  0  0  0  0  0  0  0  0  0
  146.9454  129.0461  152.2555 C   0  0  0  0  0  0  0  0  0  0  0  0
  147.5203  127.6629  152.0659 C   0  0  0  0  0  0  0  0  0  0  0  0
  146.9213  128.4034  150.8896 C   0  0  0  0  0  0  0  0  0  0  0  0
  147.4338  131.4120  152.8039 C   0  0  0  0  0  0  0  0  0  0  0  0
  149.9742  136.4046  154.2798 N   0  0  0  0  0  0  0  0  0  0  0  0
  150.7421  137.4820  154.7995 C   0  0  0  0  0  0  0  0  0  0  0  0
  151.6861  137.3618  155.8487 C   0  0  0  0  0  0  0  0  0  0  0  0
  152.3934  138.5076  156.2609 C   0  0  0  0  0  0  0  0  0  0  0  0
  152.1386  139.7280  155.6062 C   0  0  0  0  0  0  0  0  0  0  0  0
  151.2518  139.8549  154.5970 N   0  0  0  0  0  0  0  0  0  0  0  0
  150.5778  138.7523  154.2069 C   0  0  0  0  0  0  0  0  0  0  0  0
  148.7415  134.8091  153.1198 H   0  0  0  0  0  0  0  0  0  0  0  0
  148.4464  133.0494  155.4825 H   0  0  0  0  0  0  0  0  0  0  0  0
  147.0737  133.3910  154.4630 H   0  0  0  0  0  0  0  0  0  0  0  0
  149.2907  132.4833  152.7950 H   0  0  0  0  0  0  0  0  0  0  0  0
  150.2750  131.1431  154.5360 H   0  0  0  0  0  0  0  0  0  0  0  0
  148.6943  130.7495  155.2071 H   0  0  0  0  0  0  0  0  0  0  0  0
  149.9798  129.6006  152.7474 H   0  0  0  0  0  0  0  0  0  0  0  0
  148.8741  128.8376  153.8847 H   0  0  0  0  0  0  0  0  0  0  0  0
  146.0229  129.1899  152.8156 H   0  0  0  0  0  0  0  0  0  0  0  0
  148.6024  127.5470  152.0893 H   0  0  0  0  0  0  0  0  0  0  0  0
  146.9545  126.8247  152.4672 H   0  0  0  0  0  0  0  0  0  0  0  0
  145.9612  128.0521  150.5169 H   0  0  0  0  0  0  0  0  0  0  0  0
  147.6050  128.7797  150.1306 H   0  0  0  0  0  0  0  0  0  0  0  0
  146.5933  131.2656  153.4850 H   0  0  0  0  0  0  0  0  0  0  0  0
  147.0752  131.9768  151.9428 H   0  0  0  0  0  0  0  0  0  0  0  0
  149.7164  136.4913  153.3076 H   0  0  0  0  0  0  0  0  0  0  0  0
  151.8928  136.4216  156.3350 H   0  0  0  0  0  0  0  0  0  0  0  0
  153.1196  138.4506  157.0580 H   0  0  0  0  0  0  0  0  0  0  0  0
  152.6652  140.6248  155.8976 H   0  0  0  0  0  0  0  0  0  0  0  0
  149.8780  138.8913  153.3956 H   0  0  0  0  0  0  0  0  0  0  0  0
  148.4007  130.2313  151.4901 H   0  0  0  0  0  0  0  0  0  0  0  0
  1  2  2  0  0  0  0
  2  3  1  0  0  0  0
  2 13  1  0  0  0  0
  3  4  1  0  0  0  0
  3 20  1  0  0  0  0
  4  5  1  0  0  0  0
  4 21  1  0  0  0  0
  4 22  1  0  0  0  0
  5 12  1  0  0  0  0
  5  6  1  0  0  0  0
  5 23  1  0  0  0  0
  6  7  1  0  0  0  0
  6 24  1  0  0  0  0
  6 25  1  0  0  0  0
  7  8  1  0  0  0  0
  7 26  1  0  0  0  0
  7 27  1  0  0  0  0
  8  9  1  0  0  0  0
  8 12  1  0  0  0  0
  8 40  1  0  0  0  0
  9 11  1  0  0  0  0
  9 10  1  0  0  0  0
  9 28  1  0  0  0  0
 10 11  1  0  0  0  0
 10 29  1  0  0  0  0
 10 30  1  0  0  0  0
 11 31  1  0  0  0  0
 11 32  1  0  0  0  0
 12 33  1  0  0  0  0
 12 34  1  0  0  0  0
 13 14  1  0  0  0  0
 13 35  1  0  0  0  0
 14 19  1  0  0  0  0
 14 15  2  0  0  0  0
 15 16  1  0  0  0  0
 15 36  1  0  0  0  0
 16 17  2  0  0  0  0
 16 37  1  0  0  0  0
 17 18  1  0  0  0  0
 17 38  1  0  0  0  0
 18 19  2  0  0  0  0
 19 39  1  0  0  0  0
M  CHG  1   8   1
M  END
> <s_m_source_file>
AV-unprocessed.smi

> <i_m_source_file_index>
3347

> <i_lp_mmshare_version>
43012

> <i_f3d_flags>
0

> <s_epik_input>
W2NIXTFuW2NIXVtjSF1bY0hdYzFbTkhdQyg9TylbTkhdW0NIMl1bQ0BASF0yW0NIMl1bQ0gyXU4oW0NIMl0yKVtDSF0zW0NIMl1bQ0gyXTM=

> <s_epik_cmdline>
J2VwaWtfcHl0aG9uJywgJy1waCcsICc3LjAnLCAnLXRuJywgJzgnLCAnLW1hJywgJzIwMCcsICctbWV0YWxfYmluZGluZycsICctaW1hZScsICc8aW5maWxlLm1hZT4nLCAnLW9tYWUnLCAnPG91dGZpbGUubWFlPic=

> <r_epik_Ionization_Penalty>
0.00442629

> <r_epik_Ionization_Penalty_Charging>
0.000203384

> <r_epik_Ionization_Penalty_Neutral>
0.00422291

> <r_epik_State_Penalty>
0.00301008

> <r_epik_Charging_Adjusted_Penalty>
0.00321347

> <i_epik_Tot_Q>
1

> <i_epik_Tot_abs_Q>
1

> <r_epik_Metal_State_Penalty>
-0

> <b_epik_Metal_Only>
0

> <s_lp_Force_Field>
OPLS_2005

> <r_lp_Energy>
39.1383

> <b_lp_Chiralities_Consistent>
1

> <s_lp_Variant>
AV-unprocessed.smi:3347-4

> <Gold.Version>
5.8.1

> <Gold.Id.Protein>
6NUR|6NUR_protein|mol2

> <Gold.PLP.Fitness>
47.2994

> <Gold.PLP.PLP>
-34.8183

> <Gold.PLP.part.hbond>
-4.7252

> <Gold.PLP.part.metal>
0.0000

> <Gold.PLP.part.buried>
-2.4392

> <Gold.PLP.part.nonpolar>
-27.6419

> <Gold.PLP.part.repulsive>
0.1974

> <Gold.PLP.ligand.clash>
0.0000

> <Gold.PLP.ligand.torsion>
1.7903

> <Gold.PLP.Chemscore.Hbond>
3.9353

> <Gold.PLP.Chemscore.CHOScore>
0.9971

> <Gold.PLP.Chemscore.Metal>
0.0000

> <Gold.Chemscore.Hbonds>
donor molecule, donor type, donor heavy atom, donor atom, acceptor molecule, acceptor atom, score
      L1  H     3    20       P1  7948  0.94
      L1  H     8    40       P1 10747  0.81
      L1  H    13    35       P1  7948  1.00
      P1  H  7989  7998       L1    18  1.00
      L1  C    19    39       P1  7957  1.00

> <Gold.PLP.Chemscore.Internal.Correction>
1.2646

> <Gold.Rescore>
     Score         DG    S(hbond)    S(metal)    S(lipo)     H(rot)  DE(clash)    DE(int)     intcor
     20.65     -23.67       3.54        0.00      85.64       1.42       0.29       2.73       ----

> <Gold.Chemscore.Fitness>
20.6513

> <Gold.Chemscore.DG>
-23.6710

> <Gold.Chemscore.ZeroCoef>
-5.4800

> <Gold.Chemscore.Hbond>
3.5363

> <Gold.Chemscore.Metal>
0.0000

> <Gold.Chemscore.Lipo>
85.6408

> <Gold.Chemscore.Internal_Hbond>
0.0000

> <Gold.Chemscore.DEClash>
0.2906

> <Gold.Chemscore.DEInternal>
2.7291

> <Gold.Chemscore.Rot>
1.4219

> <Gold.Chemscore.Internal.Correction>
   9.000000E+99

> <Gold.Chemscore.Hbonds>
donor molecule, donor type, donor heavy atom, donor atom, acceptor molecule, acceptor atom, score
      L1  H     3    20       P1  7948  0.27
      L1  H     8    40       P1 10747  0.69
      L1  H    13    35       P1  7948  0.30
      P1  H  7989  7998       L1    18  0.81

> <Gold.Chemscore.Hbond.Weighted>
-11.8111

> <Gold.Chemscore.Metal.Weighted>
-0.0000

> <Gold.Chemscore.Lipo.Weighted>
-10.0200

> <Gold.Chemscore.Internal_Hbond.Weighted>
0.0000

> <Gold.Chemscore.DEClash.Weighted>
0.2906

> <Gold.Chemscore.DEInternal.Weighted>
2.7291

> <Gold.Chemscore.Rot.Weighted>
3.6401

> <Gold.Chemscore.Internal.Correction.Weighted>
   9.000000E+99

> <Gold.Protein.RotatedTorsions>
[ 6907 6896 6895 6894 ] final  -17.14 input  -60.11 | X-H torsion
[ 7974 7965 7964 7962 ] final   44.19 input  175.53 | X-H torsion
[ 8008 7997 7996 7995 ] final -112.16 input   59.86 | X-H torsion
[ 10167 10162 10161 10158 ] final   -1.30 input  -65.29 | X-H torsion
[ 10718 10713 10712 10709 ] final -145.93 input   66.30 | X-H torsion
[ 10763 10752 10751 10750 ] final  157.35 input  -60.55 | X-H torsion
[ 11005 11000 10999 10996 ] final   96.33 input  -57.11 | X-H torsion

> <Gold.Protein.ActiveResidues>
 VAL166  LYS551  ARG553  GLY616  TRP617  ASP618  TYR619  PRO620  LYS621  CYS622 
 ASP623  PHE694  ASN695  SER759  ASP760  ASP761  ALA762  ILE779  LEU786  VAL792 
 PHE793  MET794  SER795  GLU796  ALA797  LYS798  CYS799  TRP800  GLU811  SER814 

> <Gold.Protein.RotatedAtoms>
  151.2979  135.0760  159.9227 H   0  0  0  0  0  0  0  0  0  0  0  0  # atno 6907 bound_to 6896
  152.5303  133.9864  159.7840 H   0  0  0  0  0  0  0  0  0  0  0  0  # atno 6908 bound_to 6896
  151.0145  133.5883  159.2709 H   0  0  0  0  0  0  0  0  0  0  0  0  # atno 6909 bound_to 6896
  146.0590  139.5102  142.9670 H   0  0  0  0  0  0  0  0  0  0  0  0  # atno 7974 bound_to 7965
  155.0009  140.0394  157.2359 H   0  0  0  0  0  0  0  0  0  0  0  0  # atno 8008 bound_to 7997
  154.7545  140.2773  155.6242 H   0  0  0  0  0  0  0  0  0  0  0  0  # atno 8009 bound_to 7997
  156.2892  140.2640  156.2307 H   0  0  0  0  0  0  0  0  0  0  0  0  # atno 8010 bound_to 7997
  140.6804  143.6791  150.8120 H   0  0  0  0  0  0  0  0  0  0  0  0  # atno 10167 bound_to 10162
  156.3886  130.7874  151.2074 H   0  0  0  0  0  0  0  0  0  0  0  0  # atno 10718 bound_to 10713
  154.1989  135.2791  155.2997 H   0  0  0  0  0  0  0  0  0  0  0  0  # atno 10763 bound_to 10752
  154.5870  135.5572  153.7244 H   0  0  0  0  0  0  0  0  0  0  0  0  # atno 10764 bound_to 10752
  153.0093  135.6359  154.2127 H   0  0  0  0  0  0  0  0  0  0  0  0  # atno 10765 bound_to 10752
  139.8782  134.8945  156.4143 H   0  0  0  0  0  0  0  0  0  0  0  0  # atno 11005 bound_to 11000
  145.6593  141.0244  143.1717 LP  0  0  0  0  0  0  0  0  0  0  0  0  # atno 17320 bound_to 7965
  144.7164  139.8182  143.7397 LP  0  0  0  0  0  0  0  0  0  0  0  0  # atno 17321 bound_to 7965
  140.0491  143.5268  152.2682 LP  0  0  0  0  0  0  0  0  0  0  0  0  # atno 17342 bound_to 10162
  139.6123  144.7611  151.2923 LP  0  0  0  0  0  0  0  0  0  0  0  0  # atno 17343 bound_to 10162
  157.7497  131.0322  150.4217 LP  0  0  0  0  0  0  0  0  0  0  0  0  # atno 17370 bound_to 10713
  156.4475  130.4004  149.6657 LP  0  0  0  0  0  0  0  0  0  0  0  0  # atno 17371 bound_to 10713
  140.9179  133.7666  155.9870 LP  0  0  0  0  0  0  0  0  0  0  0  0  # atno 17394 bound_to 11000
  140.8473  134.2995  157.5289 LP  0  0  0  0  0  0  0  0  0  0  0  0  # atno 17395 bound_to 11000

$$$$
