#       Name:                AV-unprocessed.smi:1272
#       Creating user name   scv26
#       Creation time:       Fri Mar 27 04:46:39 2020


#       File generated by GOLD software.
#

@<TRIPOS>MOLECULE
AV-unprocessed.smi:1272
    52    54     1
SMALL
NO_CHARGES


@<TRIPOS>ATOM
      1 ****        -2.9117   4.1775  -2.3349 C.3            1 S1                 0.0000
      2 ****        -1.7352   4.0017  -1.3668 C.3            1 S1                 0.0000
      3 ****        -1.7780   2.6957  -0.7135 N.am           1 S1                 0.0000
      4 ****        -1.1811   1.5586  -1.1424 C.2            1 S1                 0.0000
      5 ****        -0.4890   1.4420  -2.1538 O.2            1 S1                 0.0000
      6 ****        -1.4798   0.5702  -0.2665 N.am           1 S1                 0.0000
      7 ****        -1.0379  -0.8219  -0.3427 C.3            1 S1                 0.0000
      8 ****         0.3947  -0.9984   0.2024 C.3            1 S1                 0.0000
      9 ****         0.3104  -0.9964   1.6144 O.3            1 S1                 0.0000
     10 ****         1.0151  -2.3449  -0.2316 C.3            1 S1                 0.0000
     11 ****         2.4700  -2.3408  -0.3912 N.3            1 S1                 0.0000
     12 ****         2.9297  -3.5779  -1.0144 C.3            1 S1                 0.0000
     13 ****         4.4570  -3.5989  -1.1973 C.3            1 S1                 0.0000
     14 ****         5.0893  -3.4057   0.0637 O.3            1 S1                 0.0000
     15 ****         4.7061  -2.1844   0.6868 C.3            1 S1                 0.0000
     16 ****         3.1788  -2.1544   0.8730 C.3            1 S1                 0.0000
     17 ****        -2.2945   1.0890   0.7505 C.ar           1 S1                 0.0000
     18 ****        -2.8649   0.4801   1.8821 C.ar           1 S1                 0.0000
     19 ****        -3.6547   1.2953   2.7264 C.ar           1 S1                 0.0000
     20 ****        -3.8543   2.6690   2.4316 C.ar           1 S1                 0.0000
     21 ****        -3.2664   3.2573   1.2876 C.ar           1 S1                 0.0000
     22 ****        -2.4847   2.4255   0.4670 C.ar           1 S1                 0.0000
     23 ****        -2.8699   5.1516  -2.8226 H              1 S1                 0.0000
     24 ****        -3.8666   4.1076  -1.8132 H              1 S1                 0.0000
     25 ****        -2.8982   3.4152  -3.1144 H              1 S1                 0.0000
     26 ****        -0.7932   4.1167  -1.9051 H              1 S1                 0.0000
     27 ****        -1.7497   4.7895  -0.6132 H              1 S1                 0.0000
     28 ****        -1.7386  -1.4841   0.1671 H              1 S1                 0.0000
     29 ****        -1.0718  -1.1157  -1.3929 H              1 S1                 0.0000
     30 ****         1.0259  -0.1748  -0.1347 H              1 S1                 0.0000
     31 ****         1.1838  -1.0830   1.9648 H              1 S1                 0.0000
     32 ****         0.7048  -3.1459   0.4417 H              1 S1                 0.0000
     33 ****         0.5867  -2.6055  -1.2001 H              1 S1                 0.0000
     34 ****         2.6291  -4.4325  -0.4059 H              1 S1                 0.0000
     35 ****         2.4508  -3.7037  -1.9862 H              1 S1                 0.0000
     36 ****         4.7763  -4.5540  -1.6145 H              1 S1                 0.0000
     37 ****         4.7738  -2.8218  -1.8949 H              1 S1                 0.0000
     38 ****         5.2076  -2.1035   1.6514 H              1 S1                 0.0000
     39 ****         5.0379  -1.3393   0.0814 H              1 S1                 0.0000
     40 ****         2.9040  -1.2005   1.3222 H              1 S1                 0.0000
     41 ****         2.8853  -2.9318   1.5800 H              1 S1                 0.0000
     42 ****        -2.7090  -0.5652   2.1036 H              1 S1                 0.0000
     43 ****        -4.1115   0.8664   3.6060 H              1 S1                 0.0000
     44 ****        -4.4621   3.2731   3.0891 H              1 S1                 0.0000
     45 ****        -3.4145   4.3021   1.0582 H              1 S1                 0.0000
     46 ****        -0.3262   2.2340  -2.7422 LP             1 S1                 0.0000
     47 ****        -0.0896   0.5554  -2.3869 LP             1 S1                 0.0000
     48 ****        -0.2540  -1.7631   1.9203 LP             1 S1                 0.0000
     49 ****        -0.0957  -0.1378   1.9275 LP             1 S1                 0.0000
     50 ****         2.6793  -1.5611  -0.9813 LP             1 S1                 0.0000
     51 ****         6.0800  -3.3987  -0.0724 LP             1 S1                 0.0000
     52 ****         4.8410  -4.1643   0.6661 LP             1 S1                 0.0000
@<TRIPOS>BOND
    1    1    2 1     
    2    1   23 1     
    3    1   24 1     
    4    1   25 1     
    5    2    3 1     
    6    2   26 1     
    7    2   27 1     
    8    3   22 1     
    9    3    4 am    
   10    4    5 2     
   11    4    6 am    
   12    6    7 1     
   13    6   17 1     
   14    7    8 1     
   15    7   28 1     
   16    7   29 1     
   17    8    9 1     
   18    8   10 1     
   19    8   30 1     
   20    9   31 1     
   21   10   11 1     
   22   10   32 1     
   23   10   33 1     
   24   11   16 1     
   25   11   12 1     
   26   12   13 1     
   27   12   34 1     
   28   12   35 1     
   29   13   14 1     
   30   13   36 1     
   31   13   37 1     
   32   14   15 1     
   33   15   16 1     
   34   15   38 1     
   35   15   39 1     
   36   16   40 1     
   37   16   41 1     
   38   17   22 ar    
   39   17   18 ar    
   40   18   19 ar    
   41   18   42 1     
   42   19   20 ar    
   43   19   43 1     
   44   20   21 ar    
   45   20   44 1     
   46   21   22 ar    
   47   21   45 1     
   48    5   46 1     
   49    5   47 1     
   50    9   48 1     
   51    9   49 1     
   52   11   50 1     
   53   14   51 1     
   54   14   52 1     
@<TRIPOS>SUBSTRUCTURE
      1 S1             1
@<TRIPOS>SET
LONE_PAIRS      STATIC     ATOMS    <user>   **** ""
7 46 47 48 49 50 51 52
DONOR_HYDROGENS      STATIC     ATOMS    <user>   **** ""
1 31
ATOM$BLUE        STATIC     ATOMS    COLORGROUP SYSTEM
7 46 47 48 49 50 51 52
ATOM$RED        STATIC     ATOMS    COLORGROUP SYSTEM
1 31
