AV-unprocessed.smi:67|AV-procd|sdf|636|dock3
  -GOLD-   2262016533D 1   1.00000     0.00000
 Structure written by MMmdl.
 48 50  0  0  0  0  0  0  0  0  2 V2000
  148.0308  136.6876  154.3222 O   0  0  0  0  0  0  0  0  0  0  0  0
  147.3709  137.9383  154.2909 C   0  0  2  0  0  0  0  0  0  0  0  0
  148.4171  139.0378  153.9844 C   0  0  0  0  0  0  0  0  0  0  0  0
  149.4918  139.0916  155.0109 N   0  3  2  0  0  0  0  0  0  0  0  0
  149.3290  140.2169  155.9677 C   0  0  0  0  0  0  0  0  0  0  0  0
  150.3301  140.1067  157.1297 C   0  0  0  0  0  0  0  0  0  0  0  0
  151.7731  139.9881  156.5972 C   0  0  1  0  0  0  0  0  0  0  0  0
  152.7868  139.9881  157.6056 O   0  0  0  0  0  0  0  0  0  0  0  0
  152.7817  140.8420  158.6923 C   0  0  0  0  0  0  0  0  0  0  0  0
  153.1835  140.5149  160.0116 C   0  0  0  0  0  0  0  0  0  0  0  0
  153.1339  141.4805  161.0347 C   0  0  0  0  0  0  0  0  0  0  0  0
  152.6810  142.7831  160.7598 C   0  0  0  0  0  0  0  0  0  0  0  0
  152.2700  143.1271  159.4558 C   0  0  0  0  0  0  0  0  0  0  0  0
  151.7858  144.5359  159.1456 C   0  0  0  0  0  0  0  0  0  0  0  0
  152.5264  145.0472  158.1631 F   0  0  0  0  0  0  0  0  0  0  0  0
  150.5094  144.5235  158.7599 F   0  0  0  0  0  0  0  0  0  0  0  0
  151.8892  145.3245  160.2159 F   0  0  0  0  0  0  0  0  0  0  0  0
  152.3309  142.1540  158.4350 C   0  0  0  0  0  0  0  0  0  0  0  0
  151.9256  138.8911  155.5233 C   0  0  0  0  0  0  0  0  0  0  0  0
  150.8589  139.0546  154.4282 C   0  0  0  0  0  0  0  0  0  0  0  0
  146.5721  138.1860  155.5754 C   0  0  0  0  0  0  0  0  0  0  0  0
  145.4463  139.1007  155.1019 C   0  0  0  0  0  0  0  0  0  0  0  0
  145.1299  138.6603  153.7479 N   0  0  0  0  0  0  0  0  0  0  0  0
  146.2675  137.9079  153.2182 C   0  0  0  0  0  0  0  0  0  0  0  0
  148.4092  136.5226  153.4718 H   0  0  0  0  0  0  0  0  0  0  0  0
  148.8476  138.8864  152.9929 H   0  0  0  0  0  0  0  0  0  0  0  0
  147.9101  140.0023  153.9274 H   0  0  0  0  0  0  0  0  0  0  0  0
  149.4595  141.1642  155.4420 H   0  0  0  0  0  0  0  0  0  0  0  0
  148.3152  140.2144  156.3711 H   0  0  0  0  0  0  0  0  0  0  0  0
  150.2459  140.9859  157.7689 H   0  0  0  0  0  0  0  0  0  0  0  0
  150.0489  139.2597  157.7500 H   0  0  0  0  0  0  0  0  0  0  0  0
  151.9618  140.9264  156.0735 H   0  0  0  0  0  0  0  0  0  0  0  0
  153.5385  139.5362  160.2820 H   0  0  0  0  0  0  0  0  0  0  0  0
  153.4461  141.2207  162.0355 H   0  0  0  0  0  0  0  0  0  0  0  0
  152.6526  143.5150  161.5535 H   0  0  0  0  0  0  0  0  0  0  0  0
  152.0270  142.4159  157.4319 H   0  0  0  0  0  0  0  0  0  0  0  0
  152.9187  138.9513  155.0768 H   0  0  0  0  0  0  0  0  0  0  0  0
  151.8470  137.8899  155.9388 H   0  0  0  0  0  0  0  0  0  0  0  0
  150.9402  138.2278  153.7220 H   0  0  0  0  0  0  0  0  0  0  0  0
  151.0381  139.9705  153.8629 H   0  0  0  0  0  0  0  0  0  0  0  0
  146.1421  137.2509  155.9385 H   0  0  0  0  0  0  0  0  0  0  0  0
  147.1545  138.6160  156.3905 H   0  0  0  0  0  0  0  0  0  0  0  0
  144.5742  139.0619  155.7549 H   0  0  0  0  0  0  0  0  0  0  0  0
  145.7967  140.1330  155.0798 H   0  0  0  0  0  0  0  0  0  0  0  0
  144.9118  139.4559  153.1562 H   0  0  0  0  0  0  0  0  0  0  0  0
  146.6067  138.3157  152.2656 H   0  0  0  0  0  0  0  0  0  0  0  0
  145.9496  136.8818  153.0287 H   0  0  0  0  0  0  0  0  0  0  0  0
  149.3888  138.2456  155.5535 H   0  0  0  0  0  0  0  0  0  0  0  0
  1  2  1  0  0  0  0
  1 25  1  0  0  0  0
  2 24  1  0  0  0  0
  2  3  1  0  0  0  0
  2 21  1  0  0  0  0
  3  4  1  0  0  0  0
  3 26  1  0  0  0  0
  3 27  1  0  0  0  0
  4 20  1  0  0  0  0
  4  5  1  0  0  0  0
  4 48  1  0  0  0  0
  5  6  1  0  0  0  0
  5 28  1  0  0  0  0
  5 29  1  0  0  0  0
  6  7  1  0  0  0  0
  6 30  1  0  0  0  0
  6 31  1  0  0  0  0
  7  8  1  0  0  0  0
  7 19  1  0  0  0  0
  7 32  1  0  0  0  0
  8  9  1  0  0  0  0
  9 18  1  0  0  0  0
  9 10  2  0  0  0  0
 10 11  1  0  0  0  0
 10 33  1  0  0  0  0
 11 12  2  0  0  0  0
 11 34  1  0  0  0  0
 12 13  1  0  0  0  0
 12 35  1  0  0  0  0
 13 14  1  0  0  0  0
 13 18  2  0  0  0  0
 14 15  1  0  0  0  0
 14 16  1  0  0  0  0
 14 17  1  0  0  0  0
 18 36  1  0  0  0  0
 19 20  1  0  0  0  0
 19 37  1  0  0  0  0
 19 38  1  0  0  0  0
 20 39  1  0  0  0  0
 20 40  1  0  0  0  0
 21 22  1  0  0  0  0
 21 41  1  0  0  0  0
 21 42  1  0  0  0  0
 22 23  1  0  0  0  0
 22 43  1  0  0  0  0
 22 44  1  0  0  0  0
 23 24  1  0  0  0  0
 23 45  1  0  0  0  0
 24 46  1  0  0  0  0
 24 47  1  0  0  0  0
M  CHG  1   4   1
M  END
> <s_m_source_file>
AV-unprocessed.smi

> <i_m_source_file_index>
67

> <i_lp_mmshare_version>
43012

> <i_f3d_flags>
0

> <s_epik_input>
W0NIMl0xW05IXVtDSDJdW0NIMl1bQ0BAXTEoW09IXSlbQ0gyXU4yW0NIMl1bQ0gyXVtDSF0oW0NIMl1bQ0gyXTIpT2MzW2NIXVtjSF1bY0hdYyhDKEYpKEYpRilbY0hdMw==

> <s_epik_cmdline>
J2VwaWtfcHl0aG9uJywgJy1waCcsICc3LjAnLCAnLXRuJywgJzgnLCAnLW1hJywgJzIwMCcsICctbWV0YWxfYmluZGluZycsICctaW1hZScsICc8aW5maWxlLm1hZT4nLCAnLW9tYWUnLCAnPG91dGZpbGUubWFlPic=

> <r_epik_Ionization_Penalty>
2.37709

> <r_epik_Ionization_Penalty_Charging>
0.0305656

> <r_epik_Ionization_Penalty_Neutral>
2.34653

> <r_epik_State_Penalty>
2.56959

> <r_epik_Charging_Adjusted_Penalty>
2.60016

> <i_epik_Tot_Q>
1

> <i_epik_Tot_abs_Q>
1

> <r_epik_Metal_State_Penalty>
2.56925

> <b_epik_Metal_Only>
0

> <s_lp_Force_Field>
OPLS_2005

> <r_lp_Energy>
55.6007

> <b_lp_Chiralities_Consistent>
1

> <s_lp_Variant>
AV-unprocessed.smi:67-8

> <Gold.Version>
5.8.1

> <Gold.Id.Protein>
6NUR|6NUR_protein|mol2

> <Gold.PLP.Fitness>
54.4662

> <Gold.PLP.PLP>
-47.8386

> <Gold.PLP.part.hbond>
-3.0000

> <Gold.PLP.part.metal>
0.0000

> <Gold.PLP.part.buried>
-5.0556

> <Gold.PLP.part.nonpolar>
-39.5855

> <Gold.PLP.part.repulsive>
0.0447

> <Gold.PLP.ligand.clash>
1.1986

> <Gold.PLP.ligand.torsion>
1.0934

> <Gold.PLP.Chemscore.Hbond>
2.7680

> <Gold.PLP.Chemscore.CHOScore>
0.0000

> <Gold.PLP.Chemscore.Metal>
0.0000

> <Gold.Chemscore.Hbonds>
donor molecule, donor type, donor heavy atom, donor atom, acceptor molecule, acceptor atom, score
      L1  H     1    25       P1  7948  1.00
      L1  H    23    45       P1 10175  0.94
      P1  H  7997  8008       L1     8  0.78

> <Gold.PLP.Chemscore.Internal.Correction>
1.7090

> <Gold.Rescore>
     Score         DG    S(hbond)    S(metal)    S(lipo)     H(rot)  DE(clash)    DE(int)     intcor
     20.35     -21.50       2.47        0.00     113.95       2.17       0.05       1.09       ----

> <Gold.Chemscore.Fitness>
20.3509

> <Gold.Chemscore.DG>
-21.4985

> <Gold.Chemscore.ZeroCoef>
-5.4800

> <Gold.Chemscore.Hbond>
2.4700

> <Gold.Chemscore.Metal>
0.0000

> <Gold.Chemscore.Lipo>
113.9533

> <Gold.Chemscore.Internal_Hbond>
0.0000

> <Gold.Chemscore.DEClash>
0.0545

> <Gold.Chemscore.DEInternal>
1.0930

> <Gold.Chemscore.Rot>
2.1734

> <Gold.Chemscore.Internal.Correction>
   9.000000E+99

> <Gold.Chemscore.Hbonds>
donor molecule, donor type, donor heavy atom, donor atom, acceptor molecule, acceptor atom, score
      L1  H     1    25       P1  7948  1.00
      L1  H    23    45       P1 10175  0.91
      P1  H  7997  8008       L1     8  0.23

> <Gold.Chemscore.Hbond.Weighted>
-8.2499

> <Gold.Chemscore.Metal.Weighted>
-0.0000

> <Gold.Chemscore.Lipo.Weighted>
-13.3325

> <Gold.Chemscore.Internal_Hbond.Weighted>
0.0000

> <Gold.Chemscore.DEClash.Weighted>
0.0545

> <Gold.Chemscore.DEInternal.Weighted>
1.0930

> <Gold.Chemscore.Rot.Weighted>
5.5640

> <Gold.Chemscore.Internal.Correction.Weighted>
   9.000000E+99

> <Gold.Protein.RotatedTorsions>
[ 6907 6896 6895 6894 ] final   50.38 input  -60.11 | X-H torsion
[ 7974 7965 7964 7962 ] final  120.32 input  175.53 | X-H torsion
[ 8008 7997 7996 7995 ] final  -93.36 input   59.86 | X-H torsion
[ 10167 10162 10161 10158 ] final  179.39 input  -65.29 | X-H torsion
[ 10718 10713 10712 10709 ] final   12.79 input   66.30 | X-H torsion
[ 10763 10752 10751 10750 ] final  -86.61 input  -60.55 | X-H torsion
[ 11005 11000 10999 10996 ] final   -7.62 input  -57.11 | X-H torsion

> <Gold.Protein.ActiveResidues>
 VAL166  LYS551  ARG553  GLY616  TRP617  ASP618  TYR619  PRO620  LYS621  CYS622 
 ASP623  PHE694  ASN695  SER759  ASP760  ASP761  ALA762  ILE779  LEU786  VAL792 
 PHE793  MET794  SER795  GLU796  ALA797  LYS798  CYS799  TRP800  GLU811  SER814 

> <Gold.Protein.RotatedAtoms>
  152.3012  134.7608  160.0357 H   0  0  0  0  0  0  0  0  0  0  0  0  # atno 6907 bound_to 6896
  151.8121  133.3378  159.3566 H   0  0  0  0  0  0  0  0  0  0  0  0  # atno 6908 bound_to 6896
  150.7275  134.5584  159.5874 H   0  0  0  0  0  0  0  0  0  0  0  0  # atno 6909 bound_to 6896
  145.1325  139.3318  143.4657 H   0  0  0  0  0  0  0  0  0  0  0  0  # atno 7974 bound_to 7965
  154.7347  140.0499  157.0758 H   0  0  0  0  0  0  0  0  0  0  0  0  # atno 8008 bound_to 7997
  155.0256  140.3152  155.4758 H   0  0  0  0  0  0  0  0  0  0  0  0  # atno 8009 bound_to 7997
  156.2850  140.2159  156.5376 H   0  0  0  0  0  0  0  0  0  0  0  0  # atno 8010 bound_to 7997
  139.5334  144.2567  152.0741 H   0  0  0  0  0  0  0  0  0  0  0  0  # atno 10167 bound_to 10162
  157.0152  130.6133  149.5713 H   0  0  0  0  0  0  0  0  0  0  0  0  # atno 10718 bound_to 10713
  154.6244  135.5443  153.7611 H   0  0  0  0  0  0  0  0  0  0  0  0  # atno 10763 bound_to 10752
  153.0254  135.6420  154.1393 H   0  0  0  0  0  0  0  0  0  0  0  0  # atno 10764 bound_to 10752
  154.1326  135.2913  155.3161 H   0  0  0  0  0  0  0  0  0  0  0  0  # atno 10765 bound_to 10752
  140.7147  133.8878  155.8777 H   0  0  0  0  0  0  0  0  0  0  0  0  # atno 11005 bound_to 11000
  146.3512  140.1330  142.8596 LP  0  0  0  0  0  0  0  0  0  0  0  0  # atno 17320 bound_to 7965
  145.0619  140.9094  143.4933 LP  0  0  0  0  0  0  0  0  0  0  0  0  # atno 17321 bound_to 7965
  140.2033  144.4636  150.6420 LP  0  0  0  0  0  0  0  0  0  0  0  0  # atno 17342 bound_to 10162
  140.6527  143.2229  151.6041 LP  0  0  0  0  0  0  0  0  0  0  0  0  # atno 17343 bound_to 10162
  156.0122  130.5214  150.8023 LP  0  0  0  0  0  0  0  0  0  0  0  0  # atno 17370 bound_to 10713
  157.5291  131.0935  150.9979 LP  0  0  0  0  0  0  0  0  0  0  0  0  # atno 17371 bound_to 10713
  141.0054  134.1093  157.4275 LP  0  0  0  0  0  0  0  0  0  0  0  0  # atno 17394 bound_to 11000
  139.8863  135.0080  156.6487 LP  0  0  0  0  0  0  0  0  0  0  0  0  # atno 17395 bound_to 11000

$$$$
