#       Name:                AV-unprocessed.smi:676
#       Creating user name   scv26
#       Creation time:       Fri Mar 27 00:27:01 2020


#       File generated by GOLD software.
#

@<TRIPOS>MOLECULE
AV-unprocessed.smi:676
    48    49     1
SMALL
NO_CHARGES


@<TRIPOS>ATOM
      1 ****        -0.7609  -3.5833   1.0647 C.3            1 S1                 0.0000
      2 ****        -0.9573  -2.6794  -0.0161 O.3            1 S1                 0.0000
      3 ****        -2.1779  -1.9274  -0.0348 C.3            1 S1                 0.0000
      4 ****        -3.3845  -2.8752  -0.0336 C.3            1 S1                 0.0000
      5 ****        -2.1162  -0.7823   0.9950 C.3            1 S1                 0.0000
      6 ****        -1.4770   0.1050  -0.0766 C.3            1 S1                 0.0000
      7 ****        -0.0167   0.0694  -0.0080 N.am           1 S1                 0.0000
      8 ****         0.7426   0.9650   0.6371 C.2            1 S1                 0.0000
      9 ****         0.2784   1.9214   1.2587 O.2            1 S1                 0.0000
     10 ****         2.2569   0.7219   0.5903 C.3            1 S1                 0.0000
     11 ****         3.0354   1.9707   0.5656 N.am           1 S1                 0.0000
     12 ****         3.5466   2.4347   1.7942 C.2            1 S1                 0.0000
     13 ****         4.2678   3.5634   1.8819 C.2            1 S1                 0.0000
     14 ****         4.5186   4.3092   0.6712 C.2            1 S1                 0.0000
     15 ****         4.0306   3.8764  -0.5083 C.2            1 S1                 0.0000
     16 ****         3.2366   2.6461  -0.6080 C.2            1 S1                 0.0000
     17 ****         2.7824   2.2466  -1.6807 O.2            1 S1                 0.0000
     18 ****        -2.0712  -0.8396  -1.1533 C.3            1 S1                 0.0000
     19 ****        -1.2056  -1.1759  -2.3791 C.3            1 S1                 0.0000
     20 ****        -3.4058  -0.3385  -1.7257 C.3            1 S1                 0.0000
     21 ****         0.2621  -3.9575   1.0317 H              1 S1                 0.0000
     22 ****        -1.4210  -4.4475   0.9914 H              1 S1                 0.0000
     23 ****        -0.9075  -3.1115   2.0357 H              1 S1                 0.0000
     24 ****        -4.3246  -2.3370  -0.1477 H              1 S1                 0.0000
     25 ****        -3.4676  -3.4295   0.9008 H              1 S1                 0.0000
     26 ****        -3.3207  -3.5976  -0.8476 H              1 S1                 0.0000
     27 ****        -3.1064  -0.4285   1.2860 H              1 S1                 0.0000
     28 ****        -1.4973  -0.9554   1.8752 H              1 S1                 0.0000
     29 ****        -1.8949   1.1129  -0.1083 H              1 S1                 0.0000
     30 ****         0.4426  -0.6952  -0.4817 H              1 S1                 0.0000
     31 ****         2.5292   0.1176   1.4565 H              1 S1                 0.0000
     32 ****         2.5069   0.1058  -0.2759 H              1 S1                 0.0000
     33 ****         3.3080   1.8233   2.6524 H              1 S1                 0.0000
     34 ****         4.6467   3.9066   2.8333 H              1 S1                 0.0000
     35 ****         5.1002   5.2184   0.7115 H              1 S1                 0.0000
     36 ****         4.2283   4.4470  -1.4039 H              1 S1                 0.0000
     37 ****        -1.0484  -0.2987  -3.0077 H              1 S1                 0.0000
     38 ****        -1.6734  -1.9429  -2.9970 H              1 S1                 0.0000
     39 ****        -0.2179  -1.5495  -2.1101 H              1 S1                 0.0000
     40 ****        -3.2647   0.5453  -2.3488 H              1 S1                 0.0000
     41 ****        -4.1081  -0.0596  -0.9396 H              1 S1                 0.0000
     42 ****        -3.8923  -1.0966  -2.3403 H              1 S1                 0.0000
     43 ****        -0.9198  -3.2110  -0.8622 LP             1 S1                 0.0000
     44 ****        -0.2019  -2.0244  -0.0002 LP             1 S1                 0.0000
     45 ****        -0.7114   2.0586   1.2991 LP             1 S1                 0.0000
     46 ****         0.8911   2.5609   1.7230 LP             1 S1                 0.0000
     47 ****         2.2466   1.4029  -1.7137 LP             1 S1                 0.0000
     48 ****         2.9493   2.7660  -2.5188 LP             1 S1                 0.0000
@<TRIPOS>BOND
    1    1    2 1     
    2    1   21 1     
    3    1   22 1     
    4    1   23 1     
    5    2    3 1     
    6    3   18 1     
    7    3    4 1     
    8    3    5 1     
    9    4   24 1     
   10    4   25 1     
   11    4   26 1     
   12    5    6 1     
   13    5   27 1     
   14    5   28 1     
   15    6    7 1     
   16    6   18 1     
   17    6   29 1     
   18    7    8 am    
   19    7   30 1     
   20    8    9 2     
   21    8   10 1     
   22   10   11 1     
   23   10   31 1     
   24   10   32 1     
   25   11   16 am    
   26   11   12 1     
   27   12   13 2     
   28   12   33 1     
   29   13   14 1     
   30   13   34 1     
   31   14   15 2     
   32   14   35 1     
   33   15   16 1     
   34   15   36 1     
   35   16   17 2     
   36   18   19 1     
   37   18   20 1     
   38   19   37 1     
   39   19   38 1     
   40   19   39 1     
   41   20   40 1     
   42   20   41 1     
   43   20   42 1     
   44    2   43 1     
   45    2   44 1     
   46    9   45 1     
   47    9   46 1     
   48   17   47 1     
   49   17   48 1     
@<TRIPOS>SUBSTRUCTURE
      1 S1             1
@<TRIPOS>SET
LONE_PAIRS      STATIC     ATOMS    <user>   **** ""
6 43 44 45 46 47 48
DONOR_HYDROGENS      STATIC     ATOMS    <user>   **** ""
1 30
ATOM$BLUE        STATIC     ATOMS    COLORGROUP SYSTEM
6 43 44 45 46 47 48
ATOM$RED        STATIC     ATOMS    COLORGROUP SYSTEM
1 30
