#       Name:                AV-unprocessed.smi:33
#       Creating user name   scv26
#       Creation time:       Thu Mar 26 15:47:38 2020


#       File generated by GOLD software.
#

@<TRIPOS>MOLECULE
AV-unprocessed.smi:33
    80    85     1
SMALL
NO_CHARGES


@<TRIPOS>ATOM
      1 ****        -5.5543   3.8616  -1.5947 O.2            1 S1                 0.0000
      2 ****        -5.5662   3.4765  -0.4237 C.2            1 S1                 0.0000
      3 ****        -5.3445   2.1992  -0.0570 O.3            1 S1                 0.0000
      4 ****        -5.0457   1.2216  -1.0399 C.3            1 S1                 0.0000
      5 ****        -4.8077  -0.1283  -0.3526 C.3            1 S1                 0.0000
      6 ****        -3.5736  -0.1309   0.3471 O.3            1 S1                 0.0000
      7 ****        -3.1954  -1.4525   0.5722 C.3            1 S1                 0.0000
      8 ****        -1.7067  -1.5277   0.4889 N.pl3          1 S1                 0.0000
      9 ****        -0.8523  -2.2147   1.3225 C.2            1 S1                 0.0000
     10 ****         0.4159  -2.1175   1.0272 N.2            1 S1                 0.0000
     11 ****         0.4372  -1.2960  -0.0927 C.ar           1 S1                 0.0000
     12 ****         1.4707  -0.7800  -0.9208 C.ar           1 S1                 0.0000
     13 ****         2.7826  -1.0413  -0.7111 N.am           1 S1                 0.0000
     14 ****         3.3897  -0.4851   0.5073 C.2            1 S1                 0.0000
     15 ****         2.8977   0.5169   1.0298 O.2            1 S1                 0.0000
     16 ****         4.6302  -1.1011   1.0901 C.ar           1 S1                 0.0000
     17 ****         5.7076  -0.2789   1.4871 C.ar           1 S1                 0.0000
     18 ****         6.8661  -0.8489   2.0496 C.ar           1 S1                 0.0000
     19 ****         6.9474  -2.2421   2.2358 C.ar           1 S1                 0.0000
     20 ****         5.8656  -3.0649   1.8682 C.ar           1 S1                 0.0000
     21 ****         4.7069  -2.4958   1.3053 C.ar           1 S1                 0.0000
     22 ****         3.4822  -1.8465  -1.7233 C.2            1 S1                 0.0000
     23 ****         2.8417  -2.6335  -2.4230 O.2            1 S1                 0.0000
     24 ****         4.9754  -1.7582  -1.8674 C.ar           1 S1                 0.0000
     25 ****         5.7481  -2.9368  -1.9586 C.ar           1 S1                 0.0000
     26 ****         7.1469  -2.8592  -2.1031 C.ar           1 S1                 0.0000
     27 ****         7.7795  -1.6035  -2.1779 C.ar           1 S1                 0.0000
     28 ****         7.0121  -0.4249  -2.1168 C.ar           1 S1                 0.0000
     29 ****         5.6137  -0.5015  -1.9705 C.ar           1 S1                 0.0000
     30 ****         1.1147   0.0135  -1.9645 N.ar           1 S1                 0.0000
     31 ****        -0.1752   0.2855  -2.1820 C.ar           1 S1                 0.0000
     32 ****        -1.2421  -0.1236  -1.4923 N.ar           1 S1                 0.0000
     33 ****        -0.8890  -0.9218  -0.4430 C.ar           1 S1                 0.0000
     34 ****        -3.8533  -2.3217  -0.5144 C.3            1 S1                 0.0000
     35 ****        -4.7118  -3.2976   0.0408 O.3            1 S1                 0.0000
     36 ****        -4.6660  -1.3104  -1.3139 C.3            1 S1                 0.0000
     37 ****        -3.9848  -0.9580  -2.4054 F              1 S1                 0.0000
     38 ****        -5.8271   4.3770   0.7363 C.ar           1 S1                 0.0000
     39 ****        -6.1010   5.7452   0.5035 C.ar           1 S1                 0.0000
     40 ****        -6.3473   6.6208   1.5790 C.ar           1 S1                 0.0000
     41 ****        -6.3221   6.1391   2.9007 C.ar           1 S1                 0.0000
     42 ****        -6.0502   4.7805   3.1458 C.ar           1 S1                 0.0000
     43 ****        -5.8041   3.9032   2.0716 C.ar           1 S1                 0.0000
     44 ****        -5.8868   1.1424  -1.7300 H              1 S1                 0.0000
     45 ****        -4.1692   1.5173  -1.6187 H              1 S1                 0.0000
     46 ****        -5.6115  -0.3393   0.3552 H              1 S1                 0.0000
     47 ****        -3.4409  -1.7578   1.5907 H              1 S1                 0.0000
     48 ****        -1.2019  -2.7976   2.1623 H              1 S1                 0.0000
     49 ****         5.6560   0.7916   1.3497 H              1 S1                 0.0000
     50 ****         7.6920  -0.2165   2.3396 H              1 S1                 0.0000
     51 ****         7.8361  -2.6786   2.6672 H              1 S1                 0.0000
     52 ****         5.9237  -4.1326   2.0200 H              1 S1                 0.0000
     53 ****         3.8804  -3.1364   1.0323 H              1 S1                 0.0000
     54 ****         5.2738  -3.9059  -1.9017 H              1 S1                 0.0000
     55 ****         7.7345  -3.7638  -2.1567 H              1 S1                 0.0000
     56 ****         8.8522  -1.5445  -2.2886 H              1 S1                 0.0000
     57 ****         7.4958   0.5385  -2.1825 H              1 S1                 0.0000
     58 ****         5.0345   0.4098  -1.9285 H              1 S1                 0.0000
     59 ****        -0.3823   0.9228  -3.0290 H              1 S1                 0.0000
     60 ****        -3.1043  -2.8183  -1.1337 H              1 S1                 0.0000
     61 ****        -5.3498  -2.8624   0.5852 H              1 S1                 0.0000
     62 ****        -5.6273  -1.6933  -1.6589 H              1 S1                 0.0000
     63 ****        -6.1244   6.1386  -0.5027 H              1 S1                 0.0000
     64 ****        -6.5548   7.6637   1.3888 H              1 S1                 0.0000
     65 ****        -6.5111   6.8106   3.7251 H              1 S1                 0.0000
     66 ****        -6.0296   4.4094   4.1599 H              1 S1                 0.0000
     67 ****        -5.5968   2.8669   2.2952 H              1 S1                 0.0000
     68 ****        -5.3729   3.2118  -2.3329 LP             1 S1                 0.0000
     69 ****        -5.7261   4.8237  -1.8064 LP             1 S1                 0.0000
     70 ****        -3.6805   0.3428   1.2212 LP             1 S1                 0.0000
     71 ****        -2.8752   0.3313  -0.1993 LP             1 S1                 0.0000
     72 ****         1.1919  -2.5372   1.4981 LP             1 S1                 0.0000
     73 ****         2.0905   0.9466   0.6251 LP             1 S1                 0.0000
     74 ****         3.3057   0.9001   1.8584 LP             1 S1                 0.0000
     75 ****         1.8531  -2.7212  -2.3003 LP             1 S1                 0.0000
     76 ****         3.3106  -3.1844  -3.1134 LP             1 S1                 0.0000
     77 ****         1.8160   0.3928  -2.5681 LP             1 S1                 0.0000
     78 ****        -2.1845   0.1242  -1.7168 LP             1 S1                 0.0000
     79 ****        -4.1798  -3.9398   0.5927 LP             1 S1                 0.0000
     80 ****        -5.1768  -3.7939  -0.6924 LP             1 S1                 0.0000
@<TRIPOS>BOND
    1    1    2 2     
    2    2    3 1     
    3    2   38 1     
    4    3    4 1     
    5    4    5 1     
    6    4   44 1     
    7    4   45 1     
    8    5   36 1     
    9    5    6 1     
   10    5   46 1     
   11    6    7 1     
   12    7    8 1     
   13    7   34 1     
   14    7   47 1     
   15    8   33 1     
   16    8    9 1     
   17    9   10 2     
   18    9   48 1     
   19   10   11 1     
   20   11   33 ar    
   21   11   12 ar    
   22   12   13 1     
   23   12   30 ar    
   24   13   14 am    
   25   13   22 am    
   26   14   15 2     
   27   14   16 1     
   28   16   21 ar    
   29   16   17 ar    
   30   17   18 ar    
   31   17   49 1     
   32   18   19 ar    
   33   18   50 1     
   34   19   20 ar    
   35   19   51 1     
   36   20   21 ar    
   37   20   52 1     
   38   21   53 1     
   39   22   23 2     
   40   22   24 1     
   41   24   29 ar    
   42   24   25 ar    
   43   25   26 ar    
   44   25   54 1     
   45   26   27 ar    
   46   26   55 1     
   47   27   28 ar    
   48   27   56 1     
   49   28   29 ar    
   50   28   57 1     
   51   29   58 1     
   52   30   31 ar    
   53   31   32 ar    
   54   31   59 1     
   55   32   33 ar    
   56   34   35 1     
   57   34   36 1     
   58   34   60 1     
   59   35   61 1     
   60   36   37 1     
   61   36   62 1     
   62   38   43 ar    
   63   38   39 ar    
   64   39   40 ar    
   65   39   63 1     
   66   40   41 ar    
   67   40   64 1     
   68   41   42 ar    
   69   41   65 1     
   70   42   43 ar    
   71   42   66 1     
   72   43   67 1     
   73    1   68 1     
   74    1   69 1     
   75    6   70 1     
   76    6   71 1     
   77   10   72 1     
   78   15   73 1     
   79   15   74 1     
   80   23   75 1     
   81   23   76 1     
   82   30   77 1     
   83   32   78 1     
   84   35   79 1     
   85   35   80 1     
@<TRIPOS>SUBSTRUCTURE
      1 S1             1
@<TRIPOS>SET
LONE_PAIRS      STATIC     ATOMS    <user>   **** ""
13 68 69 70 71 72 73 74 75 76 77 78 79 80
DONOR_HYDROGENS      STATIC     ATOMS    <user>   **** ""
1 61
ATOM$BLUE        STATIC     ATOMS    COLORGROUP SYSTEM
13 68 69 70 71 72 73 74 75 76 77 78 79 80
ATOM$RED        STATIC     ATOMS    COLORGROUP SYSTEM
1 61
