AV-unprocessed.smi:2362|AV-procd|sdf|9414|dock9
  -GOLD-   2272013 53D 1   1.00000     0.00000
 Structure written by MMmdl.
 45 46  0  0  0  0  0  0  0  0  2 V2000
  143.8779  131.7922  150.5043 C   0  0  0  0  0  0  0  0  0  0  0  0
  144.2823  133.2040  150.8739 C   0  0  0  0  0  0  0  0  0  0  0  0
  144.4960  134.1849  149.8868 C   0  0  0  0  0  0  0  0  0  0  0  0
  144.8691  135.4820  150.2888 C   0  0  0  0  0  0  0  0  0  0  0  0
  145.0208  135.7674  151.6643 C   0  0  0  0  0  0  0  0  0  0  0  0
  145.3953  137.1047  151.9642 N   0  0  0  0  0  0  0  0  0  0  0  0
  146.1531  137.5438  152.9843 C   0  0  0  0  0  0  0  0  0  0  0  0
  146.6930  136.8293  153.8292 O   0  0  0  0  0  0  0  0  0  0  0  0
  146.2466  138.8826  152.9835 N   0  0  0  0  0  0  0  0  0  0  0  0
  147.0103  139.6894  153.9371 C   0  0  1  0  0  0  0  0  0  0  0  0
  148.4502  139.1620  153.9986 C   0  0  0  0  0  0  0  0  0  0  0  0
  146.9805  141.1900  153.5632 C   0  0  0  0  0  0  0  0  0  0  0  0
  145.7951  141.9055  154.1019 N   0  3  0  0  0  0  0  0  0  0  0  0
  145.7707  143.3430  153.7279 C   0  0  0  0  0  0  0  0  0  0  0  0
  144.4524  144.0045  154.1651 C   0  0  0  0  0  0  0  0  0  0  0  0
  144.2169  143.8240  155.6705 C   0  0  0  0  0  0  0  0  0  0  0  0
  144.2870  142.3360  156.0377 C   0  0  0  0  0  0  0  0  0  0  0  0
  145.6124  141.7162  155.5653 C   0  0  0  0  0  0  0  0  0  0  0  0
  144.8108  134.8160  152.6080 N   0  0  0  0  0  0  0  0  0  0  0  0
  144.4536  133.5730  152.2221 C   0  0  0  0  0  0  0  0  0  0  0  0
  143.8321  131.6626  149.4225 H   0  0  0  0  0  0  0  0  0  0  0  0
  142.8963  131.5607  150.9181 H   0  0  0  0  0  0  0  0  0  0  0  0
  144.5967  131.0759  150.9030 H   0  0  0  0  0  0  0  0  0  0  0  0
  144.3767  133.9523  148.8388 H   0  0  0  0  0  0  0  0  0  0  0  0
  145.0364  136.2461  149.5436 H   0  0  0  0  0  0  0  0  0  0  0  0
  145.0329  137.8067  151.3359 H   0  0  0  0  0  0  0  0  0  0  0  0
  145.7692  139.3861  152.2496 H   0  0  0  0  0  0  0  0  0  0  0  0
  146.5870  139.5577  154.9338 H   0  0  0  0  0  0  0  0  0  0  0  0
  149.0365  139.7105  154.7366 H   0  0  0  0  0  0  0  0  0  0  0  0
  148.9531  139.2604  153.0358 H   0  0  0  0  0  0  0  0  0  0  0  0
  148.4723  138.1087  154.2808 H   0  0  0  0  0  0  0  0  0  0  0  0
  147.8906  141.6900  153.8985 H   0  0  0  0  0  0  0  0  0  0  0  0
  146.9808  141.2640  152.4745 H   0  0  0  0  0  0  0  0  0  0  0  0
  146.6210  143.8540  154.1825 H   0  0  0  0  0  0  0  0  0  0  0  0
  145.8776  143.4459  152.6475 H   0  0  0  0  0  0  0  0  0  0  0  0
  144.4657  145.0656  153.9145 H   0  0  0  0  0  0  0  0  0  0  0  0
  143.6221  143.5656  153.6101 H   0  0  0  0  0  0  0  0  0  0  0  0
  144.9706  144.3784  156.2310 H   0  0  0  0  0  0  0  0  0  0  0  0
  143.2485  144.2375  155.9537 H   0  0  0  0  0  0  0  0  0  0  0  0
  144.1798  142.2122  157.1157 H   0  0  0  0  0  0  0  0  0  0  0  0
  143.4514  141.8043  155.5801 H   0  0  0  0  0  0  0  0  0  0  0  0
  145.6157  140.6552  155.8130 H   0  0  0  0  0  0  0  0  0  0  0  0
  146.4496  142.1669  156.1005 H   0  0  0  0  0  0  0  0  0  0  0  0
  144.2995  132.8537  153.0132 H   0  0  0  0  0  0  0  0  0  0  0  0
  144.9909  141.4883  153.6548 H   0  0  0  0  0  0  0  0  0  0  0  0
  1  2  1  0  0  0  0
  1 21  1  0  0  0  0
  1 22  1  0  0  0  0
  1 23  1  0  0  0  0
  2 20  1  0  0  0  0
  2  3  2  0  0  0  0
  3  4  1  0  0  0  0
  3 24  1  0  0  0  0
  4  5  2  0  0  0  0
  4 25  1  0  0  0  0
  5  6  1  0  0  0  0
  5 19  1  0  0  0  0
  6  7  1  0  0  0  0
  6 26  1  0  0  0  0
  7  8  2  0  0  0  0
  7  9  1  0  0  0  0
  9 10  1  0  0  0  0
  9 27  1  0  0  0  0
 10 11  1  0  0  0  0
 10 12  1  0  0  0  0
 10 28  1  0  0  0  0
 11 29  1  0  0  0  0
 11 30  1  0  0  0  0
 11 31  1  0  0  0  0
 12 13  1  0  0  0  0
 12 32  1  0  0  0  0
 12 33  1  0  0  0  0
 13 18  1  0  0  0  0
 13 14  1  0  0  0  0
 13 45  1  0  0  0  0
 14 15  1  0  0  0  0
 14 34  1  0  0  0  0
 14 35  1  0  0  0  0
 15 16  1  0  0  0  0
 15 36  1  0  0  0  0
 15 37  1  0  0  0  0
 16 17  1  0  0  0  0
 16 38  1  0  0  0  0
 16 39  1  0  0  0  0
 17 18  1  0  0  0  0
 17 40  1  0  0  0  0
 17 41  1  0  0  0  0
 18 42  1  0  0  0  0
 18 43  1  0  0  0  0
 19 20  2  0  0  0  0
 20 44  1  0  0  0  0
M  CHG  1  13   1
M  END
> <s_m_source_file>
AV-unprocessed.smi

> <i_m_source_file_index>
2362

> <i_lp_mmshare_version>
43012

> <i_f3d_flags>
0

> <s_epik_input>
W0NIM11jMVtjSF1bY0hdYyhuW2NIXTEpW05IXUMoPU8pW05IXVtDQEhdKFtDSDNdKVtDSDJdTjJbQ0gyXVtDSDJdW0NIMl1bQ0gyXVtDSDJdMg==

> <s_epik_cmdline>
J2VwaWtfcHl0aG9uJywgJy1waCcsICc3LjAnLCAnLXRuJywgJzgnLCAnLW1hJywgJzIwMCcsICctbWV0YWxfYmluZGluZycsICctaW1hZScsICc8aW5maWxlLm1hZT4nLCAnLW9tYWUnLCAnPG91dGZpbGUubWFlPic=

> <r_epik_Ionization_Penalty>
0.00215987

> <r_epik_Ionization_Penalty_Charging>
0.00211816

> <r_epik_Ionization_Penalty_Neutral>
4.17101e-05

> <r_epik_State_Penalty>
0.00145254

> <r_epik_Charging_Adjusted_Penalty>
0.0035707

> <i_epik_Tot_Q>
1

> <i_epik_Tot_abs_Q>
1

> <r_epik_Metal_State_Penalty>
-0

> <b_epik_Metal_Only>
0

> <s_lp_Force_Field>
OPLS_2005

> <r_lp_Energy>
24.6446

> <b_lp_Chiralities_Consistent>
1

> <s_lp_Variant>
AV-unprocessed.smi:2362-2

> <Gold.Version>
5.8.1

> <Gold.Id.Protein>
6NUR|6NUR_protein|mol2

> <Gold.PLP.Fitness>
42.1896

> <Gold.PLP.PLP>
-32.2438

> <Gold.PLP.part.hbond>
-2.9406

> <Gold.PLP.part.metal>
0.0000

> <Gold.PLP.part.buried>
-2.6504

> <Gold.PLP.part.nonpolar>
-29.1187

> <Gold.PLP.part.repulsive>
0.2896

> <Gold.PLP.ligand.clash>
0.0000

> <Gold.PLP.ligand.torsion>
0.5827

> <Gold.PLP.Chemscore.Hbond>
2.6992

> <Gold.PLP.Chemscore.CHOScore>
0.9898

> <Gold.PLP.Chemscore.Metal>
0.0000

> <Gold.Chemscore.Hbonds>
donor molecule, donor type, donor heavy atom, donor atom, acceptor molecule, acceptor atom, score
      L1  H     6    26       P1 10171  0.91
      L1  H     9    27       P1 10175  0.10
      L1  H    13    45       P1 10175  1.70
      L1  C    20    44       P1 10957  0.75

> <Gold.PLP.Chemscore.Internal.Correction>
0.0443

> <Gold.Rescore>
     Score         DG    S(hbond)    S(metal)    S(lipo)     H(rot)  DE(clash)    DE(int)     intcor
     11.94     -14.44       1.12        0.00      76.17       1.44       0.03       2.47       ----

> <Gold.Chemscore.Fitness>
11.9353

> <Gold.Chemscore.DG>
-14.4381

> <Gold.Chemscore.ZeroCoef>
-5.4800

> <Gold.Chemscore.Hbond>
1.1178

> <Gold.Chemscore.Metal>
0.0000

> <Gold.Chemscore.Lipo>
76.1725

> <Gold.Chemscore.Internal_Hbond>
0.0000

> <Gold.Chemscore.DEClash>
0.0293

> <Gold.Chemscore.DEInternal>
2.4734

> <Gold.Chemscore.Rot>
1.4404

> <Gold.Chemscore.Internal.Correction>
   9.000000E+99

> <Gold.Chemscore.Hbonds>
donor molecule, donor type, donor heavy atom, donor atom, acceptor molecule, acceptor atom, score
      L1  H     6    26       P1 10171  0.86
      L1  H     9    27       P1 10175  0.10
      L1  H    13    45       P1 10175  0.14

> <Gold.Chemscore.Hbond.Weighted>
-3.7334

> <Gold.Chemscore.Metal.Weighted>
-0.0000

> <Gold.Chemscore.Lipo.Weighted>
-8.9122

> <Gold.Chemscore.Internal_Hbond.Weighted>
0.0000

> <Gold.Chemscore.DEClash.Weighted>
0.0293

> <Gold.Chemscore.DEInternal.Weighted>
2.4734

> <Gold.Chemscore.Rot.Weighted>
3.6875

> <Gold.Chemscore.Internal.Correction.Weighted>
   9.000000E+99

> <Gold.Protein.RotatedTorsions>
[ 6907 6896 6895 6894 ] final -148.42 input  -60.11 | X-H torsion
[ 7974 7965 7964 7962 ] final    7.94 input  175.53 | X-H torsion
[ 8008 7997 7996 7995 ] final  106.18 input   59.86 | X-H torsion
[ 10167 10162 10161 10158 ] final   92.19 input  -65.29 | X-H torsion
[ 10718 10713 10712 10709 ] final   63.65 input   66.30 | X-H torsion
[ 10763 10752 10751 10750 ] final  -89.38 input  -60.55 | X-H torsion
[ 11005 11000 10999 10996 ] final  160.55 input  -57.11 | X-H torsion

> <Gold.Protein.ActiveResidues>
 VAL166  LYS551  ARG553  GLY616  TRP617  ASP618  TYR619  PRO620  LYS621  CYS622 
 ASP623  PHE694  ASN695  SER759  ASP760  ASP761  ALA762  ILE779  LEU786  VAL792 
 PHE793  MET794  SER795  GLU796  ALA797  LYS798  CYS799  TRP800  GLU811  SER814 

> <Gold.Protein.RotatedAtoms>
  151.1696  133.4793  159.2593 H   0  0  0  0  0  0  0  0  0  0  0  0  # atno 6907 bound_to 6896
  151.1370  135.0159  159.8618 H   0  0  0  0  0  0  0  0  0  0  0  0  # atno 6908 bound_to 6896
  152.5461  134.1593  159.8604 H   0  0  0  0  0  0  0  0  0  0  0  0  # atno 6909 bound_to 6896
  146.2421  140.0007  142.8416 H   0  0  0  0  0  0  0  0  0  0  0  0  # atno 7974 bound_to 7965
  156.1721  140.3117  155.8993 H   0  0  0  0  0  0  0  0  0  0  0  0  # atno 8008 bound_to 7997
  155.3564  140.0474  157.3063 H   0  0  0  0  0  0  0  0  0  0  0  0  # atno 8009 bound_to 7997
  154.5252  140.2212  155.8913 H   0  0  0  0  0  0  0  0  0  0  0  0  # atno 8010 bound_to 7997
  139.8301  144.6691  150.9411 H   0  0  0  0  0  0  0  0  0  0  0  0  # atno 10167 bound_to 10162
  157.5986  130.9117  149.9743 H   0  0  0  0  0  0  0  0  0  0  0  0  # atno 10718 bound_to 10713
  154.6547  135.5343  153.7944 H   0  0  0  0  0  0  0  0  0  0  0  0  # atno 10763 bound_to 10752
  153.0406  135.6491  154.0964 H   0  0  0  0  0  0  0  0  0  0  0  0  # atno 10764 bound_to 10752
  154.0878  135.2942  155.3257 H   0  0  0  0  0  0  0  0  0  0  0  0  # atno 10765 bound_to 10752
  140.2070  134.8295  157.3080 H   0  0  0  0  0  0  0  0  0  0  0  0  # atno 11005 bound_to 11000
  145.1418  140.9575  143.4484 LP  0  0  0  0  0  0  0  0  0  0  0  0  # atno 17320 bound_to 7965
  145.0289  139.3358  143.6035 LP  0  0  0  0  0  0  0  0  0  0  0  0  # atno 17321 bound_to 7965
  140.7807  143.4009  151.1150 LP  0  0  0  0  0  0  0  0  0  0  0  0  # atno 17342 bound_to 10162
  139.7663  143.8560  152.3111 LP  0  0  0  0  0  0  0  0  0  0  0  0  # atno 17343 bound_to 10162
  156.1053  130.3653  150.0144 LP  0  0  0  0  0  0  0  0  0  0  0  0  # atno 17370 bound_to 10713
  156.8252  130.9373  151.3639 LP  0  0  0  0  0  0  0  0  0  0  0  0  # atno 17371 bound_to 10713
  140.1992  134.4276  155.7672 LP  0  0  0  0  0  0  0  0  0  0  0  0  # atno 17394 bound_to 11000
  141.2227  133.7064  156.8155 LP  0  0  0  0  0  0  0  0  0  0  0  0  # atno 17395 bound_to 11000

$$$$
