AV-unprocessed.smi:1093|AV-procd|sdf|4744|dock1
  -GOLD-   22720 3283D 1   1.00000     0.00000
 Structure written by MMmdl.
 47 48  0  0  0  0  0  0  0  0  2 V2000
  141.6698  141.6692  155.8616 C   0  0  0  0  0  0  0  0  0  0  0  0
  142.8321  142.6406  155.6105 C   0  0  0  0  0  0  0  0  0  0  0  0
  144.0424  141.9507  155.0997 N   0  3  1  0  0  0  0  0  0  0  0  0
  145.1222  142.8998  154.7234 C   0  0  0  0  0  0  0  0  0  0  0  0
  146.2995  142.1680  154.0550 C   0  0  0  0  0  0  0  0  0  0  0  0
  146.8275  141.0261  154.9399 C   0  0  0  0  0  0  0  0  0  0  0  0
  145.6870  140.0831  155.3626 C   0  0  2  0  0  0  0  0  0  0  0  0
  145.2106  139.3259  154.2042 N   0  0  0  0  0  0  0  0  0  0  0  0
  145.2912  137.9953  154.0606 C   0  0  0  0  0  0  0  0  0  0  0  0
  145.7744  137.2508  154.9131 O   0  0  0  0  0  0  0  0  0  0  0  0
  144.7573  137.5992  152.8929 N   0  0  0  0  0  0  0  0  0  0  0  0
  144.6395  136.2799  152.3794 C   0  0  0  0  0  0  0  0  0  0  0  0
  144.3475  135.1413  153.1649 C   0  0  0  0  0  0  0  0  0  0  0  0
  144.2747  133.8811  152.5410 C   0  0  0  0  0  0  0  0  0  0  0  0
  144.5025  133.7814  151.1458 C   0  0  0  0  0  0  0  0  0  0  0  0
  144.4380  132.5395  150.4736 N   0  0  0  0  0  0  0  0  0  0  0  0
  144.2878  132.5065  149.0223 C   0  0  0  0  0  0  0  0  0  0  0  0
  144.5997  131.2950  151.2151 C   0  0  0  0  0  0  0  0  0  0  0  0
  144.7952  134.8762  150.4020 N   0  0  0  0  0  0  0  0  0  0  0  0
  144.8661  136.0811  151.0039 C   0  0  0  0  0  0  0  0  0  0  0  0
  144.5522  140.8995  156.0199 C   0  0  0  0  0  0  0  0  0  0  0  0
  140.7728  142.2142  156.1557 H   0  0  0  0  0  0  0  0  0  0  0  0
  141.8904  140.9588  156.6579 H   0  0  0  0  0  0  0  0  0  0  0  0
  141.4299  141.1016  154.9622 H   0  0  0  0  0  0  0  0  0  0  0  0
  142.4968  143.3721  154.8739 H   0  0  0  0  0  0  0  0  0  0  0  0
  143.0722  143.2007  156.5155 H   0  0  0  0  0  0  0  0  0  0  0  0
  144.7329  143.6503  154.0345 H   0  0  0  0  0  0  0  0  0  0  0  0
  145.4650  143.4323  155.6120 H   0  0  0  0  0  0  0  0  0  0  0  0
  145.9806  141.7708  153.0907 H   0  0  0  0  0  0  0  0  0  0  0  0
  147.1029  142.8741  153.8426 H   0  0  0  0  0  0  0  0  0  0  0  0
  147.6103  140.4736  154.4188 H   0  0  0  0  0  0  0  0  0  0  0  0
  147.2936  141.4488  155.8309 H   0  0  0  0  0  0  0  0  0  0  0  0
  146.0821  139.3731  156.0913 H   0  0  0  0  0  0  0  0  0  0  0  0
  144.8029  139.8588  153.4496 H   0  0  0  0  0  0  0  0  0  0  0  0
  144.3280  138.3196  152.3310 H   0  0  0  0  0  0  0  0  0  0  0  0
  144.1923  135.2048  154.2307 H   0  0  0  0  0  0  0  0  0  0  0  0
  144.0491  133.0167  153.1466 H   0  0  0  0  0  0  0  0  0  0  0  0
  145.1331  132.9980  148.5395 H   0  0  0  0  0  0  0  0  0  0  0  0
  143.3717  133.0148  148.7202 H   0  0  0  0  0  0  0  0  0  0  0  0
  144.2384  131.4834  148.6496 H   0  0  0  0  0  0  0  0  0  0  0  0
  143.8146  131.1901  151.9645 H   0  0  0  0  0  0  0  0  0  0  0  0
  145.5677  131.2702  151.7163 H   0  0  0  0  0  0  0  0  0  0  0  0
  144.5453  130.4297  150.5545 H   0  0  0  0  0  0  0  0  0  0  0  0
  145.1056  136.9155  150.3611 H   0  0  0  0  0  0  0  0  0  0  0  0
  144.9147  141.3681  156.9363 H   0  0  0  0  0  0  0  0  0  0  0  0
  143.7465  140.2316  156.3216 H   0  0  0  0  0  0  0  0  0  0  0  0
  143.7646  141.4856  154.2473 H   0  0  0  0  0  0  0  0  0  0  0  0
  1  2  1  0  0  0  0
  1 22  1  0  0  0  0
  1 23  1  0  0  0  0
  1 24  1  0  0  0  0
  2  3  1  0  0  0  0
  2 25  1  0  0  0  0
  2 26  1  0  0  0  0
  3 21  1  0  0  0  0
  3  4  1  0  0  0  0
  3 47  1  0  0  0  0
  4  5  1  0  0  0  0
  4 27  1  0  0  0  0
  4 28  1  0  0  0  0
  5  6  1  0  0  0  0
  5 29  1  0  0  0  0
  5 30  1  0  0  0  0
  6  7  1  0  0  0  0
  6 31  1  0  0  0  0
  6 32  1  0  0  0  0
  7  8  1  0  0  0  0
  7 21  1  0  0  0  0
  7 33  1  0  0  0  0
  8  9  1  0  0  0  0
  8 34  1  0  0  0  0
  9 10  2  0  0  0  0
  9 11  1  0  0  0  0
 11 12  1  0  0  0  0
 11 35  1  0  0  0  0
 12 20  1  0  0  0  0
 12 13  2  0  0  0  0
 13 14  1  0  0  0  0
 13 36  1  0  0  0  0
 14 15  2  0  0  0  0
 14 37  1  0  0  0  0
 15 16  1  0  0  0  0
 15 19  1  0  0  0  0
 16 17  1  0  0  0  0
 16 18  1  0  0  0  0
 17 38  1  0  0  0  0
 17 39  1  0  0  0  0
 17 40  1  0  0  0  0
 18 41  1  0  0  0  0
 18 42  1  0  0  0  0
 18 43  1  0  0  0  0
 19 20  2  0  0  0  0
 20 44  1  0  0  0  0
 21 45  1  0  0  0  0
 21 46  1  0  0  0  0
M  CHG  1   3   1
M  END
> <s_m_source_file>
AV-unprocessed.smi

> <i_m_source_file_index>
1093

> <i_lp_mmshare_version>
43012

> <i_f3d_flags>
0

> <s_epik_input>
W0NIM11bQ0gyXU4xW0NIMl1bQ0gyXVtDSDJdW0NASF0oW0NIMl0xKVtOSF1DKD1PKVtOSF1jMltjSF1bY0hdYyhOKFtDSDNdKVtDSDNdKW5bY0hdMg==

> <s_epik_cmdline>
J2VwaWtfcHl0aG9uJywgJy1waCcsICc3LjAnLCAnLXRuJywgJzgnLCAnLW1hJywgJzIwMCcsICctbWV0YWxfYmluZGluZycsICctaW1hZScsICc8aW5maWxlLm1hZT4nLCAnLW9tYWUnLCAnPG91dGZpbGUubWFlPic=

> <r_lp_tautomer_probability>
1

> <r_epik_Ionization_Penalty>
0.489418

> <r_epik_Ionization_Penalty_Charging>
0.00268196

> <r_epik_Ionization_Penalty_Neutral>
0.486736

> <r_epik_State_Penalty>
0.491157

> <r_epik_Charging_Adjusted_Penalty>
0.493839

> <i_epik_Tot_Q>
1

> <i_epik_Tot_abs_Q>
1

> <r_epik_Metal_State_Penalty>
0.266953

> <b_epik_Metal_Only>
0

> <s_lp_Force_Field>
OPLS_2005

> <r_lp_Energy>
27.6013

> <b_lp_Chiralities_Consistent>
1

> <s_lp_Variant>
AV-unprocessed.smi:1093-7

> <Gold.Version>
5.8.1

> <Gold.Id.Protein>
6NUR|6NUR_protein|mol2

> <Gold.PLP.Fitness>
42.3810

> <Gold.PLP.PLP>
-30.2929

> <Gold.PLP.part.hbond>
-2.9986

> <Gold.PLP.part.metal>
0.0000

> <Gold.PLP.part.buried>
-4.9797

> <Gold.PLP.part.nonpolar>
-24.5811

> <Gold.PLP.part.repulsive>
0.7599

> <Gold.PLP.ligand.clash>
0.0000

> <Gold.PLP.ligand.torsion>
0.4794

> <Gold.PLP.Chemscore.Hbond>
3.3326

> <Gold.PLP.Chemscore.CHOScore>
1.0000

> <Gold.PLP.Chemscore.Metal>
0.0000

> <Gold.Chemscore.Hbonds>
donor molecule, donor type, donor heavy atom, donor atom, acceptor molecule, acceptor atom, score
      L1  H     3    47       P1 10175  1.90
      L1  H     8    34       P1 10175  1.00
      L1  H    11    35       P1 10175  0.43
      L1  C    20    44       P1 10171  0.98

> <Gold.PLP.Chemscore.Internal.Correction>
0.0490

> <Gold.Rescore>
     Score         DG    S(hbond)    S(metal)    S(lipo)     H(rot)  DE(clash)    DE(int)     intcor
     14.14     -16.61       1.97        0.00      64.65       1.18       1.57       0.89       ----

> <Gold.Chemscore.Fitness>
14.1432

> <Gold.Chemscore.DG>
-16.6093

> <Gold.Chemscore.ZeroCoef>
-5.4800

> <Gold.Chemscore.Hbond>
1.9750

> <Gold.Chemscore.Metal>
0.0000

> <Gold.Chemscore.Lipo>
64.6539

> <Gold.Chemscore.Internal_Hbond>
0.0000

> <Gold.Chemscore.DEClash>
1.5737

> <Gold.Chemscore.DEInternal>
0.8923

> <Gold.Chemscore.Rot>
1.1842

> <Gold.Chemscore.Internal.Correction>
   9.000000E+99

> <Gold.Chemscore.Hbonds>
donor molecule, donor type, donor heavy atom, donor atom, acceptor molecule, acceptor atom, score
      L1  H     3    47       P1 10175  0.21
      L1  H     8    34       P1 10175  0.98
      L1  H    11    35       P1 10175  0.42

> <Gold.Chemscore.Hbond.Weighted>
-6.5964

> <Gold.Chemscore.Metal.Weighted>
-0.0000

> <Gold.Chemscore.Lipo.Weighted>
-7.5645

> <Gold.Chemscore.Internal_Hbond.Weighted>
0.0000

> <Gold.Chemscore.DEClash.Weighted>
1.5737

> <Gold.Chemscore.DEInternal.Weighted>
0.8923

> <Gold.Chemscore.Rot.Weighted>
3.0317

> <Gold.Chemscore.Internal.Correction.Weighted>
   9.000000E+99

> <Gold.Protein.RotatedTorsions>
[ 6907 6896 6895 6894 ] final  -23.44 input  -60.11 | X-H torsion
[ 7974 7965 7964 7962 ] final -132.01 input  175.53 | X-H torsion
[ 8008 7997 7996 7995 ] final -116.69 input   59.86 | X-H torsion
[ 10167 10162 10161 10158 ] final  141.28 input  -65.29 | X-H torsion
[ 10718 10713 10712 10709 ] final -165.48 input   66.30 | X-H torsion
[ 10763 10752 10751 10750 ] final  -37.83 input  -60.55 | X-H torsion
[ 11005 11000 10999 10996 ] final -145.08 input  -57.11 | X-H torsion

> <Gold.Protein.ActiveResidues>
 VAL166  LYS551  ARG553  GLY616  TRP617  ASP618  TYR619  PRO620  LYS621  CYS622 
 ASP623  PHE694  ASN695  SER759  ASP760  ASP761  ALA762  ILE779  LEU786  VAL792 
 PHE793  MET794  SER795  GLU796  ALA797  LYS798  CYS799  TRP800  GLU811  SER814 

> <Gold.Protein.RotatedAtoms>
  151.2039  135.0454  159.8883 H   0  0  0  0  0  0  0  0  0  0  0  0  # atno 6907 bound_to 6896
  152.5430  134.0819  159.8249 H   0  0  0  0  0  0  0  0  0  0  0  0  # atno 6908 bound_to 6896
  151.0963  133.5229  159.2644 H   0  0  0  0  0  0  0  0  0  0  0  0  # atno 6909 bound_to 6896
  144.9325  140.7145  143.4897 H   0  0  0  0  0  0  0  0  0  0  0  0  # atno 7974 bound_to 7965
  155.0719  140.0393  157.2611 H   0  0  0  0  0  0  0  0  0  0  0  0  # atno 8008 bound_to 7997
  154.6976  140.2666  155.6726 H   0  0  0  0  0  0  0  0  0  0  0  0  # atno 8009 bound_to 7997
  156.2750  140.2747  156.1575 H   0  0  0  0  0  0  0  0  0  0  0  0  # atno 8010 bound_to 7997
  139.5025  144.6181  151.6115 H   0  0  0  0  0  0  0  0  0  0  0  0  # atno 10167 bound_to 10162
  156.6541  130.9019  151.3018 H   0  0  0  0  0  0  0  0  0  0  0  0  # atno 10718 bound_to 10713
  153.9027  135.6800  153.4754 H   0  0  0  0  0  0  0  0  0  0  0  0  # atno 10763 bound_to 10752
  153.1120  135.4778  154.9049 H   0  0  0  0  0  0  0  0  0  0  0  0  # atno 10764 bound_to 10752
  154.7567  135.3199  154.8411 H   0  0  0  0  0  0  0  0  0  0  0  0  # atno 10765 bound_to 10752
  140.7959  134.2914  157.4996 H   0  0  0  0  0  0  0  0  0  0  0  0  # atno 11005 bound_to 11000
  145.3119  139.1816  143.4634 LP  0  0  0  0  0  0  0  0  0  0  0  0  # atno 17320 bound_to 7965
  146.3253  140.3124  142.8627 LP  0  0  0  0  0  0  0  0  0  0  0  0  # atno 17321 bound_to 7965
  140.5875  143.9837  150.6305 LP  0  0  0  0  0  0  0  0  0  0  0  0  # atno 17342 bound_to 10162
  140.3007  143.3262  152.0974 LP  0  0  0  0  0  0  0  0  0  0  0  0  # atno 17343 bound_to 10162
  157.7131  130.9464  150.1160 LP  0  0  0  0  0  0  0  0  0  0  0  0  # atno 17370 bound_to 10713
  156.2062  130.3663  149.8727 LP  0  0  0  0  0  0  0  0  0  0  0  0  # atno 17371 bound_to 10713
  139.8726  134.9402  156.3762 LP  0  0  0  0  0  0  0  0  0  0  0  0  # atno 17394 bound_to 11000
  140.9343  133.7558  156.0064 LP  0  0  0  0  0  0  0  0  0  0  0  0  # atno 17395 bound_to 11000

$$$$
