AV-unprocessed.smi:234|AV-procd|sdf|1796|dock6
  -GOLD-   2262020363D 1   1.00000     0.00000
 Structure written by MMmdl.
 59 62  0  0  0  0  0  0  0  0  1 V2000
  151.6446  144.0275  157.7196 C   0  0  0  0  0  0  0  0  0  0  0  0
  151.4336  142.5138  157.6430 C   0  0  0  0  0  0  0  0  0  0  0  0
  150.7310  142.2105  156.4491 O   0  0  0  0  0  0  0  0  0  0  0  0
  151.0871  140.9518  155.8886 C   0  0  1  0  0  0  0  0  0  0  0  0
  150.8567  139.8509  156.9249 C   0  0  0  0  0  0  0  0  0  0  0  0
  149.4373  139.7367  156.3601 C   0  0  2  0  0  0  0  0  0  0  0  0
  148.9400  138.3569  156.3184 N   0  0  0  0  0  0  0  0  0  0  0  0
  148.7443  137.6735  157.5938 C   0  0  0  0  0  0  0  0  0  0  0  0
  147.9330  138.0768  155.4547 C   0  0  0  0  0  0  0  0  0  0  0  0
  147.2304  139.0840  154.8719 N   0  0  0  0  0  0  0  0  0  0  0  0
  146.2304  138.8063  154.0306 C   0  0  0  0  0  0  0  0  0  0  0  0
  145.7676  137.6142  153.6491 N   0  0  0  0  0  0  0  0  0  0  0  0
  146.4573  136.6002  154.2460 C   0  0  0  0  0  0  0  0  0  0  0  0
  147.5458  136.7430  155.1514 C   0  0  0  0  0  0  0  0  0  0  0  0
  148.0078  135.4924  155.5410 N   0  0  0  0  0  0  0  0  0  0  0  0
  147.2327  134.6567  154.9055 C   0  0  0  0  0  0  0  0  0  0  0  0
  146.2620  135.2355  154.1182 N   0  0  0  0  0  0  0  0  0  0  0  0
  145.2675  134.5413  153.3136 C   0  0  0  0  0  0  0  0  0  0  0  0
  145.7724  134.0370  151.9331 C   0  0  1  0  0  0  0  0  0  0  0  0
  146.1888  135.1876  151.2211 O   0  0  0  0  0  0  0  0  0  0  0  0
  146.9294  133.0438  152.0201 C   0  0  0  0  0  0  0  0  0  0  0  0
  146.2621  131.6668  151.9459 C   0  0  0  0  0  0  0  0  0  0  0  0
  144.8948  131.8963  151.6178 O   0  0  0  0  0  0  0  0  0  0  0  0
  144.7213  133.2272  151.1464 C   0  0  2  0  0  0  0  0  0  0  0  0
  144.8996  133.2112  149.6153 C   0  0  0  0  0  0  0  0  0  0  0  0
  149.9825  140.2985  155.0129 C   0  0  0  0  0  0  0  0  0  0  0  0
  149.0705  141.2582  154.2429 C   0  0  0  0  0  0  0  0  0  0  0  0
  150.5182  139.2888  153.9836 C   0  0  0  0  0  0  0  0  0  0  0  0
  152.1846  144.3006  158.6263 H   0  0  0  0  0  0  0  0  0  0  0  0
  150.6909  144.5560  157.7259 H   0  0  0  0  0  0  0  0  0  0  0  0
  152.2208  144.3856  156.8661 H   0  0  0  0  0  0  0  0  0  0  0  0
  152.3965  142.0033  157.6653 H   0  0  0  0  0  0  0  0  0  0  0  0
  150.8619  142.1732  158.5074 H   0  0  0  0  0  0  0  0  0  0  0  0
  152.0924  140.9236  155.4641 H   0  0  0  0  0  0  0  0  0  0  0  0
  151.4741  138.9675  156.7529 H   0  0  0  0  0  0  0  0  0  0  0  0
  150.9089  140.1804  157.9631 H   0  0  0  0  0  0  0  0  0  0  0  0
  148.7588  140.4340  156.8554 H   0  0  0  0  0  0  0  0  0  0  0  0
  147.6875  137.5047  157.8078 H   0  0  0  0  0  0  0  0  0  0  0  0
  149.1557  138.2486  158.4233 H   0  0  0  0  0  0  0  0  0  0  0  0
  149.2465  136.7062  157.5774 H   0  0  0  0  0  0  0  0  0  0  0  0
  145.7285  139.6621  153.6038 H   0  0  0  0  0  0  0  0  0  0  0  0
  147.3432  133.5864  155.0024 H   0  0  0  0  0  0  0  0  0  0  0  0
  144.8822  133.7048  153.8982 H   0  0  0  0  0  0  0  0  0  0  0  0
  144.4260  135.2214  153.1731 H   0  0  0  0  0  0  0  0  0  0  0  0
  147.0819  135.3814  151.4615 H   0  0  0  0  0  0  0  0  0  0  0  0
  147.5937  133.1546  151.1614 H   0  0  0  0  0  0  0  0  0  0  0  0
  147.5416  133.1730  152.9125 H   0  0  0  0  0  0  0  0  0  0  0  0
  146.7323  131.0451  151.1834 H   0  0  0  0  0  0  0  0  0  0  0  0
  146.3222  131.1351  152.8956 H   0  0  0  0  0  0  0  0  0  0  0  0
  143.7109  133.5719  151.3649 H   0  0  0  0  0  0  0  0  0  0  0  0
  144.7419  134.2010  149.1868 H   0  0  0  0  0  0  0  0  0  0  0  0
  144.1766  132.5396  149.1523 H   0  0  0  0  0  0  0  0  0  0  0  0
  145.8947  132.8755  149.3233 H   0  0  0  0  0  0  0  0  0  0  0  0
  148.2848  140.7278  153.7054 H   0  0  0  0  0  0  0  0  0  0  0  0
  149.6289  141.8334  153.5044 H   0  0  0  0  0  0  0  0  0  0  0  0
  148.5796  141.9686  154.9084 H   0  0  0  0  0  0  0  0  0  0  0  0
  149.7104  138.7664  153.4703 H   0  0  0  0  0  0  0  0  0  0  0  0
  151.1493  138.5283  154.4433 H   0  0  0  0  0  0  0  0  0  0  0  0
  151.1200  139.7829  153.2202 H   0  0  0  0  0  0  0  0  0  0  0  0
  1  2  1  0  0  0  0
  1 29  1  0  0  0  0
  1 30  1  0  0  0  0
  1 31  1  0  0  0  0
  2  3  1  0  0  0  0
  2 32  1  0  0  0  0
  2 33  1  0  0  0  0
  3  4  1  0  0  0  0
  4 26  1  0  0  0  0
  4  5  1  0  0  0  0
  4 34  1  0  0  0  0
  5  6  1  0  0  0  0
  5 35  1  0  0  0  0
  5 36  1  0  0  0  0
  6  7  1  0  0  0  0
  6 26  1  0  0  0  0
  6 37  1  0  0  0  0
  7  8  1  0  0  0  0
  7  9  1  0  0  0  0
  8 38  1  0  0  0  0
  8 39  1  0  0  0  0
  8 40  1  0  0  0  0
  9 14  1  0  0  0  0
  9 10  2  0  0  0  0
 10 11  1  0  0  0  0
 11 12  2  0  0  0  0
 11 41  1  0  0  0  0
 12 13  1  0  0  0  0
 13 17  1  0  0  0  0
 13 14  2  0  0  0  0
 14 15  1  0  0  0  0
 15 16  2  0  0  0  0
 16 17  1  0  0  0  0
 16 42  1  0  0  0  0
 17 18  1  0  0  0  0
 18 19  1  0  0  0  0
 18 43  1  0  0  0  0
 18 44  1  0  0  0  0
 19 24  1  0  0  0  0
 19 20  1  0  0  0  0
 19 21  1  0  0  0  0
 20 45  1  0  0  0  0
 21 22  1  0  0  0  0
 21 46  1  0  0  0  0
 21 47  1  0  0  0  0
 22 23  1  0  0  0  0
 22 48  1  0  0  0  0
 22 49  1  0  0  0  0
 23 24  1  0  0  0  0
 24 25  1  0  0  0  0
 24 50  1  0  0  0  0
 25 51  1  0  0  0  0
 25 52  1  0  0  0  0
 25 53  1  0  0  0  0
 26 27  1  0  0  0  0
 26 28  1  0  0  0  0
 27 54  1  0  0  0  0
 27 55  1  0  0  0  0
 27 56  1  0  0  0  0
 28 57  1  0  0  0  0
 28 58  1  0  0  0  0
 28 59  1  0  0  0  0
M  END
> <s_m_source_file>
AV-unprocessed.smi

> <i_m_source_file_index>
234

> <i_lp_mmshare_version>
43012

> <i_f3d_flags>
0

> <s_epik_input>
W0NIM11bQ0gyXU9bQ0BASF0oQzEoW0NIM10pW0NIM10pW0NIMl1bQ0BIXTFOKFtDSDNdKWMobltjSF1uMiljKGMyMyluW2NIXW4zW0NIMl1bQ0BAXTQoW09IXSlbQ0gyXVtDSDJdT1tDQEhdNFtDSDNd

> <s_epik_cmdline>
J2VwaWtfcHl0aG9uJywgJy1waCcsICc3LjAnLCAnLXRuJywgJzgnLCAnLW1hJywgJzIwMCcsICctbWV0YWxfYmluZGluZycsICctaW1hZScsICc8aW5maWxlLm1hZT4nLCAnLW9tYWUnLCAnPG91dGZpbGUubWFlPic=

> <r_lp_tautomer_probability>
1

> <r_epik_Ionization_Penalty>
0.00349132

> <r_epik_Ionization_Penalty_Charging>
0

> <r_epik_Ionization_Penalty_Neutral>
0.00349132

> <r_epik_State_Penalty>
0.00242418

> <r_epik_Charging_Adjusted_Penalty>
0.00242418

> <i_epik_Tot_Q>
0

> <i_epik_Tot_abs_Q>
0

> <r_epik_Metal_State_Penalty>
-0

> <b_epik_Metal_Only>
0

> <s_lp_Force_Field>
OPLS_2005

> <r_lp_Energy>
50.3749

> <b_lp_Chiralities_Consistent>
1

> <s_lp_Variant>
AV-unprocessed.smi:234-12

> <Gold.Version>
5.8.1

> <Gold.Id.Protein>
6NUR|6NUR_protein|mol2

> <Gold.PLP.Fitness>
37.8552

> <Gold.PLP.PLP>
-33.2532

> <Gold.PLP.part.hbond>
-1.0000

> <Gold.PLP.part.metal>
0.0000

> <Gold.PLP.part.buried>
-3.4378

> <Gold.PLP.part.nonpolar>
-29.3855

> <Gold.PLP.part.repulsive>
0.5266

> <Gold.PLP.ligand.clash>
0.0000

> <Gold.PLP.ligand.torsion>
1.0396

> <Gold.PLP.Chemscore.Hbond>
0.9913

> <Gold.PLP.Chemscore.CHOScore>
0.9268

> <Gold.PLP.Chemscore.Metal>
0.0000

> <Gold.Chemscore.Hbonds>
donor molecule, donor type, donor heavy atom, donor atom, acceptor molecule, acceptor atom, score
      L1  H    20    45       P1  7948  0.96
      L1  C    11    41       P1 10175  1.00

> <Gold.PLP.Chemscore.Internal.Correction>
0.9270

> <Gold.Rescore>
     Score         DG    S(hbond)    S(metal)    S(lipo)     H(rot)  DE(clash)    DE(int)     intcor
     10.95     -13.03       0.92        0.00      95.53       2.62       0.08       2.00       ----

> <Gold.Chemscore.Fitness>
10.9500

> <Gold.Chemscore.DG>
-13.0297

> <Gold.Chemscore.ZeroCoef>
-5.4800

> <Gold.Chemscore.Hbond>
0.9236

> <Gold.Chemscore.Metal>
0.0000

> <Gold.Chemscore.Lipo>
95.5299

> <Gold.Chemscore.Internal_Hbond>
0.0000

> <Gold.Chemscore.DEClash>
0.0800

> <Gold.Chemscore.DEInternal>
1.9997

> <Gold.Chemscore.Rot>
2.6219

> <Gold.Chemscore.Internal.Correction>
   9.000000E+99

> <Gold.Chemscore.Hbonds>
donor molecule, donor type, donor heavy atom, donor atom, acceptor molecule, acceptor atom, score
      L1  H    20    45       P1  7948  0.87

> <Gold.Chemscore.Hbond.Weighted>
-3.0848

> <Gold.Chemscore.Metal.Weighted>
-0.0000

> <Gold.Chemscore.Lipo.Weighted>
-11.1770

> <Gold.Chemscore.Internal_Hbond.Weighted>
0.0000

> <Gold.Chemscore.DEClash.Weighted>
0.0800

> <Gold.Chemscore.DEInternal.Weighted>
1.9997

> <Gold.Chemscore.Rot.Weighted>
6.7121

> <Gold.Chemscore.Internal.Correction.Weighted>
   9.000000E+99

> <Gold.Protein.RotatedTorsions>
[ 6907 6896 6895 6894 ] final  169.79 input  -60.11 | X-H torsion
[ 7974 7965 7964 7962 ] final  -37.33 input  175.53 | X-H torsion
[ 8008 7997 7996 7995 ] final  165.74 input   59.86 | X-H torsion
[ 10167 10162 10161 10158 ] final  109.61 input  -65.29 | X-H torsion
[ 10718 10713 10712 10709 ] final  108.40 input   66.30 | X-H torsion
[ 10763 10752 10751 10750 ] final  147.56 input  -60.55 | X-H torsion
[ 11005 11000 10999 10996 ] final  109.66 input  -57.11 | X-H torsion

> <Gold.Protein.ActiveResidues>
 VAL166  LYS551  ARG553  GLY616  TRP617  ASP618  TYR619  PRO620  LYS621  CYS622 
 ASP623  PHE694  ASN695  SER759  ASP760  ASP761  ALA762  ILE779  LEU786  VAL792 
 PHE793  MET794  SER795  GLU796  ALA797  LYS798  CYS799  TRP800  GLU811  SER814 

> <Gold.Protein.RotatedAtoms>
  151.8263  133.3402  159.3599 H   0  0  0  0  0  0  0  0  0  0  0  0  # atno 6907 bound_to 6896
  150.7278  134.5525  159.5811 H   0  0  0  0  0  0  0  0  0  0  0  0  # atno 6908 bound_to 6896
  152.2969  134.7658  160.0417 H   0  0  0  0  0  0  0  0  0  0  0  0  # atno 6909 bound_to 6896
  146.0584  140.6383  142.9008 H   0  0  0  0  0  0  0  0  0  0  0  0  # atno 7974 bound_to 7965
  156.1776  140.1662  156.8334 H   0  0  0  0  0  0  0  0  0  0  0  0  # atno 8008 bound_to 7997
  154.5324  140.0754  156.8401 H   0  0  0  0  0  0  0  0  0  0  0  0  # atno 8009 bound_to 7997
  155.3380  140.3383  155.4241 H   0  0  0  0  0  0  0  0  0  0  0  0  # atno 8010 bound_to 7997
  139.6753  144.7122  151.1613 H   0  0  0  0  0  0  0  0  0  0  0  0  # atno 10167 bound_to 10162
  157.6587  131.0893  150.6300 H   0  0  0  0  0  0  0  0  0  0  0  0  # atno 10718 bound_to 10713
  154.0403  135.2890  155.3356 H   0  0  0  0  0  0  0  0  0  0  0  0  # atno 10763 bound_to 10752
  154.6933  135.5218  153.8426 H   0  0  0  0  0  0  0  0  0  0  0  0  # atno 10764 bound_to 10752
  153.0603  135.6611  154.0608 H   0  0  0  0  0  0  0  0  0  0  0  0  # atno 10765 bound_to 10752
  139.8866  134.9464  156.6160 H   0  0  0  0  0  0  0  0  0  0  0  0  # atno 11005 bound_to 11000
  144.7161  140.4214  143.7043 LP  0  0  0  0  0  0  0  0  0  0  0  0  # atno 17320 bound_to 7965
  145.6603  139.1580  143.2812 LP  0  0  0  0  0  0  0  0  0  0  0  0  # atno 17321 bound_to 7965
  140.7633  143.5781  150.8924 LP  0  0  0  0  0  0  0  0  0  0  0  0  # atno 17342 bound_to 10162
  139.9449  143.6339  152.3044 LP  0  0  0  0  0  0  0  0  0  0  0  0  # atno 17343 bound_to 10162
  156.6604  130.4510  149.5689 LP  0  0  0  0  0  0  0  0  0  0  0  0  # atno 17370 bound_to 10713
  156.2071  130.6656  151.1230 LP  0  0  0  0  0  0  0  0  0  0  0  0  # atno 17371 bound_to 10713
  140.7775  133.8687  155.8541 LP  0  0  0  0  0  0  0  0  0  0  0  0  # atno 17394 bound_to 11000
  140.9789  134.1432  157.4512 LP  0  0  0  0  0  0  0  0  0  0  0  0  # atno 17395 bound_to 11000

$$$$
