#       Name:                AV-unprocessed.smi:2445
#       Creating user name   scv26
#       Creation time:       Fri Mar 27 13:27:13 2020


#       File generated by GOLD software.
#

@<TRIPOS>MOLECULE
AV-unprocessed.smi:2445
    45    46     1
SMALL
NO_CHARGES


@<TRIPOS>ATOM
      1 ****        -2.8865  -1.7441  -6.4306 C.3            1 S1                 0.0000
      2 ****        -2.6570  -1.6057  -4.9640 C.2            1 S1                 0.0000
      3 ****        -2.9689  -2.5061  -3.9758 C.2            1 S1                 0.0000
      4 ****        -2.6261  -2.0767  -2.6918 N.2            1 S1                 0.0000
      5 ****        -2.0607  -0.8668  -2.6893 C.2            1 S1                 0.0000
      6 ****        -1.6029  -0.1734  -1.4434 C.3            1 S1                 0.0000
      7 ****        -2.3925   1.1251  -1.2040 C.3            1 S1                 0.0000
      8 ****        -0.0713   0.0247  -1.4430 C.3            1 S1                 0.0000
      9 ****         0.4224   0.6334  -0.2115 N.am           1 S1                 0.0000
     10 ****         0.5862  -0.0098   0.9525 C.2            1 S1                 0.0000
     11 ****         0.3335  -1.2024   1.1236 O.2            1 S1                 0.0000
     12 ****         1.0647   0.8028   1.9051 N.am           1 S1                 0.0000
     13 ****         1.3523   0.4114   3.2855 C.3            1 S1                 0.0000
     14 ****         1.0856   1.5758   4.2391 C.3            1 S1                 0.0000
     15 ****         2.3547   1.6702   5.0799 C.3            1 S1                 0.0000
     16 ****         3.3628   1.2018   4.2024 O.3            1 S1                 0.0000
     17 ****         2.8383   0.0626   3.5366 C.3            1 S1                 0.0000
     18 ****         3.7081  -0.2829   2.3169 C.3            1 S1                 0.0000
     19 ****        -1.9111  -0.1745  -4.3031 S.3            1 S1                 0.0000
     20 ****        -3.4278  -2.6628  -6.6584 H              1 S1                 0.0000
     21 ****        -1.9393  -1.7688  -6.9694 H              1 S1                 0.0000
     22 ****        -3.4709  -0.9062  -6.8112 H              1 S1                 0.0000
     23 ****        -3.4361  -3.4725  -4.0961 H              1 S1                 0.0000
     24 ****        -1.8426  -0.8399  -0.6133 H              1 S1                 0.0000
     25 ****        -3.4652   0.9300  -1.1827 H              1 S1                 0.0000
     26 ****        -2.2032   1.8564  -1.9901 H              1 S1                 0.0000
     27 ****        -2.1290   1.5855  -0.2517 H              1 S1                 0.0000
     28 ****         0.4326  -0.9304  -1.6022 H              1 S1                 0.0000
     29 ****         0.2230   0.6679  -2.2727 H              1 S1                 0.0000
     30 ****         0.6610   1.6135  -0.2518 H              1 S1                 0.0000
     31 ****         1.2474   1.7650   1.6608 H              1 S1                 0.0000
     32 ****         0.7304  -0.4396   3.5699 H              1 S1                 0.0000
     33 ****         0.9489   2.5086   3.6898 H              1 S1                 0.0000
     34 ****         0.1978   1.4224   4.8529 H              1 S1                 0.0000
     35 ****         2.5580   2.6839   5.4254 H              1 S1                 0.0000
     36 ****         2.2951   1.0152   5.9507 H              1 S1                 0.0000
     37 ****         2.8818  -0.7713   4.2396 H              1 S1                 0.0000
     38 ****         3.3169  -1.1531   1.7893 H              1 S1                 0.0000
     39 ****         4.7272  -0.5159   2.6251 H              1 S1                 0.0000
     40 ****         3.7618   0.5465   1.6115 H              1 S1                 0.0000
     41 ****        -2.7864  -2.6160  -1.8651 LP             1 S1                 0.0000
     42 ****        -0.0174  -1.7528   0.3660 LP             1 S1                 0.0000
     43 ****         0.4791  -1.6207   2.0201 LP             1 S1                 0.0000
     44 ****         4.1798   0.9503   4.7212 LP             1 S1                 0.0000
     45 ****         3.5957   1.9112   3.5372 LP             1 S1                 0.0000
@<TRIPOS>BOND
    1    1    2 1     
    2    1   20 1     
    3    1   21 1     
    4    1   22 1     
    5    2   19 1     
    6    2    3 2     
    7    3    4 1     
    8    3   23 1     
    9    4    5 2     
   10    5    6 1     
   11    5   19 1     
   12    6    7 1     
   13    6    8 1     
   14    6   24 1     
   15    7   25 1     
   16    7   26 1     
   17    7   27 1     
   18    8    9 1     
   19    8   28 1     
   20    8   29 1     
   21    9   10 am    
   22    9   30 1     
   23   10   11 2     
   24   10   12 am    
   25   12   13 1     
   26   12   31 1     
   27   13   17 1     
   28   13   14 1     
   29   13   32 1     
   30   14   15 1     
   31   14   33 1     
   32   14   34 1     
   33   15   16 1     
   34   15   35 1     
   35   15   36 1     
   36   16   17 1     
   37   17   18 1     
   38   17   37 1     
   39   18   38 1     
   40   18   39 1     
   41   18   40 1     
   42    4   41 1     
   43   11   42 1     
   44   11   43 1     
   45   16   44 1     
   46   16   45 1     
@<TRIPOS>SUBSTRUCTURE
      1 S1             1
@<TRIPOS>SET
LONE_PAIRS      STATIC     ATOMS    <user>   **** ""
5 41 42 43 44 45
DONOR_HYDROGENS      STATIC     ATOMS    <user>   **** ""
2 30 31
ATOM$BLUE        STATIC     ATOMS    COLORGROUP SYSTEM
5 41 42 43 44 45
ATOM$RED        STATIC     ATOMS    COLORGROUP SYSTEM
2 30 31
