AV-unprocessed.smi:276|AV-procd|sdf|2076|dock9
  -GOLD-   2262021343D 1   1.00000     0.00000
 Structure written by MMmdl.
 57 61  0  0  0  0  0  0  0  0  1 V2000
  151.9770  144.7457  158.1106 C   0  0  0  0  0  0  0  0  0  0  0  0
  151.4439  143.6455  157.3947 O   0  0  0  0  0  0  0  0  0  0  0  0
  150.9651  142.6188  158.2483 C   0  0  2  0  0  0  0  0  0  0  0  0
  152.0595  141.7080  158.8160 C   0  0  0  0  0  0  0  0  0  0  0  0
  151.0794  140.5434  158.6237 C   0  0  2  0  0  0  0  0  0  0  0  0
  151.7423  139.3009  158.2193 N   0  0  0  0  0  0  0  0  0  0  0  0
  153.0015  139.0007  158.8887 C   0  0  0  0  0  0  0  0  0  0  0  0
  150.9628  138.1970  158.1699 C   0  0  0  0  0  0  0  0  0  0  0  0
  150.3814  137.8039  159.3309 N   0  0  0  0  0  0  0  0  0  0  0  0
  149.6226  136.7045  159.3617 C   0  0  0  0  0  0  0  0  0  0  0  0
  149.3174  135.8726  158.3637 N   0  0  0  0  0  0  0  0  0  0  0  0
  149.8789  136.2811  157.1901 C   0  0  0  0  0  0  0  0  0  0  0  0
  150.6996  137.4283  156.9999 C   0  0  0  0  0  0  0  0  0  0  0  0
  151.0664  137.5288  155.6626 N   0  0  0  0  0  0  0  0  0  0  0  0
  150.5168  136.4873  155.1009 C   0  0  0  0  0  0  0  0  0  0  0  0
  149.7941  135.6794  155.9485 N   0  0  0  0  0  0  0  0  0  0  0  0
  149.0982  134.4547  155.6020 C   0  0  0  0  0  0  0  0  0  0  0  0
  149.9534  133.4987  154.7436 C   0  0  1  0  0  0  0  0  0  0  0  0
  150.9238  132.9272  155.5976 O   0  0  0  0  0  0  0  0  0  0  0  0
  149.1510  132.3721  154.0543 C   0  0  2  0  0  0  0  0  0  0  0  0
  147.9715  132.8554  153.2102 C   0  0  0  0  0  0  0  0  0  0  0  0
  147.1087  131.6131  153.0966 C   0  0  0  0  0  0  0  0  0  0  0  0
  147.4669  130.8119  154.3502 C   0  0  0  0  0  0  0  0  0  0  0  0
  148.4858  131.5557  155.0088 O   0  0  0  0  0  0  0  0  0  0  0  0
  150.4212  141.3874  157.4981 C   0  0  0  0  0  0  0  0  0  0  0  0
  148.9258  141.2774  157.1734 C   0  0  0  0  0  0  0  0  0  0  0  0
  149.2870  140.6710  155.8138 C   0  0  0  0  0  0  0  0  0  0  0  0
  150.7202  141.1810  155.9988 C   0  0  0  0  0  0  0  0  0  0  0  0
  152.3276  145.5026  157.4093 H   0  0  0  0  0  0  0  0  0  0  0  0
  152.8228  144.4450  158.7302 H   0  0  0  0  0  0  0  0  0  0  0  0
  151.2202  145.2031  158.7491 H   0  0  0  0  0  0  0  0  0  0  0  0
  150.2670  142.9729  159.0105 H   0  0  0  0  0  0  0  0  0  0  0  0
  152.9385  141.6495  158.1709 H   0  0  0  0  0  0  0  0  0  0  0  0
  152.3298  141.9118  159.8522 H   0  0  0  0  0  0  0  0  0  0  0  0
  150.4303  140.4416  159.4944 H   0  0  0  0  0  0  0  0  0  0  0  0
  152.8425  138.8430  159.9563 H   0  0  0  0  0  0  0  0  0  0  0  0
  153.7072  139.8227  158.7686 H   0  0  0  0  0  0  0  0  0  0  0  0
  153.4666  138.1052  158.4740 H   0  0  0  0  0  0  0  0  0  0  0  0
  149.2051  136.4523  160.3253 H   0  0  0  0  0  0  0  0  0  0  0  0
  150.6340  136.2726  154.0487 H   0  0  0  0  0  0  0  0  0  0  0  0
  148.7947  133.9636  156.5277 H   0  0  0  0  0  0  0  0  0  0  0  0
  148.1808  134.7190  155.0739 H   0  0  0  0  0  0  0  0  0  0  0  0
  150.4868  134.0707  153.9835 H   0  0  0  0  0  0  0  0  0  0  0  0
  151.7807  133.1298  155.2543 H   0  0  0  0  0  0  0  0  0  0  0  0
  149.8098  131.7497  153.4455 H   0  0  0  0  0  0  0  0  0  0  0  0
  147.4255  133.6382  153.7389 H   0  0  0  0  0  0  0  0  0  0  0  0
  148.2744  133.2488  152.2393 H   0  0  0  0  0  0  0  0  0  0  0  0
  146.0468  131.8547  153.0417 H   0  0  0  0  0  0  0  0  0  0  0  0
  147.3730  131.0465  152.2025 H   0  0  0  0  0  0  0  0  0  0  0  0
  146.6104  130.6828  155.0121 H   0  0  0  0  0  0  0  0  0  0  0  0
  147.8438  129.8232  154.0860 H   0  0  0  0  0  0  0  0  0  0  0  0
  148.3619  140.6132  157.8275 H   0  0  0  0  0  0  0  0  0  0  0  0
  148.4433  142.2513  157.0811 H   0  0  0  0  0  0  0  0  0  0  0  0
  149.2140  139.5836  155.8012 H   0  0  0  0  0  0  0  0  0  0  0  0
  148.7575  141.1142  154.9702 H   0  0  0  0  0  0  0  0  0  0  0  0
  150.8886  142.1133  155.4591 H   0  0  0  0  0  0  0  0  0  0  0  0
  151.4958  140.4521  155.7669 H   0  0  0  0  0  0  0  0  0  0  0  0
  1  2  1  0  0  0  0
  1 29  1  0  0  0  0
  1 30  1  0  0  0  0
  1 31  1  0  0  0  0
  2  3  1  0  0  0  0
  3 25  1  0  0  0  0
  3  4  1  0  0  0  0
  3 32  1  0  0  0  0
  4  5  1  0  0  0  0
  4 33  1  0  0  0  0
  4 34  1  0  0  0  0
  5  6  1  0  0  0  0
  5 25  1  0  0  0  0
  5 35  1  0  0  0  0
  6  7  1  0  0  0  0
  6  8  1  0  0  0  0
  7 36  1  0  0  0  0
  7 37  1  0  0  0  0
  7 38  1  0  0  0  0
  8 13  1  0  0  0  0
  8  9  2  0  0  0  0
  9 10  1  0  0  0  0
 10 11  2  0  0  0  0
 10 39  1  0  0  0  0
 11 12  1  0  0  0  0
 12 16  1  0  0  0  0
 12 13  2  0  0  0  0
 13 14  1  0  0  0  0
 14 15  2  0  0  0  0
 15 16  1  0  0  0  0
 15 40  1  0  0  0  0
 16 17  1  0  0  0  0
 17 18  1  0  0  0  0
 17 41  1  0  0  0  0
 17 42  1  0  0  0  0
 18 19  1  0  0  0  0
 18 20  1  0  0  0  0
 18 43  1  0  0  0  0
 19 44  1  0  0  0  0
 20 24  1  0  0  0  0
 20 21  1  0  0  0  0
 20 45  1  0  0  0  0
 21 22  1  0  0  0  0
 21 46  1  0  0  0  0
 21 47  1  0  0  0  0
 22 23  1  0  0  0  0
 22 48  1  0  0  0  0
 22 49  1  0  0  0  0
 23 24  1  0  0  0  0
 23 50  1  0  0  0  0
 23 51  1  0  0  0  0
 25 28  1  0  0  0  0
 25 26  1  0  0  0  0
 26 27  1  0  0  0  0
 26 52  1  0  0  0  0
 26 53  1  0  0  0  0
 27 28  1  0  0  0  0
 27 54  1  0  0  0  0
 27 55  1  0  0  0  0
 28 56  1  0  0  0  0
 28 57  1  0  0  0  0
M  END
> <s_m_source_file>
AV-unprocessed.smi

> <i_m_source_file_index>
276

> <i_lp_mmshare_version>
43012

> <i_f3d_flags>
0

> <s_epik_input>
W0NIMl0xW0NIMl1bQ0gyXUMxMltDQEhdKE9bQ0gzXSlbQ0gyXVtDQEhdMk4oW0NIM10pYyhuW2NIXW4zKWMoYzM0KW5bY0hdbjRbQ0gyXVtDQEhdKFtPSF0pW0NAQEhdNVtDSDJdW0NIMl1bQ0gyXU81

> <s_epik_cmdline>
J2VwaWtfcHl0aG9uJywgJy1waCcsICc3LjAnLCAnLXRuJywgJzgnLCAnLW1hJywgJzIwMCcsICctbWV0YWxfYmluZGluZycsICctaW1hZScsICc8aW5maWxlLm1hZT4nLCAnLW9tYWUnLCAnPG91dGZpbGUubWFlPic=

> <r_lp_tautomer_probability>
1

> <r_epik_Ionization_Penalty>
0.00204117

> <r_epik_Ionization_Penalty_Charging>
0

> <r_epik_Ionization_Penalty_Neutral>
0.00204117

> <r_epik_State_Penalty>
0.00127401

> <r_epik_Charging_Adjusted_Penalty>
0.00127401

> <i_epik_Tot_Q>
0

> <i_epik_Tot_abs_Q>
0

> <r_epik_Metal_State_Penalty>
-0

> <b_epik_Metal_Only>
0

> <s_lp_Force_Field>
OPLS_2005

> <r_lp_Energy>
54.0539

> <b_lp_Chiralities_Consistent>
1

> <s_lp_Variant>
AV-unprocessed.smi:276-7

> <Gold.Version>
5.8.1

> <Gold.Id.Protein>
6NUR|6NUR_protein|mol2

> <Gold.PLP.Fitness>
41.6723

> <Gold.PLP.PLP>
-40.5107

> <Gold.PLP.part.hbond>
-0.7713

> <Gold.PLP.part.metal>
0.0000

> <Gold.PLP.part.buried>
-6.5187

> <Gold.PLP.part.nonpolar>
-33.4863

> <Gold.PLP.part.repulsive>
0.1766

> <Gold.PLP.ligand.clash>
0.0000

> <Gold.PLP.ligand.torsion>
1.0612

> <Gold.PLP.Chemscore.Hbond>
0.0000

> <Gold.PLP.Chemscore.CHOScore>
0.8658

> <Gold.PLP.Chemscore.Metal>
0.0000

> <Gold.Chemscore.Hbonds>
donor molecule, donor type, donor heavy atom, donor atom, acceptor molecule, acceptor atom, score
      L1  C    15    40       P1  7948  0.23
      L1  C    15    40       P1  7949  0.46

> <Gold.PLP.Chemscore.Internal.Correction>
0.6865

> <Gold.Rescore>
     Score         DG    S(hbond)    S(metal)    S(lipo)     H(rot)  DE(clash)    DE(int)     intcor
      8.83      -9.96       0.00        0.00      97.73       2.72       0.27       0.86       ----

> <Gold.Chemscore.Fitness>
8.8269

> <Gold.Chemscore.DG>
-9.9587

> <Gold.Chemscore.ZeroCoef>
-5.4800

> <Gold.Chemscore.Hbond>
0.0000

> <Gold.Chemscore.Metal>
0.0000

> <Gold.Chemscore.Lipo>
97.7324

> <Gold.Chemscore.Internal_Hbond>
0.0000

> <Gold.Chemscore.DEClash>
0.2678

> <Gold.Chemscore.DEInternal>
0.8639

> <Gold.Chemscore.Rot>
2.7172

> <Gold.Chemscore.Internal.Correction>
   9.000000E+99

> <Gold.Chemscore.Hbond.Weighted>
-0.0000

> <Gold.Chemscore.Metal.Weighted>
-0.0000

> <Gold.Chemscore.Lipo.Weighted>
-11.4347

> <Gold.Chemscore.Internal_Hbond.Weighted>
0.0000

> <Gold.Chemscore.DEClash.Weighted>
0.2678

> <Gold.Chemscore.DEInternal.Weighted>
0.8639

> <Gold.Chemscore.Rot.Weighted>
6.9560

> <Gold.Chemscore.Internal.Correction.Weighted>
   9.000000E+99

> <Gold.Protein.RotatedTorsions>
[ 6907 6896 6895 6894 ] final -112.00 input  -60.11 | X-H torsion
[ 7974 7965 7964 7962 ] final  -70.08 input  175.53 | X-H torsion
[ 8008 7997 7996 7995 ] final   62.09 input   59.86 | X-H torsion
[ 10167 10162 10161 10158 ] final  -14.58 input  -65.29 | X-H torsion
[ 10718 10713 10712 10709 ] final   -0.51 input   66.30 | X-H torsion
[ 10763 10752 10751 10750 ] final  -52.37 input  -60.55 | X-H torsion
[ 11005 11000 10999 10996 ] final   84.84 input  -57.11 | X-H torsion

> <Gold.Protein.ActiveResidues>
 VAL166  LYS551  ARG553  GLY616  TRP617  ASP618  TYR619  PRO620  LYS621  CYS622 
 ASP623  PHE694  ASN695  SER759  ASP760  ASP761  ALA762  ILE779  LEU786  VAL792 
 PHE793  MET794  SER795  GLU796  ALA797  LYS798  CYS799  TRP800  GLU811  SER814 

> <Gold.Protein.RotatedAtoms>
  150.7728  133.9153  159.3381 H   0  0  0  0  0  0  0  0  0  0  0  0  # atno 6907 bound_to 6896
  151.7035  135.0924  160.0264 H   0  0  0  0  0  0  0  0  0  0  0  0  # atno 6908 bound_to 6896
  152.3753  133.6435  159.6154 H   0  0  0  0  0  0  0  0  0  0  0  0  # atno 6909 bound_to 6896
  145.6955  140.9136  143.0758 H   0  0  0  0  0  0  0  0  0  0  0  0  # atno 7974 bound_to 7965
  155.6087  140.3494  155.4616 H   0  0  0  0  0  0  0  0  0  0  0  0  # atno 8008 bound_to 7997
  156.0171  140.1245  157.0419 H   0  0  0  0  0  0  0  0  0  0  0  0  # atno 8009 bound_to 7997
  154.4301  140.1070  156.5897 H   0  0  0  0  0  0  0  0  0  0  0  0  # atno 8010 bound_to 7997
  140.7203  143.5307  150.9523 H   0  0  0  0  0  0  0  0  0  0  0  0  # atno 10167 bound_to 10162
  156.8194  130.5451  149.5699 H   0  0  0  0  0  0  0  0  0  0  0  0  # atno 10718 bound_to 10713
  154.1417  135.6504  153.4943 H   0  0  0  0  0  0  0  0  0  0  0  0  # atno 10763 bound_to 10752
  153.0164  135.5317  154.6898 H   0  0  0  0  0  0  0  0  0  0  0  0  # atno 10764 bound_to 10752
  154.6161  135.2959  155.0349 H   0  0  0  0  0  0  0  0  0  0  0  0  # atno 10765 bound_to 10752
  139.8988  134.8244  156.2500 H   0  0  0  0  0  0  0  0  0  0  0  0  # atno 11005 bound_to 11000
  144.6984  139.8879  143.7451 LP  0  0  0  0  0  0  0  0  0  0  0  0  # atno 17320 bound_to 7965
  146.0844  139.3832  143.0445 LP  0  0  0  0  0  0  0  0  0  0  0  0  # atno 17321 bound_to 7965
  139.9027  143.6816  152.3128 LP  0  0  0  0  0  0  0  0  0  0  0  0  # atno 17342 bound_to 10162
  139.7171  144.7610  151.1016 LP  0  0  0  0  0  0  0  0  0  0  0  0  # atno 17343 bound_to 10162
  156.0997  130.5960  150.9874 LP  0  0  0  0  0  0  0  0  0  0  0  0  # atno 17370 bound_to 10713
  157.6465  131.0903  150.8143 LP  0  0  0  0  0  0  0  0  0  0  0  0  # atno 17371 bound_to 10713
  141.0230  133.7030  156.1300 LP  0  0  0  0  0  0  0  0  0  0  0  0  # atno 17394 bound_to 11000
  140.7206  134.4362  157.5575 LP  0  0  0  0  0  0  0  0  0  0  0  0  # atno 17395 bound_to 11000

$$$$
