AV-unprocessed.smi:242|AV-procd|sdf|1846|dock3
  -GOLD-   2262020463D 1   1.00000     0.00000
 Structure written by MMmdl.
 58 61  0  0  0  0  0  0  0  0  2 V2000
  144.9794  133.4983  151.4948 C   0  0  0  0  0  0  0  0  0  0  0  0
  146.2086  133.0343  150.6910 C   0  0  0  0  0  0  0  0  0  0  0  0
  145.7578  132.0791  149.5689 C   0  0  0  0  0  0  0  0  0  0  0  0
  147.2229  132.4048  151.5832 N   0  3  2  0  0  0  0  0  0  0  0  0
  146.7010  131.3423  152.4811 C   0  0  0  0  0  0  0  0  0  0  0  0
  147.3480  131.5559  153.8557 C   0  0  0  0  0  0  0  0  0  0  0  0
  148.5394  132.4694  153.5734 C   0  0  2  0  0  0  0  0  0  0  0  0
  148.9970  133.2230  154.7426 N   0  0  0  0  0  0  0  0  0  0  0  0
  147.9857  133.5579  155.7385 C   0  0  0  0  0  0  0  0  0  0  0  0
  150.1094  132.7252  155.3273 C   0  0  0  0  0  0  0  0  0  0  0  0
  150.8747  133.5228  156.1179 N   0  0  0  0  0  0  0  0  0  0  0  0
  151.9787  133.0298  156.6885 C   0  0  0  0  0  0  0  0  0  0  0  0
  152.4846  131.7972  156.6014 N   0  0  0  0  0  0  0  0  0  0  0  0
  151.7142  130.9979  155.8083 C   0  0  0  0  0  0  0  0  0  0  0  0
  150.5161  131.3786  155.1434 C   0  0  0  0  0  0  0  0  0  0  0  0
  149.9939  130.3015  154.4399 N   0  0  0  0  0  0  0  0  0  0  0  0
  150.8425  129.3364  154.6694 C   0  0  0  0  0  0  0  0  0  0  0  0
  151.9133  129.6713  155.4688 N   0  0  0  0  0  0  0  0  0  0  0  0
  153.0090  128.8013  155.8678 C   0  0  0  0  0  0  0  0  0  0  0  0
  154.4134  129.4112  155.6298 C   0  0  0  0  0  0  0  0  0  0  0  0
  154.6000  130.4520  156.5732 O   0  0  0  0  0  0  0  0  0  0  0  0
  155.5063  128.3479  155.8585 C   0  0  0  0  0  0  0  0  0  0  0  0
  156.9045  128.8590  155.4683 C   0  0  0  0  0  0  0  0  0  0  0  0
  156.8979  129.3109  154.1196 O   0  0  0  0  0  0  0  0  0  0  0  0
  156.0252  130.4151  153.9141 C   0  0  0  0  0  0  0  0  0  0  0  0
  154.5722  130.0058  154.2128 C   0  0  0  0  0  0  0  0  0  0  0  0
  147.9916  133.3370  152.4359 C   0  0  0  0  0  0  0  0  0  0  0  0
  144.2338  133.9519  150.8411 H   0  0  0  0  0  0  0  0  0  0  0  0
  145.2359  134.2440  152.2471 H   0  0  0  0  0  0  0  0  0  0  0  0
  144.5030  132.6610  152.0061 H   0  0  0  0  0  0  0  0  0  0  0  0
  146.6648  133.9088  150.2239 H   0  0  0  0  0  0  0  0  0  0  0  0
  144.9801  132.5372  148.9572 H   0  0  0  0  0  0  0  0  0  0  0  0
  145.3531  131.1512  149.9745 H   0  0  0  0  0  0  0  0  0  0  0  0
  146.5754  131.8231  148.8950 H   0  0  0  0  0  0  0  0  0  0  0  0
  145.6148  131.3747  152.5747 H   0  0  0  0  0  0  0  0  0  0  0  0
  146.9703  130.3704  152.0668 H   0  0  0  0  0  0  0  0  0  0  0  0
  146.6387  132.0605  154.5141 H   0  0  0  0  0  0  0  0  0  0  0  0
  147.6365  130.6193  154.3338 H   0  0  0  0  0  0  0  0  0  0  0  0
  149.3628  131.8624  153.1925 H   0  0  0  0  0  0  0  0  0  0  0  0
  148.4348  133.9921  156.6333 H   0  0  0  0  0  0  0  0  0  0  0  0
  147.4230  132.6716  156.0339 H   0  0  0  0  0  0  0  0  0  0  0  0
  147.2849  134.2892  155.3361 H   0  0  0  0  0  0  0  0  0  0  0  0
  152.5390  133.7222  157.2993 H   0  0  0  0  0  0  0  0  0  0  0  0
  150.7168  128.3490  154.2492 H   0  0  0  0  0  0  0  0  0  0  0  0
  152.8793  128.5465  156.9206 H   0  0  0  0  0  0  0  0  0  0  0  0
  152.9106  127.8654  155.3158 H   0  0  0  0  0  0  0  0  0  0  0  0
  154.6827  131.2699  156.1074 H   0  0  0  0  0  0  0  0  0  0  0  0
  155.5058  128.0160  156.8975 H   0  0  0  0  0  0  0  0  0  0  0  0
  155.2831  127.4654  155.2572 H   0  0  0  0  0  0  0  0  0  0  0  0
  157.2309  129.6608  156.1322 H   0  0  0  0  0  0  0  0  0  0  0  0
  157.6343  128.0551  155.5641 H   0  0  0  0  0  0  0  0  0  0  0  0
  156.3321  131.2571  154.5362 H   0  0  0  0  0  0  0  0  0  0  0  0
  156.1129  130.7423  152.8780 H   0  0  0  0  0  0  0  0  0  0  0  0
  154.2621  129.2640  153.4756 H   0  0  0  0  0  0  0  0  0  0  0  0
  153.9177  130.8674  154.0758 H   0  0  0  0  0  0  0  0  0  0  0  0
  148.7843  133.8322  151.8736 H   0  0  0  0  0  0  0  0  0  0  0  0
  147.3247  134.1032  152.8363 H   0  0  0  0  0  0  0  0  0  0  0  0
  147.9028  131.9551  150.9867 H   0  0  0  0  0  0  0  0  0  0  0  0
  1  2  1  0  0  0  0
  1 28  1  0  0  0  0
  1 29  1  0  0  0  0
  1 30  1  0  0  0  0
  2  3  1  0  0  0  0
  2  4  1  0  0  0  0
  2 31  1  0  0  0  0
  3 32  1  0  0  0  0
  3 33  1  0  0  0  0
  3 34  1  0  0  0  0
  4 27  1  0  0  0  0
  4  5  1  0  0  0  0
  4 58  1  0  0  0  0
  5  6  1  0  0  0  0
  5 35  1  0  0  0  0
  5 36  1  0  0  0  0
  6  7  1  0  0  0  0
  6 37  1  0  0  0  0
  6 38  1  0  0  0  0
  7  8  1  0  0  0  0
  7 27  1  0  0  0  0
  7 39  1  0  0  0  0
  8  9  1  0  0  0  0
  8 10  1  0  0  0  0
  9 40  1  0  0  0  0
  9 41  1  0  0  0  0
  9 42  1  0  0  0  0
 10 15  1  0  0  0  0
 10 11  2  0  0  0  0
 11 12  1  0  0  0  0
 12 13  2  0  0  0  0
 12 43  1  0  0  0  0
 13 14  1  0  0  0  0
 14 18  1  0  0  0  0
 14 15  2  0  0  0  0
 15 16  1  0  0  0  0
 16 17  2  0  0  0  0
 17 18  1  0  0  0  0
 17 44  1  0  0  0  0
 18 19  1  0  0  0  0
 19 20  1  0  0  0  0
 19 45  1  0  0  0  0
 19 46  1  0  0  0  0
 20 26  1  0  0  0  0
 20 21  1  0  0  0  0
 20 22  1  0  0  0  0
 21 47  1  0  0  0  0
 22 23  1  0  0  0  0
 22 48  1  0  0  0  0
 22 49  1  0  0  0  0
 23 24  1  0  0  0  0
 23 50  1  0  0  0  0
 23 51  1  0  0  0  0
 24 25  1  0  0  0  0
 25 26  1  0  0  0  0
 25 52  1  0  0  0  0
 25 53  1  0  0  0  0
 26 54  1  0  0  0  0
 26 55  1  0  0  0  0
 27 56  1  0  0  0  0
 27 57  1  0  0  0  0
M  CHG  1   4   1
M  END
> <s_m_source_file>
AV-unprocessed.smi

> <i_m_source_file_index>
242

> <i_lp_mmshare_version>
43012

> <i_f3d_flags>
0

> <s_epik_input>
W0NIM11bQ0hdKFtDSDNdKU4xW0NIMl1bQ0gyXVtDQEhdKFtDSDJdMSlOKFtDSDNdKWMobltjSF1uMiljKGMyMyluW2NIXW4zW0NIMl1DNChbT0hdKVtDSDJdW0NIMl1PW0NIMl1bQ0gyXTQ=

> <s_epik_cmdline>
J2VwaWtfcHl0aG9uJywgJy1waCcsICc3LjAnLCAnLXRuJywgJzgnLCAnLW1hJywgJzIwMCcsICctbWV0YWxfYmluZGluZycsICctaW1hZScsICc8aW5maWxlLm1hZT4nLCAnLW9tYWUnLCAnPG91dGZpbGUubWFlPic=

> <r_lp_tautomer_probability>
1

> <r_epik_Ionization_Penalty>
0.000825961

> <r_epik_Ionization_Penalty_Charging>
0.00034898

> <r_epik_Ionization_Penalty_Neutral>
0.000476981

> <r_epik_State_Penalty>
-0

> <r_epik_Charging_Adjusted_Penalty>
0.00034898

> <i_epik_Tot_Q>
1

> <i_epik_Tot_abs_Q>
1

> <r_epik_Metal_State_Penalty>
-0

> <b_epik_Metal_Only>
0

> <s_lp_Force_Field>
OPLS_2005

> <r_lp_Energy>
47.5475

> <b_lp_Chiralities_Consistent>
1

> <s_lp_Variant>
AV-unprocessed.smi:242-3

> <Gold.Version>
5.8.1

> <Gold.Id.Protein>
6NUR|6NUR_protein|mol2

> <Gold.PLP.Fitness>
42.9824

> <Gold.PLP.PLP>
-39.9558

> <Gold.PLP.part.hbond>
-1.0000

> <Gold.PLP.part.metal>
0.0000

> <Gold.PLP.part.buried>
-4.9138

> <Gold.PLP.part.nonpolar>
-34.1661

> <Gold.PLP.part.repulsive>
0.1469

> <Gold.PLP.ligand.clash>
0.0029

> <Gold.PLP.ligand.torsion>
1.5827

> <Gold.PLP.Chemscore.Hbond>
1.0000

> <Gold.PLP.Chemscore.CHOScore>
0.9283

> <Gold.PLP.Chemscore.Metal>
0.0000

> <Gold.Chemscore.Hbonds>
donor molecule, donor type, donor heavy atom, donor atom, acceptor molecule, acceptor atom, score
      L1  H     4    58       P1 10747  1.00
      L1  C    17    44       P1 10737  0.02

> <Gold.PLP.Chemscore.Internal.Correction>
0.4102

> <Gold.Rescore>
     Score         DG    S(hbond)    S(metal)    S(lipo)     H(rot)  DE(clash)    DE(int)     intcor
      9.45     -12.47       0.99        0.00      86.03       2.50       0.03       2.99       ----

> <Gold.Chemscore.Fitness>
9.4452

> <Gold.Chemscore.DG>
-12.4657

> <Gold.Chemscore.ZeroCoef>
-5.4800

> <Gold.Chemscore.Hbond>
0.9937

> <Gold.Chemscore.Metal>
0.0000

> <Gold.Chemscore.Lipo>
86.0306

> <Gold.Chemscore.Internal_Hbond>
0.0000

> <Gold.Chemscore.DEClash>
0.0303

> <Gold.Chemscore.DEInternal>
2.9902

> <Gold.Chemscore.Rot>
2.4996

> <Gold.Chemscore.Internal.Correction>
   9.000000E+99

> <Gold.Chemscore.Hbonds>
donor molecule, donor type, donor heavy atom, donor atom, acceptor molecule, acceptor atom, score
      L1  H     4    58       P1 10747  1.00

> <Gold.Chemscore.Hbond.Weighted>
-3.3191

> <Gold.Chemscore.Metal.Weighted>
-0.0000

> <Gold.Chemscore.Lipo.Weighted>
-10.0656

> <Gold.Chemscore.Internal_Hbond.Weighted>
0.0000

> <Gold.Chemscore.DEClash.Weighted>
0.0303

> <Gold.Chemscore.DEInternal.Weighted>
2.9902

> <Gold.Chemscore.Rot.Weighted>
6.3990

> <Gold.Chemscore.Internal.Correction.Weighted>
   9.000000E+99

> <Gold.Protein.RotatedTorsions>
[ 6907 6896 6895 6894 ] final -125.85 input  -60.11 | X-H torsion
[ 7974 7965 7964 7962 ] final  143.10 input  175.53 | X-H torsion
[ 8008 7997 7996 7995 ] final  -99.61 input   59.86 | X-H torsion
[ 10167 10162 10161 10158 ] final  134.77 input  -65.29 | X-H torsion
[ 10718 10713 10712 10709 ] final  -72.49 input   66.30 | X-H torsion
[ 10763 10752 10751 10750 ] final -166.79 input  -60.55 | X-H torsion
[ 11005 11000 10999 10996 ] final   85.61 input  -57.11 | X-H torsion

> <Gold.Protein.ActiveResidues>
 VAL166  LYS551  ARG553  GLY616  TRP617  ASP618  TYR619  PRO620  LYS621  CYS622 
 ASP623  PHE694  ASN695  SER759  ASP760  ASP761  ALA762  ILE779  LEU786  VAL792 
 PHE793  MET794  SER795  GLU796  ALA797  LYS798  CYS799  TRP800  GLU811  SER814 

> <Gold.Protein.RotatedAtoms>
  150.8909  133.7244  159.2904 H   0  0  0  0  0  0  0  0  0  0  0  0  # atno 6907 bound_to 6896
  151.4795  135.1050  159.9783 H   0  0  0  0  0  0  0  0  0  0  0  0  # atno 6908 bound_to 6896
  152.4819  133.8229  159.7118 H   0  0  0  0  0  0  0  0  0  0  0  0  # atno 6909 bound_to 6896
  144.8950  139.5503  143.5780 H   0  0  0  0  0  0  0  0  0  0  0  0  # atno 7974 bound_to 7965
  154.8173  140.0446  157.1385 H   0  0  0  0  0  0  0  0  0  0  0  0  # atno 8008 bound_to 7997
  154.9300  140.3038  155.5152 H   0  0  0  0  0  0  0  0  0  0  0  0  # atno 8009 bound_to 7997
  156.2977  140.2325  156.4359 H   0  0  0  0  0  0  0  0  0  0  0  0  # atno 8010 bound_to 7997
  139.5243  144.6550  151.5188 H   0  0  0  0  0  0  0  0  0  0  0  0  # atno 10167 bound_to 10162
  156.0318  130.4373  150.2601 H   0  0  0  0  0  0  0  0  0  0  0  0  # atno 10718 bound_to 10713
  154.6797  135.2952  154.9629 H   0  0  0  0  0  0  0  0  0  0  0  0  # atno 10763 bound_to 10752
  154.0628  135.6629  153.4818 H   0  0  0  0  0  0  0  0  0  0  0  0  # atno 10764 bound_to 10752
  153.0539  135.5156  154.7834 H   0  0  0  0  0  0  0  0  0  0  0  0  # atno 10765 bound_to 10752
  139.8967  134.8299  156.2606 H   0  0  0  0  0  0  0  0  0  0  0  0  # atno 11005 bound_to 11000
  146.3076  139.7633  142.9044 LP  0  0  0  0  0  0  0  0  0  0  0  0  # atno 17320 bound_to 7965
  145.3716  141.0343  143.3228 LP  0  0  0  0  0  0  0  0  0  0  0  0  # atno 17321 bound_to 7965
  140.6372  143.8960  150.6658 LP  0  0  0  0  0  0  0  0  0  0  0  0  # atno 17342 bound_to 10162
  140.2283  143.3755  152.1586 LP  0  0  0  0  0  0  0  0  0  0  0  0  # atno 17343 bound_to 10162
  157.0702  131.0115  151.3192 LP  0  0  0  0  0  0  0  0  0  0  0  0  # atno 17370 bound_to 10713
  157.5005  130.7877  149.7599 LP  0  0  0  0  0  0  0  0  0  0  0  0  # atno 17371 bound_to 10713
  141.0165  133.7066  156.1196 LP  0  0  0  0  0  0  0  0  0  0  0  0  # atno 17394 bound_to 11000
  140.7295  134.4270  157.5567 LP  0  0  0  0  0  0  0  0  0  0  0  0  # atno 17395 bound_to 11000

$$$$
