AV-unprocessed.smi:2526|AV-procd|sdf|9934|dock1
  -GOLD-   2272013573D 1   1.00000     0.00000
 Structure written by MMmdl.
 29 30  0  0  0  0  0  0  0  0  2 V2000
  152.1036  145.5883  159.2673 C   0  0  0  0  0  0  0  0  0  0  0  0
  152.0075  144.1656  159.0202 N   0  0  0  0  0  0  0  0  0  0  0  0
  151.3284  143.5117  158.0154 C   0  0  0  0  0  0  0  0  0  0  0  0
  151.5304  142.1692  158.1860 C   0  0  0  0  0  0  0  0  0  0  0  0
  151.0067  141.0115  157.3699 C   0  0  2  0  0  0  0  0  0  0  0  0
  152.1111  140.1774  156.8884 N   0  0  0  0  0  0  0  0  0  0  0  0
  152.1716  139.5139  155.7199 C   0  0  0  0  0  0  0  0  0  0  0  0
  153.1230  138.7876  155.4446 O   0  0  0  0  0  0  0  0  0  0  0  0
  151.0432  139.6996  154.6935 C   0  0  0  0  0  0  0  0  0  0  0  0
  149.7704  140.3326  155.2799 C   0  0  0  0  0  0  0  0  0  0  0  0
  150.1173  141.5050  156.2049 C   0  0  1  0  0  0  0  0  0  0  0  0
  148.8990  142.1761  156.6938 N   0  3  0  0  0  0  0  0  0  0  0  0
  152.3641  142.1105  159.3402 C   0  0  0  0  0  0  0  0  0  0  0  0
  152.6443  143.3029  159.8375 N   0  0  0  0  0  0  0  0  0  0  0  0
  151.3141  146.1144  158.7298 H   0  0  0  0  0  0  0  0  0  0  0  0
  153.0722  145.9547  158.9258 H   0  0  0  0  0  0  0  0  0  0  0  0
  151.9997  145.7908  160.3339 H   0  0  0  0  0  0  0  0  0  0  0  0
  150.7615  144.0504  157.2699 H   0  0  0  0  0  0  0  0  0  0  0  0
  150.4048  140.3599  158.0056 H   0  0  0  0  0  0  0  0  0  0  0  0
  152.8840  140.0505  157.5264 H   0  0  0  0  0  0  0  0  0  0  0  0
  151.4294  140.3362  153.8968 H   0  0  0  0  0  0  0  0  0  0  0  0
  150.8061  138.7386  154.2353 H   0  0  0  0  0  0  0  0  0  0  0  0
  149.1273  140.6705  154.4664 H   0  0  0  0  0  0  0  0  0  0  0  0
  149.2040  139.5782  155.8284 H   0  0  0  0  0  0  0  0  0  0  0  0
  150.6717  142.2441  155.6237 H   0  0  0  0  0  0  0  0  0  0  0  0
  148.9525  142.2869  157.6963 H   0  0  0  0  0  0  0  0  0  0  0  0
  148.0900  141.6184  156.4595 H   0  0  0  0  0  0  0  0  0  0  0  0
  152.7695  141.2381  159.8312 H   0  0  0  0  0  0  0  0  0  0  0  0
  148.8187  143.0837  156.2578 H   0  0  0  0  0  0  0  0  0  0  0  0
  1  2  1  0  0  0  0
  1 15  1  0  0  0  0
  1 16  1  0  0  0  0
  1 17  1  0  0  0  0
  2 14  1  0  0  0  0
  2  3  1  0  0  0  0
  3  4  2  0  0  0  0
  3 18  1  0  0  0  0
  4  5  1  0  0  0  0
  4 13  1  0  0  0  0
  5 11  1  0  0  0  0
  5  6  1  0  0  0  0
  5 19  1  0  0  0  0
  6  7  1  0  0  0  0
  6 20  1  0  0  0  0
  7  8  2  0  0  0  0
  7  9  1  0  0  0  0
  9 10  1  0  0  0  0
  9 21  1  0  0  0  0
  9 22  1  0  0  0  0
 10 11  1  0  0  0  0
 10 23  1  0  0  0  0
 10 24  1  0  0  0  0
 11 12  1  0  0  0  0
 11 25  1  0  0  0  0
 12 26  1  0  0  0  0
 12 27  1  0  0  0  0
 12 29  1  0  0  0  0
 13 14  2  0  0  0  0
 13 28  1  0  0  0  0
M  CHG  1  12   1
M  END
> <s_m_source_file>
AV-unprocessed.smi

> <i_m_source_file_index>
2526

> <i_lp_mmshare_version>
43012

> <i_f3d_flags>
0

> <s_epik_input>
W0NIM11uMVtjSF1jKFtjSF1uMSlbQ0BASF0yW05IXUMoPU8pW0NIMl1bQ0gyXVtDQEhdMltOSDJd

> <s_epik_cmdline>
J2VwaWtfcHl0aG9uJywgJy1waCcsICc3LjAnLCAnLXRuJywgJzgnLCAnLW1hJywgJzIwMCcsICctbWV0YWxfYmluZGluZycsICctaW1hZScsICc8aW5maWxlLm1hZT4nLCAnLW9tYWUnLCAnPG91dGZpbGUubWFlPic=

> <r_lp_tautomer_probability>
1

> <r_epik_Ionization_Penalty>
0.00878543

> <r_epik_Ionization_Penalty_Charging>
0.00874185

> <r_epik_Ionization_Penalty_Neutral>
4.35793e-05

> <r_epik_State_Penalty>
0.00660351

> <r_epik_Charging_Adjusted_Penalty>
0.0153454

> <i_epik_Tot_Q>
1

> <i_epik_Tot_abs_Q>
1

> <r_epik_Metal_State_Penalty>
0.00660727

> <b_epik_Metal_Only>
0

> <s_lp_Force_Field>
OPLS_2005

> <r_lp_Energy>
10.7235

> <b_lp_Chiralities_Consistent>
1

> <s_lp_Variant>
AV-unprocessed.smi:2526-1

> <Gold.Version>
5.8.1

> <Gold.Id.Protein>
6NUR|6NUR_protein|mol2

> <Gold.PLP.Fitness>
41.5848

> <Gold.PLP.PLP>
-30.5124

> <Gold.PLP.part.hbond>
-2.0000

> <Gold.PLP.part.metal>
0.0000

> <Gold.PLP.part.buried>
-1.5602

> <Gold.PLP.part.nonpolar>
-26.9192

> <Gold.PLP.part.repulsive>
0.1405

> <Gold.PLP.ligand.clash>
0.0000

> <Gold.PLP.ligand.torsion>
0.0162

> <Gold.PLP.Chemscore.Hbond>
2.6944

> <Gold.PLP.Chemscore.CHOScore>
1.0000

> <Gold.PLP.Chemscore.Metal>
0.0000

> <Gold.Chemscore.Hbonds>
donor molecule, donor type, donor heavy atom, donor atom, acceptor molecule, acceptor atom, score
      L1  H    12    29       P1  8028  2.00
      P1  H  7997  8009       L1     8  0.69
      L1  C     3    18       P1  8028  0.99

> <Gold.PLP.Chemscore.Internal.Correction>
0.0215

> <Gold.Rescore>
     Score         DG    S(hbond)    S(metal)    S(lipo)     H(rot)  DE(clash)    DE(int)     intcor
     13.35     -14.29       1.01        0.00      68.39       1.00       0.03       0.92       ----

> <Gold.Chemscore.Fitness>
13.3456

> <Gold.Chemscore.DG>
-14.2928

> <Gold.Chemscore.ZeroCoef>
-5.4800

> <Gold.Chemscore.Hbond>
1.0094

> <Gold.Chemscore.Metal>
0.0000

> <Gold.Chemscore.Lipo>
68.3883

> <Gold.Chemscore.Internal_Hbond>
0.0000

> <Gold.Chemscore.DEClash>
0.0255

> <Gold.Chemscore.DEInternal>
0.9218

> <Gold.Chemscore.Rot>
1.0000

> <Gold.Chemscore.Internal.Correction>
   9.000000E+99

> <Gold.Chemscore.Hbonds>
donor molecule, donor type, donor heavy atom, donor atom, acceptor molecule, acceptor atom, score
      L1  H    12    29       P1  8028  0.99
      P1  H  7997  8009       L1     8  0.07

> <Gold.Chemscore.Hbond.Weighted>
-3.3714

> <Gold.Chemscore.Metal.Weighted>
-0.0000

> <Gold.Chemscore.Lipo.Weighted>
-8.0014

> <Gold.Chemscore.Internal_Hbond.Weighted>
0.0000

> <Gold.Chemscore.DEClash.Weighted>
0.0255

> <Gold.Chemscore.DEInternal.Weighted>
0.9218

> <Gold.Chemscore.Rot.Weighted>
2.5600

> <Gold.Chemscore.Internal.Correction.Weighted>
   9.000000E+99

> <Gold.Protein.RotatedTorsions>
[ 6907 6896 6895 6894 ] final  -53.96 input  -60.11 | X-H torsion
[ 7974 7965 7964 7962 ] final  -82.71 input  175.53 | X-H torsion
[ 8008 7997 7996 7995 ] final -132.64 input   59.86 | X-H torsion
[ 10167 10162 10161 10158 ] final -178.68 input  -65.29 | X-H torsion
[ 10718 10713 10712 10709 ] final -119.65 input   66.30 | X-H torsion
[ 10763 10752 10751 10750 ] final  -75.69 input  -60.55 | X-H torsion
[ 11005 11000 10999 10996 ] final  113.29 input  -57.11 | X-H torsion

> <Gold.Protein.ActiveResidues>
 VAL166  LYS551  ARG553  GLY616  TRP617  ASP618  TYR619  PRO620  LYS621  CYS622 
 ASP623  PHE694  ASN695  SER759  ASP760  ASP761  ALA762  ILE779  LEU786  VAL792 
 PHE793  MET794  SER795  GLU796  ALA797  LYS798  CYS799  TRP800  GLU811  SER814 

> <Gold.Protein.RotatedAtoms>
  150.8380  134.7661  159.6908 H   0  0  0  0  0  0  0  0  0  0  0  0  # atno 6907 bound_to 6896
  152.4473  134.5464  159.9864 H   0  0  0  0  0  0  0  0  0  0  0  0  # atno 6908 bound_to 6896
  151.5610  133.3365  159.3007 H   0  0  0  0  0  0  0  0  0  0  0  0  # atno 6909 bound_to 6896
  145.5297  140.9522  143.1610 H   0  0  0  0  0  0  0  0  0  0  0  0  # atno 7974 bound_to 7965
  155.3323  140.0467  157.3043 H   0  0  0  0  0  0  0  0  0  0  0  0  # atno 8008 bound_to 7997
  154.5322  140.2260  155.8750 H   0  0  0  0  0  0  0  0  0  0  0  0  # atno 8009 bound_to 7997
  156.1799  140.3076  155.9136 H   0  0  0  0  0  0  0  0  0  0  0  0  # atno 8010 bound_to 7997
  139.5421  144.2334  152.0916 H   0  0  0  0  0  0  0  0  0  0  0  0  # atno 10167 bound_to 10162
  156.1197  130.6313  150.9442 H   0  0  0  0  0  0  0  0  0  0  0  0  # atno 10718 bound_to 10713
  154.4899  135.5823  153.6451 H   0  0  0  0  0  0  0  0  0  0  0  0  # atno 10763 bound_to 10752
  152.9860  135.6110  154.3138 H   0  0  0  0  0  0  0  0  0  0  0  0  # atno 10764 bound_to 10752
  154.3037  135.2846  155.2578 H   0  0  0  0  0  0  0  0  0  0  0  0  # atno 10765 bound_to 10752
  139.8949  134.9547  156.6717 H   0  0  0  0  0  0  0  0  0  0  0  0  # atno 11005 bound_to 11000
  144.7632  139.6907  143.7225 LP  0  0  0  0  0  0  0  0  0  0  0  0  # atno 17320 bound_to 7965
  146.2052  139.5372  142.9717 LP  0  0  0  0  0  0  0  0  0  0  0  0  # atno 17321 bound_to 7965
  140.1814  144.4840  150.6526 LP  0  0  0  0  0  0  0  0  0  0  0  0  # atno 17342 bound_to 10162
  140.6655  143.2266  151.5752 LP  0  0  0  0  0  0  0  0  0  0  0  0  # atno 17343 bound_to 10162
  157.6380  131.0913  150.8308 LP  0  0  0  0  0  0  0  0  0  0  0  0  # atno 17370 bound_to 10713
  156.8406  130.5047  149.5321 LP  0  0  0  0  0  0  0  0  0  0  0  0  # atno 17371 bound_to 10713
  140.7368  133.9012  155.8250 LP  0  0  0  0  0  0  0  0  0  0  0  0  # atno 17394 bound_to 11000
  141.0109  134.1021  157.4222 LP  0  0  0  0  0  0  0  0  0  0  0  0  # atno 17395 bound_to 11000

$$$$
