AV-unprocessed.smi:3330|AV-procd|sdf|12810|dock2
  -GOLD-   2272019173D 1   1.00000     0.00000
 Structure written by MMmdl.
 38 39  0  0  0  0  0  0  0  0  3 V2000
  148.1684  133.4262  153.9462 C   0  0  0  0  0  0  0  0  0  0  0  0
  147.5709  134.6292  154.6989 C   0  0  1  0  0  0  0  0  0  0  0  0
  148.2511  135.8605  154.2382 N   0  3  0  0  0  0  0  0  0  0  0  0
  149.5886  136.0901  154.8192 C   0  0  0  0  0  0  0  0  0  0  0  0
  149.7020  137.5166  155.3757 C   0  0  0  0  0  0  0  0  0  0  0  0
  151.0992  137.8754  155.6306 N   0  0  0  0  0  0  0  0  0  0  0  0
  152.0017  137.0558  156.1778 C   0  0  0  0  0  0  0  0  0  0  0  0
  151.8386  135.8939  156.5504 O   0  0  0  0  0  0  0  0  0  0  0  0
  153.3025  137.8172  156.2829 C   0  0  0  0  0  0  0  0  0  0  0  0
  152.9460  139.1115  155.7464 N   0  5  0  0  0  0  0  0  0  0  0  0
  151.6426  139.0826  155.3850 C   0  0  0  0  0  0  0  0  0  0  0  0
  150.9909  140.0075  154.9007 O   0  0  0  0  0  0  0  0  0  0  0  0
  146.0329  134.7536  154.5164 C   0  0  2  0  0  0  0  0  0  0  0  0
  145.2360  133.8081  155.4354 C   0  0  0  0  0  0  0  0  0  0  0  0
  145.6265  134.5560  153.1307 N   0  0  0  0  0  0  0  0  0  0  0  0
  144.7054  133.6588  152.6297 C   0  0  0  0  0  0  0  0  0  0  0  0
  144.6591  133.8335  151.2762 C   0  0  0  0  0  0  0  0  0  0  0  0
  145.6036  134.8697  151.0363 C   0  0  0  0  0  0  0  0  0  0  0  0
  146.1813  135.2990  152.1462 N   0  0  0  0  0  0  0  0  0  0  0  0
  147.7784  132.4789  154.3187 H   0  0  0  0  0  0  0  0  0  0  0  0
  149.2522  133.3912  154.0630 H   0  0  0  0  0  0  0  0  0  0  0  0
  147.9512  133.4793  152.8789 H   0  0  0  0  0  0  0  0  0  0  0  0
  147.7871  134.4796  155.7584 H   0  0  0  0  0  0  0  0  0  0  0  0
  148.3587  135.8062  153.2356 H   0  0  0  0  0  0  0  0  0  0  0  0
  149.7723  135.3642  155.6120 H   0  0  0  0  0  0  0  0  0  0  0  0
  150.3454  135.9255  154.0508 H   0  0  0  0  0  0  0  0  0  0  0  0
  149.2534  138.2266  154.6786 H   0  0  0  0  0  0  0  0  0  0  0  0
  149.1258  137.6059  156.2984 H   0  0  0  0  0  0  0  0  0  0  0  0
  153.6268  137.8562  157.3231 H   0  0  0  0  0  0  0  0  0  0  0  0
  154.0774  137.3110  155.7065 H   0  0  0  0  0  0  0  0  0  0  0  0
  145.7495  135.7747  154.7771 H   0  0  0  0  0  0  0  0  0  0  0  0
  145.3937  134.0447  156.4877 H   0  0  0  0  0  0  0  0  0  0  0  0
  145.5197  132.7663  155.2820 H   0  0  0  0  0  0  0  0  0  0  0  0
  144.1651  133.8908  155.2466 H   0  0  0  0  0  0  0  0  0  0  0  0
  144.1641  132.9780  153.2702 H   0  0  0  0  0  0  0  0  0  0  0  0
  144.0456  133.3006  150.5649 H   0  0  0  0  0  0  0  0  0  0  0  0
  145.8849  135.3191  150.0952 H   0  0  0  0  0  0  0  0  0  0  0  0
  147.6622  136.6518  154.4548 H   0  0  0  0  0  0  0  0  0  0  0  0
  1  2  1  0  0  0  0
  1 20  1  0  0  0  0
  1 21  1  0  0  0  0
  1 22  1  0  0  0  0
  2  3  1  0  0  0  0
  2 13  1  0  0  0  0
  2 23  1  0  0  0  0
  3  4  1  0  0  0  0
  3 24  1  0  0  0  0
  3 38  1  0  0  0  0
  4  5  1  0  0  0  0
  4 25  1  0  0  0  0
  4 26  1  0  0  0  0
  5  6  1  0  0  0  0
  5 27  1  0  0  0  0
  5 28  1  0  0  0  0
  6 11  1  0  0  0  0
  6  7  1  0  0  0  0
  7  8  2  0  0  0  0
  7  9  1  0  0  0  0
  9 10  1  0  0  0  0
  9 29  1  0  0  0  0
  9 30  1  0  0  0  0
 10 11  1  0  0  0  0
 11 12  2  0  0  0  0
 13 14  1  0  0  0  0
 13 15  1  0  0  0  0
 13 31  1  0  0  0  0
 14 32  1  0  0  0  0
 14 33  1  0  0  0  0
 14 34  1  0  0  0  0
 15 19  1  0  0  0  0
 15 16  1  0  0  0  0
 16 17  2  0  0  0  0
 16 35  1  0  0  0  0
 17 18  1  0  0  0  0
 17 36  1  0  0  0  0
 18 19  2  0  0  0  0
 18 37  1  0  0  0  0
M  CHG  1   3   1
M  CHG  1  10  -1
M  END
> <s_m_source_file>
AV-unprocessed.smi

> <i_m_source_file_index>
3330

> <i_lp_mmshare_version>
43012

> <i_f3d_flags>
0

> <s_epik_input>
bjFbY0hdW2NIXVtjSF1uMVtDQEBIXShbQ0gzXSlbQ0BIXShbQ0gzXSlbTkhdW0NIMl1bQ0gyXU4yQyg9TylbQ0gyXVtOSF1DMj1P

> <s_epik_cmdline>
J2VwaWtfcHl0aG9uJywgJy1waCcsICc3LjAnLCAnLXRuJywgJzgnLCAnLW1hJywgJzIwMCcsICctbWV0YWxfYmluZGluZycsICctaW1hZScsICc8aW5maWxlLm1hZT4nLCAnLW9tYWUnLCAnPG91dGZpbGUubWFlPic=

> <r_lp_tautomer_probability>
1

> <r_epik_Ionization_Penalty>
5.18149

> <r_epik_Ionization_Penalty_Charging>
5.18148

> <r_epik_Ionization_Penalty_Neutral>
9.83265e-06

> <r_epik_State_Penalty>
5.18201

> <r_epik_Charging_Adjusted_Penalty>
10.3635

> <i_epik_Tot_Q>
0

> <i_epik_Tot_abs_Q>
2

> <r_epik_Metal_State_Penalty>
1.25422

> <b_epik_Metal_Only>
1

> <s_lp_Force_Field>
OPLS_2005

> <r_lp_Energy>
16.6991

> <b_lp_Chiralities_Consistent>
1

> <s_lp_Variant>
AV-unprocessed.smi:3330-10

> <Gold.Version>
5.8.1

> <Gold.Id.Protein>
6NUR|6NUR_protein|mol2

> <Gold.PLP.Fitness>
39.4831

> <Gold.PLP.PLP>
-19.4056

> <Gold.PLP.part.hbond>
-3.8308

> <Gold.PLP.part.metal>
0.0000

> <Gold.PLP.part.buried>
-2.0814

> <Gold.PLP.part.nonpolar>
-15.7591

> <Gold.PLP.part.repulsive>
1.6019

> <Gold.PLP.ligand.clash>
0.0000

> <Gold.PLP.ligand.torsion>
1.2470

> <Gold.PLP.Chemscore.Hbond>
5.4461

> <Gold.PLP.Chemscore.CHOScore>
2.0000

> <Gold.PLP.Chemscore.Metal>
0.0000

> <Gold.Chemscore.Hbonds>
donor molecule, donor type, donor heavy atom, donor atom, acceptor molecule, acceptor atom, score
      L1  H     3    24       P1  7948  2.00
      P1  H  7989  7998       L1    12  1.00
      P1  H  7997  8008       L1    10  2.00
      P1  H 10752 10763       L1     8  0.28
      L1  C    16    35       P1 10957  1.00
      L1  C    18    37       P1  7921  1.00

> <Gold.PLP.Chemscore.Internal.Correction>
0.2334

> <Gold.Rescore>
     Score         DG    S(hbond)    S(metal)    S(lipo)     H(rot)  DE(clash)    DE(int)     intcor
      8.99     -12.67       2.90        0.00      35.25       2.59       0.20       3.48       ----

> <Gold.Chemscore.Fitness>
8.9900

> <Gold.Chemscore.DG>
-12.6720

> <Gold.Chemscore.ZeroCoef>
-5.4800

> <Gold.Chemscore.Hbond>
2.9039

> <Gold.Chemscore.Metal>
0.0000

> <Gold.Chemscore.Lipo>
35.2494

> <Gold.Chemscore.Internal_Hbond>
0.0000

> <Gold.Chemscore.DEClash>
0.2044

> <Gold.Chemscore.DEInternal>
3.4776

> <Gold.Chemscore.Rot>
2.5903

> <Gold.Chemscore.Internal.Correction>
   9.000000E+99

> <Gold.Chemscore.Hbonds>
donor molecule, donor type, donor heavy atom, donor atom, acceptor molecule, acceptor atom, score
      L1  H     3    24       P1  7948  0.93
      P1  H  7989  7998       L1    12  0.97
      P1  H  7997  8008       L1    10  0.30
      P1  H 10752 10763       L1     8  0.01

> <Gold.Chemscore.Hbond.Weighted>
-9.6989

> <Gold.Chemscore.Metal.Weighted>
-0.0000

> <Gold.Chemscore.Lipo.Weighted>
-4.1242

> <Gold.Chemscore.Internal_Hbond.Weighted>
0.0000

> <Gold.Chemscore.DEClash.Weighted>
0.2044

> <Gold.Chemscore.DEInternal.Weighted>
3.4776

> <Gold.Chemscore.Rot.Weighted>
6.6311

> <Gold.Chemscore.Internal.Correction.Weighted>
   9.000000E+99

> <Gold.Protein.RotatedTorsions>
[ 6907 6896 6895 6894 ] final  137.73 input  -60.11 | X-H torsion
[ 7974 7965 7964 7962 ] final   98.38 input  175.53 | X-H torsion
[ 8008 7997 7996 7995 ] final  -39.68 input   59.86 | X-H torsion
[ 10167 10162 10161 10158 ] final  167.53 input  -65.29 | X-H torsion
[ 10718 10713 10712 10709 ] final   73.85 input   66.30 | X-H torsion
[ 10763 10752 10751 10750 ] final  114.91 input  -60.55 | X-H torsion
[ 11005 11000 10999 10996 ] final   38.57 input  -57.11 | X-H torsion

> <Gold.Protein.ActiveResidues>
 VAL166  LYS551  ARG553  GLY616  TRP617  ASP618  TYR619  PRO620  LYS621  CYS622 
 ASP623  PHE694  ASN695  SER759  ASP760  ASP761  ALA762  ILE779  LEU786  VAL792 
 PHE793  MET794  SER795  GLU796  ALA797  LYS798  CYS799  TRP800  GLU811  SER814 

> <Gold.Protein.RotatedAtoms>
  152.2747  133.5414  159.5460 H   0  0  0  0  0  0  0  0  0  0  0  0  # atno 6907 bound_to 6896
  150.7172  134.0648  159.3853 H   0  0  0  0  0  0  0  0  0  0  0  0  # atno 6908 bound_to 6896
  151.8562  135.0540  160.0515 H   0  0  0  0  0  0  0  0  0  0  0  0  # atno 6909 bound_to 6896
  145.4129  139.2331  143.3238 H   0  0  0  0  0  0  0  0  0  0  0  0  # atno 7974 bound_to 7965
  154.4020  140.1545  156.2903 H   0  0  0  0  0  0  0  0  0  0  0  0  # atno 8008 bound_to 7997
  155.8791  140.3445  155.5853 H   0  0  0  0  0  0  0  0  0  0  0  0  # atno 8009 bound_to 7997
  155.7688  140.0827  157.2109 H   0  0  0  0  0  0  0  0  0  0  0  0  # atno 8010 bound_to 7997
  139.4947  144.3912  151.9515 H   0  0  0  0  0  0  0  0  0  0  0  0  # atno 10167 bound_to 10162
  157.6566  130.9649  150.1128 H   0  0  0  0  0  0  0  0  0  0  0  0  # atno 10718 bound_to 10713
  153.5144  135.3611  155.2602 H   0  0  0  0  0  0  0  0  0  0  0  0  # atno 10763 bound_to 10752
  154.8740  135.4030  154.3332 H   0  0  0  0  0  0  0  0  0  0  0  0  # atno 10764 bound_to 10752
  153.3991  135.7074  153.6506 H   0  0  0  0  0  0  0  0  0  0  0  0  # atno 10765 bound_to 10752
  140.2114  134.3751  155.8047 H   0  0  0  0  0  0  0  0  0  0  0  0  # atno 11005 bound_to 11000
  146.2696  140.4843  142.8820 LP  0  0  0  0  0  0  0  0  0  0  0  0  # atno 17320 bound_to 7965
  144.8297  140.6686  143.6299 LP  0  0  0  0  0  0  0  0  0  0  0  0  # atno 17321 bound_to 7965
  140.3349  144.3272  150.5979 LP  0  0  0  0  0  0  0  0  0  0  0  0  # atno 17342 bound_to 10162
  140.5614  143.2191  151.7758 LP  0  0  0  0  0  0  0  0  0  0  0  0  # atno 17343 bound_to 10162
  156.2020  130.3661  149.8776 LP  0  0  0  0  0  0  0  0  0  0  0  0  # atno 17370 bound_to 10713
  156.6678  130.8808  151.3557 LP  0  0  0  0  0  0  0  0  0  0  0  0  # atno 17371 bound_to 10713
  141.2226  133.7145  156.8423 LP  0  0  0  0  0  0  0  0  0  0  0  0  # atno 17394 bound_to 11000
  140.1947  134.8940  157.3101 LP  0  0  0  0  0  0  0  0  0  0  0  0  # atno 17395 bound_to 11000

$$$$
