AV-unprocessed.smi:1247|AV-procd|sdf|5247|dock3
  -GOLD-   22720 4353D 1   1.00000     0.00000
 Structure written by MMmdl.
 47 48  0  0  0  0  0  0  0  0  2 V2000
  151.7126  141.7463  157.7840 C   0  0  0  0  0  0  0  0  0  0  0  0
  151.4597  140.8129  156.6370 C   0  0  0  0  0  0  0  0  0  0  0  0
  150.2738  140.6793  155.8578 C   0  0  0  0  0  0  0  0  0  0  0  0
  150.6060  139.6937  154.9687 C   0  0  0  0  0  0  0  0  0  0  0  0
  149.8530  139.1603  153.9700 N   0  0  0  0  0  0  0  0  0  0  0  0
  148.5287  139.2703  153.7659 C   0  0  0  0  0  0  0  0  0  0  0  0
  147.7377  139.8633  154.4998 O   0  0  0  0  0  0  0  0  0  0  0  0
  148.1558  138.6325  152.6469 N   0  0  0  0  0  0  0  0  0  0  0  0
  146.7881  138.5602  152.1463 C   0  0  0  0  0  0  0  0  0  0  0  0
  145.9391  137.5730  152.9694 C   0  0  0  0  0  0  0  0  0  0  0  0
  146.0364  136.1845  152.4555 N   0  3  1  0  0  0  0  0  0  0  0  0
  145.9197  135.1714  153.5312 C   0  0  0  0  0  0  0  0  0  0  0  0
  146.0919  133.7444  152.9742 C   0  0  2  0  0  0  0  0  0  0  0  0
  147.5453  133.4004  152.6026 C   0  0  0  0  0  0  0  0  0  0  0  0
  145.1904  133.5273  151.8886 O   0  0  0  0  0  0  0  0  0  0  0  0
  145.2983  134.4672  150.8225 C   0  0  1  0  0  0  0  0  0  0  0  0
  144.2641  134.0905  149.7560 C   0  0  0  0  0  0  0  0  0  0  0  0
  145.0739  135.8893  151.3671 C   0  0  0  0  0  0  0  0  0  0  0  0
  151.9013  139.2908  155.2149 N   0  0  0  0  0  0  0  0  0  0  0  0
  152.7117  138.2855  154.5540 C   0  0  0  0  0  0  0  0  0  0  0  0
  152.4220  139.9831  156.2505 N   0  0  0  0  0  0  0  0  0  0  0  0
  150.8842  142.4426  157.9158 H   0  0  0  0  0  0  0  0  0  0  0  0
  152.6164  142.3345  157.6217 H   0  0  0  0  0  0  0  0  0  0  0  0
  151.8348  141.1955  158.7169 H   0  0  0  0  0  0  0  0  0  0  0  0
  149.3485  141.2274  155.9507 H   0  0  0  0  0  0  0  0  0  0  0  0
  150.3632  138.6060  153.2982 H   0  0  0  0  0  0  0  0  0  0  0  0
  148.8680  138.1695  152.1010 H   0  0  0  0  0  0  0  0  0  0  0  0
  146.3517  139.5596  152.1451 H   0  0  0  0  0  0  0  0  0  0  0  0
  146.8254  138.2381  151.1054 H   0  0  0  0  0  0  0  0  0  0  0  0
  146.2967  137.6004  153.9998 H   0  0  0  0  0  0  0  0  0  0  0  0
  144.8923  137.8802  152.9992 H   0  0  0  0  0  0  0  0  0  0  0  0
  146.6626  135.3577  154.3080 H   0  0  0  0  0  0  0  0  0  0  0  0
  144.9401  135.2660  154.0024 H   0  0  0  0  0  0  0  0  0  0  0  0
  145.7944  133.0454  153.7565 H   0  0  0  0  0  0  0  0  0  0  0  0
  148.1894  133.4463  153.4811 H   0  0  0  0  0  0  0  0  0  0  0  0
  147.9591  134.0858  151.8635 H   0  0  0  0  0  0  0  0  0  0  0  0
  147.6144  132.3905  152.1978 H   0  0  0  0  0  0  0  0  0  0  0  0
  146.2881  134.4000  150.3703 H   0  0  0  0  0  0  0  0  0  0  0  0
  144.3048  134.7759  148.9090 H   0  0  0  0  0  0  0  0  0  0  0  0
  143.2518  134.1178  150.1603 H   0  0  0  0  0  0  0  0  0  0  0  0
  144.4439  133.0842  149.3771 H   0  0  0  0  0  0  0  0  0  0  0  0
  144.0548  135.9933  151.7436 H   0  0  0  0  0  0  0  0  0  0  0  0
  145.1867  136.6074  150.5555 H   0  0  0  0  0  0  0  0  0  0  0  0
  152.2109  137.9124  153.6608 H   0  0  0  0  0  0  0  0  0  0  0  0
  152.8877  137.4520  155.2348 H   0  0  0  0  0  0  0  0  0  0  0  0
  153.6702  138.7166  154.2634 H   0  0  0  0  0  0  0  0  0  0  0  0
  146.9646  136.0828  152.0704 H   0  0  0  0  0  0  0  0  0  0  0  0
  1  2  1  0  0  0  0
  1 22  1  0  0  0  0
  1 23  1  0  0  0  0
  1 24  1  0  0  0  0
  2 21  2  0  0  0  0
  2  3  1  0  0  0  0
  3  4  2  0  0  0  0
  3 25  1  0  0  0  0
  4  5  1  0  0  0  0
  4 19  1  0  0  0  0
  5  6  1  0  0  0  0
  5 26  1  0  0  0  0
  6  7  2  0  0  0  0
  6  8  1  0  0  0  0
  8  9  1  0  0  0  0
  8 27  1  0  0  0  0
  9 10  1  0  0  0  0
  9 28  1  0  0  0  0
  9 29  1  0  0  0  0
 10 11  1  0  0  0  0
 10 30  1  0  0  0  0
 10 31  1  0  0  0  0
 11 18  1  0  0  0  0
 11 12  1  0  0  0  0
 11 47  1  0  0  0  0
 12 13  1  0  0  0  0
 12 32  1  0  0  0  0
 12 33  1  0  0  0  0
 13 14  1  0  0  0  0
 13 15  1  0  0  0  0
 13 34  1  0  0  0  0
 14 35  1  0  0  0  0
 14 36  1  0  0  0  0
 14 37  1  0  0  0  0
 15 16  1  0  0  0  0
 16 17  1  0  0  0  0
 16 18  1  0  0  0  0
 16 38  1  0  0  0  0
 17 39  1  0  0  0  0
 17 40  1  0  0  0  0
 17 41  1  0  0  0  0
 18 42  1  0  0  0  0
 18 43  1  0  0  0  0
 19 20  1  0  0  0  0
 19 21  1  0  0  0  0
 20 44  1  0  0  0  0
 20 45  1  0  0  0  0
 20 46  1  0  0  0  0
M  CHG  1  11   1
M  END
> <s_m_source_file>
AV-unprocessed.smi

> <i_m_source_file_index>
1247

> <i_lp_mmshare_version>
43012

> <i_f3d_flags>
0

> <s_epik_input>
W0NIM11jMVtjSF1jKG4objEpW0NIM10pW05IXUMoPU8pW05IXVtDSDJdW0NIMl1OMltDSDJdW0NAQEhdKFtDSDNdKU9bQ0BASF0oW0NIM10pW0NIMl0y

> <s_epik_cmdline>
J2VwaWtfcHl0aG9uJywgJy1waCcsICc3LjAnLCAnLXRuJywgJzgnLCAnLW1hJywgJzIwMCcsICctbWV0YWxfYmluZGluZycsICctaW1hZScsICc8aW5maWxlLm1hZT4nLCAnLW9tYWUnLCAnPG91dGZpbGUubWFlPic=

> <r_lp_tautomer_probability>
1

> <r_epik_Ionization_Penalty>
0.663902

> <r_epik_Ionization_Penalty_Charging>
0.663826

> <r_epik_Ionization_Penalty_Neutral>
7.65444e-05

> <r_epik_State_Penalty>
0.683414

> <r_epik_Charging_Adjusted_Penalty>
1.34724

> <i_epik_Tot_Q>
1

> <i_epik_Tot_abs_Q>
1

> <r_epik_Metal_State_Penalty>
0.683419

> <b_epik_Metal_Only>
0

> <s_lp_Force_Field>
OPLS_2005

> <r_lp_Energy>
19.2404

> <b_lp_Chiralities_Consistent>
1

> <s_lp_Variant>
AV-unprocessed.smi:1247-5

> <Gold.Version>
5.8.1

> <Gold.Id.Protein>
6NUR|6NUR_protein|mol2

> <Gold.PLP.Fitness>
45.6981

> <Gold.PLP.PLP>
-36.5732

> <Gold.PLP.part.hbond>
-4.8682

> <Gold.PLP.part.metal>
0.0000

> <Gold.PLP.part.buried>
2.1704

> <Gold.PLP.part.nonpolar>
-33.3160

> <Gold.PLP.part.repulsive>
0.3800

> <Gold.PLP.ligand.clash>
0.0000

> <Gold.PLP.ligand.torsion>
0.6606

> <Gold.PLP.Chemscore.Hbond>
3.4708

> <Gold.PLP.Chemscore.CHOScore>
0.0000

> <Gold.PLP.Chemscore.Metal>
0.0000

> <Gold.Chemscore.Hbonds>
donor molecule, donor type, donor heavy atom, donor atom, acceptor molecule, acceptor atom, score
      L1  H     8    27       P1  7948  0.51
      L1  H    11    47       P1  7948  2.00
      P1  H  7997  8009       L1    21  1.00

> <Gold.PLP.Chemscore.Internal.Correction>
0.0339

> <Gold.Rescore>
     Score         DG    S(hbond)    S(metal)    S(lipo)     H(rot)  DE(clash)    DE(int)     intcor
     15.80     -17.92       2.48        0.00      68.93       1.52       0.38       1.75       ----

> <Gold.Chemscore.Fitness>
15.7967

> <Gold.Chemscore.DG>
-17.9222

> <Gold.Chemscore.ZeroCoef>
-5.4800

> <Gold.Chemscore.Hbond>
2.4772

> <Gold.Chemscore.Metal>
0.0000

> <Gold.Chemscore.Lipo>
68.9314

> <Gold.Chemscore.Internal_Hbond>
0.0000

> <Gold.Chemscore.DEClash>
0.3805

> <Gold.Chemscore.DEInternal>
1.7450

> <Gold.Chemscore.Rot>
1.5221

> <Gold.Chemscore.Internal.Correction>
   9.000000E+99

> <Gold.Chemscore.Hbonds>
donor molecule, donor type, donor heavy atom, donor atom, acceptor molecule, acceptor atom, score
      L1  H     8    27       P1  7948  0.48
      L1  H    11    47       P1  7948  0.97
      P1  H  7997  8009       L1    21  0.95

> <Gold.Chemscore.Hbond.Weighted>
-8.2739

> <Gold.Chemscore.Metal.Weighted>
-0.0000

> <Gold.Chemscore.Lipo.Weighted>
-8.0650

> <Gold.Chemscore.Internal_Hbond.Weighted>
0.0000

> <Gold.Chemscore.DEClash.Weighted>
0.3805

> <Gold.Chemscore.DEInternal.Weighted>
1.7450

> <Gold.Chemscore.Rot.Weighted>
3.8967

> <Gold.Chemscore.Internal.Correction.Weighted>
   9.000000E+99

> <Gold.Protein.RotatedTorsions>
[ 6907 6896 6895 6894 ] final   97.54 input  -60.11 | X-H torsion
[ 7974 7965 7964 7962 ] final  114.35 input  175.53 | X-H torsion
[ 8008 7997 7996 7995 ] final -173.97 input   59.86 | X-H torsion
[ 10167 10162 10161 10158 ] final -132.65 input  -65.29 | X-H torsion
[ 10718 10713 10712 10709 ] final  -57.86 input   66.30 | X-H torsion
[ 10763 10752 10751 10750 ] final  -14.88 input  -60.55 | X-H torsion
[ 11005 11000 10999 10996 ] final -139.82 input  -57.11 | X-H torsion

> <Gold.Protein.ActiveResidues>
 VAL166  LYS551  ARG553  GLY616  TRP617  ASP618  TYR619  PRO620  LYS621  CYS622 
 ASP623  PHE694  ASN695  SER759  ASP760  ASP761  ALA762  ILE779  LEU786  VAL792 
 PHE793  MET794  SER795  GLU796  ALA797  LYS798  CYS799  TRP800  GLU811  SER814 

> <Gold.Protein.RotatedAtoms>
  152.5422  134.0718  159.8197 H   0  0  0  0  0  0  0  0  0  0  0  0  # atno 6907 bound_to 6896
  151.0832  133.5366  159.2626 H   0  0  0  0  0  0  0  0  0  0  0  0  # atno 6908 bound_to 6896
  151.2186  135.0518  159.8994 H   0  0  0  0  0  0  0  0  0  0  0  0  # atno 6909 bound_to 6896
  145.2056  139.2931  143.4295 H   0  0  0  0  0  0  0  0  0  0  0  0  # atno 7974 bound_to 7965
  155.9642  140.1150  157.0869 H   0  0  0  0  0  0  0  0  0  0  0  0  # atno 8008 bound_to 7997
  154.4140  140.1176  156.5287 H   0  0  0  0  0  0  0  0  0  0  0  0  # atno 8009 bound_to 7997
  155.6680  140.3473  155.4810 H   0  0  0  0  0  0  0  0  0  0  0  0  # atno 8010 bound_to 7997
  139.9063  143.6547  152.2584 H   0  0  0  0  0  0  0  0  0  0  0  0  # atno 10167 bound_to 10162
  156.1179  130.4169  150.0498 H   0  0  0  0  0  0  0  0  0  0  0  0  # atno 10718 bound_to 10713
  153.5349  135.7014  153.5665 H   0  0  0  0  0  0  0  0  0  0  0  0  # atno 10763 bound_to 10752
  153.3656  135.3958  155.1751 H   0  0  0  0  0  0  0  0  0  0  0  0  # atno 10764 bound_to 10752
  154.8680  135.3799  154.4848 H   0  0  0  0  0  0  0  0  0  0  0  0  # atno 10765 bound_to 10752
  140.8483  134.2317  157.4774 H   0  0  0  0  0  0  0  0  0  0  0  0  # atno 11005 bound_to 11000
  146.3408  140.2314  142.8593 LP  0  0  0  0  0  0  0  0  0  0  0  0  # atno 17320 bound_to 7965
  144.9906  140.8543  143.5342 LP  0  0  0  0  0  0  0  0  0  0  0  0  # atno 17321 bound_to 7965
  139.6981  144.7638  151.1321 LP  0  0  0  0  0  0  0  0  0  0  0  0  # atno 17342 bound_to 10162
  140.7695  143.5496  150.9220 LP  0  0  0  0  0  0  0  0  0  0  0  0  # atno 17343 bound_to 10162
  156.8444  130.9437  151.3630 LP  0  0  0  0  0  0  0  0  0  0  0  0  # atno 17370 bound_to 10713
  157.6362  130.8769  149.9364 LP  0  0  0  0  0  0  0  0  0  0  0  0  # atno 17371 bound_to 10713
  139.8704  134.9670  156.4583 LP  0  0  0  0  0  0  0  0  0  0  0  0  # atno 17394 bound_to 11000
  140.8819  133.7912  155.9475 LP  0  0  0  0  0  0  0  0  0  0  0  0  # atno 17395 bound_to 11000

$$$$
