#       Name:                AV-unprocessed.smi:3065
#       Creating user name   scv26
#       Creation time:       Fri Mar 27 17:09:41 2020


#       File generated by GOLD software.
#

@<TRIPOS>MOLECULE
AV-unprocessed.smi:3065
    26    27     1
SMALL
NO_CHARGES


@<TRIPOS>ATOM
      1 ****        -3.4007   0.4021   1.5312 C.2            1 S1                 0.0000
      2 ****        -3.6458  -0.9117   1.2471 N.2            1 S1                 0.0000
      3 ****        -2.4001  -1.3525   1.1415 C.2            1 S1                 0.0000
      4 ****        -1.4773  -0.4088   1.3352 N.pl3          1 S1                 0.0000
      5 ****        -0.0287  -0.4838   1.2979 C.3            1 S1                 0.0000
      6 ****         0.5222  -0.4303  -0.1387 C.3            1 S1                 0.0000
      7 ****         0.0987   0.7973  -0.9526 C.3            1 S1                 0.0000
      8 ****         1.1963   0.9014  -2.0043 C.3            1 S1                 0.0000
      9 ****         2.4527   0.4658  -1.2470 C.3            1 S1                 0.0000
     10 ****         1.9989  -0.4295  -0.1633 N.4            1 S1                 1.0000
     11 ****        -2.1166   0.7558   1.5942 N.2            1 S1                 0.0000
     12 ****        -4.1917   1.1194   1.6946 H              1 S1                 0.0000
     13 ****        -2.1570  -2.3805   0.9154 H              1 S1                 0.0000
     14 ****         0.3791   0.3360   1.8920 H              1 S1                 0.0000
     15 ****         0.2790  -1.4084   1.7879 H              1 S1                 0.0000
     16 ****         0.1998  -1.3216  -0.6794 H              1 S1                 0.0000
     17 ****        -0.8964   0.6959  -1.3875 H              1 S1                 0.0000
     18 ****         0.1034   1.6904  -0.3256 H              1 S1                 0.0000
     19 ****         0.9933   0.2046  -2.8190 H              1 S1                 0.0000
     20 ****         1.2836   1.9013  -2.4305 H              1 S1                 0.0000
     21 ****         3.1755  -0.0289  -1.8963 H              1 S1                 0.0000
     22 ****         2.9415   1.3303  -0.7961 H              1 S1                 0.0000
     23 ****         2.3507  -0.0753   0.7148 H              1 S1                 0.0000
     24 ****         2.3401  -1.3687  -0.3109 H              1 S1                 0.0000
     25 ****        -4.5132  -1.3993   1.1477 LP             1 S1                 0.0000
     26 ****        -1.7244   1.6557   1.7849 LP             1 S1                 0.0000
@<TRIPOS>BOND
    1    1   11 2     
    2    1    2 1     
    3    1   12 1     
    4    2    3 2     
    5    3    4 1     
    6    3   13 1     
    7    4    5 1     
    8    4   11 1     
    9    5    6 1     
   10    5   14 1     
   11    5   15 1     
   12    6   10 1     
   13    6    7 1     
   14    6   16 1     
   15    7    8 1     
   16    7   17 1     
   17    7   18 1     
   18    8    9 1     
   19    8   19 1     
   20    8   20 1     
   21    9   10 1     
   22    9   21 1     
   23    9   22 1     
   24   10   23 1     
   25   10   24 1     
   26    2   25 1     
   27   11   26 1     
@<TRIPOS>SUBSTRUCTURE
      1 S1             1
@<TRIPOS>SET
LONE_PAIRS      STATIC     ATOMS    <user>   **** ""
2 25 26
DONOR_HYDROGENS      STATIC     ATOMS    <user>   **** ""
2 23 24
ATOM$BLUE        STATIC     ATOMS    COLORGROUP SYSTEM
2 25 26
ATOM$RED        STATIC     ATOMS    COLORGROUP SYSTEM
2 23 24
