AV-unprocessed.smi:1731|AV-procd|sdf|6974|dock4
  -GOLD-   22720 8183D 1   1.00000     0.00000
 Structure written by MMmdl.
 41 42  0  0  0  0  0  0  0  0  1 V2000
  146.5650  138.3333  151.7558 C   0  0  0  0  0  0  0  0  0  0  0  0
  147.0364  139.2935  152.8569 C   0  0  2  0  0  0  0  0  0  0  0  0
  147.3090  140.7026  152.2973 C   0  0  0  0  0  0  0  0  0  0  0  0
  147.7813  141.6674  153.3964 C   0  0  0  0  0  0  0  0  0  0  0  0
  149.0253  141.1258  154.1289 C   0  0  1  0  0  0  0  0  0  0  0  0
  149.4050  142.0180  155.2204 N   0  0  0  0  0  0  0  0  0  0  0  0
  150.3644  141.7720  156.1241 C   0  0  0  0  0  0  0  0  0  0  0  0
  151.0338  140.7387  156.1441 O   0  0  0  0  0  0  0  0  0  0  0  0
  150.4972  142.7943  156.9852 N   0  0  0  0  0  0  0  0  0  0  0  0
  151.4153  142.8994  158.0603 C   0  0  0  0  0  0  0  0  0  0  0  0
  152.0511  144.1004  158.4687 C   0  0  0  0  0  0  0  0  0  0  0  0
  152.8546  143.8903  159.5001 N   0  0  0  0  0  0  0  0  0  0  0  0
  152.7480  142.5644  159.7666 N   0  0  0  0  0  0  0  0  0  0  0  0
  153.5093  141.9861  160.8599 C   0  0  0  0  0  0  0  0  0  0  0  0
  154.2838  140.7494  160.3998 C   0  0  0  0  0  0  0  0  0  0  0  0
  155.1532  140.2174  161.2630 N   0  0  0  0  0  0  0  0  0  0  0  0
  154.0968  140.2772  159.2807 O   0  0  0  0  0  0  0  0  0  0  0  0
  151.8720  141.9296  158.9071 C   0  0  0  0  0  0  0  0  0  0  0  0
  148.7583  139.7146  154.6838 C   0  0  0  0  0  0  0  0  0  0  0  0
  148.2855  138.7548  153.5799 C   0  0  0  0  0  0  0  0  0  0  0  0
  147.3228  138.2156  150.9807 H   0  0  0  0  0  0  0  0  0  0  0  0
  145.6552  138.6995  151.2793 H   0  0  0  0  0  0  0  0  0  0  0  0
  146.3486  137.3453  152.1627 H   0  0  0  0  0  0  0  0  0  0  0  0
  146.2317  139.3724  153.5896 H   0  0  0  0  0  0  0  0  0  0  0  0
  148.0659  140.6486  151.5134 H   0  0  0  0  0  0  0  0  0  0  0  0
  146.4076  141.0987  151.8283 H   0  0  0  0  0  0  0  0  0  0  0  0
  147.9973  142.6417  152.9565 H   0  0  0  0  0  0  0  0  0  0  0  0
  146.9709  141.8247  154.1099 H   0  0  0  0  0  0  0  0  0  0  0  0
  149.8522  141.0584  153.4190 H   0  0  0  0  0  0  0  0  0  0  0  0
  148.9069  142.8938  155.2836 H   0  0  0  0  0  0  0  0  0  0  0  0
  149.8883  143.5876  156.8477 H   0  0  0  0  0  0  0  0  0  0  0  0
  151.9603  145.0959  158.0598 H   0  0  0  0  0  0  0  0  0  0  0  0
  154.2063  142.7273  161.2541 H   0  0  0  0  0  0  0  0  0  0  0  0
  152.8222  141.7317  161.6682 H   0  0  0  0  0  0  0  0  0  0  0  0
  155.6892  139.4022  161.0037 H   0  0  0  0  0  0  0  0  0  0  0  0
  155.2727  140.6360  162.1742 H   0  0  0  0  0  0  0  0  0  0  0  0
  151.6648  140.8721  158.9785 H   0  0  0  0  0  0  0  0  0  0  0  0
  149.6621  139.3194  155.1493 H   0  0  0  0  0  0  0  0  0  0  0  0
  148.0019  139.7612  155.4687 H   0  0  0  0  0  0  0  0  0  0  0  0
  148.0729  137.7771  154.0135 H   0  0  0  0  0  0  0  0  0  0  0  0
  149.0920  138.6040  152.8605 H   0  0  0  0  0  0  0  0  0  0  0  0
  1  2  1  0  0  0  0
  1 21  1  0  0  0  0
  1 22  1  0  0  0  0
  1 23  1  0  0  0  0
  2 20  1  0  0  0  0
  2  3  1  0  0  0  0
  2 24  1  0  0  0  0
  3  4  1  0  0  0  0
  3 25  1  0  0  0  0
  3 26  1  0  0  0  0
  4  5  1  0  0  0  0
  4 27  1  0  0  0  0
  4 28  1  0  0  0  0
  5  6  1  0  0  0  0
  5 19  1  0  0  0  0
  5 29  1  0  0  0  0
  6  7  1  0  0  0  0
  6 30  1  0  0  0  0
  7  8  2  0  0  0  0
  7  9  1  0  0  0  0
  9 10  1  0  0  0  0
  9 31  1  0  0  0  0
 10 18  2  0  0  0  0
 10 11  1  0  0  0  0
 11 12  2  0  0  0  0
 11 32  1  0  0  0  0
 12 13  1  0  0  0  0
 13 14  1  0  0  0  0
 13 18  1  0  0  0  0
 14 15  1  0  0  0  0
 14 33  1  0  0  0  0
 14 34  1  0  0  0  0
 15 16  1  0  0  0  0
 15 17  2  0  0  0  0
 16 35  1  0  0  0  0
 16 36  1  0  0  0  0
 18 37  1  0  0  0  0
 19 20  1  0  0  0  0
 19 38  1  0  0  0  0
 19 39  1  0  0  0  0
 20 40  1  0  0  0  0
 20 41  1  0  0  0  0
M  END
> <s_m_source_file>
AV-unprocessed.smi

> <i_m_source_file_index>
1731

> <i_lp_mmshare_version>
43012

> <i_f3d_flags>
0

> <s_epik_input>
W0NIM11bQ0BASF0xW0NIMl1bQ0gyXVtDQEhdKFtDSDJdW0NIMl0xKVtOSF1DKD1PKVtOSF1jMltjSF1ubihbY0hdMilbQ0gyXUMoPU8pW05IMl0=

> <s_epik_cmdline>
J2VwaWtfcHl0aG9uJywgJy1waCcsICc3LjAnLCAnLXRuJywgJzgnLCAnLW1hJywgJzIwMCcsICctbWV0YWxfYmluZGluZycsICctaW1hZScsICc8aW5maWxlLm1hZT4nLCAnLW9tYWUnLCAnPG91dGZpbGUubWFlPic=

> <r_lp_tautomer_probability>
1

> <r_epik_Ionization_Penalty>
4.81284e-05

> <r_epik_Ionization_Penalty_Charging>
0

> <r_epik_Ionization_Penalty_Neutral>
4.81284e-05

> <r_epik_State_Penalty>
-0

> <r_epik_Charging_Adjusted_Penalty>
0

> <i_epik_Tot_Q>
0

> <i_epik_Tot_abs_Q>
0

> <r_epik_Metal_State_Penalty>
-0

> <b_epik_Metal_Only>
0

> <s_lp_Force_Field>
OPLS_2005

> <r_lp_Energy>
12.4361

> <b_lp_Chiralities_Consistent>
1

> <s_lp_Variant>
AV-unprocessed.smi:1731-1

> <Gold.Version>
5.8.1

> <Gold.Id.Protein>
6NUR|6NUR_protein|mol2

> <Gold.PLP.Fitness>
48.7470

> <Gold.PLP.PLP>
-41.0799

> <Gold.PLP.part.hbond>
-3.2631

> <Gold.PLP.part.metal>
0.0000

> <Gold.PLP.part.buried>
-3.3862

> <Gold.PLP.part.nonpolar>
-35.1979

> <Gold.PLP.part.repulsive>
0.2342

> <Gold.PLP.ligand.clash>
0.0000

> <Gold.PLP.ligand.torsion>
0.4651

> <Gold.PLP.Chemscore.Hbond>
2.8643

> <Gold.PLP.Chemscore.CHOScore>
0.0000

> <Gold.PLP.Chemscore.Metal>
0.0000

> <Gold.Chemscore.Hbonds>
donor molecule, donor type, donor heavy atom, donor atom, acceptor molecule, acceptor atom, score
      L1  H     6    30       P1  8028  1.00
      L1  H     9    31       P1  8028  1.00
      P1  H  7997  8008       L1    17  0.57

> <Gold.PLP.Chemscore.Internal.Correction>
0.0045

> <Gold.Rescore>
     Score         DG    S(hbond)    S(metal)    S(lipo)     H(rot)  DE(clash)    DE(int)     intcor
     16.41     -19.60       2.49        0.00      91.23       1.90       1.36       1.82       ----

> <Gold.Chemscore.Fitness>
16.4119

> <Gold.Chemscore.DG>
-19.5986

> <Gold.Chemscore.ZeroCoef>
-5.4800

> <Gold.Chemscore.Hbond>
2.4899

> <Gold.Chemscore.Metal>
0.0000

> <Gold.Chemscore.Lipo>
91.2281

> <Gold.Chemscore.Internal_Hbond>
0.0000

> <Gold.Chemscore.DEClash>
1.3620

> <Gold.Chemscore.DEInternal>
1.8247

> <Gold.Chemscore.Rot>
1.9029

> <Gold.Chemscore.Internal.Correction>
   9.000000E+99

> <Gold.Chemscore.Hbonds>
donor molecule, donor type, donor heavy atom, donor atom, acceptor molecule, acceptor atom, score
      L1  H     6    30       P1  8028  0.95
      L1  H     9    31       P1  8028  0.94
      P1  H  7997  8008       L1    17  0.55

> <Gold.Chemscore.Hbond.Weighted>
-8.3163

> <Gold.Chemscore.Metal.Weighted>
-0.0000

> <Gold.Chemscore.Lipo.Weighted>
-10.6737

> <Gold.Chemscore.Internal_Hbond.Weighted>
0.0000

> <Gold.Chemscore.DEClash.Weighted>
1.3620

> <Gold.Chemscore.DEInternal.Weighted>
1.8247

> <Gold.Chemscore.Rot.Weighted>
4.8714

> <Gold.Chemscore.Internal.Correction.Weighted>
   9.000000E+99

> <Gold.Protein.RotatedTorsions>
[ 6907 6896 6895 6894 ] final   72.19 input  -60.11 | X-H torsion
[ 7974 7965 7964 7962 ] final  -11.28 input  175.53 | X-H torsion
[ 8008 7997 7996 7995 ] final -111.95 input   59.86 | X-H torsion
[ 10167 10162 10161 10158 ] final -138.59 input  -65.29 | X-H torsion
[ 10718 10713 10712 10709 ] final  122.15 input   66.30 | X-H torsion
[ 10763 10752 10751 10750 ] final -148.10 input  -60.55 | X-H torsion
[ 11005 11000 10999 10996 ] final   65.74 input  -57.11 | X-H torsion

> <Gold.Protein.ActiveResidues>
 VAL166  LYS551  ARG553  GLY616  TRP617  ASP618  TYR619  PRO620  LYS621  CYS622 
 ASP623  PHE694  ASN695  SER759  ASP760  ASP761  ALA762  ILE779  LEU786  VAL792 
 PHE793  MET794  SER795  GLU796  ALA797  LYS798  CYS799  TRP800  GLU811  SER814 

> <Gold.Protein.RotatedAtoms>
  152.4854  134.4608  159.9604 H   0  0  0  0  0  0  0  0  0  0  0  0  # atno 6907 bound_to 6896
  151.4605  133.3588  159.2816 H   0  0  0  0  0  0  0  0  0  0  0  0  # atno 6908 bound_to 6896
  150.8960  134.8393  159.7387 H   0  0  0  0  0  0  0  0  0  0  0  0  # atno 6909 bound_to 6896
  146.2192  140.2888  142.8367 H   0  0  0  0  0  0  0  0  0  0  0  0  # atno 7974 bound_to 7965
  154.9977  140.0394  157.2347 H   0  0  0  0  0  0  0  0  0  0  0  0  # atno 8008 bound_to 7997
  154.7571  140.2777  155.6221 H   0  0  0  0  0  0  0  0  0  0  0  0  # atno 8009 bound_to 7997
  156.2897  140.2635  156.2340 H   0  0  0  0  0  0  0  0  0  0  0  0  # atno 8010 bound_to 7997
  139.8463  143.7256  152.2660 H   0  0  0  0  0  0  0  0  0  0  0  0  # atno 10167 bound_to 10162
  157.5764  131.1079  150.8271 H   0  0  0  0  0  0  0  0  0  0  0  0  # atno 10718 bound_to 10713
  154.8251  135.3343  154.6921 H   0  0  0  0  0  0  0  0  0  0  0  0  # atno 10763 bound_to 10752
  153.7548  135.6937  153.4942 H   0  0  0  0  0  0  0  0  0  0  0  0  # atno 10764 bound_to 10752
  153.2151  135.4468  155.0375 H   0  0  0  0  0  0  0  0  0  0  0  0  # atno 10765 bound_to 10752
  139.9876  134.6644  156.0149 H   0  0  0  0  0  0  0  0  0  0  0  0  # atno 11005 bound_to 11000
  144.9142  140.7793  143.5788 LP  0  0  0  0  0  0  0  0  0  0  0  0  # atno 17320 bound_to 7965
  145.2821  139.1914  143.4785 LP  0  0  0  0  0  0  0  0  0  0  0  0  # atno 17321 bound_to 7965
  139.7509  144.7534  151.0508 LP  0  0  0  0  0  0  0  0  0  0  0  0  # atno 17342 bound_to 10162
  140.7792  143.4861  150.9954 LP  0  0  0  0  0  0  0  0  0  0  0  0  # atno 17343 bound_to 10162
  156.8729  130.5152  149.5295 LP  0  0  0  0  0  0  0  0  0  0  0  0  # atno 17370 bound_to 10713
  156.0809  130.5819  150.9560 LP  0  0  0  0  0  0  0  0  0  0  0  0  # atno 17371 bound_to 10713
  141.1538  133.6545  156.4095 LP  0  0  0  0  0  0  0  0  0  0  0  0  # atno 17394 bound_to 11000
  140.4972  134.6519  157.5234 LP  0  0  0  0  0  0  0  0  0  0  0  0  # atno 17395 bound_to 11000

$$$$
