#       Name:                AV-unprocessed.smi:203
#       Creating user name   scv26
#       Creation time:       Thu Mar 26 19:49:52 2020


#       File generated by GOLD software.
#

@<TRIPOS>MOLECULE
AV-unprocessed.smi:203
    67    71     1
SMALL
NO_CHARGES


@<TRIPOS>ATOM
      1 ****        -5.1349  -0.3520  -3.9859 O.2            1 S1                 0.0000
      2 ****        -4.4338   0.1441  -3.1072 C.2            1 S1                 0.0000
      3 ****        -3.2942  -0.5943  -2.4261 C.3            1 S1                 0.0000
      4 ****        -2.9034   0.3356  -1.2606 C.3            1 S1                 0.0000
      5 ****        -3.2558  -0.2338   0.1510 C.3            1 S1                 0.0000
      6 ****        -4.7707  -0.5244   0.3200 C.3            1 S1                 0.0000
      7 ****        -5.0926  -1.0798   1.7135 C.3            1 S1                 0.0000
      8 ****        -4.5827  -0.1151   2.7889 C.3            1 S1                 0.0000
      9 ****        -3.0819   0.1438   2.6033 C.3            1 S1                 0.0000
     10 ****        -2.7866   0.6252   1.2539 N.3            1 S1                 0.0000
     11 ****        -1.5055   1.0502   1.1788 C.ar           1 S1                 0.0000
     12 ****        -1.2968   2.3896   1.1683 N.ar           1 S1                 0.0000
     13 ****        -0.0525   2.8698   1.0818 C.ar           1 S1                 0.0000
     14 ****         1.0986   2.1982   1.0006 N.ar           1 S1                 0.0000
     15 ****         0.8897   0.8505   1.0204 C.ar           1 S1                 0.0000
     16 ****        -0.3700   0.1947   1.1087 C.ar           1 S1                 0.0000
     17 ****        -0.1897  -1.1833   1.1027 N.2            1 S1                 0.0000
     18 ****         1.1034  -1.3340   1.0112 C.2            1 S1                 0.0000
     19 ****         1.8271  -0.1648   0.9530 N.pl3          1 S1                 0.0000
     20 ****         3.2707  -0.0455   0.8452 C.3            1 S1                 0.0000
     21 ****         3.7754  -0.2933  -0.5927 C.3            1 S1                 0.0000
     22 ****         3.1694   0.6627  -1.4419 O.3            1 S1                 0.0000
     23 ****         5.3039  -0.1467  -0.7332 C.3            1 S1                 0.0000
     24 ****         6.1232  -0.9653   0.2669 C.3            1 S1                 0.0000
     25 ****         7.4614  -1.1473  -0.4297 C.3            1 S1                 0.0000
     26 ****         7.1489  -0.8658  -1.9011 C.3            1 S1                 0.0000
     27 ****         5.7366  -0.7187  -1.9592 O.3            1 S1                 0.0000
     28 ****        -3.5892   1.6829  -1.5815 C.3            1 S1                 0.0000
     29 ****        -4.5509   1.3784  -2.6228 N.am           1 S1                 0.0000
     30 ****        -3.5919  -1.5925  -2.1051 H              1 S1                 0.0000
     31 ****        -2.4719  -0.7016  -3.1343 H              1 S1                 0.0000
     32 ****        -1.8240   0.4760  -1.3264 H              1 S1                 0.0000
     33 ****        -2.7391  -1.1887   0.2522 H              1 S1                 0.0000
     34 ****        -5.3507   0.3852   0.1639 H              1 S1                 0.0000
     35 ****        -5.1155  -1.2373  -0.4283 H              1 S1                 0.0000
     36 ****        -6.1674  -1.2295   1.8207 H              1 S1                 0.0000
     37 ****        -4.6251  -2.0571   1.8399 H              1 S1                 0.0000
     38 ****        -5.1292   0.8271   2.7291 H              1 S1                 0.0000
     39 ****        -4.7719  -0.5238   3.7818 H              1 S1                 0.0000
     40 ****        -2.7463   0.8743   3.3411 H              1 S1                 0.0000
     41 ****        -2.5252  -0.7755   2.7906 H              1 S1                 0.0000
     42 ****         0.0333   3.9464   1.0752 H              1 S1                 0.0000
     43 ****         1.5684  -2.3086   0.9800 H              1 S1                 0.0000
     44 ****         3.5708   0.9446   1.1907 H              1 S1                 0.0000
     45 ****         3.7120  -0.7625   1.5377 H              1 S1                 0.0000
     46 ****         3.4723  -1.2911  -0.9128 H              1 S1                 0.0000
     47 ****         2.2312   0.5836  -1.3618 H              1 S1                 0.0000
     48 ****         5.6052   0.9020  -0.6846 H              1 S1                 0.0000
     49 ****         6.2173  -0.4780   1.2378 H              1 S1                 0.0000
     50 ****         5.6601  -1.9409   0.4220 H              1 S1                 0.0000
     51 ****         8.2008  -0.4382  -0.0556 H              1 S1                 0.0000
     52 ****         7.8527  -2.1539  -0.2779 H              1 S1                 0.0000
     53 ****         7.6217   0.0629  -2.2233 H              1 S1                 0.0000
     54 ****         7.4840  -1.6668  -2.5604 H              1 S1                 0.0000
     55 ****        -4.0774   2.1359  -0.7185 H              1 S1                 0.0000
     56 ****        -2.8669   2.4033  -1.9668 H              1 S1                 0.0000
     57 ****        -5.2434   2.0442  -2.9337 H              1 S1                 0.0000
     58 ****        -5.8700   0.1839  -4.4011 LP             1 S1                 0.0000
     59 ****        -4.9704  -1.2917  -4.2858 LP             1 S1                 0.0000
     60 ****        -3.3613   1.4278   1.0940 LP             1 S1                 0.0000
     61 ****        -2.0729   3.0176   1.2252 LP             1 S1                 0.0000
     62 ****         1.9989   2.6283   0.9338 LP             1 S1                 0.0000
     63 ****        -0.8897  -1.8955   1.1562 LP             1 S1                 0.0000
     64 ****         3.4424   0.4936  -2.3889 LP             1 S1                 0.0000
     65 ****         3.4545   1.5824  -1.1719 LP             1 S1                 0.0000
     66 ****         5.4889  -0.1185  -2.7198 LP             1 S1                 0.0000
     67 ****         5.3072  -1.6128  -2.0867 LP             1 S1                 0.0000
@<TRIPOS>BOND
    1    1    2 2     
    2    2   29 am    
    3    2    3 1     
    4    3    4 1     
    5    3   30 1     
    6    3   31 1     
    7    4    5 1     
    8    4   28 1     
    9    4   32 1     
   10    5   10 1     
   11    5    6 1     
   12    5   33 1     
   13    6    7 1     
   14    6   34 1     
   15    6   35 1     
   16    7    8 1     
   17    7   36 1     
   18    7   37 1     
   19    8    9 1     
   20    8   38 1     
   21    8   39 1     
   22    9   10 1     
   23    9   40 1     
   24    9   41 1     
   25   10   11 1     
   26   11   16 ar    
   27   11   12 ar    
   28   12   13 ar    
   29   13   14 ar    
   30   13   42 1     
   31   14   15 ar    
   32   15   19 1     
   33   15   16 ar    
   34   16   17 1     
   35   17   18 2     
   36   18   19 1     
   37   18   43 1     
   38   19   20 1     
   39   20   21 1     
   40   20   44 1     
   41   20   45 1     
   42   21   22 1     
   43   21   23 1     
   44   21   46 1     
   45   22   47 1     
   46   23   27 1     
   47   23   24 1     
   48   23   48 1     
   49   24   25 1     
   50   24   49 1     
   51   24   50 1     
   52   25   26 1     
   53   25   51 1     
   54   25   52 1     
   55   26   27 1     
   56   26   53 1     
   57   26   54 1     
   58   28   29 1     
   59   28   55 1     
   60   28   56 1     
   61   29   57 1     
   62    1   58 1     
   63    1   59 1     
   64   10   60 1     
   65   12   61 1     
   66   14   62 1     
   67   17   63 1     
   68   22   64 1     
   69   22   65 1     
   70   27   66 1     
   71   27   67 1     
@<TRIPOS>SUBSTRUCTURE
      1 S1             1
@<TRIPOS>SET
LONE_PAIRS      STATIC     ATOMS    <user>   **** ""
10 58 59 60 61 62 63 64 65 66 67
DONOR_HYDROGENS      STATIC     ATOMS    <user>   **** ""
2 47 57
ATOM$BLUE        STATIC     ATOMS    COLORGROUP SYSTEM
10 58 59 60 61 62 63 64 65 66 67
ATOM$RED        STATIC     ATOMS    COLORGROUP SYSTEM
2 47 57
