AV-unprocessed.smi:720|AV-procd|sdf|3499|dock4
  -GOLD-   22720 0493D 1   1.00000     0.00000
 Structure written by MMmdl.
 46 48  0  0  0  0  0  0  0  0  1 V2000
  151.8179  139.9375  158.5438 C   0  0  0  0  0  0  0  0  0  0  0  0
  151.5366  140.8873  157.4734 N   0  0  0  0  0  0  0  0  0  0  0  0
  151.1294  142.1461  158.0842 C   0  0  0  0  0  0  0  0  0  0  0  0
  150.4647  140.4208  156.5916 C   0  0  0  0  0  0  0  0  0  0  0  0
  150.0794  141.4339  155.4922 C   0  0  0  0  0  0  0  0  0  0  0  0
  148.9803  140.9903  154.6523 N   0  0  0  0  0  0  0  0  0  0  0  0
  147.8658  141.6996  154.2505 C   0  0  0  0  0  0  0  0  0  0  0  0
  147.1172  140.8772  153.4576 C   0  0  0  0  0  0  0  0  0  0  0  0
  147.8799  139.6715  153.4280 C   0  0  0  0  0  0  0  0  0  0  0  0
  147.5397  138.4839  152.7325 N   0  0  0  0  0  0  0  0  0  0  0  0
  146.3166  138.0082  152.4303 C   0  0  0  0  0  0  0  0  0  0  0  0
  145.2581  138.5784  152.6866 O   0  0  0  0  0  0  0  0  0  0  0  0
  146.3306  136.8140  151.8115 N   0  0  0  0  0  0  0  0  0  0  0  0
  145.1849  136.0243  151.3499 C   0  0  2  0  0  0  0  0  0  0  0  0
  144.2497  135.6630  152.5251 C   0  0  0  0  0  0  0  0  0  0  0  0
  144.2107  134.1242  152.4816 C   0  0  2  0  0  0  0  0  0  0  0  0
  145.5661  133.5588  152.9477 C   0  0  0  0  0  0  0  0  0  0  0  0
  146.4921  133.8653  151.7556 C   0  0  0  0  0  0  0  0  0  0  0  0
  145.5574  134.6255  150.7908 C   0  0  1  0  0  0  0  0  0  0  0  0
  144.2541  133.8573  150.9834 C   0  0  0  0  0  0  0  0  0  0  0  0
  149.0008  139.7472  154.1239 N   0  0  0  0  0  0  0  0  0  0  0  0
  152.2402  139.0141  158.1529 H   0  0  0  0  0  0  0  0  0  0  0  0
  150.9170  139.6941  159.1088 H   0  0  0  0  0  0  0  0  0  0  0  0
  152.5525  140.3492  159.2369 H   0  0  0  0  0  0  0  0  0  0  0  0
  150.9441  142.9031  157.3215 H   0  0  0  0  0  0  0  0  0  0  0  0
  151.9142  142.5274  158.7388 H   0  0  0  0  0  0  0  0  0  0  0  0
  150.2198  142.0257  158.6749 H   0  0  0  0  0  0  0  0  0  0  0  0
  150.7022  139.4427  156.1705 H   0  0  0  0  0  0  0  0  0  0  0  0
  149.5754  140.2752  157.2066 H   0  0  0  0  0  0  0  0  0  0  0  0
  149.7624  142.3650  155.9629 H   0  0  0  0  0  0  0  0  0  0  0  0
  150.9443  141.6831  154.8746 H   0  0  0  0  0  0  0  0  0  0  0  0
  147.6972  142.7198  154.5624 H   0  0  0  0  0  0  0  0  0  0  0  0
  146.1788  141.1169  152.9810 H   0  0  0  0  0  0  0  0  0  0  0  0
  148.3198  137.8969  152.4755 H   0  0  0  0  0  0  0  0  0  0  0  0
  147.2389  136.4046  151.6465 H   0  0  0  0  0  0  0  0  0  0  0  0
  144.6203  136.5905  150.6068 H   0  0  0  0  0  0  0  0  0  0  0  0
  144.6015  136.0333  153.4892 H   0  0  0  0  0  0  0  0  0  0  0  0
  143.2548  136.0778  152.3585 H   0  0  0  0  0  0  0  0  0  0  0  0
  143.3547  133.6947  153.0027 H   0  0  0  0  0  0  0  0  0  0  0  0
  145.9106  134.0247  153.8716 H   0  0  0  0  0  0  0  0  0  0  0  0
  145.5041  132.4833  153.1174 H   0  0  0  0  0  0  0  0  0  0  0  0
  147.3779  134.4310  152.0440 H   0  0  0  0  0  0  0  0  0  0  0  0
  146.8373  132.9377  151.2969 H   0  0  0  0  0  0  0  0  0  0  0  0
  145.9207  134.6470  149.7629 H   0  0  0  0  0  0  0  0  0  0  0  0
  144.3333  132.7975  150.7336 H   0  0  0  0  0  0  0  0  0  0  0  0
  143.4119  134.2906  150.4409 H   0  0  0  0  0  0  0  0  0  0  0  0
  1  2  1  0  0  0  0
  1 22  1  0  0  0  0
  1 23  1  0  0  0  0
  1 24  1  0  0  0  0
  2  3  1  0  0  0  0
  2  4  1  0  0  0  0
  3 25  1  0  0  0  0
  3 26  1  0  0  0  0
  3 27  1  0  0  0  0
  4  5  1  0  0  0  0
  4 28  1  0  0  0  0
  4 29  1  0  0  0  0
  5  6  1  0  0  0  0
  5 30  1  0  0  0  0
  5 31  1  0  0  0  0
  6 21  1  0  0  0  0
  6  7  1  0  0  0  0
  7  8  2  0  0  0  0
  7 32  1  0  0  0  0
  8  9  1  0  0  0  0
  8 33  1  0  0  0  0
  9 10  1  0  0  0  0
  9 21  2  0  0  0  0
 10 11  1  0  0  0  0
 10 34  1  0  0  0  0
 11 12  2  0  0  0  0
 11 13  1  0  0  0  0
 13 14  1  0  0  0  0
 13 35  1  0  0  0  0
 14 19  1  0  0  0  0
 14 15  1  0  0  0  0
 14 36  1  0  0  0  0
 15 16  1  0  0  0  0
 15 37  1  0  0  0  0
 15 38  1  0  0  0  0
 16 20  1  0  0  0  0
 16 17  1  0  0  0  0
 16 39  1  0  0  0  0
 17 18  1  0  0  0  0
 17 40  1  0  0  0  0
 17 41  1  0  0  0  0
 18 19  1  0  0  0  0
 18 42  1  0  0  0  0
 18 43  1  0  0  0  0
 19 20  1  0  0  0  0
 19 44  1  0  0  0  0
 20 45  1  0  0  0  0
 20 46  1  0  0  0  0
M  END
> <s_m_source_file>
AV-unprocessed.smi

> <i_m_source_file_index>
720

> <i_lp_mmshare_version>
43012

> <i_f3d_flags>
0

> <s_epik_input>
W0NIM11OKFtDSDNdKVtDSDJdW0NIMl1uMVtjSF1bY0hdYyhuMSlbTkhdQyg9TylbTkhdW0NASF0oW0NIMl1bQ0BIXTIzKVtDQEhdKFtDSDJdMylbQ0gyXVtDSDJdMg==

> <s_epik_cmdline>
J2VwaWtfcHl0aG9uJywgJy1waCcsICc3LjAnLCAnLXRuJywgJzgnLCAnLW1hJywgJzIwMCcsICctbWV0YWxfYmluZGluZycsICctaW1hZScsICc8aW5maWxlLm1hZT4nLCAnLW9tYWUnLCAnPG91dGZpbGUubWFlPic=

> <r_lp_tautomer_probability>
1

> <r_epik_Ionization_Penalty>
1.83819

> <r_epik_Ionization_Penalty_Charging>
0

> <r_epik_Ionization_Penalty_Neutral>
1.83819

> <r_epik_State_Penalty>
1.95467

> <r_epik_Charging_Adjusted_Penalty>
1.95467

> <i_epik_Tot_Q>
0

> <i_epik_Tot_abs_Q>
0

> <r_epik_Metal_State_Penalty>
1.95467

> <b_epik_Metal_Only>
0

> <s_lp_Force_Field>
OPLS_2005

> <r_lp_Energy>
64.6773

> <b_lp_Chiralities_Consistent>
1

> <s_lp_Variant>
AV-unprocessed.smi:720-5

> <Gold.Version>
5.8.1

> <Gold.Id.Protein>
6NUR|6NUR_protein|mol2

> <Gold.PLP.Fitness>
41.9556

> <Gold.PLP.PLP>
-33.6092

> <Gold.PLP.part.hbond>
-3.0000

> <Gold.PLP.part.metal>
0.0000

> <Gold.PLP.part.buried>
-4.2385

> <Gold.PLP.part.nonpolar>
-31.9695

> <Gold.PLP.part.repulsive>
5.4134

> <Gold.PLP.ligand.clash>
0.0000

> <Gold.PLP.ligand.torsion>
0.3377

> <Gold.PLP.Chemscore.Hbond>
1.9920

> <Gold.PLP.Chemscore.CHOScore>
1.0000

> <Gold.PLP.Chemscore.Metal>
0.0000

> <Gold.Chemscore.Hbonds>
donor molecule, donor type, donor heavy atom, donor atom, acceptor molecule, acceptor atom, score
      L1  H    10    34       P1  7948  0.99
      L1  H    13    35       P1  7948  1.00
      L1  C     7    32       P1  8028  0.99

> <Gold.PLP.Chemscore.Internal.Correction>
0.0459

> <Gold.Rescore>
     Score         DG    S(hbond)    S(metal)    S(lipo)     H(rot)  DE(clash)    DE(int)     intcor
     14.25     -16.44       1.92        0.00      72.29       1.53       1.86       0.33       ----

> <Gold.Chemscore.Fitness>
14.2467

> <Gold.Chemscore.DG>
-16.4364

> <Gold.Chemscore.ZeroCoef>
-5.4800

> <Gold.Chemscore.Hbond>
1.9217

> <Gold.Chemscore.Metal>
0.0000

> <Gold.Chemscore.Lipo>
72.2881

> <Gold.Chemscore.Internal_Hbond>
0.0000

> <Gold.Chemscore.DEClash>
1.8608

> <Gold.Chemscore.DEInternal>
0.3289

> <Gold.Chemscore.Rot>
1.5312

> <Gold.Chemscore.Internal.Correction>
   9.000000E+99

> <Gold.Chemscore.Hbonds>
donor molecule, donor type, donor heavy atom, donor atom, acceptor molecule, acceptor atom, score
      L1  H    10    34       P1  7948  0.94
      L1  H    13    35       P1  7948  0.99

> <Gold.Chemscore.Hbond.Weighted>
-6.4185

> <Gold.Chemscore.Metal.Weighted>
-0.0000

> <Gold.Chemscore.Lipo.Weighted>
-8.4577

> <Gold.Chemscore.Internal_Hbond.Weighted>
0.0000

> <Gold.Chemscore.DEClash.Weighted>
1.8608

> <Gold.Chemscore.DEInternal.Weighted>
0.3289

> <Gold.Chemscore.Rot.Weighted>
3.9199

> <Gold.Chemscore.Internal.Correction.Weighted>
   9.000000E+99

> <Gold.Protein.RotatedTorsions>
[ 6907 6896 6895 6894 ] final  -79.15 input  -60.11 | X-H torsion
[ 7974 7965 7964 7962 ] final   -1.51 input  175.53 | X-H torsion
[ 8008 7997 7996 7995 ] final   61.70 input   59.86 | X-H torsion
[ 10167 10162 10161 10158 ] final -158.28 input  -65.29 | X-H torsion
[ 10718 10713 10712 10709 ] final -116.89 input   66.30 | X-H torsion
[ 10763 10752 10751 10750 ] final  161.54 input  -60.55 | X-H torsion
[ 11005 11000 10999 10996 ] final   83.28 input  -57.11 | X-H torsion

> <Gold.Protein.ActiveResidues>
 VAL166  LYS551  ARG553  GLY616  TRP617  ASP618  TYR619  PRO620  LYS621  CYS622 
 ASP623  PHE694  ASN695  SER759  ASP760  ASP761  ALA762  ILE779  LEU786  VAL792 
 PHE793  MET794  SER795  GLU796  ALA797  LYS798  CYS799  TRP800  GLU811  SER814 

> <Gold.Protein.RotatedAtoms>
  150.6956  134.4165  159.5185 H   0  0  0  0  0  0  0  0  0  0  0  0  # atno 6907 bound_to 6896
  152.1915  134.8665  160.0526 H   0  0  0  0  0  0  0  0  0  0  0  0  # atno 6908 bound_to 6896
  151.9618  133.3663  159.4075 H   0  0  0  0  0  0  0  0  0  0  0  0  # atno 6909 bound_to 6896
  146.2416  140.1431  142.8335 H   0  0  0  0  0  0  0  0  0  0  0  0  # atno 7974 bound_to 7965
  155.6026  140.3494  155.4598 H   0  0  0  0  0  0  0  0  0  0  0  0  # atno 8008 bound_to 7997
  156.0216  140.1255  157.0375 H   0  0  0  0  0  0  0  0  0  0  0  0  # atno 8009 bound_to 7997
  154.4317  140.1061  156.5958 H   0  0  0  0  0  0  0  0  0  0  0  0  # atno 8010 bound_to 7997
  139.6704  143.9755  152.2280 H   0  0  0  0  0  0  0  0  0  0  0  0  # atno 10167 bound_to 10162
  156.0995  130.6160  150.9094 H   0  0  0  0  0  0  0  0  0  0  0  0  # atno 10718 bound_to 10713
  154.2645  135.2767  155.2764 H   0  0  0  0  0  0  0  0  0  0  0  0  # atno 10763 bound_to 10752
  154.5355  135.5717  153.6798 H   0  0  0  0  0  0  0  0  0  0  0  0  # atno 10764 bound_to 10752
  152.9956  135.6238  154.2797 H   0  0  0  0  0  0  0  0  0  0  0  0  # atno 10765 bound_to 10752
  139.9036  134.8133  156.2288 H   0  0  0  0  0  0  0  0  0  0  0  0  # atno 11005 bound_to 11000
  145.0230  140.8809  143.5155 LP  0  0  0  0  0  0  0  0  0  0  0  0  # atno 17320 bound_to 7965
  145.1482  139.2530  143.5454 LP  0  0  0  0  0  0  0  0  0  0  0  0  # atno 17321 bound_to 7965
  139.9518  144.6616  150.8165 LP  0  0  0  0  0  0  0  0  0  0  0  0  # atno 17342 bound_to 10162
  140.7616  143.3178  151.2693 LP  0  0  0  0  0  0  0  0  0  0  0  0  # atno 17343 bound_to 10162
  157.6163  131.0933  150.8705 LP  0  0  0  0  0  0  0  0  0  0  0  0  # atno 17370 bound_to 10713
  156.8836  130.5188  149.5289 LP  0  0  0  0  0  0  0  0  0  0  0  0  # atno 17371 bound_to 10713
  141.0359  133.6964  156.1511 LP  0  0  0  0  0  0  0  0  0  0  0  0  # atno 17394 bound_to 11000
  140.7028  134.4546  157.5585 LP  0  0  0  0  0  0  0  0  0  0  0  0  # atno 17395 bound_to 11000

$$$$
