AV-unprocessed.smi:2187|AV-procd|sdf|8878|dock5
  -GOLD-   2272012 73D 1   1.00000     0.00000
 Structure written by MMmdl.
 42 43  0  0  0  0  0  0  0  0  1 V2000
  152.6815  140.5499  158.8202 C   0  0  0  0  0  0  0  0  0  0  0  0
  152.4975  141.8702  159.5125 C   0  0  0  0  0  0  0  0  0  0  0  0
  152.8039  141.9725  160.7950 N   0  0  0  0  0  0  0  0  0  0  0  0
  152.5446  143.2571  161.1103 N   0  0  0  0  0  0  0  0  0  0  0  0
  152.7812  143.7149  162.4657 C   0  0  0  0  0  0  0  0  0  0  0  0
  152.0790  143.9703  160.0226 C   0  0  0  0  0  0  0  0  0  0  0  0
  151.7315  145.4216  160.1091 C   0  0  0  0  0  0  0  0  0  0  0  0
  152.0299  143.1017  158.9647 C   0  0  0  0  0  0  0  0  0  0  0  0
  151.5951  143.3732  157.5466 C   0  0  0  0  0  0  0  0  0  0  0  0
  150.5280  142.3592  157.1366 C   0  0  0  0  0  0  0  0  0  0  0  0
  150.1608  141.4951  157.9327 O   0  0  0  0  0  0  0  0  0  0  0  0
  150.0373  142.4812  155.8934 N   0  0  0  0  0  0  0  0  0  0  0  0
  148.9815  141.6592  155.3040 C   0  0  2  0  0  0  0  0  0  0  0  0
  147.8886  141.3317  156.3537 C   0  0  0  0  0  0  0  0  0  0  0  0
  147.0530  140.0615  156.0885 C   0  0  0  0  0  0  0  0  0  0  0  0
  146.3932  139.9785  154.6968 C   0  0  0  0  0  0  0  0  0  0  0  0
  147.3299  140.1135  153.4715 C   0  0  0  0  0  0  0  0  0  0  0  0
  148.7257  139.7664  153.7357 N   0  0  0  0  0  0  0  0  0  0  0  0
  149.5545  140.4447  154.5480 C   0  0  0  0  0  0  0  0  0  0  0  0
  150.7251  140.0990  154.7046 O   0  0  0  0  0  0  0  0  0  0  0  0
  153.6533  140.5015  158.3292 H   0  0  0  0  0  0  0  0  0  0  0  0
  151.9173  140.3922  158.0596 H   0  0  0  0  0  0  0  0  0  0  0  0
  152.6225  139.7168  159.5214 H   0  0  0  0  0  0  0  0  0  0  0  0
  151.9736  144.3754  162.7817 H   0  0  0  0  0  0  0  0  0  0  0  0
  153.7245  144.2593  162.5066 H   0  0  0  0  0  0  0  0  0  0  0  0
  152.8284  142.8688  163.1525 H   0  0  0  0  0  0  0  0  0  0  0  0
  151.5744  145.8503  159.1196 H   0  0  0  0  0  0  0  0  0  0  0  0
  152.5309  145.9856  160.5900 H   0  0  0  0  0  0  0  0  0  0  0  0
  150.8187  145.5663  160.6869 H   0  0  0  0  0  0  0  0  0  0  0  0
  151.1980  144.3828  157.4353 H   0  0  0  0  0  0  0  0  0  0  0  0
  152.4328  143.3063  156.8515 H   0  0  0  0  0  0  0  0  0  0  0  0
  150.3983  143.2261  155.3150 H   0  0  0  0  0  0  0  0  0  0  0  0
  148.5185  142.2785  154.5347 H   0  0  0  0  0  0  0  0  0  0  0  0
  148.3520  141.2194  157.3351 H   0  0  0  0  0  0  0  0  0  0  0  0
  147.2192  142.1882  156.4428 H   0  0  0  0  0  0  0  0  0  0  0  0
  147.6753  139.1793  156.2447 H   0  0  0  0  0  0  0  0  0  0  0  0
  146.2735  139.9939  156.8482 H   0  0  0  0  0  0  0  0  0  0  0  0
  145.8842  139.0161  154.6336 H   0  0  0  0  0  0  0  0  0  0  0  0
  145.6047  140.7280  154.6217 H   0  0  0  0  0  0  0  0  0  0  0  0
  146.9654  139.4784  152.6638 H   0  0  0  0  0  0  0  0  0  0  0  0
  147.2847  141.1293  153.0774 H   0  0  0  0  0  0  0  0  0  0  0  0
  149.0960  138.9616  153.2512 H   0  0  0  0  0  0  0  0  0  0  0  0
  1  2  1  0  0  0  0
  1 21  1  0  0  0  0
  1 22  1  0  0  0  0
  1 23  1  0  0  0  0
  2  8  1  0  0  0  0
  2  3  2  0  0  0  0
  3  4  1  0  0  0  0
  4  5  1  0  0  0  0
  4  6  1  0  0  0  0
  5 24  1  0  0  0  0
  5 25  1  0  0  0  0
  5 26  1  0  0  0  0
  6  7  1  0  0  0  0
  6  8  2  0  0  0  0
  7 27  1  0  0  0  0
  7 28  1  0  0  0  0
  7 29  1  0  0  0  0
  8  9  1  0  0  0  0
  9 10  1  0  0  0  0
  9 30  1  0  0  0  0
  9 31  1  0  0  0  0
 10 11  2  0  0  0  0
 10 12  1  0  0  0  0
 12 13  1  0  0  0  0
 12 32  1  0  0  0  0
 13 19  1  0  0  0  0
 13 14  1  0  0  0  0
 13 33  1  0  0  0  0
 14 15  1  0  0  0  0
 14 34  1  0  0  0  0
 14 35  1  0  0  0  0
 15 16  1  0  0  0  0
 15 36  1  0  0  0  0
 15 37  1  0  0  0  0
 16 17  1  0  0  0  0
 16 38  1  0  0  0  0
 16 39  1  0  0  0  0
 17 18  1  0  0  0  0
 17 40  1  0  0  0  0
 17 41  1  0  0  0  0
 18 19  1  0  0  0  0
 18 42  1  0  0  0  0
 19 20  2  0  0  0  0
M  END
> <s_m_source_file>
AV-unprocessed.smi

> <i_m_source_file_index>
2187

> <i_lp_mmshare_version>
43012

> <i_f3d_flags>
0

> <s_epik_input>
W0NIM11jMW5uKFtDSDNdKWMoW0NIM10pYzFbQ0gyXUMoPU8pW05IXVtDQEBIXTJbQ0gyXVtDSDJdW0NIMl1bQ0gyXVtOSF1DMj1P

> <s_epik_cmdline>
J2VwaWtfcHl0aG9uJywgJy1waCcsICc3LjAnLCAnLXRuJywgJzgnLCAnLW1hJywgJzIwMCcsICctbWV0YWxfYmluZGluZycsICctaW1hZScsICc8aW5maWxlLm1hZT4nLCAnLW9tYWUnLCAnPG91dGZpbGUubWFlPic=

> <r_lp_tautomer_probability>
1

> <r_epik_Ionization_Penalty>
0.00280384

> <r_epik_Ionization_Penalty_Charging>
0

> <r_epik_Ionization_Penalty_Neutral>
0.00280384

> <r_epik_State_Penalty>
0.00195959

> <r_epik_Charging_Adjusted_Penalty>
0.00195959

> <i_epik_Tot_Q>
0

> <i_epik_Tot_abs_Q>
0

> <r_epik_Metal_State_Penalty>
-0

> <b_epik_Metal_Only>
0

> <s_lp_Force_Field>
OPLS_2005

> <r_lp_Energy>
9.17358

> <b_lp_Chiralities_Consistent>
1

> <s_lp_Variant>
AV-unprocessed.smi:2187-1

> <Gold.Version>
5.8.1

> <Gold.Id.Protein>
6NUR|6NUR_protein|mol2

> <Gold.PLP.Fitness>
43.9462

> <Gold.PLP.PLP>
-41.5423

> <Gold.PLP.part.hbond>
-3.0000

> <Gold.PLP.part.metal>
0.0000

> <Gold.PLP.part.buried>
-5.6223

> <Gold.PLP.part.nonpolar>
-33.5849

> <Gold.PLP.part.repulsive>
0.3687

> <Gold.PLP.ligand.clash>
0.0000

> <Gold.PLP.ligand.torsion>
0.3882

> <Gold.PLP.Chemscore.Hbond>
1.0426

> <Gold.PLP.Chemscore.CHOScore>
0.0000

> <Gold.PLP.Chemscore.Metal>
0.0000

> <Gold.Chemscore.Hbonds>
donor molecule, donor type, donor heavy atom, donor atom, acceptor molecule, acceptor atom, score
      L1  H    12    32       P1  8028  0.01
      P1  H  7989  7998       L1    20  1.00

> <Gold.PLP.Chemscore.Internal.Correction>
0.0524

> <Gold.Rescore>
     Score         DG    S(hbond)    S(metal)    S(lipo)     H(rot)  DE(clash)    DE(int)     intcor
     10.23     -14.62       0.76        0.00      88.16       1.46       0.14       4.25       ----

> <Gold.Chemscore.Fitness>
10.2268

> <Gold.Chemscore.DG>
-14.6159

> <Gold.Chemscore.ZeroCoef>
-5.4800

> <Gold.Chemscore.Hbond>
0.7645

> <Gold.Chemscore.Metal>
0.0000

> <Gold.Chemscore.Lipo>
88.1592

> <Gold.Chemscore.Internal_Hbond>
0.0000

> <Gold.Chemscore.DEClash>
0.1436

> <Gold.Chemscore.DEInternal>
4.2455

> <Gold.Chemscore.Rot>
1.4578

> <Gold.Chemscore.Internal.Correction>
   9.000000E+99

> <Gold.Chemscore.Hbonds>
donor molecule, donor type, donor heavy atom, donor atom, acceptor molecule, acceptor atom, score
      L1  H    12    32       P1  8028  0.05
      L1  H    18    42       P1  7957  0.01
      P1  H  7989  7998       L1    20  0.60

> <Gold.Chemscore.Hbond.Weighted>
-2.5534

> <Gold.Chemscore.Metal.Weighted>
-0.0000

> <Gold.Chemscore.Lipo.Weighted>
-10.3146

> <Gold.Chemscore.Internal_Hbond.Weighted>
0.0000

> <Gold.Chemscore.DEClash.Weighted>
0.1436

> <Gold.Chemscore.DEInternal.Weighted>
4.2455

> <Gold.Chemscore.Rot.Weighted>
3.7321

> <Gold.Chemscore.Internal.Correction.Weighted>
   9.000000E+99

> <Gold.Protein.RotatedTorsions>
[ 6907 6896 6895 6894 ] final  154.54 input  -60.11 | X-H torsion
[ 7974 7965 7964 7962 ] final  -13.29 input  175.53 | X-H torsion
[ 8008 7997 7996 7995 ] final   58.47 input   59.86 | X-H torsion
[ 10167 10162 10161 10158 ] final -148.46 input  -65.29 | X-H torsion
[ 10718 10713 10712 10709 ] final -174.58 input   66.30 | X-H torsion
[ 10763 10752 10751 10750 ] final  -12.42 input  -60.55 | X-H torsion
[ 11005 11000 10999 10996 ] final   43.72 input  -57.11 | X-H torsion

> <Gold.Protein.ActiveResidues>
 VAL166  LYS551  ARG553  GLY616  TRP617  ASP618  TYR619  PRO620  LYS621  CYS622 
 ASP623  PHE694  ASN695  SER759  ASP760  ASP761  ALA762  ILE779  LEU786  VAL792 
 PHE793  MET794  SER795  GLU796  ALA797  LYS798  CYS799  TRP800  GLU811  SER814 

> <Gold.Protein.RotatedAtoms>
  152.0570  133.4045  159.4401 H   0  0  0  0  0  0  0  0  0  0  0  0  # atno 6907 bound_to 6896
  150.6867  134.3243  159.4809 H   0  0  0  0  0  0  0  0  0  0  0  0  # atno 6908 bound_to 6896
  152.1060  134.9308  160.0619 H   0  0  0  0  0  0  0  0  0  0  0  0  # atno 6909 bound_to 6896
  146.2119  140.3182  142.8388 H   0  0  0  0  0  0  0  0  0  0  0  0  # atno 7974 bound_to 7965
  155.5505  140.3486  155.4467 H   0  0  0  0  0  0  0  0  0  0  0  0  # atno 8008 bound_to 7997
  156.0586  140.1335  156.9993 H   0  0  0  0  0  0  0  0  0  0  0  0  # atno 8009 bound_to 7997
  154.4468  140.0990  156.6468 H   0  0  0  0  0  0  0  0  0  0  0  0  # atno 8010 bound_to 7997
  139.7530  143.8490  152.2590 H   0  0  0  0  0  0  0  0  0  0  0  0  # atno 10167 bound_to 10162
  156.7871  130.9504  151.3120 H   0  0  0  0  0  0  0  0  0  0  0  0  # atno 10718 bound_to 10713
  153.4983  135.7017  153.5846 H   0  0  0  0  0  0  0  0  0  0  0  0  # atno 10763 bound_to 10752
  153.3989  135.3877  155.1974 H   0  0  0  0  0  0  0  0  0  0  0  0  # atno 10764 bound_to 10752
  154.8712  135.3876  154.4450 H   0  0  0  0  0  0  0  0  0  0  0  0  # atno 10765 bound_to 10752
  140.1618  134.4331  155.8312 H   0  0  0  0  0  0  0  0  0  0  0  0  # atno 11005 bound_to 11000
  144.8939  140.7558  143.5909 LP  0  0  0  0  0  0  0  0  0  0  0  0  # atno 17320 bound_to 7965
  145.3106  139.1820  143.4641 LP  0  0  0  0  0  0  0  0  0  0  0  0  # atno 17321 bound_to 7965
  139.8474  144.7181  150.9256 LP  0  0  0  0  0  0  0  0  0  0  0  0  # atno 17342 bound_to 10162
  140.7800  143.3929  151.1279 LP  0  0  0  0  0  0  0  0  0  0  0  0  # atno 17343 bound_to 10162
  157.6618  130.8973  149.9847 LP  0  0  0  0  0  0  0  0  0  0  0  0  # atno 17370 bound_to 10713
  156.1182  130.3647  149.9932 LP  0  0  0  0  0  0  0  0  0  0  0  0  # atno 17371 bound_to 10713
  141.2210  133.6917  156.7608 LP  0  0  0  0  0  0  0  0  0  0  0  0  # atno 17394 bound_to 11000
  140.2480  134.8562  157.3639 LP  0  0  0  0  0  0  0  0  0  0  0  0  # atno 17395 bound_to 11000

$$$$
