AV-unprocessed.smi:1199|AV-procd|sdf|5016|dock10
  -GOLD-   22720 4 33D 1   1.00000     0.00000
 Structure written by MMmdl.
 41 42  0  0  0  0  0  0  0  0  3 V2000
  150.6303  134.1795  155.9545 C   0  0  0  0  0  0  0  0  0  0  0  0
  149.4119  133.3715  155.4884 C   0  0  2  0  0  0  0  0  0  0  0  0
  148.9297  133.8159  154.0877 C   0  0  0  0  0  0  0  0  0  0  0  0
  147.7552  133.0487  153.5956 N   0  3  0  0  0  0  0  0  0  0  0  0
  147.4104  133.3608  152.1888 C   0  0  0  0  0  0  0  0  0  0  0  0
  146.1416  132.5993  151.7690 C   0  0  0  0  0  0  0  0  0  0  0  0
  146.3256  131.2028  151.9702 O   0  0  0  0  0  0  0  0  0  0  0  0
  146.5800  130.8891  153.3342 C   0  0  0  0  0  0  0  0  0  0  0  0
  147.8766  131.5831  153.7819 C   0  0  0  0  0  0  0  0  0  0  0  0
  148.3308  133.5043  156.4638 N   0  0  0  0  0  0  0  0  0  0  0  0
  148.4183  133.2208  157.7729 C   0  0  0  0  0  0  0  0  0  0  0  0
  149.4756  132.9412  158.3391 O   0  0  0  0  0  0  0  0  0  0  0  0
  147.1007  133.2355  158.5541 C   0  0  0  0  0  0  0  0  0  0  0  0
  147.2594  133.9055  159.8514 N   0  0  0  0  0  0  0  0  0  0  0  0
  147.4545  135.3504  159.7410 N   0  5  0  0  0  0  0  0  0  0  0  0
  147.6194  136.0830  160.8747 C   0  0  0  0  0  0  0  0  0  0  0  0
  147.8084  137.2968  160.8606 O   0  0  0  0  0  0  0  0  0  0  0  0
  147.5587  135.3926  162.1517 C   0  0  0  0  0  0  0  0  0  0  0  0
  147.3529  134.0629  162.2235 C   0  0  0  0  0  0  0  0  0  0  0  0
  147.1842  133.2345  161.0362 C   0  0  0  0  0  0  0  0  0  0  0  0
  146.9876  132.0211  161.0972 O   0  0  0  0  0  0  0  0  0  0  0  0
  151.4565  134.0818  155.2498 H   0  0  0  0  0  0  0  0  0  0  0  0
  150.9840  133.8312  156.9255 H   0  0  0  0  0  0  0  0  0  0  0  0
  150.3946  135.2404  156.0465 H   0  0  0  0  0  0  0  0  0  0  0  0
  149.7298  132.3297  155.4278 H   0  0  0  0  0  0  0  0  0  0  0  0
  148.6486  134.8686  154.1479 H   0  0  0  0  0  0  0  0  0  0  0  0
  149.7429  133.7586  153.3626 H   0  0  0  0  0  0  0  0  0  0  0  0
  147.2452  134.4328  152.0752 H   0  0  0  0  0  0  0  0  0  0  0  0
  148.2440  133.0916  151.5383 H   0  0  0  0  0  0  0  0  0  0  0  0
  145.2786  132.9495  152.3342 H   0  0  0  0  0  0  0  0  0  0  0  0
  145.9248  132.7792  150.7161 H   0  0  0  0  0  0  0  0  0  0  0  0
  145.7382  131.1935  153.9584 H   0  0  0  0  0  0  0  0  0  0  0  0
  146.6779  129.8085  153.4360 H   0  0  0  0  0  0  0  0  0  0  0  0
  148.7223  131.2068  153.2046 H   0  0  0  0  0  0  0  0  0  0  0  0
  148.0735  131.3428  154.8255 H   0  0  0  0  0  0  0  0  0  0  0  0
  147.4194  133.7445  156.1008 H   0  0  0  0  0  0  0  0  0  0  0  0
  146.3366  133.7198  157.9441 H   0  0  0  0  0  0  0  0  0  0  0  0
  146.7441  132.2155  158.7106 H   0  0  0  0  0  0  0  0  0  0  0  0
  147.6796  135.9583  163.0640 H   0  0  0  0  0  0  0  0  0  0  0  0
  147.3142  133.5921  163.1945 H   0  0  0  0  0  0  0  0  0  0  0  0
  146.9650  133.3483  154.1511 H   0  0  0  0  0  0  0  0  0  0  0  0
  1  2  1  0  0  0  0
  1 22  1  0  0  0  0
  1 23  1  0  0  0  0
  1 24  1  0  0  0  0
  2  3  1  0  0  0  0
  2 10  1  0  0  0  0
  2 25  1  0  0  0  0
  3  4  1  0  0  0  0
  3 26  1  0  0  0  0
  3 27  1  0  0  0  0
  4  9  1  0  0  0  0
  4  5  1  0  0  0  0
  4 41  1  0  0  0  0
  5  6  1  0  0  0  0
  5 28  1  0  0  0  0
  5 29  1  0  0  0  0
  6  7  1  0  0  0  0
  6 30  1  0  0  0  0
  6 31  1  0  0  0  0
  7  8  1  0  0  0  0
  8  9  1  0  0  0  0
  8 32  1  0  0  0  0
  8 33  1  0  0  0  0
  9 34  1  0  0  0  0
  9 35  1  0  0  0  0
 10 11  1  0  0  0  0
 10 36  1  0  0  0  0
 11 12  2  0  0  0  0
 11 13  1  0  0  0  0
 13 37  1  0  0  0  0
 13 38  1  0  0  0  0
 13 14  1  0  0  0  0
 14 15  1  0  0  0  0
 14 20  1  0  0  0  0
 15 16  1  0  0  0  0
 16 17  2  0  0  0  0
 16 18  1  0  0  0  0
 18 39  1  0  0  0  0
 18 19  2  0  0  0  0
 19 40  1  0  0  0  0
 19 20  1  0  0  0  0
 20 21  2  0  0  0  0
M  CHG  1   4   1
M  CHG  1  15  -1
M  END
> <s_m_source_file>
AV-unprocessed.smi

> <i_m_source_file_index>
1199

> <i_lp_mmshare_version>
43012

> <i_f3d_flags>
0

> <s_epik_input>
W0NIMl0xW0NIMl1PW0NIMl1bQ0gyXU4xW0NIMl1bQ0BASF0oW0NIM10pW05IXUMoPU8pW0NIMl1uMltuSF1jKD1PKVtjSF1bY0hdYzI9Tw==

> <s_epik_cmdline>
J2VwaWtfcHl0aG9uJywgJy1waCcsICc3LjAnLCAnLXRuJywgJzgnLCAnLW1hJywgJzIwMCcsICctbWV0YWxfYmluZGluZycsICctaW1hZScsICc8aW5maWxlLm1hZT4nLCAnLW9tYWUnLCAnPG91dGZpbGUubWFlPic=

> <r_lp_tautomer_probability>
1

> <r_epik_Ionization_Penalty>
0.741876

> <r_epik_Ionization_Penalty_Charging>
0.741876

> <r_epik_Ionization_Penalty_Neutral>
9.12373e-08

> <r_epik_State_Penalty>
0.692284

> <r_epik_Charging_Adjusted_Penalty>
1.43416

> <i_epik_Tot_Q>
0

> <i_epik_Tot_abs_Q>
2

> <r_epik_Metal_State_Penalty>
0.692284

> <b_epik_Metal_Only>
0

> <s_lp_Force_Field>
OPLS_2005

> <r_lp_Energy>
28.0654

> <b_lp_Chiralities_Consistent>
1

> <s_lp_Variant>
AV-unprocessed.smi:1199-3

> <Gold.Version>
5.8.1

> <Gold.Id.Protein>
6NUR|6NUR_protein|mol2

> <Gold.PLP.Fitness>
39.7755

> <Gold.PLP.PLP>
-32.1368

> <Gold.PLP.part.hbond>
-3.0000

> <Gold.PLP.part.metal>
0.0000

> <Gold.PLP.part.buried>
-3.9327

> <Gold.PLP.part.nonpolar>
-25.1781

> <Gold.PLP.part.repulsive>
0.9252

> <Gold.PLP.ligand.clash>
0.0000

> <Gold.PLP.ligand.torsion>
0.3730

> <Gold.PLP.Chemscore.Hbond>
2.7760

> <Gold.PLP.Chemscore.CHOScore>
0.0000

> <Gold.PLP.Chemscore.Metal>
0.0000

> <Gold.Chemscore.Hbonds>
donor molecule, donor type, donor heavy atom, donor atom, acceptor molecule, acceptor atom, score
      P1  H  6896  6909       L1    12  1.00
      P1  H  6931  6943       L1    17  0.82
      P1  H  6934  6947       L1    17  0.83

> <Gold.PLP.Chemscore.Internal.Correction>
0.0566

> <Gold.Rescore>
     Score         DG    S(hbond)    S(metal)    S(lipo)     H(rot)  DE(clash)    DE(int)     intcor
     13.58     -15.14       2.73        0.00      56.58       2.37       0.03       1.53       ----

> <Gold.Chemscore.Fitness>
13.5837

> <Gold.Chemscore.DG>
-15.1364

> <Gold.Chemscore.ZeroCoef>
-5.4800

> <Gold.Chemscore.Hbond>
2.7293

> <Gold.Chemscore.Metal>
0.0000

> <Gold.Chemscore.Lipo>
56.5791

> <Gold.Chemscore.Internal_Hbond>
0.0000

> <Gold.Chemscore.DEClash>
0.0251

> <Gold.Chemscore.DEInternal>
1.5276

> <Gold.Chemscore.Rot>
2.3747

> <Gold.Chemscore.Internal.Correction>
   9.000000E+99

> <Gold.Chemscore.Hbonds>
donor molecule, donor type, donor heavy atom, donor atom, acceptor molecule, acceptor atom, score
      P1  H  6896  6909       L1    12  0.98
      P1  H  6931  6943       L1    17  0.81
      P1  H  6934  6947       L1    17  0.81

> <Gold.Chemscore.Hbond.Weighted>
-9.1157

> <Gold.Chemscore.Metal.Weighted>
-0.0000

> <Gold.Chemscore.Lipo.Weighted>
-6.6198

> <Gold.Chemscore.Internal_Hbond.Weighted>
0.0000

> <Gold.Chemscore.DEClash.Weighted>
0.0251

> <Gold.Chemscore.DEInternal.Weighted>
1.5276

> <Gold.Chemscore.Rot.Weighted>
6.0791

> <Gold.Chemscore.Internal.Correction.Weighted>
   9.000000E+99

> <Gold.Protein.RotatedTorsions>
[ 6907 6896 6895 6894 ] final   11.61 input  -60.11 | X-H torsion
[ 7974 7965 7964 7962 ] final   58.90 input  175.53 | X-H torsion
[ 8008 7997 7996 7995 ] final -160.46 input   59.86 | X-H torsion
[ 10167 10162 10161 10158 ] final  149.91 input  -65.29 | X-H torsion
[ 10718 10713 10712 10709 ] final  -25.60 input   66.30 | X-H torsion
[ 10763 10752 10751 10750 ] final -100.31 input  -60.55 | X-H torsion
[ 11005 11000 10999 10996 ] final -103.58 input  -57.11 | X-H torsion

> <Gold.Protein.ActiveResidues>
 VAL166  LYS551  ARG553  GLY616  TRP617  ASP618  TYR619  PRO620  LYS621  CYS622 
 ASP623  PHE694  ASN695  SER759  ASP760  ASP761  ALA762  ILE779  LEU786  VAL792 
 PHE793  MET794  SER795  GLU796  ALA797  LYS798  CYS799  TRP800  GLU811  SER814 

> <Gold.Protein.RotatedAtoms>
  151.7571  135.0819  160.0339 H   0  0  0  0  0  0  0  0  0  0  0  0  # atno 6907 bound_to 6896
  152.3378  133.6027  159.5863 H   0  0  0  0  0  0  0  0  0  0  0  0  # atno 6908 bound_to 6896
  150.7460  133.9685  159.3580 H   0  0  0  0  0  0  0  0  0  0  0  0  # atno 6909 bound_to 6896
  145.9131  139.3670  143.0523 H   0  0  0  0  0  0  0  0  0  0  0  0  # atno 7974 bound_to 7965
  155.7778  140.0861  157.2075 H   0  0  0  0  0  0  0  0  0  0  0  0  # atno 8008 bound_to 7997
  154.3992  140.1513  156.3074 H   0  0  0  0  0  0  0  0  0  0  0  0  # atno 8009 bound_to 7997
  155.8683  140.3427  155.5806 H   0  0  0  0  0  0  0  0  0  0  0  0  # atno 8010 bound_to 7997
  139.4856  144.5564  151.7310 H   0  0  0  0  0  0  0  0  0  0  0  0  # atno 10167 bound_to 10162
  156.4622  130.4506  149.6921 H   0  0  0  0  0  0  0  0  0  0  0  0  # atno 10718 bound_to 10713
  154.7569  135.4940  153.9391 H   0  0  0  0  0  0  0  0  0  0  0  0  # atno 10763 bound_to 10752
  153.1206  135.6731  153.9350 H   0  0  0  0  0  0  0  0  0  0  0  0  # atno 10764 bound_to 10752
  153.9083  135.3102  155.3427 H   0  0  0  0  0  0  0  0  0  0  0  0  # atno 10765 bound_to 10752
  141.1139  133.8652  157.1504 H   0  0  0  0  0  0  0  0  0  0  0  0  # atno 11005 bound_to 11000
  145.8646  140.9455  143.0682 LP  0  0  0  0  0  0  0  0  0  0  0  0  # atno 17320 bound_to 7965
  144.6745  140.0575  143.7477 LP  0  0  0  0  0  0  0  0  0  0  0  0  # atno 17321 bound_to 7965
  140.5126  144.1001  150.5999 LP  0  0  0  0  0  0  0  0  0  0  0  0  # atno 17342 bound_to 10162
  140.3932  143.2741  152.0035 LP  0  0  0  0  0  0  0  0  0  0  0  0  # atno 17343 bound_to 10162
  156.3705  130.7528  151.2510 LP  0  0  0  0  0  0  0  0  0  0  0  0  # atno 17370 bound_to 10713
  157.7497  131.0324  150.4227 LP  0  0  0  0  0  0  0  0  0  0  0  0  # atno 17371 bound_to 10713
  140.0049  135.0012  157.0271 LP  0  0  0  0  0  0  0  0  0  0  0  0  # atno 17394 bound_to 11000
  140.4699  134.1397  155.7202 LP  0  0  0  0  0  0  0  0  0  0  0  0  # atno 17395 bound_to 11000

$$$$
