AV-unprocessed.smi:35|AV-procd|sdf|253|dock1
  -GOLD-   2262016 13D 1   1.00000     0.00000
 Structure written by MMmdl.
 29 30  0  0  0  0  0  0  0  0  1 V2000
  152.8622  140.9607  158.2145 O   0  0  0  0  0  0  0  0  0  0  0  0
  152.0554  140.9873  157.2878 C   0  0  0  0  0  0  0  0  0  0  0  0
  151.9622  139.9119  156.4014 N   0  0  0  0  0  0  0  0  0  0  0  0
  151.0811  139.8238  155.3219 C   0  0  0  0  0  0  0  0  0  0  0  0
  151.1246  138.8438  154.5796 O   0  0  0  0  0  0  0  0  0  0  0  0
  150.1731  140.8925  155.1318 N   0  0  0  0  0  0  0  0  0  0  0  0
  149.2244  140.8506  153.9429 C   0  0  2  0  0  0  0  0  0  0  0  0
  148.4644  142.0271  153.9126 O   0  0  0  0  0  0  0  0  0  0  0  0
  147.1268  141.8045  154.3567 C   0  0  2  0  0  0  0  0  0  0  0  0
  147.0174  141.9662  155.8911 C   0  0  0  0  0  0  0  0  0  0  0  0
  147.4512  143.2547  156.2715 O   0  0  0  0  0  0  0  0  0  0  0  0
  146.8715  140.3881  153.8310 C   0  0  2  0  0  0  0  0  0  0  0  0
  145.8222  139.7222  154.5065 O   0  0  0  0  0  0  0  0  0  0  0  0
  148.2079  139.6849  154.0301 C   0  0  1  0  0  0  0  0  0  0  0  0
  148.3964  138.7368  152.9981 O   0  0  0  0  0  0  0  0  0  0  0  0
  150.2781  142.0115  155.9532 C   0  0  0  0  0  0  0  0  0  0  0  0
  151.1453  142.0861  156.9897 C   0  0  0  0  0  0  0  0  0  0  0  0
  151.1188  143.7612  158.0470 Br  0  0  0  0  0  0  0  0  0  0  0  0
  152.5962  139.1392  156.5453 H   0  0  0  0  0  0  0  0  0  0  0  0
  149.8797  140.8157  153.0704 H   0  0  0  0  0  0  0  0  0  0  0  0
  146.4504  142.5087  153.8703 H   0  0  0  0  0  0  0  0  0  0  0  0
  145.9782  141.8889  156.2100 H   0  0  0  0  0  0  0  0  0  0  0  0
  147.5672  141.1999  156.4353 H   0  0  0  0  0  0  0  0  0  0  0  0
  148.0687  143.5663  155.6273 H   0  0  0  0  0  0  0  0  0  0  0  0
  146.6310  140.4511  152.7681 H   0  0  0  0  0  0  0  0  0  0  0  0
  145.0249  139.8482  154.0144 H   0  0  0  0  0  0  0  0  0  0  0  0
  148.2518  139.2135  155.0133 H   0  0  0  0  0  0  0  0  0  0  0  0
  148.5023  139.2030  152.1824 H   0  0  0  0  0  0  0  0  0  0  0  0
  149.6532  142.8743  155.7800 H   0  0  0  0  0  0  0  0  0  0  0  0
  1  2  2  0  0  0  0
  2 17  1  0  0  0  0
  2  3  1  0  0  0  0
  3 19  1  0  0  0  0
  3  4  1  0  0  0  0
  4  5  2  0  0  0  0
  4  6  1  0  0  0  0
  6  7  1  0  0  0  0
  6 16  1  0  0  0  0
  7 14  1  0  0  0  0
  7  8  1  0  0  0  0
  7 20  1  0  0  0  0
  8  9  1  0  0  0  0
  9 10  1  0  0  0  0
  9 12  1  0  0  0  0
  9 21  1  0  0  0  0
 10 11  1  0  0  0  0
 10 22  1  0  0  0  0
 10 23  1  0  0  0  0
 11 24  1  0  0  0  0
 12 13  1  0  0  0  0
 12 14  1  0  0  0  0
 12 25  1  0  0  0  0
 13 26  1  0  0  0  0
 14 15  1  0  0  0  0
 14 27  1  0  0  0  0
 15 28  1  0  0  0  0
 16 17  2  0  0  0  0
 16 29  1  0  0  0  0
 17 18  1  0  0  0  0
M  END
> <s_m_source_file>
AV-unprocessed.smi

> <i_m_source_file_index>
35

> <i_lp_mmshare_version>
43012

> <i_f3d_flags>
0

> <s_epik_input>
Tz1jMVtuSF1jKD1PKW4oW2NIXWMxQnIpW0NAQEhdMk9bQ0BASF0oW0NIMl1bT0hdKVtDQEBIXShbT0hdKVtDQEhdMltPSF0=

> <s_epik_cmdline>
J2VwaWtfcHl0aG9uJywgJy1waCcsICc3LjAnLCAnLXRuJywgJzgnLCAnLW1hJywgJzIwMCcsICctbWV0YWxfYmluZGluZycsICctaW1hZScsICc8aW5maWxlLm1hZT4nLCAnLW9tYWUnLCAnPG91dGZpbGUubWFlPic=

> <r_lp_tautomer_probability>
0.999537

> <r_epik_Ionization_Penalty>
0.10812

> <r_epik_Ionization_Penalty_Charging>
0.108119

> <r_epik_Ionization_Penalty_Neutral>
4.93006e-07

> <r_epik_State_Penalty>
0.0979238

> <r_epik_Charging_Adjusted_Penalty>
0.206043

> <i_epik_Tot_Q>
0

> <i_epik_Tot_abs_Q>
0

> <r_epik_Metal_State_Penalty>
3.07911

> <b_epik_Metal_Only>
0

> <s_epik_Chemistry_Notes>
This compound contains an acetal/aminal-like group ( X-CH(R)-Y where X, Y are N, S, or O) that may be acid/base labile, releasing an aldehyde.

> <s_lp_Force_Field>
OPLS_2005

> <r_lp_Energy>
30.5173

> <b_lp_Chiralities_Consistent>
1

> <s_lp_Variant>
AV-unprocessed.smi:35-7

> <Gold.Version>
5.8.1

> <Gold.Id.Protein>
6NUR|6NUR_protein|mol2

> <Gold.PLP.Fitness>
39.0420

> <Gold.PLP.PLP>
-27.4057

> <Gold.PLP.part.hbond>
-5.3319

> <Gold.PLP.part.metal>
0.0000

> <Gold.PLP.part.buried>
0.2230

> <Gold.PLP.part.nonpolar>
-22.4630

> <Gold.PLP.part.repulsive>
0.5455

> <Gold.PLP.ligand.clash>
0.0000

> <Gold.PLP.ligand.torsion>
0.0467

> <Gold.PLP.Chemscore.Hbond>
2.8880

> <Gold.PLP.Chemscore.CHOScore>
1.0000

> <Gold.PLP.Chemscore.Metal>
0.0000

> <Gold.Chemscore.Hbonds>
donor molecule, donor type, donor heavy atom, donor atom, acceptor molecule, acceptor atom, score
      L1  H    11    24       P1  8028  0.37
      L1  H    13    26       P1 10175  0.75
      L1  H    15    28       P1  7957  0.93
      P1  H  7997  8008       L1     1  0.19
      P1  H  8011  8017       L1     8  0.02
      L1  C    16    29       P1  8028  0.93

> <Gold.PLP.Chemscore.Internal.Correction>
0.0656

> <Gold.Rescore>
     Score         DG    S(hbond)    S(metal)    S(lipo)     H(rot)  DE(clash)    DE(int)     intcor
      7.15      -8.94       2.28        0.00      44.69       3.67       1.74       0.05       ----

> <Gold.Chemscore.Fitness>
7.1461

> <Gold.Chemscore.DG>
-8.9365

> <Gold.Chemscore.ZeroCoef>
-5.4800

> <Gold.Chemscore.Hbond>
2.2824

> <Gold.Chemscore.Metal>
0.0000

> <Gold.Chemscore.Lipo>
44.6907

> <Gold.Chemscore.Internal_Hbond>
0.0000

> <Gold.Chemscore.DEClash>
1.7439

> <Gold.Chemscore.DEInternal>
0.0465

> <Gold.Chemscore.Rot>
3.6701

> <Gold.Chemscore.Internal.Correction>
   9.000000E+99

> <Gold.Chemscore.Hbonds>
donor molecule, donor type, donor heavy atom, donor atom, acceptor molecule, acceptor atom, score
      L1  H    11    24       P1  8028  0.16
      L1  H    13    26       P1 10175  0.73
      L1  H    15    28       P1  7957  0.91
      P1  H  7997  8008       L1     1  0.04

> <Gold.Chemscore.Hbond.Weighted>
-7.6231

> <Gold.Chemscore.Metal.Weighted>
-0.0000

> <Gold.Chemscore.Lipo.Weighted>
-5.2288

> <Gold.Chemscore.Internal_Hbond.Weighted>
0.0000

> <Gold.Chemscore.DEClash.Weighted>
1.7439

> <Gold.Chemscore.DEInternal.Weighted>
0.0465

> <Gold.Chemscore.Rot.Weighted>
9.3955

> <Gold.Chemscore.Internal.Correction.Weighted>
   9.000000E+99

> <Gold.Protein.RotatedTorsions>
[ 6907 6896 6895 6894 ] final  -56.08 input  -60.11 | X-H torsion
[ 7974 7965 7964 7962 ] final -122.54 input  175.53 | X-H torsion
[ 8008 7997 7996 7995 ] final  -89.27 input   59.86 | X-H torsion
[ 10167 10162 10161 10158 ] final   52.62 input  -65.29 | X-H torsion
[ 10718 10713 10712 10709 ] final  -96.41 input   66.30 | X-H torsion
[ 10763 10752 10751 10750 ] final  148.38 input  -60.55 | X-H torsion
[ 11005 11000 10999 10996 ] final   58.95 input  -57.11 | X-H torsion

> <Gold.Protein.ActiveResidues>
 VAL166  LYS551  ARG553  GLY616  TRP617  ASP618  TYR619  PRO620  LYS621  CYS622 
 ASP623  PHE694  ASN695  SER759  ASP760  ASP761  ALA762  ILE779  LEU786  VAL792 
 PHE793  MET794  SER795  GLU796  ALA797  LYS798  CYS799  TRP800  GLU811  SER814 

> <Gold.Protein.RotatedAtoms>
  150.8197  134.7398  159.6761 H   0  0  0  0  0  0  0  0  0  0  0  0  # atno 6907 bound_to 6896
  152.4314  134.5768  159.9946 H   0  0  0  0  0  0  0  0  0  0  0  0  # atno 6908 bound_to 6896
  151.5955  133.3324  159.3072 H   0  0  0  0  0  0  0  0  0  0  0  0  # atno 6909 bound_to 6896
  145.0283  140.8046  143.4339 H   0  0  0  0  0  0  0  0  0  0  0  0  # atno 7974 bound_to 7965
  154.6847  140.0543  157.0302 H   0  0  0  0  0  0  0  0  0  0  0  0  # atno 8008 bound_to 7997
  155.0902  140.3218  155.4557 H   0  0  0  0  0  0  0  0  0  0  0  0  # atno 8009 bound_to 7997
  156.2707  140.2049  156.6029 H   0  0  0  0  0  0  0  0  0  0  0  0  # atno 8010 bound_to 7997
  140.2495  144.3495  150.6353 H   0  0  0  0  0  0  0  0  0  0  0  0  # atno 10167 bound_to 10162
  156.0062  130.5150  150.6222 H   0  0  0  0  0  0  0  0  0  0  0  0  # atno 10718 bound_to 10713
  154.0538  135.2879  155.3336 H   0  0  0  0  0  0  0  0  0  0  0  0  # atno 10763 bound_to 10752
  154.6852  135.5248  153.8320 H   0  0  0  0  0  0  0  0  0  0  0  0  # atno 10764 bound_to 10752
  153.0550  135.6591  154.0732 H   0  0  0  0  0  0  0  0  0  0  0  0  # atno 10765 bound_to 10752
  140.0339  134.5971  155.9469 H   0  0  0  0  0  0  0  0  0  0  0  0  # atno 11005 bound_to 11000
  145.1804  139.2355  143.5295 LP  0  0  0  0  0  0  0  0  0  0  0  0  # atno 17320 bound_to 7965
  146.3495  140.1577  142.8591 LP  0  0  0  0  0  0  0  0  0  0  0  0  # atno 17321 bound_to 7965
  140.6052  143.2167  151.6995 LP  0  0  0  0  0  0  0  0  0  0  0  0  # atno 17342 bound_to 10162
  139.5051  144.3730  152.0451 LP  0  0  0  0  0  0  0  0  0  0  0  0  # atno 17343 bound_to 10162
  157.4036  131.0813  151.1286 LP  0  0  0  0  0  0  0  0  0  0  0  0  # atno 17370 bound_to 10713
  157.1940  130.6365  149.5714 LP  0  0  0  0  0  0  0  0  0  0  0  0  # atno 17371 bound_to 10713
  141.1847  133.6553  156.5166 LP  0  0  0  0  0  0  0  0  0  0  0  0  # atno 17394 bound_to 11000
  140.4179  134.7214  157.4873 LP  0  0  0  0  0  0  0  0  0  0  0  0  # atno 17395 bound_to 11000

$$$$
