AV-unprocessed.smi:1243|AV-procd|sdf|5219|dock5
  -GOLD-   22720 4313D 1   1.00000     0.00000
 Structure written by MMmdl.
 51 52  0  0  0  0  0  0  0  0  2 V2000
  151.5659  138.1818  154.5110 C   0  0  0  0  0  0  0  0  0  0  0  0
  150.2120  138.1960  154.0717 O   0  0  0  0  0  0  0  0  0  0  0  0
  149.5063  139.3818  154.1470 C   0  0  0  0  0  0  0  0  0  0  0  0
  150.1031  140.4523  154.7290 N   0  0  0  0  0  0  0  0  0  0  0  0
  149.4162  141.6110  154.8008 C   0  0  0  0  0  0  0  0  0  0  0  0
  148.1124  141.7661  154.2958 C   0  0  0  0  0  0  0  0  0  0  0  0
  147.4913  140.6577  153.6912 C   0  0  0  0  0  0  0  0  0  0  0  0
  148.1940  139.4303  153.6213 C   0  0  0  0  0  0  0  0  0  0  0  0
  147.6680  138.2572  153.0140 N   0  0  0  0  0  0  0  0  0  0  0  0
  146.3846  137.9532  152.7596 C   0  0  0  0  0  0  0  0  0  0  0  0
  145.4165  138.6613  153.0361 O   0  0  0  0  0  0  0  0  0  0  0  0
  146.2791  136.7543  152.1686 N   0  0  0  0  0  0  0  0  0  0  0  0
  145.0280  136.1021  151.7834 C   0  0  0  0  0  0  0  0  0  0  0  0
  144.5445  135.0277  152.8045 C   0  0  0  0  0  0  0  0  0  0  0  0
  145.3307  135.1509  154.1345 C   0  0  0  0  0  0  0  0  0  0  0  0
  143.0580  135.2786  153.1614 C   0  0  0  0  0  0  0  0  0  0  0  0
  144.7071  133.6342  152.2511 N   0  3  0  0  0  0  0  0  0  0  0  0
  146.1107  133.1824  152.0272 C   0  0  0  0  0  0  0  0  0  0  0  0
  146.1530  131.6798  151.6786 C   0  0  0  0  0  0  0  0  0  0  0  0
  145.3467  131.3596  150.5014 N   0  0  0  0  0  0  0  0  0  0  0  0
  145.9300  131.8450  149.2553 C   0  0  0  0  0  0  0  0  0  0  0  0
  143.9715  131.8102  150.7111 C   0  0  0  0  0  0  0  0  0  0  0  0
  143.8926  133.3149  151.0434 C   0  0  0  0  0  0  0  0  0  0  0  0
  151.9728  137.1777  154.3912 H   0  0  0  0  0  0  0  0  0  0  0  0
  151.6448  138.4471  155.5664 H   0  0  0  0  0  0  0  0  0  0  0  0
  152.1846  138.8612  153.9234 H   0  0  0  0  0  0  0  0  0  0  0  0
  149.9240  142.4411  155.2690 H   0  0  0  0  0  0  0  0  0  0  0  0
  147.6018  142.7152  154.3661 H   0  0  0  0  0  0  0  0  0  0  0  0
  146.4999  140.7740  153.2816 H   0  0  0  0  0  0  0  0  0  0  0  0
  148.3458  137.5355  152.8157 H   0  0  0  0  0  0  0  0  0  0  0  0
  147.1308  136.2447  151.9836 H   0  0  0  0  0  0  0  0  0  0  0  0
  144.2909  136.8988  151.6907 H   0  0  0  0  0  0  0  0  0  0  0  0
  145.1303  135.6764  150.7851 H   0  0  0  0  0  0  0  0  0  0  0  0
  145.0671  136.0579  154.6795 H   0  0  0  0  0  0  0  0  0  0  0  0
  146.4080  135.1978  153.9760 H   0  0  0  0  0  0  0  0  0  0  0  0
  145.1238  134.3112  154.7991 H   0  0  0  0  0  0  0  0  0  0  0  0
  142.9316  136.1913  153.7450 H   0  0  0  0  0  0  0  0  0  0  0  0
  142.6477  134.4610  153.7557 H   0  0  0  0  0  0  0  0  0  0  0  0
  142.4325  135.3988  152.2773 H   0  0  0  0  0  0  0  0  0  0  0  0
  146.5859  133.7696  151.2423 H   0  0  0  0  0  0  0  0  0  0  0  0
  146.7143  133.3166  152.9223 H   0  0  0  0  0  0  0  0  0  0  0  0
  147.1817  131.3563  151.5154 H   0  0  0  0  0  0  0  0  0  0  0  0
  145.7788  131.0999  152.5233 H   0  0  0  0  0  0  0  0  0  0  0  0
  145.3228  131.5286  148.4066 H   0  0  0  0  0  0  0  0  0  0  0  0
  146.9284  131.4279  149.1196 H   0  0  0  0  0  0  0  0  0  0  0  0
  146.0123  132.9308  149.2239 H   0  0  0  0  0  0  0  0  0  0  0  0
  143.3748  131.5850  149.8263 H   0  0  0  0  0  0  0  0  0  0  0  0
  143.5380  131.2332  151.5291 H   0  0  0  0  0  0  0  0  0  0  0  0
  142.8429  133.5507  151.2052 H   0  0  0  0  0  0  0  0  0  0  0  0
  144.2166  133.9091  150.1896 H   0  0  0  0  0  0  0  0  0  0  0  0
  144.3504  133.0282  152.9762 H   0  0  0  0  0  0  0  0  0  0  0  0
  1  2  1  0  0  0  0
  1 24  1  0  0  0  0
  1 25  1  0  0  0  0
  1 26  1  0  0  0  0
  2  3  1  0  0  0  0
  3  8  1  0  0  0  0
  3  4  2  0  0  0  0
  4  5  1  0  0  0  0
  5  6  2  0  0  0  0
  5 27  1  0  0  0  0
  6  7  1  0  0  0  0
  6 28  1  0  0  0  0
  7  8  2  0  0  0  0
  7 29  1  0  0  0  0
  8  9  1  0  0  0  0
  9 10  1  0  0  0  0
  9 30  1  0  0  0  0
 10 11  2  0  0  0  0
 10 12  1  0  0  0  0
 12 13  1  0  0  0  0
 12 31  1  0  0  0  0
 13 14  1  0  0  0  0
 13 32  1  0  0  0  0
 13 33  1  0  0  0  0
 14 15  1  0  0  0  0
 14 16  1  0  0  0  0
 14 17  1  0  0  0  0
 15 34  1  0  0  0  0
 15 35  1  0  0  0  0
 15 36  1  0  0  0  0
 16 37  1  0  0  0  0
 16 38  1  0  0  0  0
 16 39  1  0  0  0  0
 17 23  1  0  0  0  0
 17 18  1  0  0  0  0
 17 51  1  0  0  0  0
 18 19  1  0  0  0  0
 18 40  1  0  0  0  0
 18 41  1  0  0  0  0
 19 20  1  0  0  0  0
 19 42  1  0  0  0  0
 19 43  1  0  0  0  0
 20 21  1  0  0  0  0
 20 22  1  0  0  0  0
 21 44  1  0  0  0  0
 21 45  1  0  0  0  0
 21 46  1  0  0  0  0
 22 23  1  0  0  0  0
 22 47  1  0  0  0  0
 22 48  1  0  0  0  0
 23 49  1  0  0  0  0
 23 50  1  0  0  0  0
M  CHG  1  17   1
M  END
> <s_m_source_file>
AV-unprocessed.smi

> <i_m_source_file_index>
1243

> <i_lp_mmshare_version>
43012

> <i_f3d_flags>
0

> <s_epik_input>
W0NIM11PYzFuW2NIXVtjSF1bY0hdYzFbTkhdQyg9TylbTkhdW0NIMl1DKFtDSDNdKShbQ0gzXSlOMltDSDJdW0NIMl1OKFtDSDNdKVtDSDJdW0NIMl0y

> <s_epik_cmdline>
J2VwaWtfcHl0aG9uJywgJy1waCcsICc3LjAnLCAnLXRuJywgJzgnLCAnLW1hJywgJzIwMCcsICctbWV0YWxfYmluZGluZycsICctaW1hZScsICc8aW5maWxlLm1hZT4nLCAnLW9tYWUnLCAnPG91dGZpbGUubWFlPic=

> <r_epik_Ionization_Penalty>
0.0907124

> <r_epik_Ionization_Penalty_Charging>
0.0886444

> <r_epik_Ionization_Penalty_Neutral>
0.00206798

> <r_epik_State_Penalty>
1.00524

> <r_epik_Charging_Adjusted_Penalty>
1.09388

> <i_epik_Tot_Q>
1

> <i_epik_Tot_abs_Q>
1

> <r_epik_Metal_State_Penalty>
1.00525

> <b_epik_Metal_Only>
0

> <s_lp_Force_Field>
OPLS_2005

> <r_lp_Energy>
29.8833

> <b_lp_Chiralities_Consistent>
1

> <s_lp_Variant>
AV-unprocessed.smi:1243-2

> <Gold.Version>
5.8.1

> <Gold.Id.Protein>
6NUR|6NUR_protein|mol2

> <Gold.PLP.Fitness>
43.7515

> <Gold.PLP.PLP>
-36.2618

> <Gold.PLP.part.hbond>
-3.4300

> <Gold.PLP.part.metal>
0.0000

> <Gold.PLP.part.buried>
-3.2013

> <Gold.PLP.part.nonpolar>
-34.6853

> <Gold.PLP.part.repulsive>
4.2091

> <Gold.PLP.ligand.clash>
1.5009

> <Gold.PLP.ligand.torsion>
1.3183

> <Gold.PLP.Chemscore.Hbond>
2.9440

> <Gold.PLP.Chemscore.CHOScore>
0.8920

> <Gold.PLP.Chemscore.Metal>
0.0000

> <Gold.Chemscore.Hbonds>
donor molecule, donor type, donor heavy atom, donor atom, acceptor molecule, acceptor atom, score
      L1  H     9    30       P1  7948  1.00
      L1  H    12    31       P1  7948  0.99
      P1  H  7989  7998       L1     4  0.94
      L1  C     5    27       P1  8028  0.89

> <Gold.PLP.Chemscore.Internal.Correction>
0.1193

> <Gold.Rescore>
     Score         DG    S(hbond)    S(metal)    S(lipo)     H(rot)  DE(clash)    DE(int)     intcor
     14.56     -19.11       2.16        0.00      92.51       1.72       2.05       2.50       ----

> <Gold.Chemscore.Fitness>
14.5581

> <Gold.Chemscore.DG>
-19.1127

> <Gold.Chemscore.ZeroCoef>
-5.4800

> <Gold.Chemscore.Hbond>
2.1605

> <Gold.Chemscore.Metal>
0.0000

> <Gold.Chemscore.Lipo>
92.5060

> <Gold.Chemscore.Internal_Hbond>
0.0000

> <Gold.Chemscore.DEClash>
2.0518

> <Gold.Chemscore.DEInternal>
2.5027

> <Gold.Chemscore.Rot>
1.7213

> <Gold.Chemscore.Internal.Correction>
   9.000000E+99

> <Gold.Chemscore.Hbonds>
donor molecule, donor type, donor heavy atom, donor atom, acceptor molecule, acceptor atom, score
      L1  H     9    30       P1  7948  0.96
      L1  H    12    31       P1  7948  0.94
      P1  H  7989  7998       L1     4  0.16

> <Gold.Chemscore.Hbond.Weighted>
-7.2160

> <Gold.Chemscore.Metal.Weighted>
-0.0000

> <Gold.Chemscore.Lipo.Weighted>
-10.8232

> <Gold.Chemscore.Internal_Hbond.Weighted>
0.0000

> <Gold.Chemscore.DEClash.Weighted>
2.0518

> <Gold.Chemscore.DEInternal.Weighted>
2.5027

> <Gold.Chemscore.Rot.Weighted>
4.4066

> <Gold.Chemscore.Internal.Correction.Weighted>
   9.000000E+99

> <Gold.Protein.RotatedTorsions>
[ 6907 6896 6895 6894 ] final    9.40 input  -60.11 | X-H torsion
[ 7974 7965 7964 7962 ] final   80.30 input  175.53 | X-H torsion
[ 8008 7997 7996 7995 ] final  -88.71 input   59.86 | X-H torsion
[ 10167 10162 10161 10158 ] final -155.92 input  -65.29 | X-H torsion
[ 10718 10713 10712 10709 ] final  174.37 input   66.30 | X-H torsion
[ 10763 10752 10751 10750 ] final   33.54 input  -60.55 | X-H torsion
[ 11005 11000 10999 10996 ] final -121.97 input  -57.11 | X-H torsion

> <Gold.Protein.ActiveResidues>
 VAL166  LYS551  ARG553  GLY616  TRP617  ASP618  TYR619  PRO620  LYS621  CYS622 
 ASP623  PHE694  ASN695  SER759  ASP760  ASP761  ALA762  ILE779  LEU786  VAL792 
 PHE793  MET794  SER795  GLU796  ALA797  LYS798  CYS799  TRP800  GLU811  SER814 

> <Gold.Protein.RotatedAtoms>
  151.7216  135.0893  160.0284 H   0  0  0  0  0  0  0  0  0  0  0  0  # atno 6907 bound_to 6896
  152.3598  133.6278  159.6015 H   0  0  0  0  0  0  0  0  0  0  0  0  # atno 6908 bound_to 6896
  150.7596  133.9358  159.3482 H   0  0  0  0  0  0  0  0  0  0  0  0  # atno 6909 bound_to 6896
  145.6529  139.2452  143.1966 H   0  0  0  0  0  0  0  0  0  0  0  0  # atno 7974 bound_to 7965
  154.6780  140.0550  157.0236 H   0  0  0  0  0  0  0  0  0  0  0  0  # atno 8008 bound_to 7997
  155.0992  140.3227  155.4533 H   0  0  0  0  0  0  0  0  0  0  0  0  # atno 8009 bound_to 7997
  156.2683  140.2034  156.6119 H   0  0  0  0  0  0  0  0  0  0  0  0  # atno 8010 bound_to 7997
  139.6892  143.9449  152.2376 H   0  0  0  0  0  0  0  0  0  0  0  0  # atno 10167 bound_to 10162
  156.9506  131.0030  151.2949 H   0  0  0  0  0  0  0  0  0  0  0  0  # atno 10718 bound_to 10713
  153.0207  135.6384  154.1528 H   0  0  0  0  0  0  0  0  0  0  0  0  # atno 10763 bound_to 10752
  154.1262  135.2843  155.3198 H   0  0  0  0  0  0  0  0  0  0  0  0  # atno 10764 bound_to 10752
  154.6227  135.5519  153.7655 H   0  0  0  0  0  0  0  0  0  0  0  0  # atno 10765 bound_to 10752
  141.0031  134.0374  157.3512 H   0  0  0  0  0  0  0  0  0  0  0  0  # atno 11005 bound_to 11000
  146.1188  140.7335  142.9467 LP  0  0  0  0  0  0  0  0  0  0  0  0  # atno 17320 bound_to 7965
  144.7116  140.4059  143.7076 LP  0  0  0  0  0  0  0  0  0  0  0  0  # atno 17321 bound_to 7965
  139.9260  144.6770  150.8411 LP  0  0  0  0  0  0  0  0  0  0  0  0  # atno 17342 bound_to 10162
  140.7677  143.3341  151.2346 LP  0  0  0  0  0  0  0  0  0  0  0  0  # atno 17343 bound_to 10162
  157.5724  130.8320  149.8410 LP  0  0  0  0  0  0  0  0  0  0  0  0  # atno 17370 bound_to 10713
  156.0364  130.3750  150.1548 LP  0  0  0  0  0  0  0  0  0  0  0  0  # atno 17371 bound_to 10713
  139.9049  135.0176  156.7439 LP  0  0  0  0  0  0  0  0  0  0  0  0  # atno 17394 bound_to 11000
  140.6857  133.9434  155.7936 LP  0  0  0  0  0  0  0  0  0  0  0  0  # atno 17395 bound_to 11000

$$$$
