AV-unprocessed.smi:2718|AV-procd|sdf|10490|dock2
  -GOLD-   2272014533D 1   1.00000     0.00000
 Structure written by MMmdl.
 47 48  0  0  0  0  0  0  0  0  1 V2000
  152.0616  145.3849  160.2999 C   0  0  0  0  0  0  0  0  0  0  0  0
  152.3667  143.9227  160.5576 C   0  0  0  0  0  0  0  0  0  0  0  0
  152.9646  143.6294  161.9225 C   0  0  0  0  0  0  0  0  0  0  0  0
  152.1172  142.9747  159.6344 C   0  0  0  0  0  0  0  0  0  0  0  0
  152.3673  141.5160  159.7736 C   0  0  2  0  0  0  0  0  0  0  0  0
  153.3628  140.8114  158.8708 C   0  0  1  0  0  0  0  0  0  0  0  0
  154.2533  139.7657  159.4671 C   0  0  0  0  0  0  0  0  0  0  0  0
  155.1531  139.1989  158.8458 O   0  0  0  0  0  0  0  0  0  0  0  0
  153.9631  139.4791  160.7447 N   0  0  0  0  0  0  0  0  0  0  0  0
  154.6350  138.4661  161.5538 C   0  0  0  0  0  0  0  0  0  0  0  0
  154.1123  137.0376  161.2825 C   0  0  1  0  0  0  0  0  0  0  0  0
  154.1851  136.6783  159.7911 C   0  0  0  0  0  0  0  0  0  0  0  0
  154.7916  136.0005  162.1375 C   0  0  0  0  0  0  0  0  0  0  0  0
  155.3965  134.9140  161.6381 N   0  0  0  0  0  0  0  0  0  0  0  0
  155.9048  134.2342  162.7262 N   0  0  0  0  0  0  0  0  0  0  0  0
  155.5587  134.9772  163.7761 C   0  0  0  0  0  0  0  0  0  0  0  0
  154.8673  136.0887  163.4831 N   0  0  0  0  0  0  0  0  0  0  0  0
  154.3566  137.0945  164.3937 C   0  0  0  0  0  0  0  0  0  0  0  0
  151.8704  140.5316  158.7268 C   0  0  0  0  0  0  0  0  0  0  0  0
  151.2120  139.2385  159.1940 C   0  0  0  0  0  0  0  0  0  0  0  0
  151.1888  141.0097  157.4533 C   0  0  0  0  0  0  0  0  0  0  0  0
  151.3569  145.7598  161.0426 H   0  0  0  0  0  0  0  0  0  0  0  0
  151.6248  145.5363  159.3122 H   0  0  0  0  0  0  0  0  0  0  0  0
  152.9739  145.9784  160.3619 H   0  0  0  0  0  0  0  0  0  0  0  0
  152.2716  143.9318  162.7079 H   0  0  0  0  0  0  0  0  0  0  0  0
  153.8920  144.1876  162.0526 H   0  0  0  0  0  0  0  0  0  0  0  0
  153.1886  142.5724  162.0633 H   0  0  0  0  0  0  0  0  0  0  0  0
  151.6945  143.2778  158.6874 H   0  0  0  0  0  0  0  0  0  0  0  0
  152.3286  141.2020  160.8157 H   0  0  0  0  0  0  0  0  0  0  0  0
  153.8131  141.4073  158.0775 H   0  0  0  0  0  0  0  0  0  0  0  0
  153.2063  139.9836  161.1838 H   0  0  0  0  0  0  0  0  0  0  0  0
  155.7136  138.5169  161.3958 H   0  0  0  0  0  0  0  0  0  0  0  0
  154.4662  138.7250  162.5996 H   0  0  0  0  0  0  0  0  0  0  0  0
  153.0526  137.0394  161.5360 H   0  0  0  0  0  0  0  0  0  0  0  0
  153.7439  135.6991  159.6023 H   0  0  0  0  0  0  0  0  0  0  0  0
  155.2162  136.6534  159.4373 H   0  0  0  0  0  0  0  0  0  0  0  0
  153.6442  137.4060  159.1858 H   0  0  0  0  0  0  0  0  0  0  0  0
  155.8188  134.7027  164.7880 H   0  0  0  0  0  0  0  0  0  0  0  0
  154.5674  136.8094  165.4248 H   0  0  0  0  0  0  0  0  0  0  0  0
  153.2779  137.1925  164.2690 H   0  0  0  0  0  0  0  0  0  0  0  0
  154.8322  138.0539  164.1895 H   0  0  0  0  0  0  0  0  0  0  0  0
  151.4865  138.4149  158.5346 H   0  0  0  0  0  0  0  0  0  0  0  0
  150.1266  139.3406  159.1857 H   0  0  0  0  0  0  0  0  0  0  0  0
  151.5039  138.9824  160.2119 H   0  0  0  0  0  0  0  0  0  0  0  0
  151.2406  140.2391  156.6837 H   0  0  0  0  0  0  0  0  0  0  0  0
  151.6677  141.9089  157.0643 H   0  0  0  0  0  0  0  0  0  0  0  0
  150.1406  141.2398  157.6463 H   0  0  0  0  0  0  0  0  0  0  0  0
  1  2  1  0  0  0  0
  1 22  1  0  0  0  0
  1 23  1  0  0  0  0
  1 24  1  0  0  0  0
  2  3  1  0  0  0  0
  2  4  2  0  0  0  0
  3 25  1  0  0  0  0
  3 26  1  0  0  0  0
  3 27  1  0  0  0  0
  4  5  1  0  0  0  0
  4 28  1  0  0  0  0
  5 19  1  0  0  0  0
  5  6  1  0  0  0  0
  5 29  1  0  0  0  0
  6  7  1  0  0  0  0
  6 19  1  0  0  0  0
  6 30  1  0  0  0  0
  7  8  2  0  0  0  0
  7  9  1  0  0  0  0
  9 10  1  0  0  0  0
  9 31  1  0  0  0  0
 10 11  1  0  0  0  0
 10 32  1  0  0  0  0
 10 33  1  0  0  0  0
 11 12  1  0  0  0  0
 11 13  1  0  0  0  0
 11 34  1  0  0  0  0
 12 35  1  0  0  0  0
 12 36  1  0  0  0  0
 12 37  1  0  0  0  0
 13 17  1  0  0  0  0
 13 14  2  0  0  0  0
 14 15  1  0  0  0  0
 15 16  2  0  0  0  0
 16 17  1  0  0  0  0
 16 38  1  0  0  0  0
 17 18  1  0  0  0  0
 18 39  1  0  0  0  0
 18 40  1  0  0  0  0
 18 41  1  0  0  0  0
 19 20  1  0  0  0  0
 19 21  1  0  0  0  0
 20 42  1  0  0  0  0
 20 43  1  0  0  0  0
 20 44  1  0  0  0  0
 21 45  1  0  0  0  0
 21 46  1  0  0  0  0
 21 47  1  0  0  0  0
M  END
> <s_m_source_file>
AV-unprocessed.smi

> <i_m_source_file_index>
2718

> <i_lp_mmshare_version>
43012

> <i_f3d_flags>
0

> <s_epik_input>
W0NIM11DKFtDSDNdKT1bQ0hdW0NAQEhdKEMxKFtDSDNdKVtDSDNdKVtDQEhdMUMoPU8pW05IXVtDSDJdW0NASF0oW0NIM10pYzJubltjSF1uMltDSDNd

> <s_epik_cmdline>
J2VwaWtfcHl0aG9uJywgJy1waCcsICc3LjAnLCAnLXRuJywgJzgnLCAnLW1hJywgJzIwMCcsICctbWV0YWxfYmluZGluZycsICctaW1hZScsICc8aW5maWxlLm1hZT4nLCAnLW9tYWUnLCAnPG91dGZpbGUubWFlPic=

> <r_lp_tautomer_probability>
1

> <r_epik_Ionization_Penalty>
0.000449586

> <r_epik_Ionization_Penalty_Charging>
0

> <r_epik_Ionization_Penalty_Neutral>
0.000449586

> <r_epik_State_Penalty>
0.000243372

> <r_epik_Charging_Adjusted_Penalty>
0.000243372

> <i_epik_Tot_Q>
0

> <i_epik_Tot_abs_Q>
0

> <r_epik_Metal_State_Penalty>
-0

> <b_epik_Metal_Only>
0

> <s_lp_Force_Field>
OPLS_2005

> <r_lp_Energy>
15.9496

> <b_lp_Chiralities_Consistent>
1

> <s_lp_Variant>
AV-unprocessed.smi:2718-5

> <Gold.Version>
5.8.1

> <Gold.Id.Protein>
6NUR|6NUR_protein|mol2

> <Gold.PLP.Fitness>
44.6003

> <Gold.PLP.PLP>
-41.9202

> <Gold.PLP.part.hbond>
-1.0000

> <Gold.PLP.part.metal>
0.0000

> <Gold.PLP.part.buried>
-4.1515

> <Gold.PLP.part.nonpolar>
-36.7753

> <Gold.PLP.part.repulsive>
0.0356

> <Gold.PLP.ligand.clash>
0.0000

> <Gold.PLP.ligand.torsion>
0.2838

> <Gold.PLP.Chemscore.Hbond>
1.0000

> <Gold.PLP.Chemscore.CHOScore>
0.0000

> <Gold.PLP.Chemscore.Metal>
0.0000

> <Gold.Chemscore.Hbonds>
donor molecule, donor type, donor heavy atom, donor atom, acceptor molecule, acceptor atom, score
      P1  H  7997  8008       L1     8  1.00

> <Gold.PLP.Chemscore.Internal.Correction>
0.2478

> <Gold.Rescore>
     Score         DG    S(hbond)    S(metal)    S(lipo)     H(rot)  DE(clash)    DE(int)     intcor
     15.46     -15.85       0.92        0.00     105.26       1.95       0.07       0.33       ----

> <Gold.Chemscore.Fitness>
15.4563

> <Gold.Chemscore.DG>
-15.8546

> <Gold.Chemscore.ZeroCoef>
-5.4800

> <Gold.Chemscore.Hbond>
0.9162

> <Gold.Chemscore.Metal>
0.0000

> <Gold.Chemscore.Lipo>
105.2578

> <Gold.Chemscore.Internal_Hbond>
0.0000

> <Gold.Chemscore.DEClash>
0.0663

> <Gold.Chemscore.DEInternal>
0.3319

> <Gold.Chemscore.Rot>
1.9533

> <Gold.Chemscore.Internal.Correction>
   9.000000E+99

> <Gold.Chemscore.Hbonds>
donor molecule, donor type, donor heavy atom, donor atom, acceptor molecule, acceptor atom, score
      P1  H  7997  8008       L1     8  0.55

> <Gold.Chemscore.Hbond.Weighted>
-3.0600

> <Gold.Chemscore.Metal.Weighted>
-0.0000

> <Gold.Chemscore.Lipo.Weighted>
-12.3152

> <Gold.Chemscore.Internal_Hbond.Weighted>
0.0000

> <Gold.Chemscore.DEClash.Weighted>
0.0663

> <Gold.Chemscore.DEInternal.Weighted>
0.3319

> <Gold.Chemscore.Rot.Weighted>
5.0005

> <Gold.Chemscore.Internal.Correction.Weighted>
   9.000000E+99

> <Gold.Protein.RotatedTorsions>
[ 6907 6896 6895 6894 ] final  167.37 input  -60.11 | X-H torsion
[ 7974 7965 7964 7962 ] final   25.91 input  175.53 | X-H torsion
[ 8008 7997 7996 7995 ] final -129.63 input   59.86 | X-H torsion
[ 10167 10162 10161 10158 ] final   48.29 input  -65.29 | X-H torsion
[ 10718 10713 10712 10709 ] final -128.24 input   66.30 | X-H torsion
[ 10763 10752 10751 10750 ] final  119.81 input  -60.55 | X-H torsion
[ 11005 11000 10999 10996 ] final   56.47 input  -57.11 | X-H torsion

> <Gold.Protein.ActiveResidues>
 VAL166  LYS551  ARG553  GLY616  TRP617  ASP618  TYR619  PRO620  LYS621  CYS622 
 ASP623  PHE694  ASN695  SER759  ASP760  ASP761  ALA762  ILE779  LEU786  VAL792 
 PHE793  MET794  SER795  GLU796  ALA797  LYS798  CYS799  TRP800  GLU811  SER814 

> <Gold.Protein.RotatedAtoms>
  151.8643  133.3463  159.3713 H   0  0  0  0  0  0  0  0  0  0  0  0  # atno 6907 bound_to 6896
  150.7170  134.5175  159.5647 H   0  0  0  0  0  0  0  0  0  0  0  0  # atno 6908 bound_to 6896
  152.2695  134.7949  160.0467 H   0  0  0  0  0  0  0  0  0  0  0  0  # atno 6909 bound_to 6896
  146.1864  139.7400  142.8863 H   0  0  0  0  0  0  0  0  0  0  0  0  # atno 7974 bound_to 7965
  155.2825  140.0444  157.3016 H   0  0  0  0  0  0  0  0  0  0  0  0  # atno 8008 bound_to 7997
  154.5589  140.2340  155.8335 H   0  0  0  0  0  0  0  0  0  0  0  0  # atno 8009 bound_to 7997
  156.2030  140.3020  155.9574 H   0  0  0  0  0  0  0  0  0  0  0  0  # atno 8010 bound_to 7997
  140.2948  144.3003  150.6232 H   0  0  0  0  0  0  0  0  0  0  0  0  # atno 10167 bound_to 10162
  156.1932  130.6809  151.0449 H   0  0  0  0  0  0  0  0  0  0  0  0  # atno 10718 bound_to 10713
  153.5888  135.3470  155.2903 H   0  0  0  0  0  0  0  0  0  0  0  0  # atno 10763 bound_to 10752
  154.8656  135.4200  154.2539 H   0  0  0  0  0  0  0  0  0  0  0  0  # atno 10764 bound_to 10752
  153.3341  135.7046  153.6993 H   0  0  0  0  0  0  0  0  0  0  0  0  # atno 10765 bound_to 10752
  140.0527  134.5714  155.9245 H   0  0  0  0  0  0  0  0  0  0  0  0  # atno 11005 bound_to 11000
  145.3925  141.0374  143.3116 LP  0  0  0  0  0  0  0  0  0  0  0  0  # atno 17320 bound_to 7965
  144.8406  139.5479  143.6902 LP  0  0  0  0  0  0  0  0  0  0  0  0  # atno 17321 bound_to 7965
  140.5701  143.2182  151.7614 LP  0  0  0  0  0  0  0  0  0  0  0  0  # atno 17342 bound_to 10162
  139.4929  144.4228  151.9958 LP  0  0  0  0  0  0  0  0  0  0  0  0  # atno 17343 bound_to 10162
  157.6941  131.0800  150.7020 LP  0  0  0  0  0  0  0  0  0  0  0  0  # atno 17370 bound_to 10713
  156.7076  130.4642  149.5556 LP  0  0  0  0  0  0  0  0  0  0  0  0  # atno 17371 bound_to 10713
  141.1938  133.6580  156.5563 LP  0  0  0  0  0  0  0  0  0  0  0  0  # atno 17394 bound_to 11000
  140.3892  134.7455  157.4711 LP  0  0  0  0  0  0  0  0  0  0  0  0  # atno 17395 bound_to 11000

$$$$
