AV-unprocessed.smi:37|AV-procd|sdf|331|dock4
  -GOLD-   2262016163D 1   1.00000     0.00000
 Structure written by MMmdl.
 43 44  0  0  0  0  0  0  0  0  2 V2000
  145.8837  134.5279  162.0768 C   0  0  0  0  0  0  0  0  0  0  0  0
  147.2681  135.1121  161.7659 C   0  0  0  0  0  0  0  0  0  0  0  0
  147.1846  136.3384  160.8600 C   0  0  0  0  0  0  0  0  0  0  0  0
  147.5240  137.4534  161.2575 O   0  0  0  0  0  0  0  0  0  0  0  0
  146.7184  136.0466  159.6351 O   0  0  0  0  0  0  0  0  0  0  0  0
  146.5525  137.0848  158.6837 C   0  0  0  0  0  0  0  0  0  0  0  0
  147.8574  137.2624  157.8889 C   0  0  2  0  0  0  0  0  0  0  0  0
  147.7075  138.4348  157.0796 O   0  0  0  0  0  0  0  0  0  0  0  0
  147.9833  138.1649  155.7361 C   0  0  1  0  0  0  0  0  0  0  0  0
  149.4287  138.5092  155.4146 N   0  0  0  0  0  0  0  0  0  0  0  0
  150.4871  137.9794  156.1371 C   0  0  0  0  0  0  0  0  0  0  0  0
  151.7648  138.2975  155.8452 C   0  0  0  0  0  0  0  0  0  0  0  0
  152.7678  137.7644  156.5641 F   0  0  0  0  0  0  0  0  0  0  0  0
  152.0486  139.2246  154.7522 C   0  0  0  0  0  0  0  0  0  0  0  0
  153.2165  139.4997  154.4817 O   0  0  0  0  0  0  0  0  0  0  0  0
  150.9891  139.7521  154.0741 N   0  5  0  0  0  0  0  0  0  0  0  0
  149.6940  139.4373  154.3690 C   0  0  0  0  0  0  0  0  0  0  0  0
  148.7330  139.9203  153.7696 O   0  0  0  0  0  0  0  0  0  0  0  0
  147.7274  136.6683  155.5563 C   0  0  2  0  0  0  0  0  0  0  0  0
  145.7754  136.3710  155.2654 Br  0  0  0  0  0  0  0  0  0  0  0  0
  148.1765  136.1221  156.9041 C   0  0  2  0  0  0  0  0  0  0  0  0
  147.5617  134.8827  157.2364 O   0  0  0  0  0  0  0  0  0  0  0  0
  148.2665  133.9144  157.8490 C   0  0  0  0  0  0  0  0  0  0  0  0
  149.4437  133.9892  158.2014 O   0  0  0  0  0  0  0  0  0  0  0  0
  147.4441  132.6498  158.0836 C   0  0  0  0  0  0  0  0  0  0  0  0
  146.8927  132.0682  156.7745 C   0  0  0  0  0  0  0  0  0  0  0  0
  145.9710  133.6677  162.7407 H   0  0  0  0  0  0  0  0  0  0  0  0
  145.3768  134.1944  161.1705 H   0  0  0  0  0  0  0  0  0  0  0  0
  145.2456  135.2623  162.5697 H   0  0  0  0  0  0  0  0  0  0  0  0
  147.7701  135.3911  162.6927 H   0  0  0  0  0  0  0  0  0  0  0  0
  147.8912  134.3590  161.2830 H   0  0  0  0  0  0  0  0  0  0  0  0
  145.7370  136.8054  158.0157 H   0  0  0  0  0  0  0  0  0  0  0  0
  146.2708  138.0153  159.1776 H   0  0  0  0  0  0  0  0  0  0  0  0
  148.6902  137.3807  158.5829 H   0  0  0  0  0  0  0  0  0  0  0  0
  147.3892  138.8065  155.0831 H   0  0  0  0  0  0  0  0  0  0  0  0
  150.3094  137.3009  156.9561 H   0  0  0  0  0  0  0  0  0  0  0  0
  148.2651  136.2412  154.7098 H   0  0  0  0  0  0  0  0  0  0  0  0
  149.2616  136.0069  156.8858 H   0  0  0  0  0  0  0  0  0  0  0  0
  148.0711  131.9096  158.5819 H   0  0  0  0  0  0  0  0  0  0  0  0
  146.6253  132.8821  158.7649 H   0  0  0  0  0  0  0  0  0  0  0  0
  146.3524  131.1409  156.9643 H   0  0  0  0  0  0  0  0  0  0  0  0
  147.6952  131.8460  156.0698 H   0  0  0  0  0  0  0  0  0  0  0  0
  146.2014  132.7585  156.2893 H   0  0  0  0  0  0  0  0  0  0  0  0
  1  2  1  0  0  0  0
  1 27  1  0  0  0  0
  1 28  1  0  0  0  0
  1 29  1  0  0  0  0
  2  3  1  0  0  0  0
  2 30  1  0  0  0  0
  2 31  1  0  0  0  0
  3  4  2  0  0  0  0
  3  5  1  0  0  0  0
  5  6  1  0  0  0  0
  6  7  1  0  0  0  0
  6 32  1  0  0  0  0
  6 33  1  0  0  0  0
  7 21  1  0  0  0  0
  7  8  1  0  0  0  0
  7 34  1  0  0  0  0
  8  9  1  0  0  0  0
  9 10  1  0  0  0  0
  9 19  1  0  0  0  0
  9 35  1  0  0  0  0
 10 17  1  0  0  0  0
 10 11  1  0  0  0  0
 11 12  2  0  0  0  0
 11 36  1  0  0  0  0
 12 13  1  0  0  0  0
 12 14  1  0  0  0  0
 14 15  2  0  0  0  0
 14 16  1  0  0  0  0
 16 17  1  0  0  0  0
 17 18  2  0  0  0  0
 19 20  1  0  0  0  0
 19 21  1  0  0  0  0
 19 37  1  0  0  0  0
 21 22  1  0  0  0  0
 21 38  1  0  0  0  0
 22 23  1  0  0  0  0
 23 24  2  0  0  0  0
 23 25  1  0  0  0  0
 25 26  1  0  0  0  0
 25 39  1  0  0  0  0
 25 40  1  0  0  0  0
 26 41  1  0  0  0  0
 26 42  1  0  0  0  0
 26 43  1  0  0  0  0
M  CHG  1  16  -1
M  END
> <s_m_source_file>
AV-unprocessed.smi

> <i_m_source_file_index>
37

> <i_lp_mmshare_version>
43012

> <i_f3d_flags>
0

> <s_epik_input>
W0NIM11bQ0gyXUMoPU8pT1tDSDJdW0NAQEhdMU9bQ0BASF0objJbY0hdYyhGKWMoPU8pW25IXWMyPU8pW0NAQEhdKEJyKVtDQEhdMU9DKD1PKVtDSDJdW0NIM10=

> <s_epik_cmdline>
J2VwaWtfcHl0aG9uJywgJy1waCcsICc3LjAnLCAnLXRuJywgJzgnLCAnLW1hJywgJzIwMCcsICctbWV0YWxfYmluZGluZycsICctaW1hZScsICc8aW5maWxlLm1hZT4nLCAnLW9tYWUnLCAnPG91dGZpbGUubWFlPic=

> <r_epik_Ionization_Penalty>
1.08158

> <r_epik_Ionization_Penalty_Charging>
9.05154e-09

> <r_epik_Ionization_Penalty_Neutral>
1.08158

> <r_epik_State_Penalty>
1.13706

> <r_epik_Charging_Adjusted_Penalty>
1.13706

> <i_epik_Tot_Q>
-1

> <i_epik_Tot_abs_Q>
1

> <r_epik_Metal_State_Penalty>
0.00343535

> <b_epik_Metal_Only>
0

> <s_epik_Chemistry_Notes>
This compound has an ester and may undergo hydrolysis at high or low pH. This compound contains an acetal/aminal-like group ( X-CH(R)-Y where X, Y are N, S, or O) that may be acid/base labile, releasing an aldehyde.

> <s_lp_Force_Field>
OPLS_2005

> <r_lp_Energy>
34.8108

> <b_lp_Chiralities_Consistent>
1

> <s_lp_Variant>
AV-unprocessed.smi:37-29

> <Gold.Version>
5.8.1

> <Gold.Id.Protein>
6NUR|6NUR_protein|mol2

> <Gold.PLP.Fitness>
40.0342

> <Gold.PLP.PLP>
-27.4721

> <Gold.PLP.part.hbond>
-6.0000

> <Gold.PLP.part.metal>
0.0000

> <Gold.PLP.part.buried>
-3.7306

> <Gold.PLP.part.nonpolar>
-17.0300

> <Gold.PLP.part.repulsive>
0.2649

> <Gold.PLP.ligand.clash>
0.0000

> <Gold.PLP.ligand.torsion>
0.8429

> <Gold.PLP.Chemscore.Hbond>
4.7200

> <Gold.PLP.Chemscore.CHOScore>
0.0000

> <Gold.PLP.Chemscore.Metal>
0.0000

> <Gold.Chemscore.Hbonds>
donor molecule, donor type, donor heavy atom, donor atom, acceptor molecule, acceptor atom, score
      P1  H  6896  6908       L1    24  1.00
      P1  H  6931  6943       L1     4  0.78
      P1  H  6934  6947       L1     4  0.88
      P1  H  7989  7998       L1    16  0.65
      P1  H  7997  8010       L1    15  1.00

> <Gold.PLP.Chemscore.Internal.Correction>
0.0879

> <Gold.Rescore>
     Score         DG    S(hbond)    S(metal)    S(lipo)     H(rot)  DE(clash)    DE(int)     intcor
     12.81     -15.99       4.66        0.00      28.29       3.27       0.13       3.05       ----

> <Gold.Chemscore.Fitness>
12.8067

> <Gold.Chemscore.DG>
-15.9868

> <Gold.Chemscore.ZeroCoef>
-5.4800

> <Gold.Chemscore.Hbond>
4.6588

> <Gold.Chemscore.Metal>
0.0000

> <Gold.Chemscore.Lipo>
28.2879

> <Gold.Chemscore.Internal_Hbond>
0.0000

> <Gold.Chemscore.DEClash>
0.1263

> <Gold.Chemscore.DEInternal>
3.0539

> <Gold.Chemscore.Rot>
3.2669

> <Gold.Chemscore.Internal.Correction>
   9.000000E+99

> <Gold.Chemscore.Hbonds>
donor molecule, donor type, donor heavy atom, donor atom, acceptor molecule, acceptor atom, score
      P1  H  6896  6908       L1    24  0.99
      P1  H  6931  6943       L1     4  0.78
      P1  H  6934  6947       L1     4  0.86
      P1  H  7989  7998       L1    16  0.15
      P1  H  7997  8010       L1    15  0.96

> <Gold.Chemscore.Hbond.Weighted>
-15.5605

> <Gold.Chemscore.Metal.Weighted>
-0.0000

> <Gold.Chemscore.Lipo.Weighted>
-3.3097

> <Gold.Chemscore.Internal_Hbond.Weighted>
0.0000

> <Gold.Chemscore.DEClash.Weighted>
0.1263

> <Gold.Chemscore.DEInternal.Weighted>
3.0539

> <Gold.Chemscore.Rot.Weighted>
8.3634

> <Gold.Chemscore.Internal.Correction.Weighted>
   9.000000E+99

> <Gold.Protein.RotatedTorsions>
[ 6907 6896 6895 6894 ] final  120.70 input  -60.11 | X-H torsion
[ 7974 7965 7964 7962 ] final   84.40 input  175.53 | X-H torsion
[ 8008 7997 7996 7995 ] final  106.10 input   59.86 | X-H torsion
[ 10167 10162 10161 10158 ] final   90.15 input  -65.29 | X-H torsion
[ 10718 10713 10712 10709 ] final   41.05 input   66.30 | X-H torsion
[ 10763 10752 10751 10750 ] final  149.71 input  -60.55 | X-H torsion
[ 11005 11000 10999 10996 ] final   72.76 input  -57.11 | X-H torsion

> <Gold.Protein.ActiveResidues>
 VAL166  LYS551  ARG553  GLY616  TRP617  ASP618  TYR619  PRO620  LYS621  CYS622 
 ASP623  PHE694  ASN695  SER759  ASP760  ASP761  ALA762  ILE779  LEU786  VAL792 
 PHE793  MET794  SER795  GLU796  ALA797  LYS798  CYS799  TRP800  GLU811  SER814 

> <Gold.Protein.RotatedAtoms>
  152.4378  133.7393  159.6631 H   0  0  0  0  0  0  0  0  0  0  0  0  # atno 6907 bound_to 6896
  150.8265  133.8153  159.3123 H   0  0  0  0  0  0  0  0  0  0  0  0  # atno 6908 bound_to 6896
  151.5820  135.1060  160.0071 H   0  0  0  0  0  0  0  0  0  0  0  0  # atno 6909 bound_to 6896
  145.5992  139.2350  143.2255 H   0  0  0  0  0  0  0  0  0  0  0  0  # atno 7974 bound_to 7965
  156.1715  140.3119  155.8981 H   0  0  0  0  0  0  0  0  0  0  0  0  # atno 8008 bound_to 7997
  155.3578  140.0474  157.3063 H   0  0  0  0  0  0  0  0  0  0  0  0  # atno 8009 bound_to 7997
  154.5245  140.2210  155.8925 H   0  0  0  0  0  0  0  0  0  0  0  0  # atno 8010 bound_to 7997
  139.8502  144.6597  150.9179 H   0  0  0  0  0  0  0  0  0  0  0  0  # atno 10167 bound_to 10162
  157.3891  130.7796  149.7255 H   0  0  0  0  0  0  0  0  0  0  0  0  # atno 10718 bound_to 10713
  154.0756  135.2863  155.3300 H   0  0  0  0  0  0  0  0  0  0  0  0  # atno 10763 bound_to 10752
  154.6717  135.5297  153.8151 H   0  0  0  0  0  0  0  0  0  0  0  0  # atno 10764 bound_to 10752
  153.0468  135.6559  154.0935 H   0  0  0  0  0  0  0  0  0  0  0  0  # atno 10765 bound_to 10752
  139.9474  134.7288  156.0945 H   0  0  0  0  0  0  0  0  0  0  0  0  # atno 11005 bound_to 11000
  146.1589  140.6818  142.9287 LP  0  0  0  0  0  0  0  0  0  0  0  0  # atno 17320 bound_to 7965
  144.7317  140.4691  143.6933 LP  0  0  0  0  0  0  0  0  0  0  0  0  # atno 17321 bound_to 7965
  140.7788  143.3834  151.1436 LP  0  0  0  0  0  0  0  0  0  0  0  0  # atno 17342 bound_to 10162
  139.7473  143.8832  152.3067 LP  0  0  0  0  0  0  0  0  0  0  0  0  # atno 17343 bound_to 10162
  155.9794  130.4041  150.3590 LP  0  0  0  0  0  0  0  0  0  0  0  0  # atno 17370 bound_to 10713
  157.1704  131.0367  151.2798 LP  0  0  0  0  0  0  0  0  0  0  0  0  # atno 17371 bound_to 10713
  141.1128  133.6637  156.3021 LP  0  0  0  0  0  0  0  0  0  0  0  0  # atno 17394 bound_to 11000
  140.5801  134.5754  157.5477 LP  0  0  0  0  0  0  0  0  0  0  0  0  # atno 17395 bound_to 11000

$$$$
