AV-unprocessed.smi:1208|AV-procd|sdf|5061|dock2
  -GOLD-   22720 4103D 1   1.00000     0.00000
 Structure written by MMmdl.
 35 36  0  0  0  0  0  0  0  0  2 V2000
  152.4057  137.8653  158.0570 C   0  0  0  0  0  0  0  0  0  0  0  0
  151.1491  138.6507  157.6504 C   0  0  2  0  0  0  0  0  0  0  0  0
  149.9919  137.7645  157.7572 N   0  0  0  0  0  0  0  0  0  0  0  0
  149.6585  137.0231  158.8255 C   0  0  0  0  0  0  0  0  0  0  0  0
  150.3154  137.0053  159.8680 O   0  0  0  0  0  0  0  0  0  0  0  0
  148.3828  136.1796  158.6684 C   0  0  0  0  0  0  0  0  0  0  0  0
  147.9057  135.5614  159.9144 N   0  0  0  0  0  0  0  0  0  0  0  0
  147.9507  134.1015  159.9029 N   0  5  0  0  0  0  0  0  0  0  0  0
  147.5448  133.4177  161.0056 C   0  0  0  0  0  0  0  0  0  0  0  0
  147.5655  132.1908  161.0743 O   0  0  0  0  0  0  0  0  0  0  0  0
  147.0636  134.1807  162.1454 C   0  0  0  0  0  0  0  0  0  0  0  0
  147.0130  135.5270  162.1202 C   0  0  0  0  0  0  0  0  0  0  0  0
  147.4384  136.3013  160.9604 C   0  0  0  0  0  0  0  0  0  0  0  0
  147.3837  137.5308  160.9259 O   0  0  0  0  0  0  0  0  0  0  0  0
  151.2428  139.2093  156.2159 C   0  0  2  0  0  0  0  0  0  0  0  0
  150.1026  140.1523  155.8239 C   0  0  0  0  0  0  0  0  0  0  0  0
  150.0901  140.0146  154.3196 C   0  0  0  0  0  0  0  0  0  0  0  0
  150.3694  138.5257  154.1488 C   0  0  0  0  0  0  0  0  0  0  0  0
  151.1810  138.1522  155.2587 O   0  0  0  0  0  0  0  0  0  0  0  0
  153.2940  138.4965  158.0382 H   0  0  0  0  0  0  0  0  0  0  0  0
  152.5816  137.0227  157.3874 H   0  0  0  0  0  0  0  0  0  0  0  0
  152.3100  137.4717  159.0695 H   0  0  0  0  0  0  0  0  0  0  0  0
  151.0452  139.4898  158.3404 H   0  0  0  0  0  0  0  0  0  0  0  0
  149.3875  137.7131  156.9504 H   0  0  0  0  0  0  0  0  0  0  0  0
  147.5971  136.8083  158.2460 H   0  0  0  0  0  0  0  0  0  0  0  0
  148.5739  135.4100  157.9178 H   0  0  0  0  0  0  0  0  0  0  0  0
  146.7374  133.6558  163.0312 H   0  0  0  0  0  0  0  0  0  0  0  0
  146.6471  136.0529  162.9895 H   0  0  0  0  0  0  0  0  0  0  0  0
  152.1942  139.7246  156.0731 H   0  0  0  0  0  0  0  0  0  0  0  0
  149.1543  139.8043  156.2364 H   0  0  0  0  0  0  0  0  0  0  0  0
  150.2644  141.1782  156.1557 H   0  0  0  0  0  0  0  0  0  0  0  0
  149.1499  140.3283  153.8655 H   0  0  0  0  0  0  0  0  0  0  0  0
  150.8977  140.6033  153.8823 H   0  0  0  0  0  0  0  0  0  0  0  0
  149.4401  137.9567  154.1945 H   0  0  0  0  0  0  0  0  0  0  0  0
  150.8594  138.2995  153.2016 H   0  0  0  0  0  0  0  0  0  0  0  0
  1  2  1  0  0  0  0
  1 20  1  0  0  0  0
  1 21  1  0  0  0  0
  1 22  1  0  0  0  0
  2  3  1  0  0  0  0
  2 15  1  0  0  0  0
  2 23  1  0  0  0  0
  3  4  1  0  0  0  0
  3 24  1  0  0  0  0
  4  5  2  0  0  0  0
  4  6  1  0  0  0  0
  6 25  1  0  0  0  0
  6 26  1  0  0  0  0
  6  7  1  0  0  0  0
  7  8  1  0  0  0  0
  7 13  1  0  0  0  0
  8  9  1  0  0  0  0
  9 10  2  0  0  0  0
  9 11  1  0  0  0  0
 11 27  1  0  0  0  0
 11 12  2  0  0  0  0
 12 28  1  0  0  0  0
 12 13  1  0  0  0  0
 13 14  2  0  0  0  0
 15 19  1  0  0  0  0
 15 16  1  0  0  0  0
 15 29  1  0  0  0  0
 16 17  1  0  0  0  0
 16 30  1  0  0  0  0
 16 31  1  0  0  0  0
 17 18  1  0  0  0  0
 17 32  1  0  0  0  0
 17 33  1  0  0  0  0
 18 19  1  0  0  0  0
 18 34  1  0  0  0  0
 18 35  1  0  0  0  0
M  CHG  1   8  -1
M  END
> <s_m_source_file>
AV-unprocessed.smi

> <i_m_source_file_index>
1208

> <i_lp_mmshare_version>
43012

> <i_f3d_flags>
0

> <s_epik_input>
TzFbQ0gyXVtDSDJdW0NIMl1bQ0BIXTFbQ0BIXShbQ0gzXSlbTkhdQyg9TylbQ0gyXW4yW25IXWMoPU8pW2NIXVtjSF1jMj1P

> <s_epik_cmdline>
J2VwaWtfcHl0aG9uJywgJy1waCcsICc3LjAnLCAnLXRuJywgJzgnLCAnLW1hJywgJzIwMCcsICctbWV0YWxfYmluZGluZycsICctaW1hZScsICc8aW5maWxlLm1hZT4nLCAnLW9tYWUnLCAnPG91dGZpbGUubWFlPic=

> <r_lp_tautomer_probability>
1

> <r_epik_Ionization_Penalty>
0.0975494

> <r_epik_Ionization_Penalty_Charging>
0.0975494

> <r_epik_Ionization_Penalty_Neutral>
2.30132e-08

> <r_epik_State_Penalty>
0.034345

> <r_epik_Charging_Adjusted_Penalty>
0.131894

> <i_epik_Tot_Q>
-1

> <i_epik_Tot_abs_Q>
1

> <r_epik_Metal_State_Penalty>
0.034345

> <b_epik_Metal_Only>
0

> <s_lp_Force_Field>
OPLS_2005

> <r_lp_Energy>
34.668

> <b_lp_Chiralities_Consistent>
1

> <s_lp_Variant>
AV-unprocessed.smi:1208-1

> <Gold.Version>
5.8.1

> <Gold.Id.Protein>
6NUR|6NUR_protein|mol2

> <Gold.PLP.Fitness>
37.9937

> <Gold.PLP.PLP>
-29.9961

> <Gold.PLP.part.hbond>
-4.0565

> <Gold.PLP.part.metal>
0.0000

> <Gold.PLP.part.buried>
-3.7553

> <Gold.PLP.part.nonpolar>
-22.7302

> <Gold.PLP.part.repulsive>
0.1052

> <Gold.PLP.ligand.clash>
0.0000

> <Gold.PLP.ligand.torsion>
0.2428

> <Gold.PLP.Chemscore.Hbond>
2.8240

> <Gold.PLP.Chemscore.CHOScore>
0.0000

> <Gold.PLP.Chemscore.Metal>
0.0000

> <Gold.Chemscore.Hbonds>
donor molecule, donor type, donor heavy atom, donor atom, acceptor molecule, acceptor atom, score
      P1  H  6896  6908       L1     5  0.88
      P1  H  6931  6943       L1    14  0.64
      P1  H  6934  6947       L1    14  0.93

> <Gold.PLP.Chemscore.Internal.Correction>
0.0112

> <Gold.Rescore>
     Score         DG    S(hbond)    S(metal)    S(lipo)     H(rot)  DE(clash)    DE(int)     intcor
     13.98     -15.55       2.74        0.00      51.50       1.99       0.02       1.55       ----

> <Gold.Chemscore.Fitness>
13.9774

> <Gold.Chemscore.DG>
-15.5451

> <Gold.Chemscore.ZeroCoef>
-5.4800

> <Gold.Chemscore.Hbond>
2.7378

> <Gold.Chemscore.Metal>
0.0000

> <Gold.Chemscore.Lipo>
51.5002

> <Gold.Chemscore.Internal_Hbond>
0.0000

> <Gold.Chemscore.DEClash>
0.0202

> <Gold.Chemscore.DEInternal>
1.5475

> <Gold.Chemscore.Rot>
1.9940

> <Gold.Chemscore.Internal.Correction>
   9.000000E+99

> <Gold.Chemscore.Hbonds>
donor molecule, donor type, donor heavy atom, donor atom, acceptor molecule, acceptor atom, score
      P1  H  6896  6908       L1     5  0.38
      P1  H  6931  6943       L1    14  0.39
      P1  H  6934  6947       L1    14  0.86

> <Gold.Chemscore.Hbond.Weighted>
-9.1443

> <Gold.Chemscore.Metal.Weighted>
-0.0000

> <Gold.Chemscore.Lipo.Weighted>
-6.0255

> <Gold.Chemscore.Internal_Hbond.Weighted>
0.0000

> <Gold.Chemscore.DEClash.Weighted>
0.0202

> <Gold.Chemscore.DEInternal.Weighted>
1.5475

> <Gold.Chemscore.Rot.Weighted>
5.1047

> <Gold.Chemscore.Internal.Correction.Weighted>
   9.000000E+99

> <Gold.Protein.RotatedTorsions>
[ 6907 6896 6895 6894 ] final -143.87 input  -60.11 | X-H torsion
[ 7974 7965 7964 7962 ] final   82.59 input  175.53 | X-H torsion
[ 8008 7997 7996 7995 ] final   74.99 input   59.86 | X-H torsion
[ 10167 10162 10161 10158 ] final   -2.89 input  -65.29 | X-H torsion
[ 10718 10713 10712 10709 ] final  -45.75 input   66.30 | X-H torsion
[ 10763 10752 10751 10750 ] final  -91.30 input  -60.55 | X-H torsion
[ 11005 11000 10999 10996 ] final  173.43 input  -57.11 | X-H torsion

> <Gold.Protein.ActiveResidues>
 VAL166  LYS551  ARG553  GLY616  TRP617  ASP618  TYR619  PRO620  LYS621  CYS622 
 ASP623  PHE694  ASN695  SER759  ASP760  ASP761  ALA762  ILE779  LEU786  VAL792 
 PHE793  MET794  SER795  GLU796  ALA797  LYS798  CYS799  TRP800  GLU811  SER814 

> <Gold.Protein.RotatedAtoms>
  151.1063  133.5206  159.2607 H   0  0  0  0  0  0  0  0  0  0  0  0  # atno 6907 bound_to 6896
  151.2017  135.0445  159.8885 H   0  0  0  0  0  0  0  0  0  0  0  0  # atno 6908 bound_to 6896
  152.5447  134.0890  159.8322 H   0  0  0  0  0  0  0  0  0  0  0  0  # atno 6909 bound_to 6896
  145.6231  139.2389  143.2127 H   0  0  0  0  0  0  0  0  0  0  0  0  # atno 7974 bound_to 7965
  155.8064  140.3474  155.5432 H   0  0  0  0  0  0  0  0  0  0  0  0  # atno 8008 bound_to 7997
  155.8486  140.0952  157.1710 H   0  0  0  0  0  0  0  0  0  0  0  0  # atno 8009 bound_to 7997
  154.4007  140.1381  156.3803 H   0  0  0  0  0  0  0  0  0  0  0  0  # atno 8010 bound_to 7997
  140.6869  143.6604  150.8271 H   0  0  0  0  0  0  0  0  0  0  0  0  # atno 10167 bound_to 10162
  156.2252  130.4169  149.8943 H   0  0  0  0  0  0  0  0  0  0  0  0  # atno 10718 bound_to 10713
  154.6746  135.5273  153.8183 H   0  0  0  0  0  0  0  0  0  0  0  0  # atno 10763 bound_to 10752
  153.0524  135.6537  154.0671 H   0  0  0  0  0  0  0  0  0  0  0  0  # atno 10764 bound_to 10752
  154.0566  135.2965  155.3311 H   0  0  0  0  0  0  0  0  0  0  0  0  # atno 10765 bound_to 10752
  140.3404  134.7281  157.4198 H   0  0  0  0  0  0  0  0  0  0  0  0  # atno 11005 bound_to 11000
  146.1416  140.7050  142.9364 LP  0  0  0  0  0  0  0  0  0  0  0  0  # atno 17320 bound_to 7965
  144.7223  140.4414  143.6999 LP  0  0  0  0  0  0  0  0  0  0  0  0  # atno 17321 bound_to 7965
  140.0312  143.5441  152.2759 LP  0  0  0  0  0  0  0  0  0  0  0  0  # atno 17342 bound_to 10162
  139.6235  144.7633  151.2689 LP  0  0  0  0  0  0  0  0  0  0  0  0  # atno 17343 bound_to 10162
  156.6576  130.8769  151.3542 LP  0  0  0  0  0  0  0  0  0  0  0  0  # atno 17370 bound_to 10713
  157.7107  130.9437  150.1079 LP  0  0  0  0  0  0  0  0  0  0  0  0  # atno 17371 bound_to 10713
  140.0785  134.5763  155.8565 LP  0  0  0  0  0  0  0  0  0  0  0  0  # atno 17394 bound_to 11000
  141.2040  133.6636  156.6094 LP  0  0  0  0  0  0  0  0  0  0  0  0  # atno 17395 bound_to 11000

$$$$
