AV-unprocessed.smi:287|AV-procd|sdf|2188|dock6
  -GOLD-   2262021573D 1   1.00000     0.00000
 Structure written by MMmdl.
 55 58  0  0  0  0  0  0  0  0  1 V2000
  148.5939  126.2759  150.6450 C   0  0  0  0  0  0  0  0  0  0  0  0
  147.9180  127.3641  151.4061 C   0  0  0  0  0  0  0  0  0  0  0  0
  148.2684  128.1181  152.4879 C   0  0  0  0  0  0  0  0  0  0  0  0
  147.1907  129.0169  152.7478 C   0  0  0  0  0  0  0  0  0  0  0  0
  147.1254  130.0482  153.8658 C   0  0  2  0  0  0  0  0  0  0  0  0
  148.2866  129.8201  154.8471 C   0  0  0  0  0  0  0  0  0  0  0  0
  145.9470  129.9386  154.6412 O   0  0  0  0  0  0  0  0  0  0  0  0
  147.1517  131.5018  153.3408 C   0  0  0  0  0  0  0  0  0  0  0  0
  145.9715  131.8473  152.5584 N   0  0  0  0  0  0  0  0  0  0  0  0
  145.5909  133.1334  152.4071 C   0  0  0  0  0  0  0  0  0  0  0  0
  144.5885  133.3444  151.5207 N   0  0  0  0  0  0  0  0  0  0  0  0
  144.1364  134.5819  151.2982 C   0  0  0  0  0  0  0  0  0  0  0  0
  144.5415  135.7291  151.8459 N   0  0  0  0  0  0  0  0  0  0  0  0
  145.5533  135.5244  152.7379 C   0  0  0  0  0  0  0  0  0  0  0  0
  146.1351  134.2699  153.0768 C   0  0  0  0  0  0  0  0  0  0  0  0
  147.1374  134.4736  154.0199 N   0  0  0  0  0  0  0  0  0  0  0  0
  147.1439  135.7640  154.2173 C   0  0  0  0  0  0  0  0  0  0  0  0
  146.2240  136.4741  153.4768 N   0  0  0  0  0  0  0  0  0  0  0  0
  145.9492  137.9489  153.4564 C   0  0  1  0  0  0  0  0  0  0  0  0
  146.7784  138.5658  154.3952 O   0  0  0  0  0  0  0  0  0  0  0  0
  147.8966  139.1474  153.7344 C   0  0  2  0  0  0  0  0  0  0  0  0
  148.5949  140.1941  154.6197 C   0  0  0  0  0  0  0  0  0  0  0  0
  149.5598  140.8967  153.8660 O   0  0  0  0  0  0  0  0  0  0  0  0
  147.2626  139.6855  152.4463 C   0  0  2  0  0  0  0  0  0  0  0  0
  146.6036  140.9167  152.6829 O   0  0  0  0  0  0  0  0  0  0  0  0
  146.2569  138.5984  152.0830 C   0  0  1  0  0  0  0  0  0  0  0  0
  146.8352  137.7140  151.1379 O   0  0  0  0  0  0  0  0  0  0  0  0
  146.2461  128.7146  151.7971 C   0  0  0  0  0  0  0  0  0  0  0  0
  144.8793  129.2332  151.4941 C   0  0  0  0  0  0  0  0  0  0  0  0
  146.6818  127.7193  150.9752 O   0  0  0  0  0  0  0  0  0  0  0  0
  144.9051  138.0348  153.7600 H   0  0  0  0  0  0  0  0  0  0  0  0
  148.6024  138.3603  153.4613 H   0  0  0  0  0  0  0  0  0  0  0  0
  148.0074  139.8484  151.6658 H   0  0  0  0  0  0  0  0  0  0  0  0
  145.3402  139.0084  151.6572 H   0  0  0  0  0  0  0  0  0  0  0  0
  149.6181  126.1366  150.9915 H   0  0  0  0  0  0  0  0  0  0  0  0
  148.6266  126.5105  149.5808 H   0  0  0  0  0  0  0  0  0  0  0  0
  148.0634  125.3316  150.7682 H   0  0  0  0  0  0  0  0  0  0  0  0
  149.1986  128.0385  153.0306 H   0  0  0  0  0  0  0  0  0  0  0  0
  149.2504  129.9169  154.3460 H   0  0  0  0  0  0  0  0  0  0  0  0
  148.2443  128.8226  155.2865 H   0  0  0  0  0  0  0  0  0  0  0  0
  148.2689  130.5424  155.6643 H   0  0  0  0  0  0  0  0  0  0  0  0
  145.8849  129.0540  154.9669 H   0  0  0  0  0  0  0  0  0  0  0  0
  147.2785  132.2063  154.1643 H   0  0  0  0  0  0  0  0  0  0  0  0
  148.0176  131.6173  152.6879 H   0  0  0  0  0  0  0  0  0  0  0  0
  145.4622  131.0676  152.1673 H   0  0  0  0  0  0  0  0  0  0  0  0
  143.3369  134.6639  150.5768 H   0  0  0  0  0  0  0  0  0  0  0  0
  147.8251  136.2280  154.9157 H   0  0  0  0  0  0  0  0  0  0  0  0
  147.8690  140.9230  154.9819 H   0  0  0  0  0  0  0  0  0  0  0  0
  149.0592  139.7343  155.4928 H   0  0  0  0  0  0  0  0  0  0  0  0
  149.6646  140.4630  153.0328 H   0  0  0  0  0  0  0  0  0  0  0  0
  145.6839  140.7437  152.8147 H   0  0  0  0  0  0  0  0  0  0  0  0
  147.0490  136.9060  151.5797 H   0  0  0  0  0  0  0  0  0  0  0  0
  144.2800  129.2983  152.4023 H   0  0  0  0  0  0  0  0  0  0  0  0
  144.3558  128.5806  150.7949 H   0  0  0  0  0  0  0  0  0  0  0  0
  144.9338  130.2275  151.0508 H   0  0  0  0  0  0  0  0  0  0  0  0
  1  2  1  0  0  0  0
  1 35  1  0  0  0  0
  1 36  1  0  0  0  0
  1 37  1  0  0  0  0
  2 30  1  0  0  0  0
  2  3  2  0  0  0  0
  3  4  1  0  0  0  0
  3 38  1  0  0  0  0
  4  5  1  0  0  0  0
  4 28  2  0  0  0  0
  5  6  1  0  0  0  0
  5  7  1  0  0  0  0
  5  8  1  0  0  0  0
  6 39  1  0  0  0  0
  6 40  1  0  0  0  0
  6 41  1  0  0  0  0
  7 42  1  0  0  0  0
  8  9  1  0  0  0  0
  8 43  1  0  0  0  0
  8 44  1  0  0  0  0
  9 10  1  0  0  0  0
  9 45  1  0  0  0  0
 10 15  1  0  0  0  0
 10 11  2  0  0  0  0
 11 12  1  0  0  0  0
 12 13  2  0  0  0  0
 12 46  1  0  0  0  0
 13 14  1  0  0  0  0
 14 18  1  0  0  0  0
 14 15  2  0  0  0  0
 15 16  1  0  0  0  0
 16 17  2  0  0  0  0
 17 18  1  0  0  0  0
 17 47  1  0  0  0  0
 18 19  1  0  0  0  0
 19 31  1  0  0  0  0
 19 26  1  0  0  0  0
 19 20  1  0  0  0  0
 20 21  1  0  0  0  0
 21 32  1  0  0  0  0
 21 22  1  0  0  0  0
 21 24  1  0  0  0  0
 22 23  1  0  0  0  0
 22 48  1  0  0  0  0
 22 49  1  0  0  0  0
 23 50  1  0  0  0  0
 24 33  1  0  0  0  0
 24 25  1  0  0  0  0
 24 26  1  0  0  0  0
 25 51  1  0  0  0  0
 26 34  1  0  0  0  0
 26 27  1  0  0  0  0
 27 52  1  0  0  0  0
 28 29  1  0  0  0  0
 28 30  1  0  0  0  0
 29 53  1  0  0  0  0
 29 54  1  0  0  0  0
 29 55  1  0  0  0  0
M  END
> <s_m_source_file>
AV-unprocessed.smi

> <i_m_source_file_index>
287

> <i_lp_mmshare_version>
43012

> <i_f3d_flags>
0

> <s_epik_input>
W0NIM11jMVtjSF1jKGMobzEpW0NIM10pW0NAQF0oW0NIM10pKFtPSF0pW0NIMl1bTkhdYyhuW2NIXW4yKWMoYzIzKW5bY0hdbjNbQ0BASF00T1tDQEhdKFtDSDJdW09IXSlbQ0BASF0oW09IXSlbQ0BIXTRbT0hd

> <s_epik_cmdline>
J2VwaWtfcHl0aG9uJywgJy1waCcsICc3LjAnLCAnLXRuJywgJzgnLCAnLW1hJywgJzIwMCcsICctbWV0YWxfYmluZGluZycsICctaW1hZScsICc8aW5maWxlLm1hZT4nLCAnLW9tYWUnLCAnPG91dGZpbGUubWFlPic=

> <r_lp_tautomer_probability>
1

> <r_epik_Ionization_Penalty>
0.000992612

> <r_epik_Ionization_Penalty_Charging>
0

> <r_epik_Ionization_Penalty_Neutral>
0.000992612

> <r_epik_State_Penalty>
-0

> <r_epik_Charging_Adjusted_Penalty>
0

> <i_epik_Tot_Q>
0

> <i_epik_Tot_abs_Q>
0

> <r_epik_Metal_State_Penalty>
-0

> <b_epik_Metal_Only>
0

> <s_epik_Chemistry_Notes>
This compound contains an acetal/aminal-like group ( X-CH(R)-Y where X, Y are N, S, or O) that may be acid/base labile, releasing an aldehyde.

> <s_lp_Force_Field>
OPLS_2005

> <r_lp_Energy>
43.0869

> <b_lp_Chiralities_Consistent>
1

> <s_lp_Variant>
AV-unprocessed.smi:287-12

> <Gold.Version>
5.8.1

> <Gold.Id.Protein>
6NUR|6NUR_protein|mol2

> <Gold.PLP.Fitness>
53.4708

> <Gold.PLP.PLP>
-41.8130

> <Gold.PLP.part.hbond>
-6.4257

> <Gold.PLP.part.metal>
0.0000

> <Gold.PLP.part.buried>
1.6394

> <Gold.PLP.part.nonpolar>
-36.5841

> <Gold.PLP.part.repulsive>
0.5945

> <Gold.PLP.ligand.clash>
0.0142

> <Gold.PLP.ligand.torsion>
0.4980

> <Gold.PLP.Chemscore.Hbond>
3.5600

> <Gold.PLP.Chemscore.CHOScore>
0.6129

> <Gold.PLP.Chemscore.Metal>
0.0000

> <Gold.Chemscore.Hbonds>
donor molecule, donor type, donor heavy atom, donor atom, acceptor molecule, acceptor atom, score
      L1  H    23    50       P1  7957  1.00
      L1  H    25    51       P1 10175  0.99
      L1  H    27    52       P1  7948  0.46
      P1  H  7954  7966       L1    27  1.00
      L1  C    12    46       P1 10186  0.96

> <Gold.PLP.Chemscore.Internal.Correction>
0.1491

> <Gold.Rescore>
     Score         DG    S(hbond)    S(metal)    S(lipo)     H(rot)  DE(clash)    DE(int)     intcor
      6.20     -12.05       2.56        0.00      98.37       5.27       2.50       3.36       ----

> <Gold.Chemscore.Fitness>
6.1970

> <Gold.Chemscore.DG>
-12.0536

> <Gold.Chemscore.ZeroCoef>
-5.4800

> <Gold.Chemscore.Hbond>
2.5593

> <Gold.Chemscore.Metal>
0.0000

> <Gold.Chemscore.Lipo>
98.3729

> <Gold.Chemscore.Internal_Hbond>
0.0000

> <Gold.Chemscore.DEClash>
2.4951

> <Gold.Chemscore.DEInternal>
3.3615

> <Gold.Chemscore.Rot>
5.2672

> <Gold.Chemscore.Internal.Correction>
   9.000000E+99

> <Gold.Chemscore.Hbonds>
donor molecule, donor type, donor heavy atom, donor atom, acceptor molecule, acceptor atom, score
      L1  H    23    50       P1  7957  1.00
      L1  H    25    51       P1 10175  0.41
      L1  H    27    52       P1  7948  0.44
      P1  H  7954  7966       L1    27  0.40

> <Gold.Chemscore.Hbond.Weighted>
-8.5479

> <Gold.Chemscore.Metal.Weighted>
-0.0000

> <Gold.Chemscore.Lipo.Weighted>
-11.5096

> <Gold.Chemscore.Internal_Hbond.Weighted>
0.0000

> <Gold.Chemscore.DEClash.Weighted>
2.4951

> <Gold.Chemscore.DEInternal.Weighted>
3.3615

> <Gold.Chemscore.Rot.Weighted>
13.4839

> <Gold.Chemscore.Internal.Correction.Weighted>
   9.000000E+99

> <Gold.Protein.RotatedTorsions>
[ 6907 6896 6895 6894 ] final   73.50 input  -60.11 | X-H torsion
[ 7974 7965 7964 7962 ] final   58.01 input  175.53 | X-H torsion
[ 8008 7997 7996 7995 ] final  125.70 input   59.86 | X-H torsion
[ 10167 10162 10161 10158 ] final  109.05 input  -65.29 | X-H torsion
[ 10718 10713 10712 10709 ] final   74.04 input   66.30 | X-H torsion
[ 10763 10752 10751 10750 ] final  179.93 input  -60.55 | X-H torsion
[ 11005 11000 10999 10996 ] final  -65.78 input  -57.11 | X-H torsion

> <Gold.Protein.ActiveResidues>
 VAL166  LYS551  ARG553  GLY616  TRP617  ASP618  TYR619  PRO620  LYS621  CYS622 
 ASP623  PHE694  ASN695  SER759  ASP760  ASP761  ALA762  ILE779  LEU786  VAL792 
 PHE793  MET794  SER795  GLU796  ALA797  LYS798  CYS799  TRP800  GLU811  SER814 

> <Gold.Protein.RotatedAtoms>
  152.4926  134.4413  159.9544 H   0  0  0  0  0  0  0  0  0  0  0  0  # atno 6907 bound_to 6896
  151.4397  133.3641  159.2788 H   0  0  0  0  0  0  0  0  0  0  0  0  # atno 6908 bound_to 6896
  150.9096  134.8536  159.7476 H   0  0  0  0  0  0  0  0  0  0  0  0  # atno 6909 bound_to 6896
  145.9228  139.3743  143.0468 H   0  0  0  0  0  0  0  0  0  0  0  0  # atno 7974 bound_to 7965
  156.2842  140.2710  156.1992 H   0  0  0  0  0  0  0  0  0  0  0  0  # atno 8008 bound_to 7997
  155.0378  140.0386  157.2516 H   0  0  0  0  0  0  0  0  0  0  0  0  # atno 8009 bound_to 7997
  154.7299  140.2704  155.6470 H   0  0  0  0  0  0  0  0  0  0  0  0  # atno 8010 bound_to 7997
  139.6797  144.7119  151.1538 H   0  0  0  0  0  0  0  0  0  0  0  0  # atno 10167 bound_to 10162
  157.6575  130.9658  150.1154 H   0  0  0  0  0  0  0  0  0  0  0  0  # atno 10718 bound_to 10713
  154.5270  135.2797  155.1213 H   0  0  0  0  0  0  0  0  0  0  0  0  # atno 10763 bound_to 10752
  154.2748  135.6296  153.5328 H   0  0  0  0  0  0  0  0  0  0  0  0  # atno 10764 bound_to 10752
  152.9948  135.5637  154.5773 H   0  0  0  0  0  0  0  0  0  0  0  0  # atno 10765 bound_to 10752
  141.1464  133.6687  156.6038 H   0  0  0  0  0  0  0  0  0  0  0  0  # atno 11005 bound_to 11000
  145.8527  140.9519  143.0741 LP  0  0  0  0  0  0  0  0  0  0  0  0  # atno 17320 bound_to 7965
  144.6755  140.0428  143.7480 LP  0  0  0  0  0  0  0  0  0  0  0  0  # atno 17321 bound_to 7965
  140.7648  143.5718  150.8988 LP  0  0  0  0  0  0  0  0  0  0  0  0  # atno 17342 bound_to 10162
  139.9389  143.6405  152.3058 LP  0  0  0  0  0  0  0  0  0  0  0  0  # atno 17343 bound_to 10162
  156.2040  130.3662  149.8753 LP  0  0  0  0  0  0  0  0  0  0  0  0  # atno 17370 bound_to 10713
  156.6649  130.8797  151.3553 LP  0  0  0  0  0  0  0  0  0  0  0  0  # atno 17371 bound_to 10713
  140.3668  134.7640  157.4571 LP  0  0  0  0  0  0  0  0  0  0  0  0  # atno 17394 bound_to 11000
  140.0742  134.5820  155.8609 LP  0  0  0  0  0  0  0  0  0  0  0  0  # atno 17395 bound_to 11000

$$$$
