AV-unprocessed.smi:3263|AV-procd|sdf|12489|dock5
  -GOLD-   2272018393D 1   1.00000     0.00000
 Structure written by MMmdl.
 41 43  0  0  0  0  0  0  0  0  1 V2000
  150.9385  140.7978  158.0885 O   0  0  0  0  0  0  0  0  0  0  0  0
  152.1454  140.6910  158.3065 C   0  0  0  0  0  0  0  0  0  0  0  0
  152.8402  141.6396  159.2889 C   0  0  0  0  0  0  0  0  0  0  0  0
  151.8544  142.6010  159.9906 C   0  0  1  0  0  0  0  0  0  0  0  0
  152.5081  143.6711  160.8939 C   0  0  0  0  0  0  0  0  0  0  0  0
  151.8397  144.9748  160.4186 C   0  0  1  0  0  0  0  0  0  0  0  0
  152.4242  145.3682  159.0497 C   0  0  0  0  0  0  0  0  0  0  0  0
  151.7919  144.3322  158.1027 C   0  0  0  0  0  0  0  0  0  0  0  0
  150.9597  143.4536  159.0599 C   0  0  2  0  0  0  0  0  0  0  0  0
  150.4401  144.5023  160.0394 C   0  0  0  0  0  0  0  0  0  0  0  0
  152.9195  139.7631  157.7231 N   0  0  0  0  0  0  0  0  0  0  0  0
  152.4485  138.7459  156.7904 C   0  0  0  0  0  0  0  0  0  0  0  0
  152.5146  139.2423  155.3362 C   0  0  0  0  0  0  0  0  0  0  0  0
  151.3778  140.1883  154.9984 C   0  0  0  0  0  0  0  0  0  0  0  0
  150.4180  139.8427  154.0229 C   0  0  0  0  0  0  0  0  0  0  0  0
  149.3848  140.7585  153.7443 C   0  0  0  0  0  0  0  0  0  0  0  0
  149.3519  141.9783  154.4469 C   0  0  0  0  0  0  0  0  0  0  0  0
  150.3583  142.2296  155.4008 C   0  0  0  0  0  0  0  0  0  0  0  0
  151.3529  141.3581  155.6760 N   0  0  0  0  0  0  0  0  0  0  0  0
  153.3886  141.0493  160.0231 H   0  0  0  0  0  0  0  0  0  0  0  0
  153.5822  142.2153  158.7350 H   0  0  0  0  0  0  0  0  0  0  0  0
  151.1827  142.0022  160.6091 H   0  0  0  0  0  0  0  0  0  0  0  0
  152.2829  143.4739  161.9428 H   0  0  0  0  0  0  0  0  0  0  0  0
  153.5933  143.7131  160.7917 H   0  0  0  0  0  0  0  0  0  0  0  0
  151.8735  145.7778  161.1554 H   0  0  0  0  0  0  0  0  0  0  0  0
  152.1202  146.3778  158.7708 H   0  0  0  0  0  0  0  0  0  0  0  0
  153.5142  145.3315  159.0389 H   0  0  0  0  0  0  0  0  0  0  0  0
  151.1389  144.8308  157.3849 H   0  0  0  0  0  0  0  0  0  0  0  0
  152.5309  143.7749  157.5289 H   0  0  0  0  0  0  0  0  0  0  0  0
  150.1822  142.8775  158.5574 H   0  0  0  0  0  0  0  0  0  0  0  0
  149.8843  144.0788  160.8778 H   0  0  0  0  0  0  0  0  0  0  0  0
  149.8351  145.2776  159.5659 H   0  0  0  0  0  0  0  0  0  0  0  0
  153.9020  139.7493  157.9561 H   0  0  0  0  0  0  0  0  0  0  0  0
  153.0275  137.8288  156.9112 H   0  0  0  0  0  0  0  0  0  0  0  0
  151.4189  138.4997  157.0511 H   0  0  0  0  0  0  0  0  0  0  0  0
  153.4656  139.7468  155.1591 H   0  0  0  0  0  0  0  0  0  0  0  0
  152.4845  138.3980  154.6459 H   0  0  0  0  0  0  0  0  0  0  0  0
  150.4707  138.8997  153.4992 H   0  0  0  0  0  0  0  0  0  0  0  0
  148.6315  140.5298  153.0048 H   0  0  0  0  0  0  0  0  0  0  0  0
  148.5752  142.7045  154.2593 H   0  0  0  0  0  0  0  0  0  0  0  0
  150.3650  143.1552  155.9569 H   0  0  0  0  0  0  0  0  0  0  0  0
  1  2  2  0  0  0  0
  2  3  1  0  0  0  0
  2 11  1  0  0  0  0
  3  4  1  0  0  0  0
  3 20  1  0  0  0  0
  3 21  1  0  0  0  0
  4  9  1  0  0  0  0
  4  5  1  0  0  0  0
  4 22  1  0  0  0  0
  5  6  1  0  0  0  0
  5 23  1  0  0  0  0
  5 24  1  0  0  0  0
  6 10  1  0  0  0  0
  6  7  1  0  0  0  0
  6 25  1  0  0  0  0
  7  8  1  0  0  0  0
  7 26  1  0  0  0  0
  7 27  1  0  0  0  0
  8  9  1  0  0  0  0
  8 28  1  0  0  0  0
  8 29  1  0  0  0  0
  9 10  1  0  0  0  0
  9 30  1  0  0  0  0
 10 31  1  0  0  0  0
 10 32  1  0  0  0  0
 11 12  1  0  0  0  0
 11 33  1  0  0  0  0
 12 13  1  0  0  0  0
 12 34  1  0  0  0  0
 12 35  1  0  0  0  0
 13 14  1  0  0  0  0
 13 36  1  0  0  0  0
 13 37  1  0  0  0  0
 14 19  1  0  0  0  0
 14 15  2  0  0  0  0
 15 16  1  0  0  0  0
 15 38  1  0  0  0  0
 16 17  2  0  0  0  0
 16 39  1  0  0  0  0
 17 18  1  0  0  0  0
 17 40  1  0  0  0  0
 18 19  2  0  0  0  0
 18 41  1  0  0  0  0
M  END
> <s_m_source_file>
AV-unprocessed.smi

> <i_m_source_file_index>
3263

> <i_lp_mmshare_version>
43012

> <i_f3d_flags>
0

> <s_epik_input>
W0NIMl0xW0NIMl1bQ0BASF0oW0NIMl0yKVtDQEBIXShbQ0gyXVtDQEhdMTIpW0NIMl1DKD1PKVtOSF1bQ0gyXVtDSDJdYzNbY0hdW2NIXVtjSF1bY0hdbjM=

> <s_epik_cmdline>
J2VwaWtfcHl0aG9uJywgJy1waCcsICc3LjAnLCAnLXRuJywgJzgnLCAnLW1hJywgJzIwMCcsICctbWV0YWxfYmluZGluZycsICctaW1hZScsICc8aW5maWxlLm1hZT4nLCAnLW9tYWUnLCAnPG91dGZpbGUubWFlPic=

> <r_epik_Ionization_Penalty>
0.0273541

> <r_epik_Ionization_Penalty_Charging>
0

> <r_epik_Ionization_Penalty_Neutral>
0.0273541

> <r_epik_State_Penalty>
0.0223838

> <r_epik_Charging_Adjusted_Penalty>
0.0223838

> <i_epik_Tot_Q>
0

> <i_epik_Tot_abs_Q>
0

> <r_epik_Metal_State_Penalty>
0.0213927

> <b_epik_Metal_Only>
0

> <s_lp_Force_Field>
OPLS_2005

> <r_lp_Energy>
45.4659

> <b_lp_Chiralities_Consistent>
1

> <s_lp_Variant>
AV-unprocessed.smi:3263-4

> <Gold.Version>
5.8.1

> <Gold.Id.Protein>
6NUR|6NUR_protein|mol2

> <Gold.PLP.Fitness>
47.2040

> <Gold.PLP.PLP>
-44.7741

> <Gold.PLP.part.hbond>
-0.5814

> <Gold.PLP.part.metal>
0.0000

> <Gold.PLP.part.buried>
-3.9137

> <Gold.PLP.part.nonpolar>
-40.9899

> <Gold.PLP.part.repulsive>
1.1878

> <Gold.PLP.ligand.clash>
0.0000

> <Gold.PLP.ligand.torsion>
0.3064

> <Gold.PLP.Chemscore.Hbond>
0.0000

> <Gold.PLP.Chemscore.CHOScore>
1.0000

> <Gold.PLP.Chemscore.Metal>
0.0000

> <Gold.Chemscore.Hbonds>
donor molecule, donor type, donor heavy atom, donor atom, acceptor molecule, acceptor atom, score
      L1  C    18    41       P1  8028  0.86

> <Gold.PLP.Chemscore.Internal.Correction>
0.0426

> <Gold.Rescore>
     Score         DG    S(hbond)    S(metal)    S(lipo)     H(rot)  DE(clash)    DE(int)     intcor
     14.41     -17.78       0.00        0.00     136.97       1.46       0.25       3.11       ----

> <Gold.Chemscore.Fitness>
14.4149

> <Gold.Chemscore.DG>
-17.7800

> <Gold.Chemscore.ZeroCoef>
-5.4800

> <Gold.Chemscore.Hbond>
0.0000

> <Gold.Chemscore.Metal>
0.0000

> <Gold.Chemscore.Lipo>
136.9748

> <Gold.Chemscore.Internal_Hbond>
0.0000

> <Gold.Chemscore.DEClash>
0.2530

> <Gold.Chemscore.DEInternal>
3.1121

> <Gold.Chemscore.Rot>
1.4555

> <Gold.Chemscore.Internal.Correction>
   9.000000E+99

> <Gold.Chemscore.Hbond.Weighted>
-0.0000

> <Gold.Chemscore.Metal.Weighted>
-0.0000

> <Gold.Chemscore.Lipo.Weighted>
-16.0260

> <Gold.Chemscore.Internal_Hbond.Weighted>
0.0000

> <Gold.Chemscore.DEClash.Weighted>
0.2530

> <Gold.Chemscore.DEInternal.Weighted>
3.1121

> <Gold.Chemscore.Rot.Weighted>
3.7260

> <Gold.Chemscore.Internal.Correction.Weighted>
   9.000000E+99

> <Gold.Protein.RotatedTorsions>
[ 6907 6896 6895 6894 ] final  163.87 input  -60.11 | X-H torsion
[ 7974 7965 7964 7962 ] final  171.59 input  175.53 | X-H torsion
[ 8008 7997 7996 7995 ] final   67.11 input   59.86 | X-H torsion
[ 10167 10162 10161 10158 ] final   47.23 input  -65.29 | X-H torsion
[ 10718 10713 10712 10709 ] final -126.90 input   66.30 | X-H torsion
[ 10763 10752 10751 10750 ] final   82.55 input  -60.55 | X-H torsion
[ 11005 11000 10999 10996 ] final -132.58 input  -57.11 | X-H torsion

> <Gold.Protein.ActiveResidues>
 VAL166  LYS551  ARG553  GLY616  TRP617  ASP618  TYR619  PRO620  LYS621  CYS622 
 ASP623  PHE694  ASN695  SER759  ASP760  ASP761  ALA762  ILE779  LEU786  VAL792 
 PHE793  MET794  SER795  GLU796  ALA797  LYS798  CYS799  TRP800  GLU811  SER814 

> <Gold.Protein.RotatedAtoms>
  151.9185  133.3579  159.3888 H   0  0  0  0  0  0  0  0  0  0  0  0  # atno 6907 bound_to 6896
  150.7042  134.4659  159.5412 H   0  0  0  0  0  0  0  0  0  0  0  0  # atno 6908 bound_to 6896
  152.2278  134.8351  160.0528 H   0  0  0  0  0  0  0  0  0  0  0  0  # atno 6909 bound_to 6896
  144.7291  139.9372  143.6427 H   0  0  0  0  0  0  0  0  0  0  0  0  # atno 7974 bound_to 7965
  155.6878  140.3496  155.4881 H   0  0  0  0  0  0  0  0  0  0  0  0  # atno 8008 bound_to 7997
  155.9551  140.1126  157.0966 H   0  0  0  0  0  0  0  0  0  0  0  0  # atno 8009 bound_to 7997
  154.4130  140.1186  156.5090 H   0  0  0  0  0  0  0  0  0  0  0  0  # atno 8010 bound_to 7997
  140.3058  144.2880  150.6209 H   0  0  0  0  0  0  0  0  0  0  0  0  # atno 10167 bound_to 10162
  156.1808  130.6730  151.0301 H   0  0  0  0  0  0  0  0  0  0  0  0  # atno 10718 bound_to 10713
  153.1213  135.4724  154.9199 H   0  0  0  0  0  0  0  0  0  0  0  0  # atno 10763 bound_to 10752
  154.7578  135.3123  154.8440 H   0  0  0  0  0  0  0  0  0  0  0  0  # atno 10764 bound_to 10752
  153.9004  135.6875  153.4809 H   0  0  0  0  0  0  0  0  0  0  0  0  # atno 10765 bound_to 10752
  140.9157  134.1509  157.4354 H   0  0  0  0  0  0  0  0  0  0  0  0  # atno 11005 bound_to 11000
  146.0812  139.3800  143.0463 LP  0  0  0  0  0  0  0  0  0  0  0  0  # atno 17320 bound_to 7965
  145.7838  140.9845  143.1085 LP  0  0  0  0  0  0  0  0  0  0  0  0  # atno 17321 bound_to 7965
  140.5612  143.2192  151.7762 LP  0  0  0  0  0  0  0  0  0  0  0  0  # atno 17342 bound_to 10162
  139.4905  144.4346  151.9833 LP  0  0  0  0  0  0  0  0  0  0  0  0  # atno 17343 bound_to 10162
  157.6866  131.0823  150.7224 LP  0  0  0  0  0  0  0  0  0  0  0  0  # atno 17370 bound_to 10713
  156.7281  130.4701  149.5506 LP  0  0  0  0  0  0  0  0  0  0  0  0  # atno 17371 bound_to 10713
  139.8765  134.9953  156.5735 LP  0  0  0  0  0  0  0  0  0  0  0  0  # atno 17394 bound_to 11000
  140.8052  133.8473  155.8762 LP  0  0  0  0  0  0  0  0  0  0  0  0  # atno 17395 bound_to 11000

$$$$
