#       Name:                AV-unprocessed.smi:2136
#       Creating user name   scv26
#       Creation time:       Fri Mar 27 11:46:37 2020


#       File generated by GOLD software.
#

@<TRIPOS>MOLECULE
AV-unprocessed.smi:2136
    46    47     1
SMALL
NO_CHARGES


@<TRIPOS>ATOM
      1 ****        -2.4498   1.3813  -3.5904 C.3            1 S1                 0.0000
      2 ****        -2.0143   2.1605  -1.9810 S.o2           1 S1                 0.0000
      3 ****        -0.5493   2.2608  -1.9051 O.2            1 S1                 0.0000
      4 ****        -2.8207   3.3817  -1.8319 O.2            1 S1                 0.0000
      5 ****        -2.5899   0.9887  -0.8083 N.3            1 S1                 0.0000
      6 ****        -4.0599   1.0095  -0.6036 C.3            1 S1                 0.0000
      7 ****        -4.5211   0.1720   0.5950 C.3            1 S1                 0.0000
      8 ****        -4.0291  -1.2638   0.4653 C.3            1 S1                 0.0000
      9 ****        -2.5055  -1.2363   0.4092 C.3            1 S1                 0.0000
     10 ****        -1.9665  -0.3751  -0.7597 C.3            1 S1                 0.0000
     11 ****        -0.4326  -0.4279  -0.7017 C.2            1 S1                 0.0000
     12 ****         0.1873  -1.1314  -1.4992 O.2            1 S1                 0.0000
     13 ****         0.1665   0.3172   0.2418 N.am           1 S1                 0.0000
     14 ****         1.6072   0.4252   0.4310 C.3            1 S1                 0.0000
     15 ****         2.1757  -0.7958   1.1723 C.3            1 S1                 0.0000
     16 ****         3.6765  -0.6986   1.3628 C.ar           1 S1                 0.0000
     17 ****         4.2204  -0.1748   2.5566 C.ar           1 S1                 0.0000
     18 ****         5.6213  -0.0949   2.7010 C.ar           1 S1                 0.0000
     19 ****         6.4465  -0.5392   1.6475 C.ar           1 S1                 0.0000
     20 ****         5.8898  -1.0329   0.5195 N.pl3          1 S1                 1.0000
     21 ****         4.5536  -1.1270   0.3429 C.ar           1 S1                 0.0000
     22 ****        -2.1655   2.0511  -4.4016 H              1 S1                 0.0000
     23 ****        -3.5227   1.1988  -3.6355 H              1 S1                 0.0000
     24 ****        -1.9130   0.4396  -3.7005 H              1 S1                 0.0000
     25 ****        -4.3969   2.0349  -0.4545 H              1 S1                 0.0000
     26 ****        -4.5461   0.6494  -1.5106 H              1 S1                 0.0000
     27 ****        -4.1518   0.6134   1.5219 H              1 S1                 0.0000
     28 ****        -5.6095   0.1862   0.6577 H              1 S1                 0.0000
     29 ****        -4.3660  -1.8592   1.3142 H              1 S1                 0.0000
     30 ****        -4.4363  -1.7283  -0.4337 H              1 S1                 0.0000
     31 ****        -2.1280  -0.8581   1.3609 H              1 S1                 0.0000
     32 ****        -2.1344  -2.2588   0.3223 H              1 S1                 0.0000
     33 ****        -2.2591  -0.8784  -1.6825 H              1 S1                 0.0000
     34 ****        -0.4200   0.8717   0.8491 H              1 S1                 0.0000
     35 ****         2.0967   0.5507  -0.5366 H              1 S1                 0.0000
     36 ****         1.8072   1.3337   0.9998 H              1 S1                 0.0000
     37 ****         1.6947  -0.9003   2.1460 H              1 S1                 0.0000
     38 ****         1.9551  -1.7114   0.6219 H              1 S1                 0.0000
     39 ****         3.5733   0.1636   3.3529 H              1 S1                 0.0000
     40 ****         6.0558   0.3023   3.6066 H              1 S1                 0.0000
     41 ****         7.5262  -0.5144   1.6724 H              1 S1                 0.0000
     42 ****         4.2291  -1.5371  -0.6028 H              1 S1                 0.0000
     43 ****         6.5047  -1.3475  -0.2317 H              1 S1                 0.0000
     44 ****        -2.1788   1.3672   0.0210 LP             1 S1                 0.0000
     45 ****        -0.3078  -1.6672  -2.1832 LP             1 S1                 0.0000
     46 ****         1.1860  -1.1672  -1.4631 LP             1 S1                 0.0000
@<TRIPOS>BOND
    1    1    2 1     
    2    1   22 1     
    3    1   23 1     
    4    1   24 1     
    5    2    3 2     
    6    2    4 2     
    7    2    5 1     
    8    5   10 1     
    9    5    6 1     
   10    6    7 1     
   11    6   25 1     
   12    6   26 1     
   13    7    8 1     
   14    7   27 1     
   15    7   28 1     
   16    8    9 1     
   17    8   29 1     
   18    8   30 1     
   19    9   10 1     
   20    9   31 1     
   21    9   32 1     
   22   10   11 1     
   23   10   33 1     
   24   11   12 2     
   25   11   13 am    
   26   13   14 1     
   27   13   34 1     
   28   14   15 1     
   29   14   35 1     
   30   14   36 1     
   31   15   16 1     
   32   15   37 1     
   33   15   38 1     
   34   16   21 ar    
   35   16   17 ar    
   36   17   18 ar    
   37   17   39 1     
   38   18   19 ar    
   39   18   40 1     
   40   19   20 ar    
   41   19   41 1     
   42   20   21 ar    
   43   20   43 1     
   44   21   42 1     
   45    5   44 1     
   46   12   45 1     
   47   12   46 1     
@<TRIPOS>SUBSTRUCTURE
      1 S1             1
@<TRIPOS>SET
LONE_PAIRS      STATIC     ATOMS    <user>   **** ""
5 3 4 44 45 46
DONOR_HYDROGENS      STATIC     ATOMS    <user>   **** ""
2 34 43
ATOM$BLUE        STATIC     ATOMS    COLORGROUP SYSTEM
5 3 4 44 45 46
ATOM$RED        STATIC     ATOMS    COLORGROUP SYSTEM
2 34 43
