AV-unprocessed.smi:110|AV-procd|sdf|1068|dock6
  -GOLD-   2262018153D 1   1.00000     0.00000
 Structure written by MMmdl.
 46 50  0  0  0  0  0  0  0  0  1 V2000
  154.7323  133.9293  161.0197 O   0  0  0  0  0  0  0  0  0  0  0  0
  155.2478  133.9374  159.7054 C   0  0  0  0  0  0  0  0  0  0  0  0
  155.2050  135.3633  159.1283 C   0  0  2  0  0  0  0  0  0  0  0  0
  153.8646  135.8456  159.0433 O   0  0  0  0  0  0  0  0  0  0  0  0
  153.7334  136.7531  157.9893 C   0  0  1  0  0  0  0  0  0  0  0  0
  153.3045  138.0881  158.5219 N   0  0  0  0  0  0  0  0  0  0  0  0
  152.2588  138.8598  158.0691 C   0  0  0  0  0  0  0  0  0  0  0  0
  152.0821  139.9887  158.6986 N   0  0  0  0  0  0  0  0  0  0  0  0
  153.0730  139.9970  159.6728 C   0  0  0  0  0  0  0  0  0  0  0  0
  153.4585  140.9104  160.6957 C   0  0  0  0  0  0  0  0  0  0  0  0
  152.8404  142.0876  160.9481 N   0  0  0  0  0  0  0  0  0  0  0  0
  152.9271  142.6754  162.2927 C   0  0  0  0  0  0  0  0  0  0  0  0
  152.5562  144.1660  162.1728 C   0  0  0  0  0  0  0  0  0  0  0  0
  152.1665  144.2482  160.7320 C   0  0  0  0  0  0  0  0  0  0  0  0
  151.6596  145.3672  160.0488 C   0  0  0  0  0  0  0  0  0  0  0  0
  151.3303  145.2201  158.6842 C   0  0  0  0  0  0  0  0  0  0  0  0
  151.5001  143.9736  158.0380 C   0  0  0  0  0  0  0  0  0  0  0  0
  152.0093  142.8623  158.7452 C   0  0  0  0  0  0  0  0  0  0  0  0
  152.3581  143.0223  160.1023 C   0  0  0  0  0  0  0  0  0  0  0  0
  154.5518  140.5999  161.4372 N   0  0  0  0  0  0  0  0  0  0  0  0
  155.2008  139.4519  161.2265 C   0  0  0  0  0  0  0  0  0  0  0  0
  154.9370  138.4981  160.3325 N   0  0  0  0  0  0  0  0  0  0  0  0
  153.8581  138.8138  159.5599 C   0  0  0  0  0  0  0  0  0  0  0  0
  155.0729  136.7961  157.2265 C   0  0  1  0  0  0  0  0  0  0  0  0
  155.8752  137.9230  157.5328 O   0  0  0  0  0  0  0  0  0  0  0  0
  155.7437  135.5158  157.6990 C   0  0  2  0  0  0  0  0  0  0  0  0
  155.3570  134.4223  156.8855 O   0  0  0  0  0  0  0  0  0  0  0  0
  155.7800  136.0341  159.7675 H   0  0  0  0  0  0  0  0  0  0  0  0
  152.9035  136.4323  157.3585 H   0  0  0  0  0  0  0  0  0  0  0  0
  154.8842  136.7988  156.1521 H   0  0  0  0  0  0  0  0  0  0  0  0
  156.8326  135.5815  157.6786 H   0  0  0  0  0  0  0  0  0  0  0  0
  154.3016  134.7551  161.1792 H   0  0  0  0  0  0  0  0  0  0  0  0
  156.2786  133.5853  159.7586 H   0  0  0  0  0  0  0  0  0  0  0  0
  154.6954  133.2365  159.0789 H   0  0  0  0  0  0  0  0  0  0  0  0
  151.6263  138.5580  157.2471 H   0  0  0  0  0  0  0  0  0  0  0  0
  152.2285  142.1610  162.9536 H   0  0  0  0  0  0  0  0  0  0  0  0
  153.9292  142.5537  162.7063 H   0  0  0  0  0  0  0  0  0  0  0  0
  151.7268  144.4408  162.8250 H   0  0  0  0  0  0  0  0  0  0  0  0
  153.4080  144.8163  162.3739 H   0  0  0  0  0  0  0  0  0  0  0  0
  151.5218  146.3116  160.5544 H   0  0  0  0  0  0  0  0  0  0  0  0
  150.9382  146.0618  158.1328 H   0  0  0  0  0  0  0  0  0  0  0  0
  151.2340  143.8685  156.9964 H   0  0  0  0  0  0  0  0  0  0  0  0
  152.1214  141.9095  158.2492 H   0  0  0  0  0  0  0  0  0  0  0  0
  156.0528  139.2710  161.8651 H   0  0  0  0  0  0  0  0  0  0  0  0
  156.6713  137.6213  157.9431 H   0  0  0  0  0  0  0  0  0  0  0  0
  155.9428  133.7003  157.0548 H   0  0  0  0  0  0  0  0  0  0  0  0
  1  2  1  0  0  0  0
  1 32  1  0  0  0  0
  2  3  1  0  0  0  0
  2 33  1  0  0  0  0
  2 34  1  0  0  0  0
  3 28  1  0  0  0  0
  3 26  1  0  0  0  0
  3  4  1  0  0  0  0
  4  5  1  0  0  0  0
  5 29  1  0  0  0  0
  5  6  1  0  0  0  0
  5 24  1  0  0  0  0
  6 23  1  0  0  0  0
  6  7  1  0  0  0  0
  7  8  2  0  0  0  0
  7 35  1  0  0  0  0
  8  9  1  0  0  0  0
  9 23  2  0  0  0  0
  9 10  1  0  0  0  0
 10 11  1  0  0  0  0
 10 20  2  0  0  0  0
 11 19  1  0  0  0  0
 11 12  1  0  0  0  0
 12 13  1  0  0  0  0
 12 36  1  0  0  0  0
 12 37  1  0  0  0  0
 13 14  1  0  0  0  0
 13 38  1  0  0  0  0
 13 39  1  0  0  0  0
 14 19  2  0  0  0  0
 14 15  1  0  0  0  0
 15 16  2  0  0  0  0
 15 40  1  0  0  0  0
 16 17  1  0  0  0  0
 16 41  1  0  0  0  0
 17 18  2  0  0  0  0
 17 42  1  0  0  0  0
 18 19  1  0  0  0  0
 18 43  1  0  0  0  0
 20 21  1  0  0  0  0
 21 22  2  0  0  0  0
 21 44  1  0  0  0  0
 22 23  1  0  0  0  0
 24 30  1  0  0  0  0
 24 25  1  0  0  0  0
 24 26  1  0  0  0  0
 25 45  1  0  0  0  0
 26 31  1  0  0  0  0
 26 27  1  0  0  0  0
 27 46  1  0  0  0  0
M  END
> <s_m_source_file>
AV-unprocessed.smi

> <i_m_source_file_index>
110

> <i_lp_mmshare_version>
43012

> <i_f3d_flags>
0

> <s_epik_input>
W09IXVtDSDJdW0NASF0xT1tDQEhdKFtDQEhdKFtPSF0pW0NAQEhdMVtPSF0pbihbY0hdbjIpYyhjMjMpbltjSF1uYzNOKFtDSDJdW0NIMl00KWMoYzQ1KVtjSF1bY0hdW2NIXVtjSF01

> <s_epik_cmdline>
J2VwaWtfcHl0aG9uJywgJy1waCcsICc3LjAnLCAnLXRuJywgJzgnLCAnLW1hJywgJzIwMCcsICctbWV0YWxfYmluZGluZycsICctaW1hZScsICc8aW5maWxlLm1hZT4nLCAnLW9tYWUnLCAnPG91dGZpbGUubWFlPic=

> <r_lp_tautomer_probability>
1

> <r_epik_Ionization_Penalty>
0.00068475

> <r_epik_Ionization_Penalty_Charging>
0

> <r_epik_Ionization_Penalty_Neutral>
0.00068475

> <r_epik_State_Penalty>
0.000417442

> <r_epik_Charging_Adjusted_Penalty>
0.000417442

> <i_epik_Tot_Q>
0

> <i_epik_Tot_abs_Q>
0

> <r_epik_Metal_State_Penalty>
-0

> <b_epik_Metal_Only>
0

> <s_epik_Chemistry_Notes>
This compound contains an acetal/aminal-like group ( X-CH(R)-Y where X, Y are N, S, or O) that may be acid/base labile, releasing an aldehyde.

> <s_lp_Force_Field>
OPLS_2005

> <r_lp_Energy>
62.6904

> <b_lp_Chiralities_Consistent>
1

> <s_lp_Variant>
AV-unprocessed.smi:110-6

> <Gold.Version>
5.8.1

> <Gold.Id.Protein>
6NUR|6NUR_protein|mol2

> <Gold.PLP.Fitness>
55.3586

> <Gold.PLP.PLP>
-50.9427

> <Gold.PLP.part.hbond>
-3.4419

> <Gold.PLP.part.metal>
0.0000

> <Gold.PLP.part.buried>
-6.3993

> <Gold.PLP.part.nonpolar>
-41.7756

> <Gold.PLP.part.repulsive>
0.0000

> <Gold.PLP.ligand.clash>
0.1580

> <Gold.PLP.ligand.torsion>
0.6815

> <Gold.PLP.Chemscore.Hbond>
1.9573

> <Gold.PLP.Chemscore.CHOScore>
0.0000

> <Gold.PLP.Chemscore.Metal>
0.0000

> <Gold.Chemscore.Hbonds>
donor molecule, donor type, donor heavy atom, donor atom, acceptor molecule, acceptor atom, score
      P1  H  6896  6909       L1     4  0.90
      P1  H  7997  8008       L1    25  0.24
      P1  H 10752 10763       L1    27  0.92

> <Gold.PLP.Chemscore.Internal.Correction>
0.0648

> <Gold.Rescore>
     Score         DG    S(hbond)    S(metal)    S(lipo)     H(rot)  DE(clash)    DE(int)     intcor
     12.12     -15.40       1.54        0.00     114.90       3.38       0.24       3.05       ----

> <Gold.Chemscore.Fitness>
12.1154

> <Gold.Chemscore.DG>
-15.4016

> <Gold.Chemscore.ZeroCoef>
-5.4800

> <Gold.Chemscore.Hbond>
1.5390

> <Gold.Chemscore.Metal>
0.0000

> <Gold.Chemscore.Lipo>
114.9002

> <Gold.Chemscore.Internal_Hbond>
0.0000

> <Gold.Chemscore.DEClash>
0.2362

> <Gold.Chemscore.DEInternal>
3.0500

> <Gold.Chemscore.Rot>
3.3837

> <Gold.Chemscore.Internal.Correction>
   9.000000E+99

> <Gold.Chemscore.Hbonds>
donor molecule, donor type, donor heavy atom, donor atom, acceptor molecule, acceptor atom, score
      P1  H  6896  6909       L1     4  0.75
      P1  H  7997  8008       L1    25  0.19
      P1  H 10752 10763       L1    27  0.46

> <Gold.Chemscore.Hbond.Weighted>
-5.1404

> <Gold.Chemscore.Metal.Weighted>
-0.0000

> <Gold.Chemscore.Lipo.Weighted>
-13.4433

> <Gold.Chemscore.Internal_Hbond.Weighted>
0.0000

> <Gold.Chemscore.DEClash.Weighted>
0.2362

> <Gold.Chemscore.DEInternal.Weighted>
3.0500

> <Gold.Chemscore.Rot.Weighted>
8.6622

> <Gold.Chemscore.Internal.Correction.Weighted>
   9.000000E+99

> <Gold.Protein.RotatedTorsions>
[ 6907 6896 6895 6894 ] final  177.22 input  -60.11 | X-H torsion
[ 7974 7965 7964 7962 ] final   42.33 input  175.53 | X-H torsion
[ 8008 7997 7996 7995 ] final -176.61 input   59.86 | X-H torsion
[ 10167 10162 10161 10158 ] final   42.15 input  -65.29 | X-H torsion
[ 10718 10713 10712 10709 ] final   59.73 input   66.30 | X-H torsion
[ 10763 10752 10751 10750 ] final  176.88 input  -60.55 | X-H torsion
[ 11005 11000 10999 10996 ] final  -98.73 input  -57.11 | X-H torsion

> <Gold.Protein.ActiveResidues>
 VAL166  LYS551  ARG553  GLY616  TRP617  ASP618  TYR619  PRO620  LYS621  CYS622 
 ASP623  PHE694  ASN695  SER759  ASP760  ASP761  ALA762  ILE779  LEU786  VAL792 
 PHE793  MET794  SER795  GLU796  ALA797  LYS798  CYS799  TRP800  GLU811  SER814 

> <Gold.Protein.RotatedAtoms>
  151.7076  133.3312  159.3282 H   0  0  0  0  0  0  0  0  0  0  0  0  # atno 6907 bound_to 6896
  150.7708  134.6561  159.6323 H   0  0  0  0  0  0  0  0  0  0  0  0  # atno 6908 bound_to 6896
  152.3731  134.6706  160.0221 H   0  0  0  0  0  0  0  0  0  0  0  0  # atno 6909 bound_to 6896
  146.0750  139.5313  142.9574 H   0  0  0  0  0  0  0  0  0  0  0  0  # atno 7974 bound_to 7965
  155.9969  140.1212  157.0585 H   0  0  0  0  0  0  0  0  0  0  0  0  # atno 8008 bound_to 7997
  154.4229  140.1114  156.5711 H   0  0  0  0  0  0  0  0  0  0  0  0  # atno 8009 bound_to 7997
  155.6266  140.3472  155.4671 H   0  0  0  0  0  0  0  0  0  0  0  0  # atno 8010 bound_to 7997
  140.3573  144.2274  150.6141 H   0  0  0  0  0  0  0  0  0  0  0  0  # atno 10167 bound_to 10162
  157.5699  130.8899  149.9249 H   0  0  0  0  0  0  0  0  0  0  0  0  # atno 10718 bound_to 10713
  154.4871  135.2777  155.1526 H   0  0  0  0  0  0  0  0  0  0  0  0  # atno 10763 bound_to 10752
  154.3212  135.6209  153.5512 H   0  0  0  0  0  0  0  0  0  0  0  0  # atno 10764 bound_to 10752
  152.9883  135.5743  154.5284 H   0  0  0  0  0  0  0  0  0  0  0  0  # atno 10765 bound_to 10752
  141.1334  133.8268  157.0878 H   0  0  0  0  0  0  0  0  0  0  0  0  # atno 11005 bound_to 11000
  145.6323  141.0301  143.1856 LP  0  0  0  0  0  0  0  0  0  0  0  0  # atno 17320 bound_to 7965
  144.7255  139.7889  143.7366 LP  0  0  0  0  0  0  0  0  0  0  0  0  # atno 17321 bound_to 7965
  140.5161  143.2277  151.8460 LP  0  0  0  0  0  0  0  0  0  0  0  0  # atno 17342 bound_to 10162
  139.4818  144.4892  151.9207 LP  0  0  0  0  0  0  0  0  0  0  0  0  # atno 17343 bound_to 10162
  156.0745  130.3681  150.0707 LP  0  0  0  0  0  0  0  0  0  0  0  0  # atno 17370 bound_to 10713
  156.8861  130.9573  151.3594 LP  0  0  0  0  0  0  0  0  0  0  0  0  # atno 17371 bound_to 10713
  140.0411  134.9854  157.0963 LP  0  0  0  0  0  0  0  0  0  0  0  0  # atno 17394 bound_to 11000
  140.4134  134.1957  155.7163 LP  0  0  0  0  0  0  0  0  0  0  0  0  # atno 17395 bound_to 11000

$$$$
