AV-unprocessed.smi:3350|AV-procd|sdf|12945|dock1
  -GOLD-   2272019383D 1   1.00000     0.00000
 Structure written by MMmdl.
 41 42  0  0  0  0  0  0  0  0  1 V2000
  148.5252  136.1282  156.4300 C   0  0  0  0  0  0  0  0  0  0  0  0
  148.9817  135.0854  155.4008 C   0  0  2  0  0  0  0  0  0  0  0  0
  150.4968  135.1968  155.1233 C   0  0  0  0  0  0  0  0  0  0  0  0
  150.9602  136.5717  155.0563 N   0  0  0  0  0  0  0  0  0  0  0  0
  150.3852  137.6391  154.3994 C   0  0  0  0  0  0  0  0  0  0  0  0
  151.1861  138.7247  154.6087 C   0  0  0  0  0  0  0  0  0  0  0  0
  152.2364  138.2169  155.4231 C   0  0  0  0  0  0  0  0  0  0  0  0
  152.0955  136.9295  155.6942 N   0  0  0  0  0  0  0  0  0  0  0  0
  148.2115  135.2655  154.1704 N   0  0  0  0  0  0  0  0  0  0  0  0
  146.9510  134.8538  153.9710 C   0  0  0  0  0  0  0  0  0  0  0  0
  146.2689  134.2792  154.8194 O   0  0  0  0  0  0  0  0  0  0  0  0
  146.5333  135.1246  152.7260 N   0  0  0  0  0  0  0  0  0  0  0  0
  145.2262  134.7778  152.1698 C   0  0  1  0  0  0  0  0  0  0  0  0
  144.3893  136.0588  152.0390 C   0  0  0  0  0  0  0  0  0  0  0  0
  145.3863  134.0556  150.8149 C   0  0  1  0  0  0  0  0  0  0  0  0
  146.2104  132.7658  150.8585 C   0  0  0  0  0  0  0  0  0  0  0  0
  145.6703  132.0102  149.6676 C   0  0  0  0  0  0  0  0  0  0  0  0
  144.1864  132.3513  149.7404 C   0  0  0  0  0  0  0  0  0  0  0  0
  144.1137  133.6567  150.3074 O   0  0  0  0  0  0  0  0  0  0  0  0
  149.0570  136.0053  157.3741 H   0  0  0  0  0  0  0  0  0  0  0  0
  147.4594  136.0331  156.6397 H   0  0  0  0  0  0  0  0  0  0  0  0
  148.7069  137.1435  156.0757 H   0  0  0  0  0  0  0  0  0  0  0  0
  148.7728  134.1025  155.8276 H   0  0  0  0  0  0  0  0  0  0  0  0
  151.0662  134.6727  155.8922 H   0  0  0  0  0  0  0  0  0  0  0  0
  150.7408  134.7150  154.1753 H   0  0  0  0  0  0  0  0  0  0  0  0
  149.4696  137.5359  153.8359 H   0  0  0  0  0  0  0  0  0  0  0  0
  151.0444  139.7279  154.2352 H   0  0  0  0  0  0  0  0  0  0  0  0
  153.0910  138.7420  155.8235 H   0  0  0  0  0  0  0  0  0  0  0  0
  148.6823  135.7285  153.4070 H   0  0  0  0  0  0  0  0  0  0  0  0
  147.1737  135.5995  152.1069 H   0  0  0  0  0  0  0  0  0  0  0  0
  144.6995  134.1112  152.8552 H   0  0  0  0  0  0  0  0  0  0  0  0
  143.3896  135.8400  151.6632 H   0  0  0  0  0  0  0  0  0  0  0  0
  144.8530  136.7695  151.3541 H   0  0  0  0  0  0  0  0  0  0  0  0
  144.2741  136.5522  153.0046 H   0  0  0  0  0  0  0  0  0  0  0  0
  145.8328  134.7303  150.0824 H   0  0  0  0  0  0  0  0  0  0  0  0
  147.2835  132.9457  150.7972 H   0  0  0  0  0  0  0  0  0  0  0  0
  146.0079  132.2068  151.7732 H   0  0  0  0  0  0  0  0  0  0  0  0
  146.1043  132.4013  148.7463 H   0  0  0  0  0  0  0  0  0  0  0  0
  145.8655  130.9386  149.7132 H   0  0  0  0  0  0  0  0  0  0  0  0
  143.7008  132.3117  148.7653 H   0  0  0  0  0  0  0  0  0  0  0  0
  143.6700  131.6582  150.4052 H   0  0  0  0  0  0  0  0  0  0  0  0
  1  2  1  0  0  0  0
  1 20  1  0  0  0  0
  1 21  1  0  0  0  0
  1 22  1  0  0  0  0
  2  3  1  0  0  0  0
  2  9  1  0  0  0  0
  2 23  1  0  0  0  0
  3  4  1  0  0  0  0
  3 24  1  0  0  0  0
  3 25  1  0  0  0  0
  4  8  1  0  0  0  0
  4  5  1  0  0  0  0
  5  6  2  0  0  0  0
  5 26  1  0  0  0  0
  6  7  1  0  0  0  0
  6 27  1  0  0  0  0
  7  8  2  0  0  0  0
  7 28  1  0  0  0  0
  9 10  1  0  0  0  0
  9 29  1  0  0  0  0
 10 11  2  0  0  0  0
 10 12  1  0  0  0  0
 12 13  1  0  0  0  0
 12 30  1  0  0  0  0
 13 14  1  0  0  0  0
 13 15  1  0  0  0  0
 13 31  1  0  0  0  0
 14 32  1  0  0  0  0
 14 33  1  0  0  0  0
 14 34  1  0  0  0  0
 15 19  1  0  0  0  0
 15 16  1  0  0  0  0
 15 35  1  0  0  0  0
 16 17  1  0  0  0  0
 16 36  1  0  0  0  0
 16 37  1  0  0  0  0
 17 18  1  0  0  0  0
 17 38  1  0  0  0  0
 17 39  1  0  0  0  0
 18 19  1  0  0  0  0
 18 40  1  0  0  0  0
 18 41  1  0  0  0  0
M  END
> <s_m_source_file>
AV-unprocessed.smi

> <i_m_source_file_index>
3350

> <i_lp_mmshare_version>
43012

> <i_f3d_flags>
0

> <s_epik_input>
bjFbY0hdW2NIXVtjSF1uMVtDSDJdW0NAQEhdKFtDSDNdKVtOSF1DKD1PKVtOSF1bQ0BIXShbQ0gzXSlbQ0BASF0yW0NIMl1bQ0gyXVtDSDJdTzI=

> <s_epik_cmdline>
J2VwaWtfcHl0aG9uJywgJy1waCcsICc3LjAnLCAnLXRuJywgJzgnLCAnLW1hJywgJzIwMCcsICctbWV0YWxfYmluZGluZycsICctaW1hZScsICc8aW5maWxlLm1hZT4nLCAnLW9tYWUnLCAnPG91dGZpbGUubWFlPic=

> <r_lp_tautomer_probability>
1

> <r_epik_Ionization_Penalty>
6.42349e-05

> <r_epik_Ionization_Penalty_Charging>
0

> <r_epik_Ionization_Penalty_Neutral>
6.42349e-05

> <r_epik_State_Penalty>
-0

> <r_epik_Charging_Adjusted_Penalty>
0

> <i_epik_Tot_Q>
0

> <i_epik_Tot_abs_Q>
0

> <r_epik_Metal_State_Penalty>
-0

> <b_epik_Metal_Only>
0

> <s_lp_Force_Field>
OPLS_2005

> <r_lp_Energy>
14.6241

> <b_lp_Chiralities_Consistent>
1

> <s_lp_Variant>
AV-unprocessed.smi:3350-7

> <Gold.Version>
5.8.1

> <Gold.Id.Protein>
6NUR|6NUR_protein|mol2

> <Gold.PLP.Fitness>
41.8917

> <Gold.PLP.PLP>
-31.9844

> <Gold.PLP.part.hbond>
-3.0000

> <Gold.PLP.part.metal>
0.0000

> <Gold.PLP.part.buried>
-4.3195

> <Gold.PLP.part.nonpolar>
-25.5754

> <Gold.PLP.part.repulsive>
0.2751

> <Gold.PLP.ligand.clash>
0.0000

> <Gold.PLP.ligand.torsion>
0.7737

> <Gold.PLP.Chemscore.Hbond>
2.8080

> <Gold.PLP.Chemscore.CHOScore>
1.0000

> <Gold.PLP.Chemscore.Metal>
0.0000

> <Gold.Chemscore.Hbonds>
donor molecule, donor type, donor heavy atom, donor atom, acceptor molecule, acceptor atom, score
      L1  H     9    29       P1  7948  1.00
      L1  H    12    30       P1  7948  0.93
      P1  H 10752 10765       L1     8  0.79
      L1  C     5    26       P1  7948  1.00

> <Gold.PLP.Chemscore.Internal.Correction>
0.0306

> <Gold.Rescore>
     Score         DG    S(hbond)    S(metal)    S(lipo)     H(rot)  DE(clash)    DE(int)     intcor
     16.80     -17.73       2.36        0.00      77.23       1.82       0.19       0.74       ----

> <Gold.Chemscore.Fitness>
16.7963

> <Gold.Chemscore.DG>
-17.7280

> <Gold.Chemscore.ZeroCoef>
-5.4800

> <Gold.Chemscore.Hbond>
2.3565

> <Gold.Chemscore.Metal>
0.0000

> <Gold.Chemscore.Lipo>
77.2287

> <Gold.Chemscore.Internal_Hbond>
0.0000

> <Gold.Chemscore.DEClash>
0.1892

> <Gold.Chemscore.DEInternal>
0.7424

> <Gold.Chemscore.Rot>
1.8197

> <Gold.Chemscore.Internal.Correction>
   9.000000E+99

> <Gold.Chemscore.Hbonds>
donor molecule, donor type, donor heavy atom, donor atom, acceptor molecule, acceptor atom, score
      L1  H     9    29       P1  7948  0.97
      L1  H    12    30       P1  7948  0.91
      P1  H 10752 10765       L1     8  0.17

> <Gold.Chemscore.Hbond.Weighted>
-7.8705

> <Gold.Chemscore.Metal.Weighted>
-0.0000

> <Gold.Chemscore.Lipo.Weighted>
-9.0358

> <Gold.Chemscore.Internal_Hbond.Weighted>
0.0000

> <Gold.Chemscore.DEClash.Weighted>
0.1892

> <Gold.Chemscore.DEInternal.Weighted>
0.7424

> <Gold.Chemscore.Rot.Weighted>
4.6583

> <Gold.Chemscore.Internal.Correction.Weighted>
   9.000000E+99

> <Gold.Protein.RotatedTorsions>
[ 6907 6896 6895 6894 ] final  135.02 input  -60.11 | X-H torsion
[ 7974 7965 7964 7962 ] final -120.28 input  175.53 | X-H torsion
[ 8008 7997 7996 7995 ] final   80.96 input   59.86 | X-H torsion
[ 10167 10162 10161 10158 ] final   88.75 input  -65.29 | X-H torsion
[ 10718 10713 10712 10709 ] final  134.28 input   66.30 | X-H torsion
[ 10763 10752 10751 10750 ] final -143.04 input  -60.55 | X-H torsion
[ 11005 11000 10999 10996 ] final -147.89 input  -57.11 | X-H torsion

> <Gold.Protein.ActiveResidues>
 VAL166  LYS551  ARG553  GLY616  TRP617  ASP618  TYR619  PRO620  LYS621  CYS622 
 ASP623  PHE694  ASN695  SER759  ASP760  ASP761  ALA762  ILE779  LEU786  VAL792 
 PHE793  MET794  SER795  GLU796  ALA797  LYS798  CYS799  TRP800  GLU811  SER814 

> <Gold.Protein.RotatedAtoms>
  152.3050  133.5694  159.5643 H   0  0  0  0  0  0  0  0  0  0  0  0  # atno 6907 bound_to 6896
  150.7295  134.0235  159.3718 H   0  0  0  0  0  0  0  0  0  0  0  0  # atno 6908 bound_to 6896
  151.8132  135.0675  160.0466 H   0  0  0  0  0  0  0  0  0  0  0  0  # atno 6909 bound_to 6896
  145.0531  140.8234  143.4197 H   0  0  0  0  0  0  0  0  0  0  0  0  # atno 7974 bound_to 7965
  155.8906  140.3439  155.5953 H   0  0  0  0  0  0  0  0  0  0  0  0  # atno 8008 bound_to 7997
  155.7615  140.0833  157.2172 H   0  0  0  0  0  0  0  0  0  0  0  0  # atno 8009 bound_to 7997
  154.4033  140.1535  156.2825 H   0  0  0  0  0  0  0  0  0  0  0  0  # atno 8010 bound_to 7997
  139.8642  144.6528  150.9023 H   0  0  0  0  0  0  0  0  0  0  0  0  # atno 10167 bound_to 10162
  157.4689  131.1079  150.9828 H   0  0  0  0  0  0  0  0  0  0  0  0  # atno 10718 bound_to 10713
  154.8485  135.3479  154.6125 H   0  0  0  0  0  0  0  0  0  0  0  0  # atno 10763 bound_to 10752
  153.6733  135.6984  153.5145 H   0  0  0  0  0  0  0  0  0  0  0  0  # atno 10764 bound_to 10752
  153.2725  135.4288  155.0958 H   0  0  0  0  0  0  0  0  0  0  0  0  # atno 10765 bound_to 10752
  140.7670  134.3233  157.5086 H   0  0  0  0  0  0  0  0  0  0  0  0  # atno 11005 bound_to 11000
  145.1502  139.2519  143.5445 LP  0  0  0  0  0  0  0  0  0  0  0  0  # atno 17320 bound_to 7965
  146.3519  140.1203  142.8600 LP  0  0  0  0  0  0  0  0  0  0  0  0  # atno 17321 bound_to 7965
  140.7770  143.3718  151.1635 LP  0  0  0  0  0  0  0  0  0  0  0  0  # atno 17342 bound_to 10162
  139.7345  143.9021  152.3030 LP  0  0  0  0  0  0  0  0  0  0  0  0  # atno 17343 bound_to 10162
  157.0600  130.5821  149.5384 LP  0  0  0  0  0  0  0  0  0  0  0  0  # atno 17370 bound_to 10713
  156.0063  130.5150  150.7842 LP  0  0  0  0  0  0  0  0  0  0  0  0  # atno 17371 bound_to 10713
  139.8761  134.9237  156.3332 LP  0  0  0  0  0  0  0  0  0  0  0  0  # atno 17394 bound_to 11000
  140.9610  133.7389  156.0401 LP  0  0  0  0  0  0  0  0  0  0  0  0  # atno 17395 bound_to 11000

$$$$
