AV-unprocessed.smi:1149|AV-procd|sdf|4890|dock7
  -GOLD-   22720 3463D 1   1.00000     0.00000
 Structure written by MMmdl.
 51 52  0  0  0  0  0  0  0  0  2 V2000
  153.0671  139.5987  158.9508 C   0  0  0  0  0  0  0  0  0  0  0  0
  153.2981  139.5119  157.5490 O   0  0  0  0  0  0  0  0  0  0  0  0
  152.3165  138.9535  156.7564 C   0  0  0  0  0  0  0  0  0  0  0  0
  152.5269  138.8945  155.3644 C   0  0  0  0  0  0  0  0  0  0  0  0
  151.5277  138.3327  154.5471 C   0  0  0  0  0  0  0  0  0  0  0  0
  150.3408  137.8528  155.1502 C   0  0  0  0  0  0  0  0  0  0  0  0
  149.2685  137.2529  154.4365 N   0  0  0  0  0  0  0  0  0  0  0  0
  148.0530  136.9070  154.8942 C   0  0  0  0  0  0  0  0  0  0  0  0
  147.6633  137.0475  156.0531 O   0  0  0  0  0  0  0  0  0  0  0  0
  147.3054  136.3671  153.9212 N   0  0  0  0  0  0  0  0  0  0  0  0
  145.9355  135.8738  154.0704 C   0  0  0  0  0  0  0  0  0  0  0  0
  145.2787  135.4522  152.7211 C   0  0  0  0  0  0  0  0  0  0  0  0
  143.7667  135.2259  152.9599 C   0  0  0  0  0  0  0  0  0  0  0  0
  145.4470  136.6263  151.7231 C   0  0  0  0  0  0  0  0  0  0  0  0
  145.9403  134.2350  152.1771 N   0  0  0  0  0  0  0  0  0  0  0  0
  145.3264  133.6912  150.9540 C   0  0  0  0  0  0  0  0  0  0  0  0
  146.2287  132.6044  150.3356 C   0  0  0  0  0  0  0  0  0  0  0  0
  146.4740  131.4957  151.2854 N   0  3  0  0  0  0  0  0  0  0  0  0
  145.3290  130.5678  151.4346 C   0  0  0  0  0  0  0  0  0  0  0  0
  146.9889  132.0264  152.5683 C   0  0  0  0  0  0  0  0  0  0  0  0
  146.0673  133.1246  153.1358 C   0  0  0  0  0  0  0  0  0  0  0  0
  150.2358  137.9415  156.5536 C   0  0  0  0  0  0  0  0  0  0  0  0
  151.1892  138.4798  157.3429 N   0  0  0  0  0  0  0  0  0  0  0  0
  153.9243  140.0725  159.4288 H   0  0  0  0  0  0  0  0  0  0  0  0
  152.9446  138.6103  159.3962 H   0  0  0  0  0  0  0  0  0  0  0  0
  152.1878  140.2046  159.1743 H   0  0  0  0  0  0  0  0  0  0  0  0
  153.4410  139.2711  154.9299 H   0  0  0  0  0  0  0  0  0  0  0  0
  151.6972  138.2704  153.4835 H   0  0  0  0  0  0  0  0  0  0  0  0
  149.4736  136.9988  153.4812 H   0  0  0  0  0  0  0  0  0  0  0  0
  147.7120  136.2939  153.0005 H   0  0  0  0  0  0  0  0  0  0  0  0
  145.9527  135.0468  154.7792 H   0  0  0  0  0  0  0  0  0  0  0  0
  145.3164  136.6264  154.5620 H   0  0  0  0  0  0  0  0  0  0  0  0
  143.2991  136.1341  153.3421 H   0  0  0  0  0  0  0  0  0  0  0  0
  143.5750  134.4440  153.6946 H   0  0  0  0  0  0  0  0  0  0  0  0
  143.2357  134.9633  152.0453 H   0  0  0  0  0  0  0  0  0  0  0  0
  145.1731  137.5757  152.1847 H   0  0  0  0  0  0  0  0  0  0  0  0
  144.8063  136.5263  150.8473 H   0  0  0  0  0  0  0  0  0  0  0  0
  146.4762  136.7210  151.3750 H   0  0  0  0  0  0  0  0  0  0  0  0
  144.3346  133.2901  151.1634 H   0  0  0  0  0  0  0  0  0  0  0  0
  145.2002  134.4637  150.1986 H   0  0  0  0  0  0  0  0  0  0  0  0
  145.7865  132.2168  149.4170 H   0  0  0  0  0  0  0  0  0  0  0  0
  147.1874  133.0424  150.0537 H   0  0  0  0  0  0  0  0  0  0  0  0
  144.4561  131.0612  151.8620 H   0  0  0  0  0  0  0  0  0  0  0  0
  145.5970  129.7329  152.0828 H   0  0  0  0  0  0  0  0  0  0  0  0
  145.0443  130.1549  150.4663 H   0  0  0  0  0  0  0  0  0  0  0  0
  147.1052  131.2150  153.2875 H   0  0  0  0  0  0  0  0  0  0  0  0
  147.9866  132.4359  152.4031 H   0  0  0  0  0  0  0  0  0  0  0  0
  146.5098  133.4595  154.0711 H   0  0  0  0  0  0  0  0  0  0  0  0
  145.0892  132.7108  153.3811 H   0  0  0  0  0  0  0  0  0  0  0  0
  149.3560  137.5737  157.0615 H   0  0  0  0  0  0  0  0  0  0  0  0
  147.2177  130.9400  150.8876 H   0  0  0  0  0  0  0  0  0  0  0  0
  1  2  1  0  0  0  0
  1 24  1  0  0  0  0
  1 25  1  0  0  0  0
  1 26  1  0  0  0  0
  2  3  1  0  0  0  0
  3 23  1  0  0  0  0
  3  4  2  0  0  0  0
  4  5  1  0  0  0  0
  4 27  1  0  0  0  0
  5  6  2  0  0  0  0
  5 28  1  0  0  0  0
  6  7  1  0  0  0  0
  6 22  1  0  0  0  0
  7  8  1  0  0  0  0
  7 29  1  0  0  0  0
  8  9  2  0  0  0  0
  8 10  1  0  0  0  0
 10 11  1  0  0  0  0
 10 30  1  0  0  0  0
 11 12  1  0  0  0  0
 11 31  1  0  0  0  0
 11 32  1  0  0  0  0
 12 13  1  0  0  0  0
 12 14  1  0  0  0  0
 12 15  1  0  0  0  0
 13 33  1  0  0  0  0
 13 34  1  0  0  0  0
 13 35  1  0  0  0  0
 14 36  1  0  0  0  0
 14 37  1  0  0  0  0
 14 38  1  0  0  0  0
 15 21  1  0  0  0  0
 15 16  1  0  0  0  0
 16 17  1  0  0  0  0
 16 39  1  0  0  0  0
 16 40  1  0  0  0  0
 17 18  1  0  0  0  0
 17 41  1  0  0  0  0
 17 42  1  0  0  0  0
 18 19  1  0  0  0  0
 18 20  1  0  0  0  0
 18 51  1  0  0  0  0
 19 43  1  0  0  0  0
 19 44  1  0  0  0  0
 19 45  1  0  0  0  0
 20 21  1  0  0  0  0
 20 46  1  0  0  0  0
 20 47  1  0  0  0  0
 21 48  1  0  0  0  0
 21 49  1  0  0  0  0
 22 23  2  0  0  0  0
 22 50  1  0  0  0  0
M  CHG  1  18   1
M  END
> <s_m_source_file>
AV-unprocessed.smi

> <i_m_source_file_index>
1149

> <i_lp_mmshare_version>
43012

> <i_f3d_flags>
0

> <s_epik_input>
W0NIM11PYzFbY0hdW2NIXWMoW2NIXW4xKVtOSF1DKD1PKVtOSF1bQ0gyXUMoW0NIM10pKFtDSDNdKU4yW0NIMl1bQ0gyXU4oW0NIM10pW0NIMl1bQ0gyXTI=

> <s_epik_cmdline>
J2VwaWtfcHl0aG9uJywgJy1waCcsICc3LjAnLCAnLXRuJywgJzgnLCAnLW1hJywgJzIwMCcsICctbWV0YWxfYmluZGluZycsICctaW1hZScsICc8aW5maWxlLm1hZT4nLCAnLW9tYWUnLCAnPG91dGZpbGUubWFlPic=

> <r_lp_tautomer_probability>
1

> <r_epik_Ionization_Penalty>
0.0248754

> <r_epik_Ionization_Penalty_Charging>
0.0238192

> <r_epik_Ionization_Penalty_Neutral>
0.00105627

> <r_epik_State_Penalty>
0.139266

> <r_epik_Charging_Adjusted_Penalty>
0.163085

> <i_epik_Tot_Q>
1

> <i_epik_Tot_abs_Q>
1

> <r_epik_Metal_State_Penalty>
0.139265

> <b_epik_Metal_Only>
0

> <s_lp_Force_Field>
OPLS_2005

> <r_lp_Energy>
29.3026

> <b_lp_Chiralities_Consistent>
1

> <s_lp_Variant>
AV-unprocessed.smi:1149-1

> <Gold.Version>
5.8.1

> <Gold.Id.Protein>
6NUR|6NUR_protein|mol2

> <Gold.PLP.Fitness>
42.2964

> <Gold.PLP.PLP>
-30.6796

> <Gold.PLP.part.hbond>
-3.8535

> <Gold.PLP.part.metal>
0.0000

> <Gold.PLP.part.buried>
-3.1476

> <Gold.PLP.part.nonpolar>
-23.6438

> <Gold.PLP.part.repulsive>
0.1443

> <Gold.PLP.ligand.clash>
0.0000

> <Gold.PLP.ligand.torsion>
0.2136

> <Gold.PLP.Chemscore.Hbond>
4.0000

> <Gold.PLP.Chemscore.CHOScore>
0.0000

> <Gold.PLP.Chemscore.Metal>
0.0000

> <Gold.Chemscore.Hbonds>
donor molecule, donor type, donor heavy atom, donor atom, acceptor molecule, acceptor atom, score
      L1  H     7    29       P1  7948  1.00
      L1  H    10    30       P1  7948  1.00
      L1  H    18    51       P1 10747  0.98
      P1  H  7997  8008       L1     2  0.99

> <Gold.PLP.Chemscore.Internal.Correction>
0.0439

> <Gold.Rescore>
     Score         DG    S(hbond)    S(metal)    S(lipo)     H(rot)  DE(clash)    DE(int)     intcor
     21.37     -22.99       3.79        0.00      79.08       1.72       0.01       1.61       ----

> <Gold.Chemscore.Fitness>
21.3664

> <Gold.Chemscore.DG>
-22.9922

> <Gold.Chemscore.ZeroCoef>
-5.4800

> <Gold.Chemscore.Hbond>
3.7923

> <Gold.Chemscore.Metal>
0.0000

> <Gold.Chemscore.Lipo>
79.0797

> <Gold.Chemscore.Internal_Hbond>
0.0000

> <Gold.Chemscore.DEClash>
0.0124

> <Gold.Chemscore.DEInternal>
1.6134

> <Gold.Chemscore.Rot>
1.7213

> <Gold.Chemscore.Internal.Correction>
   9.000000E+99

> <Gold.Chemscore.Hbonds>
donor molecule, donor type, donor heavy atom, donor atom, acceptor molecule, acceptor atom, score
      L1  H     7    29       P1  7948  0.85
      L1  H    10    30       P1  7948  0.99
      L1  H    18    51       P1 10747  0.93
      P1  H  7997  8008       L1     2  0.82

> <Gold.Chemscore.Hbond.Weighted>
-12.6664

> <Gold.Chemscore.Metal.Weighted>
-0.0000

> <Gold.Chemscore.Lipo.Weighted>
-9.2523

> <Gold.Chemscore.Internal_Hbond.Weighted>
0.0000

> <Gold.Chemscore.DEClash.Weighted>
0.0124

> <Gold.Chemscore.DEInternal.Weighted>
1.6134

> <Gold.Chemscore.Rot.Weighted>
4.4066

> <Gold.Chemscore.Internal.Correction.Weighted>
   9.000000E+99

> <Gold.Protein.RotatedTorsions>
[ 6907 6896 6895 6894 ] final  -40.23 input  -60.11 | X-H torsion
[ 7974 7965 7964 7962 ] final  101.55 input  175.53 | X-H torsion
[ 8008 7997 7996 7995 ] final  -92.01 input   59.86 | X-H torsion
[ 10167 10162 10161 10158 ] final  -97.27 input  -65.29 | X-H torsion
[ 10718 10713 10712 10709 ] final  176.19 input   66.30 | X-H torsion
[ 10763 10752 10751 10750 ] final  156.28 input  -60.55 | X-H torsion
[ 11005 11000 10999 10996 ] final -113.21 input  -57.11 | X-H torsion

> <Gold.Protein.ActiveResidues>
 VAL166  LYS551  ARG553  GLY616  TRP617  ASP618  TYR619  PRO620  LYS621  CYS622 
 ASP623  PHE694  ASN695  SER759  ASP760  ASP761  ALA762  ILE779  LEU786  VAL792 
 PHE793  MET794  SER795  GLU796  ALA797  LYS798  CYS799  TRP800  GLU811  SER814 

> <Gold.Protein.RotatedAtoms>
  150.9809  134.9164  159.7843 H   0  0  0  0  0  0  0  0  0  0  0  0  # atno 6907 bound_to 6896
  152.5221  134.3412  159.9228 H   0  0  0  0  0  0  0  0  0  0  0  0  # atno 6908 bound_to 6896
  151.3419  133.3918  159.2706 H   0  0  0  0  0  0  0  0  0  0  0  0  # atno 6909 bound_to 6896
  145.3708  139.2398  143.3456 H   0  0  0  0  0  0  0  0  0  0  0  0  # atno 7974 bound_to 7965
  154.7178  140.0513  157.0611 H   0  0  0  0  0  0  0  0  0  0  0  0  # atno 8008 bound_to 7997
  155.0468  140.3174  155.4686 H   0  0  0  0  0  0  0  0  0  0  0  0  # atno 8009 bound_to 7997
  156.2808  140.2123  156.5592 H   0  0  0  0  0  0  0  0  0  0  0  0  # atno 8010 bound_to 7997
  140.2852  143.3256  152.0402 H   0  0  0  0  0  0  0  0  0  0  0  0  # atno 10167 bound_to 10162
  156.9237  130.9949  151.3000 H   0  0  0  0  0  0  0  0  0  0  0  0  # atno 10718 bound_to 10713
  154.1818  135.2799  155.3050 H   0  0  0  0  0  0  0  0  0  0  0  0  # atno 10763 bound_to 10752
  154.5997  135.5533  153.7365 H   0  0  0  0  0  0  0  0  0  0  0  0  # atno 10764 bound_to 10752
  153.0136  135.6388  154.1957 H   0  0  0  0  0  0  0  0  0  0  0  0  # atno 10765 bound_to 10752
  141.0628  133.9507  157.2635 H   0  0  0  0  0  0  0  0  0  0  0  0  # atno 11005 bound_to 11000
  146.2886  140.4359  142.8748 LP  0  0  0  0  0  0  0  0  0  0  0  0  # atno 17320 bound_to 7965
  144.8577  140.7095  143.6127 LP  0  0  0  0  0  0  0  0  0  0  0  0  # atno 17321 bound_to 7965
  139.4952  144.6564  151.6563 LP  0  0  0  0  0  0  0  0  0  0  0  0  # atno 17342 bound_to 10162
  140.5779  143.9997  150.6252 LP  0  0  0  0  0  0  0  0  0  0  0  0  # atno 17343 bound_to 10162
  157.5891  130.8431  149.8633 LP  0  0  0  0  0  0  0  0  0  0  0  0  # atno 17370 bound_to 10713
  156.0479  130.3724  150.1272 LP  0  0  0  0  0  0  0  0  0  0  0  0  # atno 17371 bound_to 10713
  139.9448  135.0185  156.8820 LP  0  0  0  0  0  0  0  0  0  0  0  0  # atno 17394 bound_to 11000
  140.5834  134.0331  155.7472 LP  0  0  0  0  0  0  0  0  0  0  0  0  # atno 17395 bound_to 11000

$$$$
