AV-unprocessed.smi:44|AV-procd|sdf|404|dock6
  -GOLD-   2262016253D 1   1.00000     0.00000
 Structure written by MMmdl.
 28 30  0  0  0  0  0  0  0  0  2 V2000
  152.4646  138.0682  154.8215 O   0  0  0  0  0  0  0  0  0  0  0  0
  152.4838  138.5935  155.9329 C   0  0  0  0  0  0  0  0  0  0  0  0
  153.1123  138.0829  157.0395 N   0  5  0  0  0  0  0  0  0  0  0  0
  153.0571  138.7780  158.2460 C   0  0  0  0  0  0  0  0  0  0  0  0
  152.4649  139.8992  158.4828 N   0  0  0  0  0  0  0  0  0  0  0  0
  151.8262  140.4362  157.3841 C   0  0  0  0  0  0  0  0  0  0  0  0
  151.7767  139.8906  156.1296 C   0  0  0  0  0  0  0  0  0  0  0  0
  151.0443  140.6909  155.2609 N   0  0  0  0  0  0  0  0  0  0  0  0
  150.6812  141.7012  156.0513 C   0  0  0  0  0  0  0  0  0  0  0  0
  151.1079  141.6237  157.3293 N   0  0  0  0  0  0  0  0  0  0  0  0
  150.8610  142.5897  158.4422 C   0  0  2  0  0  0  0  0  0  0  0  0
  151.5155  143.9396  158.1251 C   0  0  0  0  0  0  0  0  0  0  0  0
  152.1405  144.2969  159.4557 C   0  0  0  0  0  0  0  0  0  0  0  0
  152.5585  142.9210  159.9707 C   0  0  1  0  0  0  0  0  0  0  0  0
  152.7894  142.8499  161.4862 C   0  0  0  0  0  0  0  0  0  0  0  0
  151.5701  143.0262  162.1759 O   0  0  0  0  0  0  0  0  0  0  0  0
  151.4589  142.0940  159.6053 O   0  0  0  0  0  0  0  0  0  0  0  0
  149.7781  142.6359  158.5609 H   0  0  0  0  0  0  0  0  0  0  0  0
  153.4440  142.5745  159.4352 H   0  0  0  0  0  0  0  0  0  0  0  0
  153.5981  138.2568  159.0399 H   0  0  0  0  0  0  0  0  0  0  0  0
  150.0836  142.5231  155.6871 H   0  0  0  0  0  0  0  0  0  0  0  0
  152.2867  143.8190  157.3623 H   0  0  0  0  0  0  0  0  0  0  0  0
  150.7783  144.6631  157.7765 H   0  0  0  0  0  0  0  0  0  0  0  0
  152.9772  144.9893  159.3604 H   0  0  0  0  0  0  0  0  0  0  0  0
  151.3948  144.7455  160.1131 H   0  0  0  0  0  0  0  0  0  0  0  0
  153.2374  141.8969  161.7693 H   0  0  0  0  0  0  0  0  0  0  0  0
  153.4782  143.6358  161.7972 H   0  0  0  0  0  0  0  0  0  0  0  0
  151.5554  143.8976  162.5411 H   0  0  0  0  0  0  0  0  0  0  0  0
  1  2  2  0  0  0  0
  2  7  1  0  0  0  0
  2  3  1  0  0  0  0
  3  4  1  0  0  0  0
  4  5  2  0  0  0  0
  4 20  1  0  0  0  0
  5  6  1  0  0  0  0
  6 10  1  0  0  0  0
  6  7  2  0  0  0  0
  7  8  1  0  0  0  0
  8  9  2  0  0  0  0
  9 10  1  0  0  0  0
  9 21  1  0  0  0  0
 10 11  1  0  0  0  0
 11 18  1  0  0  0  0
 11 17  1  0  0  0  0
 11 12  1  0  0  0  0
 12 13  1  0  0  0  0
 12 22  1  0  0  0  0
 12 23  1  0  0  0  0
 13 14  1  0  0  0  0
 13 24  1  0  0  0  0
 13 25  1  0  0  0  0
 14 19  1  0  0  0  0
 14 15  1  0  0  0  0
 14 17  1  0  0  0  0
 15 16  1  0  0  0  0
 15 26  1  0  0  0  0
 15 27  1  0  0  0  0
 16 28  1  0  0  0  0
M  CHG  1   3  -1
M  END
> <s_m_source_file>
AV-unprocessed.smi

> <i_m_source_file_index>
44

> <i_lp_mmshare_version>
43012

> <i_f3d_flags>
0

> <s_epik_input>
bjFbY0hdW25IXWMoPU8pYyhjMTIpbltjSF1uMltDQEhdM1tDSDJdW0NIMl1bQ0BIXShPMylbQ0gyXVtPSF0=

> <s_epik_cmdline>
J2VwaWtfcHl0aG9uJywgJy1waCcsICc3LjAnLCAnLXRuJywgJzgnLCAnLW1hJywgJzIwMCcsICctbWV0YWxfYmluZGluZycsICctaW1hZScsICc8aW5maWxlLm1hZT4nLCAnLW9tYWUnLCAnPG91dGZpbGUubWFlPic=

> <r_lp_tautomer_probability>
0.85571

> <r_epik_Ionization_Penalty>
2.55863

> <r_epik_Ionization_Penalty_Charging>
1.36424e-10

> <r_epik_Ionization_Penalty_Neutral>
2.55863

> <r_epik_State_Penalty>
2.63326

> <r_epik_Charging_Adjusted_Penalty>
2.63326

> <i_epik_Tot_Q>
-1

> <i_epik_Tot_abs_Q>
1

> <r_epik_Metal_State_Penalty>
0.475154

> <b_epik_Metal_Only>
1

> <s_epik_Chemistry_Notes>
This compound contains an acetal/aminal-like group ( X-CH(R)-Y where X, Y are N, S, or O) that may be acid/base labile, releasing an aldehyde.

> <s_lp_Force_Field>
OPLS_2005

> <r_lp_Energy>
46.6553

> <b_lp_Chiralities_Consistent>
1

> <s_lp_Variant>
AV-unprocessed.smi:44-10

> <Gold.Version>
5.8.1

> <Gold.Id.Protein>
6NUR|6NUR_protein|mol2

> <Gold.PLP.Fitness>
45.7091

> <Gold.PLP.PLP>
-37.6909

> <Gold.PLP.part.hbond>
-4.1098

> <Gold.PLP.part.metal>
0.0000

> <Gold.PLP.part.buried>
-5.4364

> <Gold.PLP.part.nonpolar>
-28.2754

> <Gold.PLP.part.repulsive>
0.0978

> <Gold.PLP.ligand.clash>
0.0000

> <Gold.PLP.ligand.torsion>
0.0646

> <Gold.PLP.Chemscore.Hbond>
1.7120

> <Gold.PLP.Chemscore.CHOScore>
1.0000

> <Gold.PLP.Chemscore.Metal>
0.0000

> <Gold.Chemscore.Hbonds>
donor molecule, donor type, donor heavy atom, donor atom, acceptor molecule, acceptor atom, score
      P1  H  6933  6945       L1    16  0.83
      P1  H  7989  7998       L1     8  0.86
      L1  C     9    21       P1  8028  1.00

> <Gold.PLP.Chemscore.Internal.Correction>
0.0115

> <Gold.Rescore>
     Score         DG    S(hbond)    S(metal)    S(lipo)     H(rot)  DE(clash)    DE(int)     intcor
     10.12     -12.54       1.94        0.00      54.27       2.26       0.81       1.61       ----

> <Gold.Chemscore.Fitness>
10.1198

> <Gold.Chemscore.DG>
-12.5353

> <Gold.Chemscore.ZeroCoef>
-5.4800

> <Gold.Chemscore.Hbond>
1.9424

> <Gold.Chemscore.Metal>
0.0000

> <Gold.Chemscore.Lipo>
54.2742

> <Gold.Chemscore.Internal_Hbond>
0.0000

> <Gold.Chemscore.DEClash>
0.8073

> <Gold.Chemscore.DEInternal>
1.6082

> <Gold.Chemscore.Rot>
2.2588

> <Gold.Chemscore.Internal.Correction>
   9.000000E+99

> <Gold.Chemscore.Hbonds>
donor molecule, donor type, donor heavy atom, donor atom, acceptor molecule, acceptor atom, score
      P1  H  6933  6945       L1    16  0.79
      P1  H  7989  7998       L1     8  0.82
      P1  H 10752 10765       L1     1  0.01

> <Gold.Chemscore.Hbond.Weighted>
-6.4877

> <Gold.Chemscore.Metal.Weighted>
-0.0000

> <Gold.Chemscore.Lipo.Weighted>
-6.3501

> <Gold.Chemscore.Internal_Hbond.Weighted>
0.0000

> <Gold.Chemscore.DEClash.Weighted>
0.8073

> <Gold.Chemscore.DEInternal.Weighted>
1.6082

> <Gold.Chemscore.Rot.Weighted>
5.7825

> <Gold.Chemscore.Internal.Correction.Weighted>
   9.000000E+99

> <Gold.Protein.RotatedTorsions>
[ 6907 6896 6895 6894 ] final -110.08 input  -60.11 | X-H torsion
[ 7974 7965 7964 7962 ] final -149.58 input  175.53 | X-H torsion
[ 8008 7997 7996 7995 ] final  -33.93 input   59.86 | X-H torsion
[ 10167 10162 10161 10158 ] final   87.76 input  -65.29 | X-H torsion
[ 10718 10713 10712 10709 ] final  -46.99 input   66.30 | X-H torsion
[ 10763 10752 10751 10750 ] final -176.92 input  -60.55 | X-H torsion
[ 11005 11000 10999 10996 ] final -129.56 input  -57.11 | X-H torsion

> <Gold.Protein.ActiveResidues>
 VAL166  LYS551  ARG553  GLY616  TRP617  ASP618  TYR619  PRO620  LYS621  CYS622 
 ASP623  PHE694  ASN695  SER759  ASP760  ASP761  ALA762  ILE779  LEU786  VAL792 
 PHE793  MET794  SER795  GLU796  ALA797  LYS798  CYS799  TRP800  GLU811  SER814 

> <Gold.Protein.RotatedAtoms>
  150.7602  133.9434  159.3463 H   0  0  0  0  0  0  0  0  0  0  0  0  # atno 6907 bound_to 6896
  151.7345  135.0866  160.0315 H   0  0  0  0  0  0  0  0  0  0  0  0  # atno 6908 bound_to 6896
  152.3568  133.6210  159.6021 H   0  0  0  0  0  0  0  0  0  0  0  0  # atno 6909 bound_to 6896
  144.7959  140.5046  143.5741 H   0  0  0  0  0  0  0  0  0  0  0  0  # atno 7974 bound_to 7965
  154.4135  140.1697  156.1968 H   0  0  0  0  0  0  0  0  0  0  0  0  # atno 8008 bound_to 7997
  155.9557  140.3397  155.6423 H   0  0  0  0  0  0  0  0  0  0  0  0  # atno 8009 bound_to 7997
  155.6813  140.0723  157.2474 H   0  0  0  0  0  0  0  0  0  0  0  0  # atno 8010 bound_to 7997
  139.8741  144.6476  150.8916 H   0  0  0  0  0  0  0  0  0  0  0  0  # atno 10167 bound_to 10162
  156.2128  130.4161  149.9092 H   0  0  0  0  0  0  0  0  0  0  0  0  # atno 10718 bound_to 10713
  154.5665  135.2824  155.0869 H   0  0  0  0  0  0  0  0  0  0  0  0  # atno 10763 bound_to 10752
  154.2258  135.6383  153.5163 H   0  0  0  0  0  0  0  0  0  0  0  0  # atno 10764 bound_to 10752
  153.0044  135.5525  154.6275 H   0  0  0  0  0  0  0  0  0  0  0  0  # atno 10765 bound_to 10752
  140.9421  134.1179  157.4141 H   0  0  0  0  0  0  0  0  0  0  0  0  # atno 11005 bound_to 11000
  145.5675  139.1482  143.3307 LP  0  0  0  0  0  0  0  0  0  0  0  0  # atno 17320 bound_to 7965
  146.2226  140.5809  142.9010 LP  0  0  0  0  0  0  0  0  0  0  0  0  # atno 17321 bound_to 7965
  140.7756  143.3639  151.1776 LP  0  0  0  0  0  0  0  0  0  0  0  0  # atno 17342 bound_to 10162
  139.7256  143.9154  152.3001 LP  0  0  0  0  0  0  0  0  0  0  0  0  # atno 17343 bound_to 10162
  156.6765  130.8841  151.3570 LP  0  0  0  0  0  0  0  0  0  0  0  0  # atno 17370 bound_to 10713
  157.7047  130.9372  150.0895 LP  0  0  0  0  0  0  0  0  0  0  0  0  # atno 17371 bound_to 10713
  139.8823  135.0040  156.6220 LP  0  0  0  0  0  0  0  0  0  0  0  0  # atno 17394 bound_to 11000
  140.7720  133.8731  155.8499 LP  0  0  0  0  0  0  0  0  0  0  0  0  # atno 17395 bound_to 11000

$$$$
