#       Name:                AV-unprocessed.smi:3270
#       Creating user name   scv26
#       Creation time:       Fri Mar 27 18:42:26 2020


#       File generated by GOLD software.
#

@<TRIPOS>MOLECULE
AV-unprocessed.smi:3270
    44    45     1
SMALL
NO_CHARGES


@<TRIPOS>ATOM
      1 ****        -3.7604  -2.4006  -0.6570 C.3            1 S1                 0.0000
      2 ****        -3.0017  -1.4444   0.2860 C.3            1 S1                 0.0000
      3 ****        -1.5198  -1.2714  -0.0941 C.2            1 S1                 0.0000
      4 ****        -1.0089  -1.9600  -0.9785 O.2            1 S1                 0.0000
      5 ****        -0.8381  -0.3274   0.5753 N.am           1 S1                 0.0000
      6 ****         0.5674  -0.0026   0.3645 C.3            1 S1                 0.0000
      7 ****         0.7528   0.9238  -0.8524 C.3            1 S1                 0.0000
      8 ****         2.1790   1.2321  -1.1249 N.4            1 S1                 1.0000
      9 ****         2.3903   1.7296  -2.5057 C.3            1 S1                 0.0000
     10 ****         3.8835   1.9906  -2.7650 C.3            1 S1                 0.0000
     11 ****         4.3776   2.9164  -1.8056 O.3            1 S1                 0.0000
     12 ****         4.2666   2.4159  -0.4794 C.3            1 S1                 0.0000
     13 ****         2.7870   2.1633  -0.1414 C.3            1 S1                 0.0000
     14 ****        -3.1397  -1.8431   1.6828 N.pl3          1 S1                 0.0000
     15 ****        -3.5574  -1.0719   2.7487 C.2            1 S1                 0.0000
     16 ****        -3.5055  -1.8537   3.8668 C.2            1 S1                 0.0000
     17 ****        -3.0312  -3.1043   3.3826 C.2            1 S1                 0.0000
     18 ****        -2.8077  -3.0939   2.0788 N.2            1 S1                 0.0000
     19 ****        -3.7154  -2.0540  -1.6901 H              1 S1                 0.0000
     20 ****        -4.8135  -2.4633  -0.3813 H              1 S1                 0.0000
     21 ****        -3.3514  -3.4115  -0.6285 H              1 S1                 0.0000
     22 ****        -3.4647  -0.4615   0.1862 H              1 S1                 0.0000
     23 ****        -1.3272   0.1942   1.2885 H              1 S1                 0.0000
     24 ****         0.9259   0.4752   1.2754 H              1 S1                 0.0000
     25 ****         1.1497  -0.9178   0.2434 H              1 S1                 0.0000
     26 ****         0.3305   0.4300  -1.7290 H              1 S1                 0.0000
     27 ****         0.1925   1.8509  -0.7215 H              1 S1                 0.0000
     28 ****         2.0174   0.9993  -3.2250 H              1 S1                 0.0000
     29 ****         1.8195   2.6475  -2.6552 H              1 S1                 0.0000
     30 ****         4.4556   1.0623  -2.7235 H              1 S1                 0.0000
     31 ****         4.0243   2.4073  -3.7625 H              1 S1                 0.0000
     32 ****         4.8529   1.5018  -0.3721 H              1 S1                 0.0000
     33 ****         4.6892   3.1475   0.2096 H              1 S1                 0.0000
     34 ****         2.2394   3.1072  -0.1427 H              1 S1                 0.0000
     35 ****         2.7179   1.7551   0.8662 H              1 S1                 0.0000
     36 ****        -3.8544  -0.0409   2.6246 H              1 S1                 0.0000
     37 ****        -3.7651  -1.5745   4.8771 H              1 S1                 0.0000
     38 ****        -2.8409  -4.0121   3.9358 H              1 S1                 0.0000
     39 ****         2.6823   0.3587  -1.0585 H              1 S1                 0.0000
     40 ****        -1.5580  -2.6427  -1.4605 LP             1 S1                 0.0000
     41 ****        -0.0450  -1.8363  -1.2144 LP             1 S1                 0.0000
     42 ****         3.8536   3.7652  -1.8757 LP             1 S1                 0.0000
     43 ****         5.3405   3.1020  -2.0015 LP             1 S1                 0.0000
     44 ****        -2.4685  -3.8442   1.5114 LP             1 S1                 0.0000
@<TRIPOS>BOND
    1    1    2 1     
    2    1   19 1     
    3    1   20 1     
    4    1   21 1     
    5    2    3 1     
    6    2   14 1     
    7    2   22 1     
    8    3    4 2     
    9    3    5 am    
   10    5    6 1     
   11    5   23 1     
   12    6    7 1     
   13    6   24 1     
   14    6   25 1     
   15    7    8 1     
   16    7   26 1     
   17    7   27 1     
   18    8   13 1     
   19    8    9 1     
   20    8   39 1     
   21    9   10 1     
   22    9   28 1     
   23    9   29 1     
   24   10   11 1     
   25   10   30 1     
   26   10   31 1     
   27   11   12 1     
   28   12   13 1     
   29   12   32 1     
   30   12   33 1     
   31   13   34 1     
   32   13   35 1     
   33   14   18 1     
   34   14   15 1     
   35   15   16 2     
   36   15   36 1     
   37   16   17 1     
   38   16   37 1     
   39   17   18 2     
   40   17   38 1     
   41    4   40 1     
   42    4   41 1     
   43   11   42 1     
   44   11   43 1     
   45   18   44 1     
@<TRIPOS>SUBSTRUCTURE
      1 S1             1
@<TRIPOS>SET
LONE_PAIRS      STATIC     ATOMS    <user>   **** ""
5 40 41 42 43 44
DONOR_HYDROGENS      STATIC     ATOMS    <user>   **** ""
2 23 39
ATOM$BLUE        STATIC     ATOMS    COLORGROUP SYSTEM
5 40 41 42 43 44
ATOM$RED        STATIC     ATOMS    COLORGROUP SYSTEM
2 23 39
