AV-unprocessed.smi:2667|AV-procd|sdf|10335|dock2
  -GOLD-   2272014353D 1   1.00000     0.00000
 Structure written by MMmdl.
 44 46  0  0  0  0  0  0  0  0  1 V2000
  147.2782  134.2558  162.6188 C   0  0  0  0  0  0  0  0  0  0  0  0
  147.4764  134.7768  161.1866 C   0  0  0  0  0  0  0  0  0  0  0  0
  147.5682  136.3074  161.0865 C   0  0  0  0  0  0  0  0  0  0  0  0
  147.4426  136.9957  162.1004 O   0  0  0  0  0  0  0  0  0  0  0  0
  147.8015  136.8929  159.7344 C   0  0  0  0  0  0  0  0  0  0  0  0
  146.7490  137.4409  158.9648 C   0  0  0  0  0  0  0  0  0  0  0  0
  147.0047  137.9898  157.6938 C   0  0  0  0  0  0  0  0  0  0  0  0
  148.3082  138.0076  157.1605 C   0  0  0  0  0  0  0  0  0  0  0  0
  148.4674  138.5750  155.9145 O   0  0  0  0  0  0  0  0  0  0  0  0
  149.7461  138.4966  155.2987 C   0  0  0  0  0  0  0  0  0  0  0  0
  150.0191  139.8195  154.5600 C   0  0  1  0  0  0  0  0  0  0  0  0
  149.0096  140.0001  153.5884 O   0  0  0  0  0  0  0  0  0  0  0  0
  149.9922  141.0601  155.4746 C   0  0  0  0  0  0  0  0  0  0  0  0
  150.9930  141.0082  156.5251 N   0  0  0  0  0  0  0  0  0  0  0  0
  151.8869  140.0244  156.7413 C   0  0  0  0  0  0  0  0  0  0  0  0
  152.7238  140.1748  157.7639 N   0  0  0  0  0  0  0  0  0  0  0  0
  152.3288  141.4013  158.2699 C   0  0  0  0  0  0  0  0  0  0  0  0
  152.8215  142.1418  159.3682 C   0  0  0  0  0  0  0  0  0  0  0  0
  152.2523  143.3883  159.7023 C   0  0  0  0  0  0  0  0  0  0  0  0
  151.1837  143.9124  158.9462 C   0  0  0  0  0  0  0  0  0  0  0  0
  150.6763  143.1932  157.8472 C   0  0  0  0  0  0  0  0  0  0  0  0
  151.2479  141.9506  157.5160 C   0  0  0  0  0  0  0  0  0  0  0  0
  149.3621  137.4498  157.9250 C   0  0  0  0  0  0  0  0  0  0  0  0
  149.1079  136.8987  159.1957 C   0  0  0  0  0  0  0  0  0  0  0  0
  147.2000  133.1687  162.6228 H   0  0  0  0  0  0  0  0  0  0  0  0
  146.3650  134.6528  163.0641 H   0  0  0  0  0  0  0  0  0  0  0  0
  148.1157  134.5277  163.2624 H   0  0  0  0  0  0  0  0  0  0  0  0
  148.3859  134.3452  160.7679 H   0  0  0  0  0  0  0  0  0  0  0  0
  146.6462  134.4376  160.5667 H   0  0  0  0  0  0  0  0  0  0  0  0
  145.7325  137.4524  159.3283 H   0  0  0  0  0  0  0  0  0  0  0  0
  146.1885  138.4067  157.1221 H   0  0  0  0  0  0  0  0  0  0  0  0
  150.5347  138.2929  156.0252 H   0  0  0  0  0  0  0  0  0  0  0  0
  149.7229  137.6684  154.5903 H   0  0  0  0  0  0  0  0  0  0  0  0
  150.9855  139.7684  154.0566 H   0  0  0  0  0  0  0  0  0  0  0  0
  149.4152  140.0065  152.7348 H   0  0  0  0  0  0  0  0  0  0  0  0
  150.1667  141.9638  154.8887 H   0  0  0  0  0  0  0  0  0  0  0  0
  149.0092  141.1738  155.9333 H   0  0  0  0  0  0  0  0  0  0  0  0
  151.9238  139.1472  156.1118 H   0  0  0  0  0  0  0  0  0  0  0  0
  153.6395  141.7501  159.9544 H   0  0  0  0  0  0  0  0  0  0  0  0
  152.6377  143.9450  160.5439 H   0  0  0  0  0  0  0  0  0  0  0  0
  150.7537  144.8675  159.2103 H   0  0  0  0  0  0  0  0  0  0  0  0
  149.8567  143.5912  157.2675 H   0  0  0  0  0  0  0  0  0  0  0  0
  150.3776  137.4317  157.5594 H   0  0  0  0  0  0  0  0  0  0  0  0
  149.9344  136.4837  159.7544 H   0  0  0  0  0  0  0  0  0  0  0  0
  1  2  1  0  0  0  0
  1 25  1  0  0  0  0
  1 26  1  0  0  0  0
  1 27  1  0  0  0  0
  2  3  1  0  0  0  0
  2 28  1  0  0  0  0
  2 29  1  0  0  0  0
  3  4  2  0  0  0  0
  3  5  1  0  0  0  0
  5 24  1  0  0  0  0
  5  6  2  0  0  0  0
  6  7  1  0  0  0  0
  6 30  1  0  0  0  0
  7  8  2  0  0  0  0
  7 31  1  0  0  0  0
  8  9  1  0  0  0  0
  8 23  1  0  0  0  0
  9 10  1  0  0  0  0
 10 11  1  0  0  0  0
 10 32  1  0  0  0  0
 10 33  1  0  0  0  0
 11 12  1  0  0  0  0
 11 13  1  0  0  0  0
 11 34  1  0  0  0  0
 12 35  1  0  0  0  0
 13 14  1  0  0  0  0
 13 36  1  0  0  0  0
 13 37  1  0  0  0  0
 14 22  1  0  0  0  0
 14 15  1  0  0  0  0
 15 16  2  0  0  0  0
 15 38  1  0  0  0  0
 16 17  1  0  0  0  0
 17 22  2  0  0  0  0
 17 18  1  0  0  0  0
 18 19  2  0  0  0  0
 18 39  1  0  0  0  0
 19 20  1  0  0  0  0
 19 40  1  0  0  0  0
 20 21  2  0  0  0  0
 20 41  1  0  0  0  0
 21 22  1  0  0  0  0
 21 42  1  0  0  0  0
 23 24  2  0  0  0  0
 23 43  1  0  0  0  0
 24 44  1  0  0  0  0
M  END
> <s_m_source_file>
AV-unprocessed.smi

> <i_m_source_file_index>
2667

> <i_lp_mmshare_version>
43012

> <i_f3d_flags>
0

> <s_epik_input>
W0NIM11bQ0gyXUMoPU8pYzFbY0hdW2NIXWMoW2NIXVtjSF0xKU9bQ0gyXVtDQEhdKFtPSF0pW0NIMl1uKFtjSF1uMiljKGMyMylbY0hdW2NIXVtjSF1bY0hdMw==

> <s_epik_cmdline>
J2VwaWtfcHl0aG9uJywgJy1waCcsICc3LjAnLCAnLXRuJywgJzgnLCAnLW1hJywgJzIwMCcsICctbWV0YWxfYmluZGluZycsICctaW1hZScsICc8aW5maWxlLm1hZT4nLCAnLW9tYWUnLCAnPG91dGZpbGUubWFlPic=

> <r_lp_tautomer_probability>
0.9999

> <r_epik_Ionization_Penalty>
0.0583018

> <r_epik_Ionization_Penalty_Charging>
0

> <r_epik_Ionization_Penalty_Neutral>
0.0583018

> <r_epik_State_Penalty>
0.0504087

> <r_epik_Charging_Adjusted_Penalty>
0.0504087

> <i_epik_Tot_Q>
0

> <i_epik_Tot_abs_Q>
0

> <r_epik_Metal_State_Penalty>
5.26129e-05

> <b_epik_Metal_Only>
0

> <s_lp_Force_Field>
OPLS_2005

> <r_lp_Energy>
23.9231

> <b_lp_Chiralities_Consistent>
1

> <s_lp_Variant>
AV-unprocessed.smi:2667-2

> <Gold.Version>
5.8.1

> <Gold.Id.Protein>
6NUR|6NUR_protein|mol2

> <Gold.PLP.Fitness>
50.2129

> <Gold.PLP.PLP>
-44.2067

> <Gold.PLP.part.hbond>
-3.7147

> <Gold.PLP.part.metal>
0.0000

> <Gold.PLP.part.buried>
-4.2034

> <Gold.PLP.part.nonpolar>
-36.7263

> <Gold.PLP.part.repulsive>
0.0125

> <Gold.PLP.ligand.clash>
0.0085

> <Gold.PLP.ligand.torsion>
1.7515

> <Gold.PLP.Chemscore.Hbond>
3.1078

> <Gold.PLP.Chemscore.CHOScore>
0.0000

> <Gold.PLP.Chemscore.Metal>
0.0000

> <Gold.Chemscore.Hbonds>
donor molecule, donor type, donor heavy atom, donor atom, acceptor molecule, acceptor atom, score
      L1  H    12    35       P1  7957  1.00
      P1  H  6931  6943       L1     4  0.98
      P1  H  6934  6947       L1     4  0.12
      P1  H  7997  8008       L1    16  0.99

> <Gold.PLP.Chemscore.Internal.Correction>
0.1944

> <Gold.Rescore>
     Score         DG    S(hbond)    S(metal)    S(lipo)     H(rot)  DE(clash)    DE(int)     intcor
     17.21     -20.08       2.60        0.00     105.17       2.49       0.14       2.74       ----

> <Gold.Chemscore.Fitness>
17.2131

> <Gold.Chemscore.DG>
-20.0838

> <Gold.Chemscore.ZeroCoef>
-5.4800

> <Gold.Chemscore.Hbond>
2.5992

> <Gold.Chemscore.Metal>
0.0000

> <Gold.Chemscore.Lipo>
105.1732

> <Gold.Chemscore.Internal_Hbond>
0.0000

> <Gold.Chemscore.DEClash>
0.1355

> <Gold.Chemscore.DEInternal>
2.7352

> <Gold.Chemscore.Rot>
2.4932

> <Gold.Chemscore.Internal.Correction>
   9.000000E+99

> <Gold.Chemscore.Hbonds>
donor molecule, donor type, donor heavy atom, donor atom, acceptor molecule, acceptor atom, score
      L1  H    12    35       P1  7957  0.98
      P1  H  6931  6943       L1     4  0.30
      P1  H  6934  6947       L1     4  0.02
      P1  H  7997  8008       L1    16  0.35

> <Gold.Chemscore.Hbond.Weighted>
-8.6812

> <Gold.Chemscore.Metal.Weighted>
-0.0000

> <Gold.Chemscore.Lipo.Weighted>
-12.3053

> <Gold.Chemscore.Internal_Hbond.Weighted>
0.0000

> <Gold.Chemscore.DEClash.Weighted>
0.1355

> <Gold.Chemscore.DEInternal.Weighted>
2.7352

> <Gold.Chemscore.Rot.Weighted>
6.3826

> <Gold.Chemscore.Internal.Correction.Weighted>
   9.000000E+99

> <Gold.Protein.RotatedTorsions>
[ 6907 6896 6895 6894 ] final    8.31 input  -60.11 | X-H torsion
[ 7974 7965 7964 7962 ] final   30.08 input  175.53 | X-H torsion
[ 8008 7997 7996 7995 ] final  -77.59 input   59.86 | X-H torsion
[ 10167 10162 10161 10158 ] final -160.38 input  -65.29 | X-H torsion
[ 10718 10713 10712 10709 ] final  106.39 input   66.30 | X-H torsion
[ 10763 10752 10751 10750 ] final   -8.06 input  -60.55 | X-H torsion
[ 11005 11000 10999 10996 ] final  -27.13 input  -57.11 | X-H torsion

> <Gold.Protein.ActiveResidues>
 VAL166  LYS551  ARG553  GLY616  TRP617  ASP618  TYR619  PRO620  LYS621  CYS622 
 ASP623  PHE694  ASN695  SER759  ASP760  ASP761  ALA762  ILE779  LEU786  VAL792 
 PHE793  MET794  SER795  GLU796  ALA797  LYS798  CYS799  TRP800  GLU811  SER814 

> <Gold.Protein.RotatedAtoms>
  151.7040  135.0925  160.0255 H   0  0  0  0  0  0  0  0  0  0  0  0  # atno 6907 bound_to 6896
  152.3703  133.6406  159.6090 H   0  0  0  0  0  0  0  0  0  0  0  0  # atno 6908 bound_to 6896
  150.7668  133.9197  159.3436 H   0  0  0  0  0  0  0  0  0  0  0  0  # atno 6909 bound_to 6896
  146.1633  139.6836  142.9018 H   0  0  0  0  0  0  0  0  0  0  0  0  # atno 7974 bound_to 7965
  154.5610  140.0708  156.8819 H   0  0  0  0  0  0  0  0  0  0  0  0  # atno 8008 bound_to 7997
  155.2810  140.3371  155.4240 H   0  0  0  0  0  0  0  0  0  0  0  0  # atno 8009 bound_to 7997
  156.2042  140.1733  156.7820 H   0  0  0  0  0  0  0  0  0  0  0  0  # atno 8010 bound_to 7997
  139.6544  144.0026  152.2183 H   0  0  0  0  0  0  0  0  0  0  0  0  # atno 10167 bound_to 10162
  157.6670  131.0849  150.6000 H   0  0  0  0  0  0  0  0  0  0  0  0  # atno 10718 bound_to 10713
  153.4351  135.7012  153.6205 H   0  0  0  0  0  0  0  0  0  0  0  0  # atno 10763 bound_to 10752
  153.4604  135.3737  155.2335 H   0  0  0  0  0  0  0  0  0  0  0  0  # atno 10764 bound_to 10752
  154.8726  135.4018  154.3741 H   0  0  0  0  0  0  0  0  0  0  0  0  # atno 10765 bound_to 10752
  140.9091  133.7472  156.0647 H   0  0  0  0  0  0  0  0  0  0  0  0  # atno 11005 bound_to 11000
  145.4532  141.0429  143.2793 LP  0  0  0  0  0  0  0  0  0  0  0  0  # atno 17320 bound_to 7965
  144.8057  139.6055  143.7052 LP  0  0  0  0  0  0  0  0  0  0  0  0  # atno 17321 bound_to 7965
  139.9749  144.6468  150.7955 LP  0  0  0  0  0  0  0  0  0  0  0  0  # atno 17342 bound_to 10162
  140.7552  143.3042  151.3004 LP  0  0  0  0  0  0  0  0  0  0  0  0  # atno 17343 bound_to 10162
  156.6301  130.4429  149.5790 LP  0  0  0  0  0  0  0  0  0  0  0  0  # atno 17370 bound_to 10713
  156.2289  130.6782  151.1443 LP  0  0  0  0  0  0  0  0  0  0  0  0  # atno 17371 bound_to 10713
  140.8133  134.3374  157.5405 LP  0  0  0  0  0  0  0  0  0  0  0  0  # atno 17394 bound_to 11000
  139.8754  134.9266  156.3405 LP  0  0  0  0  0  0  0  0  0  0  0  0  # atno 17395 bound_to 11000

$$$$
