AV-unprocessed.smi:356|AV-procd|sdf|2414|dock5
  -GOLD-   2262022353D 1   1.00000     0.00000
 Structure written by MMmdl.
 43 45  0  0  0  0  0  0  0  0  3 V2000
  149.4952  141.2345  155.7495 C   0  0  0  0  0  0  0  0  0  0  0  0
  150.2819  141.8764  156.8427 C   0  0  0  0  0  0  0  0  0  0  0  0
  150.4418  143.2165  157.0330 N   0  3  0  0  0  0  0  0  0  0  0  0
  151.2382  143.4427  158.1562 C   0  0  0  0  0  0  0  0  0  0  0  0
  151.6728  144.6275  158.7424 C   0  0  0  0  0  0  0  0  0  0  0  0
  152.4794  144.5054  159.8929 C   0  0  0  0  0  0  0  0  0  0  0  0
  152.8250  143.2427  160.4171 C   0  0  0  0  0  0  0  0  0  0  0  0
  152.3796  142.0481  159.8134 C   0  0  0  0  0  0  0  0  0  0  0  0
  151.5822  142.1781  158.6767 C   0  0  0  0  0  0  0  0  0  0  0  0
  150.9731  141.2423  157.8334 N   0  0  0  0  0  0  0  0  0  0  0  0
  151.1432  139.8071  158.1088 C   0  0  0  0  0  0  0  0  0  0  0  0
  152.6150  139.4064  158.3354 C   0  0  2  0  0  0  0  0  0  0  0  0
  153.2654  139.3125  157.0819 O   0  0  0  0  0  0  0  0  0  0  0  0
  152.7225  138.0520  159.0658 C   0  0  0  0  0  0  0  0  0  0  0  0
  153.8470  137.9964  160.0353 N   0  3  0  0  0  0  0  0  0  0  0  0
  154.1554  139.3023  160.6706 C   0  0  0  0  0  0  0  0  0  0  0  0
  155.3487  139.1642  161.6318 C   0  0  0  0  0  0  0  0  0  0  0  0
  155.0653  138.1687  162.6067 O   0  0  0  0  0  0  0  0  0  0  0  0
  154.8560  136.8919  162.0167 C   0  0  0  0  0  0  0  0  0  0  0  0
  153.6449  136.9550  161.0710 C   0  0  0  0  0  0  0  0  0  0  0  0
  149.0608  141.9907  155.0954 H   0  0  0  0  0  0  0  0  0  0  0  0
  148.6879  140.6339  156.1693 H   0  0  0  0  0  0  0  0  0  0  0  0
  150.1377  140.5876  155.1518 H   0  0  0  0  0  0  0  0  0  0  0  0
  151.4087  145.5959  158.3434 H   0  0  0  0  0  0  0  0  0  0  0  0
  152.8393  145.3983  160.3835 H   0  0  0  0  0  0  0  0  0  0  0  0
  153.4440  143.1898  161.3010 H   0  0  0  0  0  0  0  0  0  0  0  0
  152.6488  141.0863  160.2237 H   0  0  0  0  0  0  0  0  0  0  0  0
  150.5311  139.5492  158.9739 H   0  0  0  0  0  0  0  0  0  0  0  0
  150.7258  139.2559  157.2650 H   0  0  0  0  0  0  0  0  0  0  0  0
  153.1022  140.1919  158.9115 H   0  0  0  0  0  0  0  0  0  0  0  0
  152.9735  138.5293  156.6418 H   0  0  0  0  0  0  0  0  0  0  0  0
  151.7913  137.8269  159.5884 H   0  0  0  0  0  0  0  0  0  0  0  0
  152.8470  137.2660  158.3186 H   0  0  0  0  0  0  0  0  0  0  0  0
  154.3907  140.0524  159.9167 H   0  0  0  0  0  0  0  0  0  0  0  0
  153.2808  139.6604  161.2157 H   0  0  0  0  0  0  0  0  0  0  0  0
  156.2600  138.9095  161.0879 H   0  0  0  0  0  0  0  0  0  0  0  0
  155.5350  140.1113  162.1386 H   0  0  0  0  0  0  0  0  0  0  0  0
  155.7525  136.5729  161.4824 H   0  0  0  0  0  0  0  0  0  0  0  0
  154.6794  136.1617  162.8066 H   0  0  0  0  0  0  0  0  0  0  0  0
  152.7385  137.1735  161.6386 H   0  0  0  0  0  0  0  0  0  0  0  0
  153.5007  135.9829  160.5973 H   0  0  0  0  0  0  0  0  0  0  0  0
  154.6656  137.7167  159.5140 H   0  0  0  0  0  0  0  0  0  0  0  0
  150.0330  143.9240  156.4359 H   0  0  0  0  0  0  0  0  0  0  0  0
  1  2  1  0  0  0  0
  1 21  1  0  0  0  0
  1 22  1  0  0  0  0
  1 23  1  0  0  0  0
  2 10  1  0  0  0  0
  2  3  2  0  0  0  0
  3  4  1  0  0  0  0
  3 43  1  0  0  0  0
  4  9  2  0  0  0  0
  4  5  1  0  0  0  0
  5  6  2  0  0  0  0
  5 24  1  0  0  0  0
  6  7  1  0  0  0  0
  6 25  1  0  0  0  0
  7  8  2  0  0  0  0
  7 26  1  0  0  0  0
  8  9  1  0  0  0  0
  8 27  1  0  0  0  0
  9 10  1  0  0  0  0
 10 11  1  0  0  0  0
 11 12  1  0  0  0  0
 11 28  1  0  0  0  0
 11 29  1  0  0  0  0
 12 13  1  0  0  0  0
 12 14  1  0  0  0  0
 12 30  1  0  0  0  0
 13 31  1  0  0  0  0
 14 15  1  0  0  0  0
 14 32  1  0  0  0  0
 14 33  1  0  0  0  0
 15 20  1  0  0  0  0
 15 16  1  0  0  0  0
 15 42  1  0  0  0  0
 16 17  1  0  0  0  0
 16 34  1  0  0  0  0
 16 35  1  0  0  0  0
 17 18  1  0  0  0  0
 17 36  1  0  0  0  0
 17 37  1  0  0  0  0
 18 19  1  0  0  0  0
 19 20  1  0  0  0  0
 19 38  1  0  0  0  0
 19 39  1  0  0  0  0
 20 40  1  0  0  0  0
 20 41  1  0  0  0  0
M  CHG  1   3   1
M  CHG  1  15   1
M  END
> <s_m_source_file>
AV-unprocessed.smi

> <i_m_source_file_index>
356

> <i_lp_mmshare_version>
43012

> <i_f3d_flags>
0

> <s_epik_input>
W2NIXTFbY0hdW2NIXVtjSF1jKGMxMiluKGMobjIpW0NIM10pW0NIMl1bQ0BIXShbT0hdKVtDSDJdTjNbQ0gyXVtDSDJdT1tDSDJdW0NIMl0z

> <s_epik_cmdline>
J2VwaWtfcHl0aG9uJywgJy1waCcsICc3LjAnLCAnLXRuJywgJzgnLCAnLW1hJywgJzIwMCcsICctbWV0YWxfYmluZGluZycsICctaW1hZScsICc8aW5maWxlLm1hZT4nLCAnLW9tYWUnLCAnPG91dGZpbGUubWFlPic=

> <r_epik_Ionization_Penalty>
1.81899

> <r_epik_Ionization_Penalty_Charging>
1.81898

> <r_epik_Ionization_Penalty_Neutral>
1.42224e-05

> <r_epik_State_Penalty>
1.87399

> <r_epik_Charging_Adjusted_Penalty>
3.69296

> <i_epik_Tot_Q>
2

> <i_epik_Tot_abs_Q>
2

> <r_epik_Metal_State_Penalty>
5.87601

> <b_epik_Metal_Only>
0

> <s_lp_Force_Field>
OPLS_2005

> <r_lp_Energy>
28.369

> <b_lp_Chiralities_Consistent>
1

> <s_lp_Variant>
AV-unprocessed.smi:356-7

> <Gold.Version>
5.8.1

> <Gold.Id.Protein>
6NUR|6NUR_protein|mol2

> <Gold.PLP.Fitness>
48.2334

> <Gold.PLP.PLP>
-41.3604

> <Gold.PLP.part.hbond>
-1.7468

> <Gold.PLP.part.metal>
0.0000

> <Gold.PLP.part.buried>
-6.2525

> <Gold.PLP.part.nonpolar>
-33.8884

> <Gold.PLP.part.repulsive>
0.0883

> <Gold.PLP.ligand.clash>
0.0000

> <Gold.PLP.ligand.torsion>
1.0555

> <Gold.PLP.Chemscore.Hbond>
2.9840

> <Gold.PLP.Chemscore.CHOScore>
0.0000

> <Gold.PLP.Chemscore.Metal>
0.0000

> <Gold.Chemscore.Hbonds>
donor molecule, donor type, donor heavy atom, donor atom, acceptor molecule, acceptor atom, score
      L1  H     3    43       P1  8028  2.00
      P1  H  7997  8009       L1    13  0.83

> <Gold.PLP.Chemscore.Internal.Correction>
0.0320

> <Gold.Rescore>
     Score         DG    S(hbond)    S(metal)    S(lipo)     H(rot)  DE(clash)    DE(int)     intcor
     18.85     -19.84       1.93        0.00     114.14       2.13       0.00       0.98       ----

> <Gold.Chemscore.Fitness>
18.8538

> <Gold.Chemscore.DG>
-19.8355

> <Gold.Chemscore.ZeroCoef>
-5.4800

> <Gold.Chemscore.Hbond>
1.9343

> <Gold.Chemscore.Metal>
0.0000

> <Gold.Chemscore.Lipo>
114.1419

> <Gold.Chemscore.Internal_Hbond>
0.0000

> <Gold.Chemscore.DEClash>
0.0000

> <Gold.Chemscore.DEInternal>
0.9817

> <Gold.Chemscore.Rot>
2.1327

> <Gold.Chemscore.Internal.Correction>
   9.000000E+99

> <Gold.Chemscore.Hbonds>
donor molecule, donor type, donor heavy atom, donor atom, acceptor molecule, acceptor atom, score
      L1  H     3    43       P1  8028  0.97
      P1  H  7997  8009       L1    13  0.77

> <Gold.Chemscore.Hbond.Weighted>
-6.4605

> <Gold.Chemscore.Metal.Weighted>
-0.0000

> <Gold.Chemscore.Lipo.Weighted>
-13.3546

> <Gold.Chemscore.Internal_Hbond.Weighted>
0.0000

> <Gold.Chemscore.DEClash.Weighted>
0.0000

> <Gold.Chemscore.DEInternal.Weighted>
0.9817

> <Gold.Chemscore.Rot.Weighted>
5.4596

> <Gold.Chemscore.Internal.Correction.Weighted>
   9.000000E+99

> <Gold.Protein.RotatedTorsions>
[ 6907 6896 6895 6894 ] final -152.49 input  -60.11 | X-H torsion
[ 7974 7965 7964 7962 ] final -102.55 input  175.53 | X-H torsion
[ 8008 7997 7996 7995 ] final -170.26 input   59.86 | X-H torsion
[ 10167 10162 10161 10158 ] final  160.29 input  -65.29 | X-H torsion
[ 10718 10713 10712 10709 ] final  -54.24 input   66.30 | X-H torsion
[ 10763 10752 10751 10750 ] final   12.48 input  -60.55 | X-H torsion
[ 11005 11000 10999 10996 ] final   15.13 input  -57.11 | X-H torsion

> <Gold.Protein.ActiveResidues>
 VAL166  LYS551  ARG553  GLY616  TRP617  ASP618  TYR619  PRO620  LYS621  CYS622 
 ASP623  PHE694  ASN695  SER759  ASP760  ASP761  ALA762  ILE779  LEU786  VAL792 
 PHE793  MET794  SER795  GLU796  ALA797  LYS798  CYS799  TRP800  GLU811  SER814 

> <Gold.Protein.RotatedAtoms>
  151.2286  133.4462  159.2602 H   0  0  0  0  0  0  0  0  0  0  0  0  # atno 6907 bound_to 6896
  151.0816  134.9861  159.8369 H   0  0  0  0  0  0  0  0  0  0  0  0  # atno 6908 bound_to 6896
  152.5425  134.2225  159.8846 H   0  0  0  0  0  0  0  0  0  0  0  0  # atno 6909 bound_to 6896
  145.2673  140.9288  143.3006 H   0  0  0  0  0  0  0  0  0  0  0  0  # atno 7974 bound_to 7965
  155.9159  140.1065  157.1244 H   0  0  0  0  0  0  0  0  0  0  0  0  # atno 8008 bound_to 7997
  154.4046  140.1265  156.4682 H   0  0  0  0  0  0  0  0  0  0  0  0  # atno 8009 bound_to 7997
  155.7254  140.3469  155.5037 H   0  0  0  0  0  0  0  0  0  0  0  0  # atno 8010 bound_to 7997
  139.4839  144.4648  151.8656 H   0  0  0  0  0  0  0  0  0  0  0  0  # atno 10167 bound_to 10162
  156.1467  130.4152  150.0012 H   0  0  0  0  0  0  0  0  0  0  0  0  # atno 10718 bound_to 10713
  153.1818  135.6829  153.8467 H   0  0  0  0  0  0  0  0  0  0  0  0  # atno 10763 bound_to 10752
  153.7797  135.3184  155.3365 H   0  0  0  0  0  0  0  0  0  0  0  0  # atno 10764 bound_to 10752
  154.8064  135.4745  154.0499 H   0  0  0  0  0  0  0  0  0  0  0  0  # atno 10765 bound_to 10752
  140.4617  134.1120  155.7717 H   0  0  0  0  0  0  0  0  0  0  0  0  # atno 11005 bound_to 11000
  144.9366  139.4237  143.6469 LP  0  0  0  0  0  0  0  0  0  0  0  0  # atno 17320 bound_to 7965
  146.3257  139.8304  142.8909 LP  0  0  0  0  0  0  0  0  0  0  0  0  # atno 17321 bound_to 7965
  140.4113  144.2365  150.5889 LP  0  0  0  0  0  0  0  0  0  0  0  0  # atno 17342 bound_to 10162
  140.4964  143.2331  151.8744 LP  0  0  0  0  0  0  0  0  0  0  0  0  # atno 17343 bound_to 10162
  156.7882  130.9246  151.3646 LP  0  0  0  0  0  0  0  0  0  0  0  0  # atno 17370 bound_to 10713
  157.6622  130.8976  149.9855 LP  0  0  0  0  0  0  0  0  0  0  0  0  # atno 17371 bound_to 10713
  141.1618  133.8778  157.1827 LP  0  0  0  0  0  0  0  0  0  0  0  0  # atno 17394 bound_to 11000
  139.9941  135.0053  157.0042 LP  0  0  0  0  0  0  0  0  0  0  0  0  # atno 17395 bound_to 11000

$$$$
