#       Name:                AV-unprocessed.smi:3299
#       Creating user name   scv26
#       Creation time:       Fri Mar 27 18:58:23 2020


#       File generated by GOLD software.
#

@<TRIPOS>MOLECULE
AV-unprocessed.smi:3299
    39    40     1
SMALL
NO_CHARGES


@<TRIPOS>ATOM
      1 ****        -6.1757   1.1974  -0.1597 C.3            1 S1                 0.0000
      2 ****        -4.7197   1.5288  -0.0616 C.2            1 S1                 0.0000
      3 ****        -4.1629   2.7822   0.0206 C.2            1 S1                 0.0000
      4 ****        -2.4238   2.7204   0.1181 S.3            1 S1                 0.0000
      5 ****        -2.5255   0.9602   0.0408 C.2            1 S1                 0.0000
      6 ****        -1.4533   0.0345   0.0637 N.am           1 S1                 0.0000
      7 ****        -0.1389   0.2996   0.1351 C.2            1 S1                 0.0000
      8 ****         0.3548   1.4247   0.2054 O.2            1 S1                 0.0000
      9 ****         0.5825  -0.8326   0.1163 N.am           1 S1                 0.0000
     10 ****         2.0411  -0.9510   0.1771 C.3            1 S1                 0.0000
     11 ****         2.7275  -0.3673  -1.0790 C.3            1 S1                 0.0000
     12 ****         2.2309  -0.9726  -2.4025 C.3            1 S1                 0.0000
     13 ****         2.9670  -0.4356  -3.4803 O.3            1 S1                 0.0000
     14 ****         2.6626  -0.4025   1.4533 C.3            1 S1                 0.0000
     15 ****         3.9603  -0.9604   1.9869 C.3            1 S1                 0.0000
     16 ****         2.6665  -1.2070   2.7308 C.3            1 S1                 0.0000
     17 ****        -3.7739   0.4983  -0.0495 N.2            1 S1                 0.0000
     18 ****        -6.7971   2.0787   0.0009 H              1 S1                 0.0000
     19 ****        -6.4623   0.4535   0.5840 H              1 S1                 0.0000
     20 ****        -6.4213   0.7954  -1.1428 H              1 S1                 0.0000
     21 ****        -4.6690   3.7362   0.0293 H              1 S1                 0.0000
     22 ****        -1.7180  -0.9380   0.0131 H              1 S1                 0.0000
     23 ****         0.0733  -1.7023   0.0568 H              1 S1                 0.0000
     24 ****         2.2329  -2.0248   0.1718 H              1 S1                 0.0000
     25 ****         2.6016   0.7158  -1.1054 H              1 S1                 0.0000
     26 ****         3.8021  -0.5378  -0.9993 H              1 S1                 0.0000
     27 ****         2.3481  -2.0565  -2.3983 H              1 S1                 0.0000
     28 ****         1.1743  -0.7566  -2.5617 H              1 S1                 0.0000
     29 ****         2.6405  -0.8103  -4.2841 H              1 S1                 0.0000
     30 ****         2.5401   0.6721   1.5741 H              1 S1                 0.0000
     31 ****         4.4056  -1.8033   1.4620 H              1 S1                 0.0000
     32 ****         4.6664  -0.2570   2.4235 H              1 S1                 0.0000
     33 ****         2.5099  -0.6675   3.6626 H              1 S1                 0.0000
     34 ****         2.2533  -2.2132   2.6993 H              1 S1                 0.0000
     35 ****        -0.2369   2.2308   0.2125 LP             1 S1                 0.0000
     36 ****         1.3477   1.5328   0.2554 LP             1 S1                 0.0000
     37 ****         3.9353  -0.6608  -3.3725 LP             1 S1                 0.0000
     38 ****         2.8562   0.5580  -3.5023 LP             1 S1                 0.0000
     39 ****        -4.0067  -0.4728  -0.1025 LP             1 S1                 0.0000
@<TRIPOS>BOND
    1    1    2 1     
    2    1   18 1     
    3    1   19 1     
    4    1   20 1     
    5    2   17 1     
    6    2    3 2     
    7    3    4 1     
    8    3   21 1     
    9    4    5 1     
   10    5    6 1     
   11    5   17 2     
   12    6    7 am    
   13    6   22 1     
   14    7    8 2     
   15    7    9 am    
   16    9   10 1     
   17    9   23 1     
   18   10   11 1     
   19   10   14 1     
   20   10   24 1     
   21   11   12 1     
   22   11   25 1     
   23   11   26 1     
   24   12   13 1     
   25   12   27 1     
   26   12   28 1     
   27   13   29 1     
   28   14   16 1     
   29   14   15 1     
   30   14   30 1     
   31   15   16 1     
   32   15   31 1     
   33   15   32 1     
   34   16   33 1     
   35   16   34 1     
   36    8   35 1     
   37    8   36 1     
   38   13   37 1     
   39   13   38 1     
   40   17   39 1     
@<TRIPOS>SUBSTRUCTURE
      1 S1             1
@<TRIPOS>SET
LONE_PAIRS      STATIC     ATOMS    <user>   **** ""
5 35 36 37 38 39
DONOR_HYDROGENS      STATIC     ATOMS    <user>   **** ""
3 22 23 29
ATOM$BLUE        STATIC     ATOMS    COLORGROUP SYSTEM
5 35 36 37 38 39
ATOM$RED        STATIC     ATOMS    COLORGROUP SYSTEM
3 22 23 29
