AV-unprocessed.smi:1484|AV-procd|sdf|5996|dock9
  -GOLD-   22720 6 93D 1   1.00000     0.00000
 Structure written by MMmdl.
 37 38  0  0  0  0  0  0  0  0  2 V2000
  152.7385  142.8186  162.2836 C   0  0  0  0  0  0  0  0  0  0  0  0
  151.9653  143.1472  160.9988 C   0  0  1  0  0  0  0  0  0  0  0  0
  151.2818  144.5253  161.0895 C   0  0  0  0  0  0  0  0  0  0  0  0
  150.5149  144.8647  159.8014 C   0  0  0  0  0  0  0  0  0  0  0  0
  151.4318  144.7882  158.5674 C   0  0  0  0  0  0  0  0  0  0  0  0
  152.1299  143.4195  158.4519 C   0  0  2  0  0  0  0  0  0  0  0  0
  151.1447  142.3925  158.1326 N   0  0  0  0  0  0  0  0  0  0  0  0
  151.3835  141.0924  157.8970 C   0  0  0  0  0  0  0  0  0  0  0  0
  152.5153  140.6086  157.8936 O   0  0  0  0  0  0  0  0  0  0  0  0
  150.1693  140.1848  157.6287 C   0  0  0  0  0  0  0  0  0  0  0  0
  150.4844  138.9539  156.8835 N   0  0  0  0  0  0  0  0  0  0  0  0
  150.3460  137.7332  157.6742 N   0  5  0  0  0  0  0  0  0  0  0  0
  150.4877  136.5279  157.0620 C   0  0  0  0  0  0  0  0  0  0  0  0
  150.3364  135.4597  157.6501 O   0  0  0  0  0  0  0  0  0  0  0  0
  150.8388  136.5147  155.6517 C   0  0  0  0  0  0  0  0  0  0  0  0
  150.9982  137.6575  154.9554 C   0  0  0  0  0  0  0  0  0  0  0  0
  150.8139  138.9712  155.5603 C   0  0  0  0  0  0  0  0  0  0  0  0
  150.9243  140.0176  154.9214 O   0  0  0  0  0  0  0  0  0  0  0  0
  152.8803  143.0779  159.7572 C   0  0  0  0  0  0  0  0  0  0  0  0
  153.5382  143.5383  162.4608 H   0  0  0  0  0  0  0  0  0  0  0  0
  153.1884  141.8271  162.2268 H   0  0  0  0  0  0  0  0  0  0  0  0
  152.0795  142.8312  163.1522 H   0  0  0  0  0  0  0  0  0  0  0  0
  151.1848  142.3922  160.8902 H   0  0  0  0  0  0  0  0  0  0  0  0
  150.5962  144.5459  161.9373 H   0  0  0  0  0  0  0  0  0  0  0  0
  152.0301  145.2961  161.2786 H   0  0  0  0  0  0  0  0  0  0  0  0
  149.6757  144.1771  159.6838 H   0  0  0  0  0  0  0  0  0  0  0  0
  150.0826  145.8624  159.8801 H   0  0  0  0  0  0  0  0  0  0  0  0
  150.8584  144.9963  157.6630 H   0  0  0  0  0  0  0  0  0  0  0  0
  152.1875  145.5716  158.6349 H   0  0  0  0  0  0  0  0  0  0  0  0
  152.8495  143.4720  157.6330 H   0  0  0  0  0  0  0  0  0  0  0  0
  150.1773  142.6847  158.1263 H   0  0  0  0  0  0  0  0  0  0  0  0
  149.6941  139.9439  158.5811 H   0  0  0  0  0  0  0  0  0  0  0  0
  149.4290  140.7679  157.0781 H   0  0  0  0  0  0  0  0  0  0  0  0
  150.9802  135.5675  155.1522 H   0  0  0  0  0  0  0  0  0  0  0  0
  151.2628  137.6000  153.9101 H   0  0  0  0  0  0  0  0  0  0  0  0
  153.7085  143.7767  159.8817 H   0  0  0  0  0  0  0  0  0  0  0  0
  153.3321  142.0881  159.6805 H   0  0  0  0  0  0  0  0  0  0  0  0
  1  2  1  0  0  0  0
  1 20  1  0  0  0  0
  1 21  1  0  0  0  0
  1 22  1  0  0  0  0
  2 19  1  0  0  0  0
  2  3  1  0  0  0  0
  2 23  1  0  0  0  0
  3  4  1  0  0  0  0
  3 24  1  0  0  0  0
  3 25  1  0  0  0  0
  4  5  1  0  0  0  0
  4 26  1  0  0  0  0
  4 27  1  0  0  0  0
  5  6  1  0  0  0  0
  5 28  1  0  0  0  0
  5 29  1  0  0  0  0
  6  7  1  0  0  0  0
  6 19  1  0  0  0  0
  6 30  1  0  0  0  0
  7  8  1  0  0  0  0
  7 31  1  0  0  0  0
  8  9  2  0  0  0  0
  8 10  1  0  0  0  0
 10 32  1  0  0  0  0
 10 33  1  0  0  0  0
 10 11  1  0  0  0  0
 11 12  1  0  0  0  0
 11 17  1  0  0  0  0
 12 13  1  0  0  0  0
 13 14  2  0  0  0  0
 13 15  1  0  0  0  0
 15 34  1  0  0  0  0
 15 16  2  0  0  0  0
 16 35  1  0  0  0  0
 16 17  1  0  0  0  0
 17 18  2  0  0  0  0
 19 36  1  0  0  0  0
 19 37  1  0  0  0  0
M  CHG  1  12  -1
M  END
> <s_m_source_file>
AV-unprocessed.smi

> <i_m_source_file_index>
1484

> <i_lp_mmshare_version>
43012

> <i_f3d_flags>
0

> <s_epik_input>
W0NIM11bQ0BASF0xW0NIMl1bQ0gyXVtDSDJdW0NASF0oW0NIMl0xKVtOSF1DKD1PKVtDSDJdbjJbbkhdYyg9TylbY0hdW2NIXWMyPU8=

> <s_epik_cmdline>
J2VwaWtfcHl0aG9uJywgJy1waCcsICc3LjAnLCAnLXRuJywgJzgnLCAnLW1hJywgJzIwMCcsICctbWV0YWxfYmluZGluZycsICctaW1hZScsICc8aW5maWxlLm1hZT4nLCAnLW9tYWUnLCAnPG91dGZpbGUubWFlPic=

> <r_lp_tautomer_probability>
1

> <r_epik_Ionization_Penalty>
0.101352

> <r_epik_Ionization_Penalty_Charging>
0.101352

> <r_epik_Ionization_Penalty_Neutral>
1.90469e-08

> <r_epik_State_Penalty>
0.0358555

> <r_epik_Charging_Adjusted_Penalty>
0.137208

> <i_epik_Tot_Q>
-1

> <i_epik_Tot_abs_Q>
1

> <r_epik_Metal_State_Penalty>
0.0358555

> <b_epik_Metal_Only>
0

> <s_lp_Force_Field>
OPLS_2005

> <r_lp_Energy>
21.3013

> <b_lp_Chiralities_Consistent>
1

> <s_lp_Variant>
AV-unprocessed.smi:1484-4

> <Gold.Version>
5.8.1

> <Gold.Id.Protein>
6NUR|6NUR_protein|mol2

> <Gold.PLP.Fitness>
47.8724

> <Gold.PLP.PLP>
-40.4311

> <Gold.PLP.part.hbond>
-3.0000

> <Gold.PLP.part.metal>
0.0000

> <Gold.PLP.part.buried>
-6.0067

> <Gold.PLP.part.nonpolar>
-31.9636

> <Gold.PLP.part.repulsive>
0.1012

> <Gold.PLP.ligand.clash>
0.0000

> <Gold.PLP.ligand.torsion>
0.4240

> <Gold.PLP.Chemscore.Hbond>
2.7600

> <Gold.PLP.Chemscore.CHOScore>
0.0000

> <Gold.PLP.Chemscore.Metal>
0.0000

> <Gold.Chemscore.Hbonds>
donor molecule, donor type, donor heavy atom, donor atom, acceptor molecule, acceptor atom, score
      P1  H  6896  6907       L1    14  0.54
      P1  H  7989  7998       L1    18  1.00
      P1  H  7997  8008       L1     9  0.33

> <Gold.PLP.Chemscore.Internal.Correction>
0.0092

> <Gold.Rescore>
     Score         DG    S(hbond)    S(metal)    S(lipo)     H(rot)  DE(clash)    DE(int)     intcor
     21.60     -22.12       2.71        0.00     101.00       1.65       0.04       0.48       ----

> <Gold.Chemscore.Fitness>
21.5983

> <Gold.Chemscore.DG>
-22.1173

> <Gold.Chemscore.ZeroCoef>
-5.4800

> <Gold.Chemscore.Hbond>
2.7115

> <Gold.Chemscore.Metal>
0.0000

> <Gold.Chemscore.Lipo>
101.0036

> <Gold.Chemscore.Internal_Hbond>
0.0000

> <Gold.Chemscore.DEClash>
0.0402

> <Gold.Chemscore.DEInternal>
0.4787

> <Gold.Chemscore.Rot>
1.6549

> <Gold.Chemscore.Internal.Correction>
   9.000000E+99

> <Gold.Chemscore.Hbonds>
donor molecule, donor type, donor heavy atom, donor atom, acceptor molecule, acceptor atom, score
      P1  H  6896  6907       L1    14  0.54
      P1  H  7989  7998       L1    18  1.00
      P1  H  7997  8008       L1     9  0.31

> <Gold.Chemscore.Hbond.Weighted>
-9.0563

> <Gold.Chemscore.Metal.Weighted>
-0.0000

> <Gold.Chemscore.Lipo.Weighted>
-11.8174

> <Gold.Chemscore.Internal_Hbond.Weighted>
0.0000

> <Gold.Chemscore.DEClash.Weighted>
0.0402

> <Gold.Chemscore.DEInternal.Weighted>
0.4787

> <Gold.Chemscore.Rot.Weighted>
4.2364

> <Gold.Chemscore.Internal.Correction.Weighted>
   9.000000E+99

> <Gold.Protein.RotatedTorsions>
[ 6907 6896 6895 6894 ] final  -71.15 input  -60.11 | X-H torsion
[ 7974 7965 7964 7962 ] final -170.57 input  175.53 | X-H torsion
[ 8008 7997 7996 7995 ] final  -74.58 input   59.86 | X-H torsion
[ 10167 10162 10161 10158 ] final  -43.40 input  -65.29 | X-H torsion
[ 10718 10713 10712 10709 ] final  -38.32 input   66.30 | X-H torsion
[ 10763 10752 10751 10750 ] final  175.26 input  -60.55 | X-H torsion
[ 11005 11000 10999 10996 ] final  140.14 input  -57.11 | X-H torsion

> <Gold.Protein.ActiveResidues>
 VAL166  LYS551  ARG553  GLY616  TRP617  ASP618  TYR619  PRO620  LYS621  CYS622 
 ASP623  PHE694  ASN695  SER759  ASP760  ASP761  ALA762  ILE779  LEU786  VAL792 
 PHE793  MET794  SER795  GLU796  ALA797  LYS798  CYS799  TRP800  GLU811  SER814 

> <Gold.Protein.RotatedAtoms>
  150.7225  134.5350  159.5718 H   0  0  0  0  0  0  0  0  0  0  0  0  # atno 6907 bound_to 6896
  152.2874  134.7757  160.0394 H   0  0  0  0  0  0  0  0  0  0  0  0  # atno 6908 bound_to 6896
  151.8383  133.3384  159.3671 H   0  0  0  0  0  0  0  0  0  0  0  0  # atno 6909 bound_to 6896
  144.7168  140.2053  143.6333 H   0  0  0  0  0  0  0  0  0  0  0  0  # atno 7974 bound_to 7965
  154.5343  140.0759  156.8400 H   0  0  0  0  0  0  0  0  0  0  0  0  # atno 8008 bound_to 7997
  155.3310  140.3402  155.4221 H   0  0  0  0  0  0  0  0  0  0  0  0  # atno 8009 bound_to 7997
  156.1812  140.1653  156.8256 H   0  0  0  0  0  0  0  0  0  0  0  0  # atno 8010 bound_to 7997
  140.6935  143.2985  151.3346 H   0  0  0  0  0  0  0  0  0  0  0  0  # atno 10167 bound_to 10162
  156.3051  130.4245  149.8105 H   0  0  0  0  0  0  0  0  0  0  0  0  # atno 10718 bound_to 10713
  154.4651  135.2769  155.1684 H   0  0  0  0  0  0  0  0  0  0  0  0  # atno 10763 bound_to 10752
  154.3456  135.6161  153.5621 H   0  0  0  0  0  0  0  0  0  0  0  0  # atno 10764 bound_to 10752
  152.9858  135.5799  154.5021 H   0  0  0  0  0  0  0  0  0  0  0  0  # atno 10765 bound_to 10752
  140.0305  134.9354  157.0654 H   0  0  0  0  0  0  0  0  0  0  0  0  # atno 11005 bound_to 11000
  145.8642  139.2238  143.1699 LP  0  0  0  0  0  0  0  0  0  0  0  0  # atno 17320 bound_to 7965
  146.0145  140.8405  142.9954 LP  0  0  0  0  0  0  0  0  0  0  0  0  # atno 17321 bound_to 7965
  139.6364  144.0623  152.2519 LP  0  0  0  0  0  0  0  0  0  0  0  0  # atno 17342 bound_to 10162
  140.0114  144.6221  150.7644 LP  0  0  0  0  0  0  0  0  0  0  0  0  # atno 17343 bound_to 10162
  156.5468  130.8324  151.3287 LP  0  0  0  0  0  0  0  0  0  0  0  0  # atno 17370 bound_to 10713
  157.7377  130.9801  150.2212 LP  0  0  0  0  0  0  0  0  0  0  0  0  # atno 17371 bound_to 10713
  140.4233  134.1858  155.7165 LP  0  0  0  0  0  0  0  0  0  0  0  0  # atno 17394 bound_to 11000
  141.1828  133.8377  157.1196 LP  0  0  0  0  0  0  0  0  0  0  0  0  # atno 17395 bound_to 11000

$$$$
