#       Name:                AV-unprocessed.smi:72
#       Creating user name   scv26
#       Creation time:       Thu Mar 26 16:59:33 2020


#       File generated by GOLD software.
#

@<TRIPOS>MOLECULE
AV-unprocessed.smi:72
    41    42     1
SMALL
NO_CHARGES


@<TRIPOS>ATOM
      1 ****         1.2192   4.5148  -1.2037 N.2            1 S1                 0.0000
      2 ****         0.6717   3.4470  -0.7449 C.2            1 S1                 0.0000
      3 ****         0.8404   2.9396   0.5511 N.2            1 S1                 0.0000
      4 ****         0.2501   1.8276   0.8645 C.2            1 S1                 0.0000
      5 ****        -0.5414   1.0638  -0.0945 N.am           1 S1                 0.0000
      6 ****        -1.2639  -0.2172   0.3037 C.3            1 S1                 0.0000
      7 ****        -0.7868  -0.6620   1.5451 O.3            1 S1                 0.0000
      8 ****         0.0674  -1.7970   1.4108 C.3            1 S1                 0.0000
      9 ****         1.5359  -1.3611   1.1999 C.3            1 S1                 0.0000
     10 ****         2.0763  -0.8905   2.4161 O.3            1 S1                 0.0000
     11 ****        -0.5755  -2.5163   0.2207 C.3            1 S1                 0.0000
     12 ****         0.3080  -3.4008  -0.4404 O.3            1 S1                 0.0000
     13 ****        -1.0206  -1.3794  -0.6900 C.3            1 S1                 0.0000
     14 ****        -2.2062  -1.7570  -1.3609 O.3            1 S1                 0.0000
     15 ****        -0.8051   1.6258  -1.3712 C.2            1 S1                 0.0000
     16 ****        -1.5726   1.1063  -2.1805 O.2            1 S1                 0.0000
     17 ****        -0.1590   2.7780  -1.6507 N.am           1 S1                 0.0000
     18 ****        -2.3101   0.0793   0.3973 H              1 S1                 0.0000
     19 ****         0.0011  -2.4217   2.3026 H              1 S1                 0.0000
     20 ****        -1.4410  -3.0758   0.5804 H              1 S1                 0.0000
     21 ****        -0.2301  -1.1194  -1.3960 H              1 S1                 0.0000
     22 ****         0.9334   4.6676  -2.1604 H              1 S1                 0.0000
     23 ****         0.3158   1.4024   1.8662 H              1 S1                 0.0000
     24 ****         2.1482  -2.2124   0.9030 H              1 S1                 0.0000
     25 ****         1.6429  -0.6125   0.4165 H              1 S1                 0.0000
     26 ****         2.9829  -0.6644   2.2745 H              1 S1                 0.0000
     27 ****        -0.1538  -3.7939  -1.1655 H              1 S1                 0.0000
     28 ****        -2.4860  -1.0321  -1.8999 H              1 S1                 0.0000
     29 ****        -0.3055   3.1888  -2.5613 H              1 S1                 0.0000
     30 ****         1.8380   5.1081  -0.6888 LP             1 S1                 0.0000
     31 ****         1.4039   3.4246   1.2199 LP             1 S1                 0.0000
     32 ****        -1.5658  -0.9100   2.1210 LP             1 S1                 0.0000
     33 ****        -0.2742   0.0790   1.9789 LP             1 S1                 0.0000
     34 ****         2.0119  -1.6052   3.1126 LP             1 S1                 0.0000
     35 ****         1.5708  -0.0828   2.7195 LP             1 S1                 0.0000
     36 ****         0.6112  -4.1125   0.1933 LP             1 S1                 0.0000
     37 ****         1.1019  -2.8957  -0.7789 LP             1 S1                 0.0000
     38 ****        -2.9175  -1.9762  -0.6930 LP             1 S1                 0.0000
     39 ****        -2.0300  -2.5568  -1.9347 LP             1 S1                 0.0000
     40 ****        -2.0401   0.2530  -1.9495 LP             1 S1                 0.0000
     41 ****        -1.7288   1.5373  -3.0692 LP             1 S1                 0.0000
@<TRIPOS>BOND
    1    1    2 2     
    2    1   22 1     
    3    2   17 1     
    4    2    3 1     
    5    3    4 2     
    6    4    5 1     
    7    4   23 1     
    8    5    6 1     
    9    5   15 am    
   10    6   18 1     
   11    6   13 1     
   12    6    7 1     
   13    7    8 1     
   14    8   19 1     
   15    8    9 1     
   16    8   11 1     
   17    9   10 1     
   18    9   24 1     
   19    9   25 1     
   20   10   26 1     
   21   11   20 1     
   22   11   12 1     
   23   11   13 1     
   24   12   27 1     
   25   13   21 1     
   26   13   14 1     
   27   14   28 1     
   28   15   16 2     
   29   15   17 am    
   30   17   29 1     
   31    1   30 1     
   32    3   31 1     
   33    7   32 1     
   34    7   33 1     
   35   10   34 1     
   36   10   35 1     
   37   12   36 1     
   38   12   37 1     
   39   14   38 1     
   40   14   39 1     
   41   16   40 1     
   42   16   41 1     
@<TRIPOS>SUBSTRUCTURE
      1 S1             1
@<TRIPOS>SET
LONE_PAIRS      STATIC     ATOMS    <user>   **** ""
12 30 31 32 33 34 35 36 37 38 39 40 41
DONOR_HYDROGENS      STATIC     ATOMS    <user>   **** ""
5 22 26 27 28 29
ATOM$BLUE        STATIC     ATOMS    COLORGROUP SYSTEM
12 30 31 32 33 34 35 36 37 38 39 40 41
ATOM$RED        STATIC     ATOMS    COLORGROUP SYSTEM
5 22 26 27 28 29
