AV-unprocessed.smi:1603|AV-procd|sdf|6443|dock3
  -GOLD-   22720 7 93D 1   1.00000     0.00000
 Structure written by MMmdl.
 45 47  0  0  0  0  0  0  0  0  2 V2000
  149.6160  131.1128  154.4328 O   0  0  0  0  0  0  0  0  0  0  0  0
  148.6707  131.5885  153.8029 C   0  0  0  0  0  0  0  0  0  0  0  0
  147.5903  130.7765  153.2232 C   0  0  0  0  0  0  0  0  0  0  0  0
  147.6732  129.2602  153.3777 C   0  0  0  0  0  0  0  0  0  0  0  0
  146.6950  128.6420  152.7144 F   0  0  0  0  0  0  0  0  0  0  0  0
  148.8352  128.8033  152.9089 F   0  0  0  0  0  0  0  0  0  0  0  0
  147.5777  128.9163  154.6624 F   0  0  0  0  0  0  0  0  0  0  0  0
  146.5707  131.3757  152.5612 C   0  0  0  0  0  0  0  0  0  0  0  0
  146.5336  132.8180  152.4254 C   0  0  0  0  0  0  0  0  0  0  0  0
  145.4211  133.5478  151.7290 C   0  0  0  0  0  0  0  0  0  0  0  0
  144.1411  132.8517  151.3300 C   0  0  0  0  0  0  0  0  0  0  0  0
  145.1056  133.3254  150.2676 C   0  0  0  0  0  0  0  0  0  0  0  0
  147.4931  133.5267  152.9181 N   0  0  0  0  0  0  0  0  0  0  0  0
  148.5488  132.9305  153.5801 N   0  0  0  0  0  0  0  0  0  0  0  0
  149.5628  133.8782  154.0626 C   0  0  0  0  0  0  0  0  0  0  0  0
  149.2023  134.4968  155.4320 C   0  0  2  0  0  0  0  0  0  0  0  0
  148.3390  133.5933  156.0934 O   0  0  0  0  0  0  0  0  0  0  0  0
  148.4989  135.8676  155.3158 C   0  0  0  0  0  0  0  0  0  0  0  0
  149.3365  136.8842  154.6306 N   0  3  0  0  0  0  0  0  0  0  0  0
  148.7979  138.2635  154.7379 C   0  0  0  0  0  0  0  0  0  0  0  0
  149.6956  139.2518  153.9745 C   0  0  0  0  0  0  0  0  0  0  0  0
  151.0237  139.1760  154.4770 O   0  0  0  0  0  0  0  0  0  0  0  0
  151.5855  137.8813  154.3026 C   0  0  0  0  0  0  0  0  0  0  0  0
  150.7496  136.8474  155.0763 C   0  0  0  0  0  0  0  0  0  0  0  0
  145.7716  130.7964  152.1233 H   0  0  0  0  0  0  0  0  0  0  0  0
  145.3356  134.5667  152.1021 H   0  0  0  0  0  0  0  0  0  0  0  0
  144.0690  131.7782  151.4968 H   0  0  0  0  0  0  0  0  0  0  0  0
  143.2118  133.4050  151.4485 H   0  0  0  0  0  0  0  0  0  0  0  0
  144.8173  134.1935  149.6783 H   0  0  0  0  0  0  0  0  0  0  0  0
  145.6634  132.5616  149.7287 H   0  0  0  0  0  0  0  0  0  0  0  0
  150.5350  133.3852  154.1308 H   0  0  0  0  0  0  0  0  0  0  0  0
  149.6939  134.6679  153.3201 H   0  0  0  0  0  0  0  0  0  0  0  0
  150.1081  134.5781  156.0307 H   0  0  0  0  0  0  0  0  0  0  0  0
  148.8581  132.9505  156.5512 H   0  0  0  0  0  0  0  0  0  0  0  0
  147.5565  135.7830  154.7737 H   0  0  0  0  0  0  0  0  0  0  0  0
  148.2371  136.2108  156.3183 H   0  0  0  0  0  0  0  0  0  0  0  0
  147.7855  138.3142  154.3386 H   0  0  0  0  0  0  0  0  0  0  0  0
  148.7392  138.5541  155.7881 H   0  0  0  0  0  0  0  0  0  0  0  0
  149.6851  139.0416  152.9036 H   0  0  0  0  0  0  0  0  0  0  0  0
  149.3275  140.2698  154.1027 H   0  0  0  0  0  0  0  0  0  0  0  0
  151.6313  137.6305  153.2415 H   0  0  0  0  0  0  0  0  0  0  0  0
  152.6108  137.8884  154.6728 H   0  0  0  0  0  0  0  0  0  0  0  0
  150.8017  137.0499  156.1474 H   0  0  0  0  0  0  0  0  0  0  0  0
  151.1624  135.8506  154.9168 H   0  0  0  0  0  0  0  0  0  0  0  0
  149.3444  136.6406  153.6505 H   0  0  0  0  0  0  0  0  0  0  0  0
  1  2  2  0  0  0  0
  2 14  1  0  0  0  0
  2  3  1  0  0  0  0
  3  4  1  0  0  0  0
  3  8  2  0  0  0  0
  4  5  1  0  0  0  0
  4  6  1  0  0  0  0
  4  7  1  0  0  0  0
  8  9  1  0  0  0  0
  8 25  1  0  0  0  0
  9 10  1  0  0  0  0
  9 13  2  0  0  0  0
 10 12  1  0  0  0  0
 10 11  1  0  0  0  0
 10 26  1  0  0  0  0
 11 12  1  0  0  0  0
 11 27  1  0  0  0  0
 11 28  1  0  0  0  0
 12 29  1  0  0  0  0
 12 30  1  0  0  0  0
 13 14  1  0  0  0  0
 14 15  1  0  0  0  0
 15 16  1  0  0  0  0
 15 31  1  0  0  0  0
 15 32  1  0  0  0  0
 16 17  1  0  0  0  0
 16 18  1  0  0  0  0
 16 33  1  0  0  0  0
 17 34  1  0  0  0  0
 18 19  1  0  0  0  0
 18 35  1  0  0  0  0
 18 36  1  0  0  0  0
 19 24  1  0  0  0  0
 19 20  1  0  0  0  0
 19 45  1  0  0  0  0
 20 21  1  0  0  0  0
 20 37  1  0  0  0  0
 20 38  1  0  0  0  0
 21 22  1  0  0  0  0
 21 39  1  0  0  0  0
 21 40  1  0  0  0  0
 22 23  1  0  0  0  0
 23 24  1  0  0  0  0
 23 41  1  0  0  0  0
 23 42  1  0  0  0  0
 24 43  1  0  0  0  0
 24 44  1  0  0  0  0
M  CHG  1  19   1
M  END
> <s_m_source_file>
AV-unprocessed.smi

> <i_m_source_file_index>
1603

> <i_lp_mmshare_version>
43012

> <i_f3d_flags>
0

> <s_epik_input>
Tz1jMWMoQyhGKShGKUYpW2NIXWMoW0NIXTJbQ0gyXVtDSDJdMilubjFbQ0gyXVtDQEhdKFtPSF0pW0NIMl1OM1tDSDJdW0NIMl1PW0NIMl1bQ0gyXTM=

> <s_epik_cmdline>
J2VwaWtfcHl0aG9uJywgJy1waCcsICc3LjAnLCAnLXRuJywgJzgnLCAnLW1hJywgJzIwMCcsICctbWV0YWxfYmluZGluZycsICctaW1hZScsICc8aW5maWxlLm1hZT4nLCAnLW9tYWUnLCAnPG91dGZpbGUubWFlPic=

> <r_lp_tautomer_probability>
1

> <r_epik_Ionization_Penalty>
0.373533

> <r_epik_Ionization_Penalty_Charging>
0.373533

> <r_epik_Ionization_Penalty_Neutral>
6.58334e-07

> <r_epik_State_Penalty>
0.37113

> <r_epik_Charging_Adjusted_Penalty>
0.744662

> <i_epik_Tot_Q>
1

> <i_epik_Tot_abs_Q>
1

> <r_epik_Metal_State_Penalty>
0.37113

> <b_epik_Metal_Only>
0

> <s_lp_Force_Field>
OPLS_2005

> <r_lp_Energy>
41.4102

> <b_lp_Chiralities_Consistent>
1

> <s_lp_Variant>
AV-unprocessed.smi:1603-1

> <Gold.Version>
5.8.1

> <Gold.Id.Protein>
6NUR|6NUR_protein|mol2

> <Gold.PLP.Fitness>
43.9215

> <Gold.PLP.PLP>
-36.7596

> <Gold.PLP.part.hbond>
-2.0000

> <Gold.PLP.part.metal>
0.0000

> <Gold.PLP.part.buried>
-3.0711

> <Gold.PLP.part.nonpolar>
-31.2092

> <Gold.PLP.part.repulsive>
0.3472

> <Gold.PLP.ligand.clash>
0.3323

> <Gold.PLP.ligand.torsion>
1.1019

> <Gold.PLP.Chemscore.Hbond>
3.0000

> <Gold.PLP.Chemscore.CHOScore>
0.0000

> <Gold.PLP.Chemscore.Metal>
0.0000

> <Gold.Chemscore.Hbonds>
donor molecule, donor type, donor heavy atom, donor atom, acceptor molecule, acceptor atom, score
      L1  H    19    45       P1  7948  2.00
      P1  H  7989  7998       L1    22  0.68

> <Gold.PLP.Chemscore.Internal.Correction>
0.6981

> <Gold.Rescore>
     Score         DG    S(hbond)    S(metal)    S(lipo)     H(rot)  DE(clash)    DE(int)     intcor
      9.37     -14.21       1.85        0.00      76.88       2.52       1.46       3.37       ----

> <Gold.Chemscore.Fitness>
9.3744

> <Gold.Chemscore.DG>
-14.2067

> <Gold.Chemscore.ZeroCoef>
-5.4800

> <Gold.Chemscore.Hbond>
1.8480

> <Gold.Chemscore.Metal>
0.0000

> <Gold.Chemscore.Lipo>
76.8831

> <Gold.Chemscore.Internal_Hbond>
0.0000

> <Gold.Chemscore.DEClash>
1.4602

> <Gold.Chemscore.DEInternal>
3.3720

> <Gold.Chemscore.Rot>
2.5160

> <Gold.Chemscore.Internal.Correction>
   9.000000E+99

> <Gold.Chemscore.Hbonds>
donor molecule, donor type, donor heavy atom, donor atom, acceptor molecule, acceptor atom, score
      L1  H    19    45       P1  7948  0.93
      P1  H  7989  7998       L1    22  0.07

> <Gold.Chemscore.Hbond.Weighted>
-6.1724

> <Gold.Chemscore.Metal.Weighted>
-0.0000

> <Gold.Chemscore.Lipo.Weighted>
-8.9953

> <Gold.Chemscore.Internal_Hbond.Weighted>
0.0000

> <Gold.Chemscore.DEClash.Weighted>
1.4602

> <Gold.Chemscore.DEInternal.Weighted>
3.3720

> <Gold.Chemscore.Rot.Weighted>
6.4411

> <Gold.Chemscore.Internal.Correction.Weighted>
   9.000000E+99

> <Gold.Protein.RotatedTorsions>
[ 6907 6896 6895 6894 ] final -118.39 input  -60.11 | X-H torsion
[ 7974 7965 7964 7962 ] final    2.37 input  175.53 | X-H torsion
[ 8008 7997 7996 7995 ] final  -43.00 input   59.86 | X-H torsion
[ 10167 10162 10161 10158 ] final  -60.75 input  -65.29 | X-H torsion
[ 10718 10713 10712 10709 ] final -153.88 input   66.30 | X-H torsion
[ 10763 10752 10751 10750 ] final -116.27 input  -60.55 | X-H torsion
[ 11005 11000 10999 10996 ] final  159.88 input  -57.11 | X-H torsion

> <Gold.Protein.ActiveResidues>
 VAL166  LYS551  ARG553  GLY616  TRP617  ASP618  TYR619  PRO620  LYS621  CYS622 
 ASP623  PHE694  ASN695  SER759  ASP760  ASP761  ALA762  ILE779  LEU786  VAL792 
 PHE793  MET794  SER795  GLU796  ALA797  LYS798  CYS799  TRP800  GLU811  SER814 

> <Gold.Protein.RotatedAtoms>
  150.8216  133.8243  159.3136 H   0  0  0  0  0  0  0  0  0  0  0  0  # atno 6907 bound_to 6896
  151.5999  135.1046  160.0067 H   0  0  0  0  0  0  0  0  0  0  0  0  # atno 6908 bound_to 6896
  152.4305  133.7228  159.6599 H   0  0  0  0  0  0  0  0  0  0  0  0  # atno 6909 bound_to 6896
  146.2443  140.0846  142.8355 H   0  0  0  0  0  0  0  0  0  0  0  0  # atno 7974 bound_to 7965
  154.3997  140.1459  156.3448 H   0  0  0  0  0  0  0  0  0  0  0  0  # atno 8008 bound_to 7997
  155.8324  140.3465  155.5559 H   0  0  0  0  0  0  0  0  0  0  0  0  # atno 8009 bound_to 7997
  155.8174  140.0893  157.1859 H   0  0  0  0  0  0  0  0  0  0  0  0  # atno 8010 bound_to 7997
  140.6051  143.2371  151.5841 H   0  0  0  0  0  0  0  0  0  0  0  0  # atno 10167 bound_to 10162
  156.4918  130.8351  151.2573 H   0  0  0  0  0  0  0  0  0  0  0  0  # atno 10718 bound_to 10713
  154.8513  135.4351  154.1795 H   0  0  0  0  0  0  0  0  0  0  0  0  # atno 10763 bound_to 10752
  153.2889  135.6960  153.7318 H   0  0  0  0  0  0  0  0  0  0  0  0  # atno 10764 bound_to 10752
  153.6493  135.3454  155.3070 H   0  0  0  0  0  0  0  0  0  0  0  0  # atno 10765 bound_to 10752
  140.2005  134.8341  157.3013 H   0  0  0  0  0  0  0  0  0  0  0  0  # atno 11005 bound_to 11000
  145.0703  140.9151  143.4886 LP  0  0  0  0  0  0  0  0  0  0  0  0  # atno 17320 bound_to 7965
  145.0978  139.2844  143.5702 LP  0  0  0  0  0  0  0  0  0  0  0  0  # atno 17321 bound_to 7965
  139.5319  144.2892  152.1166 LP  0  0  0  0  0  0  0  0  0  0  0  0  # atno 17342 bound_to 10162
  140.2080  144.4591  150.6399 LP  0  0  0  0  0  0  0  0  0  0  0  0  # atno 17343 bound_to 10162
  157.7473  131.0011  150.2950 LP  0  0  0  0  0  0  0  0  0  0  0  0  # atno 17370 bound_to 10713
  156.3419  130.3817  149.7402 LP  0  0  0  0  0  0  0  0  0  0  0  0  # atno 17371 bound_to 10713
  140.2059  134.4197  155.7638 LP  0  0  0  0  0  0  0  0  0  0  0  0  # atno 17394 bound_to 11000
  141.2227  133.7094  156.8260 LP  0  0  0  0  0  0  0  0  0  0  0  0  # atno 17395 bound_to 11000

$$$$
