AV-unprocessed.smi:3068|AV-procd|sdf|11698|dock1
  -GOLD-   2272017103D 1   1.00000     0.00000
 Structure written by MMmdl.
 40 42  0  0  0  0  0  0  0  0  2 V2000
  151.0987  137.2694  159.6009 N   0  0  0  0  0  0  0  0  0  0  0  0
  151.1833  137.3207  158.4478 C   0  0  0  0  0  0  0  0  0  0  0  0
  151.2908  137.3839  156.9959 C   0  0  0  0  0  0  0  0  0  0  0  0
  151.8639  138.4943  156.4766 N   0  0  0  0  0  0  0  0  0  0  0  0
  151.9726  138.5637  155.1330 C   0  0  0  0  0  0  0  0  0  0  0  0
  151.5116  137.5248  154.3013 C   0  0  0  0  0  0  0  0  0  0  0  0
  150.9397  136.4130  154.8105 N   0  0  0  0  0  0  0  0  0  0  0  0
  150.8230  136.3307  156.1597 C   0  0  0  0  0  0  0  0  0  0  0  0
  150.2259  135.1793  156.7063 N   0  0  0  0  0  0  0  0  0  0  0  0
  150.1376  133.9272  155.9644 C   0  0  0  0  0  0  0  0  0  0  0  0
  149.4088  134.0912  154.6199 C   0  0  2  0  0  0  0  0  0  0  0  0
  148.1021  134.8896  154.7774 C   0  0  0  0  0  0  0  0  0  0  0  0
  147.3832  134.9718  153.4853 N   0  3  2  0  0  0  0  0  0  0  0  0
  146.1359  135.7716  153.5815 C   0  0  0  0  0  0  0  0  0  0  0  0
  145.4650  135.9170  152.2066 C   0  0  0  0  0  0  0  0  0  0  0  0
  145.1924  134.5413  151.5846 C   0  0  0  0  0  0  0  0  0  0  0  0
  146.4911  133.7258  151.5220 C   0  0  0  0  0  0  0  0  0  0  0  0
  147.1518  133.6185  152.9106 C   0  0  1  0  0  0  0  0  0  0  0  0
  148.4826  132.8438  152.8398 C   0  0  0  0  0  0  0  0  0  0  0  0
  149.0832  132.7956  154.1275 O   0  0  0  0  0  0  0  0  0  0  0  0
  152.4298  139.4507  154.7200 H   0  0  0  0  0  0  0  0  0  0  0  0
  151.6019  137.5858  153.2269 H   0  0  0  0  0  0  0  0  0  0  0  0
  149.9382  135.1836  157.6749 H   0  0  0  0  0  0  0  0  0  0  0  0
  151.1484  133.5556  155.7946 H   0  0  0  0  0  0  0  0  0  0  0  0
  149.6391  133.1764  156.5786 H   0  0  0  0  0  0  0  0  0  0  0  0
  150.0590  134.6032  153.9082 H   0  0  0  0  0  0  0  0  0  0  0  0
  147.4601  134.4188  155.5237 H   0  0  0  0  0  0  0  0  0  0  0  0
  148.3240  135.8963  155.1339 H   0  0  0  0  0  0  0  0  0  0  0  0
  145.4499  135.2972  154.2852 H   0  0  0  0  0  0  0  0  0  0  0  0
  146.3667  136.7603  153.9803 H   0  0  0  0  0  0  0  0  0  0  0  0
  144.5328  136.4745  152.3030 H   0  0  0  0  0  0  0  0  0  0  0  0
  146.1075  136.4993  151.5447 H   0  0  0  0  0  0  0  0  0  0  0  0
  144.4491  134.0077  152.1784 H   0  0  0  0  0  0  0  0  0  0  0  0
  144.7709  134.6563  150.5856 H   0  0  0  0  0  0  0  0  0  0  0  0
  146.2812  132.7305  151.1286 H   0  0  0  0  0  0  0  0  0  0  0  0
  147.1807  134.1960  150.8192 H   0  0  0  0  0  0  0  0  0  0  0  0
  146.4767  133.0790  153.5777 H   0  0  0  0  0  0  0  0  0  0  0  0
  148.3063  131.8227  152.5005 H   0  0  0  0  0  0  0  0  0  0  0  0
  149.1688  133.3013  152.1250 H   0  0  0  0  0  0  0  0  0  0  0  0
  147.9926  135.4591  152.8440 H   0  0  0  0  0  0  0  0  0  0  0  0
  1  2  3  0  0  0  0
  2  3  1  0  0  0  0
  3  8  1  0  0  0  0
  3  4  2  0  0  0  0
  4  5  1  0  0  0  0
  5  6  2  0  0  0  0
  5 21  1  0  0  0  0
  6  7  1  0  0  0  0
  6 22  1  0  0  0  0
  7  8  2  0  0  0  0
  8  9  1  0  0  0  0
  9 10  1  0  0  0  0
  9 23  1  0  0  0  0
 10 11  1  0  0  0  0
 10 24  1  0  0  0  0
 10 25  1  0  0  0  0
 11 20  1  0  0  0  0
 11 12  1  0  0  0  0
 11 26  1  0  0  0  0
 12 13  1  0  0  0  0
 12 27  1  0  0  0  0
 12 28  1  0  0  0  0
 13 18  1  0  0  0  0
 13 14  1  0  0  0  0
 13 40  1  0  0  0  0
 14 15  1  0  0  0  0
 14 29  1  0  0  0  0
 14 30  1  0  0  0  0
 15 16  1  0  0  0  0
 15 31  1  0  0  0  0
 15 32  1  0  0  0  0
 16 17  1  0  0  0  0
 16 33  1  0  0  0  0
 16 34  1  0  0  0  0
 17 18  1  0  0  0  0
 17 35  1  0  0  0  0
 17 36  1  0  0  0  0
 18 19  1  0  0  0  0
 18 37  1  0  0  0  0
 19 20  1  0  0  0  0
 19 38  1  0  0  0  0
 19 39  1  0  0  0  0
M  CHG  1  13   1
M  END
> <s_m_source_file>
AV-unprocessed.smi

> <i_m_source_file_index>
3068

> <i_lp_mmshare_version>
43012

> <i_f3d_flags>
0

> <s_epik_input>
TiNDYzFuW2NIXVtjSF1uYzFbTkhdW0NIMl1bQ0BIXShbQ0gyXTIpT1tDSDJdW0NAQEhdKE4yMylbQ0gyXVtDSDJdW0NIMl1bQ0gyXTM=

> <s_epik_cmdline>
J2VwaWtfcHl0aG9uJywgJy1waCcsICc3LjAnLCAnLXRuJywgJzgnLCAnLW1hJywgJzIwMCcsICctbWV0YWxfYmluZGluZycsICctaW1hZScsICc8aW5maWxlLm1hZT4nLCAnLW9tYWUnLCAnPG91dGZpbGUubWFlPic=

> <r_epik_Ionization_Penalty>
0.0804321

> <r_epik_Ionization_Penalty_Charging>
0.0803403

> <r_epik_Ionization_Penalty_Neutral>
9.17277e-05

> <r_epik_State_Penalty>
0.0711481

> <r_epik_Charging_Adjusted_Penalty>
0.151488

> <i_epik_Tot_Q>
1

> <i_epik_Tot_abs_Q>
1

> <r_epik_Metal_State_Penalty>
0.0711481

> <b_epik_Metal_Only>
0

> <s_lp_Force_Field>
OPLS_2005

> <r_lp_Energy>
36.4506

> <b_lp_Chiralities_Consistent>
1

> <s_lp_Variant>
AV-unprocessed.smi:3068-1

> <Gold.Version>
5.8.1

> <Gold.Id.Protein>
6NUR|6NUR_protein|mol2

> <Gold.PLP.Fitness>
39.7854

> <Gold.PLP.PLP>
-27.3152

> <Gold.PLP.part.hbond>
-2.8327

> <Gold.PLP.part.metal>
0.0000

> <Gold.PLP.part.buried>
-3.9926

> <Gold.PLP.part.nonpolar>
-22.4381

> <Gold.PLP.part.repulsive>
0.4059

> <Gold.PLP.ligand.clash>
0.0000

> <Gold.PLP.ligand.torsion>
0.1885

> <Gold.PLP.Chemscore.Hbond>
3.2860

> <Gold.PLP.Chemscore.CHOScore>
0.9867

> <Gold.PLP.Chemscore.Metal>
0.0000

> <Gold.Chemscore.Hbonds>
donor molecule, donor type, donor heavy atom, donor atom, acceptor molecule, acceptor atom, score
      L1  H    13    40       P1  7948  2.00
      P1  H  6896  6907       L1     1  0.65
      P1  H 10752 10764       L1     7  0.09
      L1  C     6    22       P1  7949  1.00

> <Gold.PLP.Chemscore.Internal.Correction>
0.0291

> <Gold.Rescore>
     Score         DG    S(hbond)    S(metal)    S(lipo)     H(rot)  DE(clash)    DE(int)     intcor
     14.16     -15.83       1.94        0.00      62.03       1.32       0.08       1.59       ----

> <Gold.Chemscore.Fitness>
14.1596

> <Gold.Chemscore.DG>
-15.8333

> <Gold.Chemscore.ZeroCoef>
-5.4800

> <Gold.Chemscore.Hbond>
1.9381

> <Gold.Chemscore.Metal>
0.0000

> <Gold.Chemscore.Lipo>
62.0301

> <Gold.Chemscore.Internal_Hbond>
0.0000

> <Gold.Chemscore.DEClash>
0.0836

> <Gold.Chemscore.DEInternal>
1.5901

> <Gold.Chemscore.Rot>
1.3193

> <Gold.Chemscore.Internal.Correction>
   9.000000E+99

> <Gold.Chemscore.Hbonds>
donor molecule, donor type, donor heavy atom, donor atom, acceptor molecule, acceptor atom, score
      L1  H    13    40       P1  7948  0.96
      P1  H  6896  6907       L1     1  0.22

> <Gold.Chemscore.Hbond.Weighted>
-6.4732

> <Gold.Chemscore.Metal.Weighted>
-0.0000

> <Gold.Chemscore.Lipo.Weighted>
-7.2575

> <Gold.Chemscore.Internal_Hbond.Weighted>
0.0000

> <Gold.Chemscore.DEClash.Weighted>
0.0836

> <Gold.Chemscore.DEInternal.Weighted>
1.5901

> <Gold.Chemscore.Rot.Weighted>
3.3774

> <Gold.Chemscore.Internal.Correction.Weighted>
   9.000000E+99

> <Gold.Protein.RotatedTorsions>
[ 6907 6896 6895 6894 ] final   -2.90 input  -60.11 | X-H torsion
[ 7974 7965 7964 7962 ] final  -24.27 input  175.53 | X-H torsion
[ 8008 7997 7996 7995 ] final   58.50 input   59.86 | X-H torsion
[ 10167 10162 10161 10158 ] final  -28.87 input  -65.29 | X-H torsion
[ 10718 10713 10712 10709 ] final  -55.08 input   66.30 | X-H torsion
[ 10763 10752 10751 10750 ] final  -60.21 input  -60.55 | X-H torsion
[ 11005 11000 10999 10996 ] final -138.92 input  -57.11 | X-H torsion

> <Gold.Protein.ActiveResidues>
 VAL166  LYS551  ARG553  GLY616  TRP617  ASP618  TYR619  PRO620  LYS621  CYS622 
 ASP623  PHE694  ASN695  SER759  ASP760  ASP761  ALA762  ILE779  LEU786  VAL792 
 PHE793  MET794  SER795  GLU796  ALA797  LYS798  CYS799  TRP800  GLU811  SER814 

> <Gold.Protein.RotatedAtoms>
  151.5225  135.1067  159.9881 H   0  0  0  0  0  0  0  0  0  0  0  0  # atno 6907 bound_to 6896
  152.4614  133.7826  159.6869 H   0  0  0  0  0  0  0  0  0  0  0  0  # atno 6908 bound_to 6896
  150.8578  133.7624  159.3028 H   0  0  0  0  0  0  0  0  0  0  0  0  # atno 6909 bound_to 6896
  146.1565  140.4729  142.8589 H   0  0  0  0  0  0  0  0  0  0  0  0  # atno 7974 bound_to 7965
  155.5510  140.3486  155.4468 H   0  0  0  0  0  0  0  0  0  0  0  0  # atno 8008 bound_to 7997
  156.0583  140.1334  156.9996 H   0  0  0  0  0  0  0  0  0  0  0  0  # atno 8009 bound_to 7997
  154.4467  140.0990  156.6464 H   0  0  0  0  0  0  0  0  0  0  0  0  # atno 8010 bound_to 7997
  140.7266  143.3975  151.1322 H   0  0  0  0  0  0  0  0  0  0  0  0  # atno 10167 bound_to 10162
  156.1398  130.4155  150.0123 H   0  0  0  0  0  0  0  0  0  0  0  0  # atno 10718 bound_to 10713
  154.2657  135.6300  153.5291 H   0  0  0  0  0  0  0  0  0  0  0  0  # atno 10763 bound_to 10752
  152.9888  135.5598  154.5655 H   0  0  0  0  0  0  0  0  0  0  0  0  # atno 10764 bound_to 10752
  154.5214  135.2882  155.1234 H   0  0  0  0  0  0  0  0  0  0  0  0  # atno 10765 bound_to 10752
  140.8570  134.2216  157.4729 H   0  0  0  0  0  0  0  0  0  0  0  0  # atno 11005 bound_to 11000
  144.7970  140.6142  143.6503 LP  0  0  0  0  0  0  0  0  0  0  0  0  # atno 17320 bound_to 7965
  145.4695  139.1505  143.3822 LP  0  0  0  0  0  0  0  0  0  0  0  0  # atno 17321 bound_to 7965
  139.7590  143.8664  152.3095 LP  0  0  0  0  0  0  0  0  0  0  0  0  # atno 17342 bound_to 10162
  139.8544  144.7148  150.9175 LP  0  0  0  0  0  0  0  0  0  0  0  0  # atno 17343 bound_to 10162
  156.8011  130.9291  151.3646 LP  0  0  0  0  0  0  0  0  0  0  0  0  # atno 17370 bound_to 10713
  157.6565  130.8929  149.9740 LP  0  0  0  0  0  0  0  0  0  0  0  0  # atno 17371 bound_to 10713
  139.8705  134.9711  156.4725 LP  0  0  0  0  0  0  0  0  0  0  0  0  # atno 17394 bound_to 11000
  140.8726  133.7977  155.9381 LP  0  0  0  0  0  0  0  0  0  0  0  0  # atno 17395 bound_to 11000

$$$$
