AV-unprocessed.smi:2454|AV-procd|sdf|9698|dock6
  -GOLD-   2272013333D 1   1.00000     0.00000
 Structure written by MMmdl.
 42 43  0  0  0  0  0  0  0  0  1 V2000
  144.0445  132.7261  149.1906 C   0  0  0  0  0  0  0  0  0  0  0  0
  144.9521  132.8004  150.2759 O   0  0  0  0  0  0  0  0  0  0  0  0
  145.2420  131.5285  150.8306 C   0  0  0  0  0  0  0  0  0  0  0  0
  146.2930  131.6286  151.9165 C   0  0  0  0  0  0  0  0  0  0  0  0
  146.8878  132.8641  152.2492 C   0  0  0  0  0  0  0  0  0  0  0  0
  147.8679  132.8603  153.2675 C   0  0  0  0  0  0  0  0  0  0  0  0
  148.4435  134.1317  153.5605 N   0  0  0  0  0  0  0  0  0  0  0  0
  148.9244  134.6487  154.7116 C   0  0  0  0  0  0  0  0  0  0  0  0
  148.9141  133.9964  155.7542 O   0  0  0  0  0  0  0  0  0  0  0  0
  149.4056  135.9004  154.6422 N   0  0  0  0  0  0  0  0  0  0  0  0
  149.9474  136.6790  155.7532 C   0  0  1  0  0  0  0  0  0  0  0  0
  151.4213  137.0329  155.4802 C   0  0  0  0  0  0  0  0  0  0  0  0
  151.5680  138.0631  154.3479 C   0  0  0  0  0  0  0  0  0  0  0  0
  150.7381  139.3250  154.6303 C   0  0  0  0  0  0  0  0  0  0  0  0
  149.2498  138.9902  154.8642 C   0  0  2  0  0  0  0  0  0  0  0  0
  148.4087  140.2553  155.1315 C   0  0  0  0  0  0  0  0  0  0  0  0
  147.1166  139.9496  155.2556 F   0  0  0  0  0  0  0  0  0  0  0  0
  148.8201  140.8492  156.2518 F   0  0  0  0  0  0  0  0  0  0  0  0
  148.5526  141.1195  154.1270 F   0  0  0  0  0  0  0  0  0  0  0  0
  149.1112  137.9531  156.0024 C   0  0  0  0  0  0  0  0  0  0  0  0
  148.1986  131.6921  153.8759 N   0  0  0  0  0  0  0  0  0  0  0  0
  147.5754  130.5786  153.4838 C   0  0  0  0  0  0  0  0  0  0  0  0
  146.6407  130.4819  152.5382 N   0  0  0  0  0  0  0  0  0  0  0  0
  143.8522  133.7270  148.8043 H   0  0  0  0  0  0  0  0  0  0  0  0
  143.0914  132.2964  149.5016 H   0  0  0  0  0  0  0  0  0  0  0  0
  144.4512  132.1243  148.3770 H   0  0  0  0  0  0  0  0  0  0  0  0
  144.3352  131.0909  151.2517 H   0  0  0  0  0  0  0  0  0  0  0  0
  145.5924  130.8496  150.0508 H   0  0  0  0  0  0  0  0  0  0  0  0
  146.6047  133.7740  151.7395 H   0  0  0  0  0  0  0  0  0  0  0  0
  148.5396  134.7389  152.7598 H   0  0  0  0  0  0  0  0  0  0  0  0
  149.3751  136.3593  153.7421 H   0  0  0  0  0  0  0  0  0  0  0  0
  149.9144  136.0592  156.6509 H   0  0  0  0  0  0  0  0  0  0  0  0
  151.8656  137.4393  156.3896 H   0  0  0  0  0  0  0  0  0  0  0  0
  151.9889  136.1323  155.2420 H   0  0  0  0  0  0  0  0  0  0  0  0
  152.6180  138.3300  154.2264 H   0  0  0  0  0  0  0  0  0  0  0  0
  151.2530  137.6220  153.4012 H   0  0  0  0  0  0  0  0  0  0  0  0
  151.1433  139.8364  155.5044 H   0  0  0  0  0  0  0  0  0  0  0  0
  150.8400  140.0174  153.7943 H   0  0  0  0  0  0  0  0  0  0  0  0
  148.8653  138.5370  153.9490 H   0  0  0  0  0  0  0  0  0  0  0  0
  148.0632  137.6867  156.1440 H   0  0  0  0  0  0  0  0  0  0  0  0
  149.4326  138.4058  156.9410 H   0  0  0  0  0  0  0  0  0  0  0  0
  147.8571  129.6639  153.9839 H   0  0  0  0  0  0  0  0  0  0  0  0
  1  2  1  0  0  0  0
  1 24  1  0  0  0  0
  1 25  1  0  0  0  0
  1 26  1  0  0  0  0
  2  3  1  0  0  0  0
  3  4  1  0  0  0  0
  3 27  1  0  0  0  0
  3 28  1  0  0  0  0
  4 23  1  0  0  0  0
  4  5  2  0  0  0  0
  5  6  1  0  0  0  0
  5 29  1  0  0  0  0
  6  7  1  0  0  0  0
  6 21  2  0  0  0  0
  7  8  1  0  0  0  0
  7 30  1  0  0  0  0
  8  9  2  0  0  0  0
  8 10  1  0  0  0  0
 10 11  1  0  0  0  0
 10 31  1  0  0  0  0
 11 20  1  0  0  0  0
 11 12  1  0  0  0  0
 11 32  1  0  0  0  0
 12 13  1  0  0  0  0
 12 33  1  0  0  0  0
 12 34  1  0  0  0  0
 13 14  1  0  0  0  0
 13 35  1  0  0  0  0
 13 36  1  0  0  0  0
 14 15  1  0  0  0  0
 14 37  1  0  0  0  0
 14 38  1  0  0  0  0
 15 16  1  0  0  0  0
 15 20  1  0  0  0  0
 15 39  1  0  0  0  0
 16 17  1  0  0  0  0
 16 18  1  0  0  0  0
 16 19  1  0  0  0  0
 20 40  1  0  0  0  0
 20 41  1  0  0  0  0
 21 22  1  0  0  0  0
 22 23  2  0  0  0  0
 22 42  1  0  0  0  0
M  END
> <s_m_source_file>
AV-unprocessed.smi

> <i_m_source_file_index>
2454

> <i_lp_mmshare_version>
43012

> <i_f3d_flags>
0

> <s_epik_input>
W0NIM11PW0NIMl1jMVtjSF1jKG5bY0hdbjEpW05IXUMoPU8pW05IXVtDQEBIXTJbQ0gyXVtDSDJdW0NIMl1bQ0BASF0oQyhGKShGKUYpW0NIMl0y

> <s_epik_cmdline>
J2VwaWtfcHl0aG9uJywgJy1waCcsICc3LjAnLCAnLXRuJywgJzgnLCAnLW1hJywgJzIwMCcsICctbWV0YWxfYmluZGluZycsICctaW1hZScsICc8aW5maWxlLm1hZT4nLCAnLW9tYWUnLCAnPG91dGZpbGUubWFlPic=

> <r_lp_tautomer_probability>
1

> <r_epik_Ionization_Penalty>
3.01554e-05

> <r_epik_Ionization_Penalty_Charging>
0

> <r_epik_Ionization_Penalty_Neutral>
3.01554e-05

> <r_epik_State_Penalty>
-0

> <r_epik_Charging_Adjusted_Penalty>
0

> <i_epik_Tot_Q>
0

> <i_epik_Tot_abs_Q>
0

> <r_epik_Metal_State_Penalty>
-0

> <b_epik_Metal_Only>
0

> <s_lp_Force_Field>
OPLS_2005

> <r_lp_Energy>
13.7545

> <b_lp_Chiralities_Consistent>
1

> <s_lp_Variant>
AV-unprocessed.smi:2454-4

> <Gold.Version>
5.8.1

> <Gold.Id.Protein>
6NUR|6NUR_protein|mol2

> <Gold.PLP.Fitness>
40.1247

> <Gold.PLP.PLP>
-34.6531

> <Gold.PLP.part.hbond>
-2.0000

> <Gold.PLP.part.metal>
0.0000

> <Gold.PLP.part.buried>
-3.9656

> <Gold.PLP.part.nonpolar>
-28.8737

> <Gold.PLP.part.repulsive>
0.4085

> <Gold.PLP.ligand.clash>
0.0000

> <Gold.PLP.ligand.torsion>
0.2276

> <Gold.PLP.Chemscore.Hbond>
1.9600

> <Gold.PLP.Chemscore.CHOScore>
0.0000

> <Gold.PLP.Chemscore.Metal>
0.0000

> <Gold.Chemscore.Hbonds>
donor molecule, donor type, donor heavy atom, donor atom, acceptor molecule, acceptor atom, score
      L1  H     7    30       P1  7948  1.00
      L1  H    10    31       P1  7948  0.96

> <Gold.PLP.Chemscore.Internal.Correction>
0.0467

> <Gold.Rescore>
     Score         DG    S(hbond)    S(metal)    S(lipo)     H(rot)  DE(clash)    DE(int)     intcor
     12.68     -13.79       1.34        0.00      67.74       1.60       0.01       1.11       ----

> <Gold.Chemscore.Fitness>
12.6801

> <Gold.Chemscore.DG>
-13.7926

> <Gold.Chemscore.ZeroCoef>
-5.4800

> <Gold.Chemscore.Hbond>
1.3450

> <Gold.Chemscore.Metal>
0.0000

> <Gold.Chemscore.Lipo>
67.7388

> <Gold.Chemscore.Internal_Hbond>
0.0000

> <Gold.Chemscore.DEClash>
0.0073

> <Gold.Chemscore.DEInternal>
1.1051

> <Gold.Chemscore.Rot>
1.6035

> <Gold.Chemscore.Internal.Correction>
   9.000000E+99

> <Gold.Chemscore.Hbonds>
donor molecule, donor type, donor heavy atom, donor atom, acceptor molecule, acceptor atom, score
      L1  H     7    30       P1  7948  0.25
      L1  H    10    31       P1  7948  0.79

> <Gold.Chemscore.Hbond.Weighted>
-4.4922

> <Gold.Chemscore.Metal.Weighted>
-0.0000

> <Gold.Chemscore.Lipo.Weighted>
-7.9254

> <Gold.Chemscore.Internal_Hbond.Weighted>
0.0000

> <Gold.Chemscore.DEClash.Weighted>
0.0073

> <Gold.Chemscore.DEInternal.Weighted>
1.1051

> <Gold.Chemscore.Rot.Weighted>
4.1050

> <Gold.Chemscore.Internal.Correction.Weighted>
   9.000000E+99

> <Gold.Protein.RotatedTorsions>
[ 6907 6896 6895 6894 ] final   51.99 input  -60.11 | X-H torsion
[ 7974 7965 7964 7962 ] final   91.06 input  175.53 | X-H torsion
[ 8008 7997 7996 7995 ] final  -20.59 input   59.86 | X-H torsion
[ 10167 10162 10161 10158 ] final   95.39 input  -65.29 | X-H torsion
[ 10718 10713 10712 10709 ] final   57.99 input   66.30 | X-H torsion
[ 10763 10752 10751 10750 ] final  -79.70 input  -60.55 | X-H torsion
[ 11005 11000 10999 10996 ] final   53.45 input  -57.11 | X-H torsion

> <Gold.Protein.ActiveResidues>
 VAL166  LYS551  ARG553  GLY616  TRP617  ASP618  TYR619  PRO620  LYS621  CYS622 
 ASP623  PHE694  ASN695  SER759  ASP760  ASP761  ALA762  ILE779  LEU786  VAL792 
 PHE793  MET794  SER795  GLU796  ALA797  LYS798  CYS799  TRP800  GLU811  SER814 

> <Gold.Protein.RotatedAtoms>
  152.3185  134.7409  160.0319 H   0  0  0  0  0  0  0  0  0  0  0  0  # atno 6907 bound_to 6896
  151.7866  133.3349  159.3495 H   0  0  0  0  0  0  0  0  0  0  0  0  # atno 6908 bound_to 6896
  150.7357  134.5812  159.5984 H   0  0  0  0  0  0  0  0  0  0  0  0  # atno 6909 bound_to 6896
  145.5107  139.2277  143.2726 H   0  0  0  0  0  0  0  0  0  0  0  0  # atno 7974 bound_to 7965
  154.4760  140.2058  155.9878 H   0  0  0  0  0  0  0  0  0  0  0  0  # atno 8008 bound_to 7997
  156.1089  140.3232  155.8015 H   0  0  0  0  0  0  0  0  0  0  0  0  # atno 8009 bound_to 7997
  155.4669  140.0528  157.2975 H   0  0  0  0  0  0  0  0  0  0  0  0  # atno 8010 bound_to 7997
  139.7993  144.6820  150.9786 H   0  0  0  0  0  0  0  0  0  0  0  0  # atno 10167 bound_to 10162
  157.5560  130.8800  149.9036 H   0  0  0  0  0  0  0  0  0  0  0  0  # atno 10718 bound_to 10713
  154.5419  135.5686  153.6847 H   0  0  0  0  0  0  0  0  0  0  0  0  # atno 10763 bound_to 10752
  152.9966  135.6230  154.2491 H   0  0  0  0  0  0  0  0  0  0  0  0  # atno 10764 bound_to 10752
  154.2422  135.2862  155.2829 H   0  0  0  0  0  0  0  0  0  0  0  0  # atno 10765 bound_to 10752
  140.0766  134.5395  155.8989 H   0  0  0  0  0  0  0  0  0  0  0  0  # atno 11005 bound_to 11000
  146.2168  140.5914  142.9035 LP  0  0  0  0  0  0  0  0  0  0  0  0  # atno 17320 bound_to 7965
  144.7729  140.5676  143.6658 LP  0  0  0  0  0  0  0  0  0  0  0  0  # atno 17321 bound_to 7965
  140.7820  143.4298  151.0712 LP  0  0  0  0  0  0  0  0  0  0  0  0  # atno 17342 bound_to 10162
  139.7971  143.8136  152.3159 LP  0  0  0  0  0  0  0  0  0  0  0  0  # atno 17343 bound_to 10162
  156.0618  130.3698  150.0964 LP  0  0  0  0  0  0  0  0  0  0  0  0  # atno 17370 bound_to 10713
  156.9133  130.9659  151.3560 LP  0  0  0  0  0  0  0  0  0  0  0  0  # atno 17371 bound_to 10713
  141.2032  133.6630  156.6048 LP  0  0  0  0  0  0  0  0  0  0  0  0  # atno 17394 bound_to 11000
  140.3548  134.7738  157.4492 LP  0  0  0  0  0  0  0  0  0  0  0  0  # atno 17395 bound_to 11000

$$$$
