AV-unprocessed.smi:633|AV-procd|sdf|3130|dock3
  -GOLD-   22720 0 53D 1   1.00000     0.00000
 Structure written by MMmdl.
 53 56  0  0  0  0  0  0  0  0  1 V2000
  153.5809  141.4857  160.4508 C   0  0  0  0  0  0  0  0  0  0  0  0
  152.3767  141.9651  159.6336 C   0  0  2  0  0  0  0  0  0  0  0  0
  152.0802  141.0306  158.4471 C   0  0  0  0  0  0  0  0  0  0  0  0
  151.0116  141.5830  157.6196 N   0  0  0  0  0  0  0  0  0  0  0  0
  150.4068  140.7377  156.6651 C   0  0  0  0  0  0  0  0  0  0  0  0
  151.1397  140.3075  155.5343 C   0  0  0  0  0  0  0  0  0  0  0  0
  150.5224  139.4611  154.5935 C   0  0  0  0  0  0  0  0  0  0  0  0
  149.1796  139.0694  154.8020 C   0  0  0  0  0  0  0  0  0  0  0  0
  148.4539  138.2009  153.9422 N   0  0  0  0  0  0  0  0  0  0  0  0
  147.1478  138.2328  153.6271 C   0  0  0  0  0  0  0  0  0  0  0  0
  146.3265  139.0264  154.0855 O   0  0  0  0  0  0  0  0  0  0  0  0
  146.8405  137.2632  152.7516 N   0  0  0  0  0  0  0  0  0  0  0  0
  145.5221  136.9797  152.1871 C   0  0  0  0  0  0  0  0  0  0  0  0
  144.4882  136.5566  153.2206 C   0  0  0  0  0  0  0  0  0  0  0  0
  143.0360  136.9468  153.0812 C   0  0  0  0  0  0  0  0  0  0  0  0
  143.8831  137.5574  154.1752 C   0  0  0  0  0  0  0  0  0  0  0  0
  145.5516  136.0068  151.0175 C   0  0  0  0  0  0  0  0  0  0  0  0
  144.2918  135.3300  150.5333 C   0  0  0  0  0  0  0  0  0  0  0  0
  145.3653  134.5230  151.2286 C   0  0  0  0  0  0  0  0  0  0  0  0
  148.5347  139.5425  155.9618 C   0  0  0  0  0  0  0  0  0  0  0  0
  149.1215  140.3561  156.8643 N   0  0  0  0  0  0  0  0  0  0  0  0
  151.2792  142.9459  157.1699 C   0  0  0  0  0  0  0  0  0  0  0  0
  151.6283  143.8633  158.3586 C   0  0  1  0  0  0  0  0  0  0  0  0
  150.4049  144.2617  159.2034 C   0  0  0  0  0  0  0  0  0  0  0  0
  152.6643  143.2765  159.1498 O   0  0  0  0  0  0  0  0  0  0  0  0
  153.4074  140.4895  160.8581 H   0  0  0  0  0  0  0  0  0  0  0  0
  153.7760  142.1571  161.2872 H   0  0  0  0  0  0  0  0  0  0  0  0
  154.4824  141.4453  159.8388 H   0  0  0  0  0  0  0  0  0  0  0  0
  151.5121  141.9995  160.2969 H   0  0  0  0  0  0  0  0  0  0  0  0
  152.9749  140.8987  157.8369 H   0  0  0  0  0  0  0  0  0  0  0  0
  151.7944  140.0476  158.8242 H   0  0  0  0  0  0  0  0  0  0  0  0
  152.1601  140.6229  155.3744 H   0  0  0  0  0  0  0  0  0  0  0  0
  151.0945  139.1228  153.7438 H   0  0  0  0  0  0  0  0  0  0  0  0
  148.9854  137.4355  153.5538 H   0  0  0  0  0  0  0  0  0  0  0  0
  147.5910  136.6625  152.4434 H   0  0  0  0  0  0  0  0  0  0  0  0
  145.1892  137.9384  151.7871 H   0  0  0  0  0  0  0  0  0  0  0  0
  144.6614  135.5630  153.6300 H   0  0  0  0  0  0  0  0  0  0  0  0
  142.7571  137.5896  152.2489 H   0  0  0  0  0  0  0  0  0  0  0  0
  142.2891  136.2114  153.3731 H   0  0  0  0  0  0  0  0  0  0  0  0
  143.7011  137.2291  155.1965 H   0  0  0  0  0  0  0  0  0  0  0  0
  144.1694  138.6016  154.0650 H   0  0  0  0  0  0  0  0  0  0  0  0
  146.2669  136.2767  150.2428 H   0  0  0  0  0  0  0  0  0  0  0  0
  143.3713  135.5202  151.0817 H   0  0  0  0  0  0  0  0  0  0  0  0
  144.1757  135.1953  149.4599 H   0  0  0  0  0  0  0  0  0  0  0  0
  145.9642  133.8501  150.6185 H   0  0  0  0  0  0  0  0  0  0  0  0
  145.1527  134.1729  152.2365 H   0  0  0  0  0  0  0  0  0  0  0  0
  147.5126  139.2640  156.1732 H   0  0  0  0  0  0  0  0  0  0  0  0
  152.1194  142.9144  156.4750 H   0  0  0  0  0  0  0  0  0  0  0  0
  150.4383  143.3683  156.6210 H   0  0  0  0  0  0  0  0  0  0  0  0
  152.0435  144.7862  157.9528 H   0  0  0  0  0  0  0  0  0  0  0  0
  149.6912  144.8278  158.6045 H   0  0  0  0  0  0  0  0  0  0  0  0
  150.7002  144.8894  160.0443 H   0  0  0  0  0  0  0  0  0  0  0  0
  149.8762  143.3956  159.6003 H   0  0  0  0  0  0  0  0  0  0  0  0
  1  2  1  0  0  0  0
  1 26  1  0  0  0  0
  1 27  1  0  0  0  0
  1 28  1  0  0  0  0
  2 25  1  0  0  0  0
  2  3  1  0  0  0  0
  2 29  1  0  0  0  0
  3  4  1  0  0  0  0
  3 30  1  0  0  0  0
  3 31  1  0  0  0  0
  4  5  1  0  0  0  0
  4 22  1  0  0  0  0
  5 21  1  0  0  0  0
  5  6  2  0  0  0  0
  6  7  1  0  0  0  0
  6 32  1  0  0  0  0
  7  8  2  0  0  0  0
  7 33  1  0  0  0  0
  8  9  1  0  0  0  0
  8 20  1  0  0  0  0
  9 10  1  0  0  0  0
  9 34  1  0  0  0  0
 10 11  2  0  0  0  0
 10 12  1  0  0  0  0
 12 13  1  0  0  0  0
 12 35  1  0  0  0  0
 13 14  1  0  0  0  0
 13 17  1  0  0  0  0
 13 36  1  0  0  0  0
 14 16  1  0  0  0  0
 14 15  1  0  0  0  0
 14 37  1  0  0  0  0
 15 16  1  0  0  0  0
 15 38  1  0  0  0  0
 15 39  1  0  0  0  0
 16 40  1  0  0  0  0
 16 41  1  0  0  0  0
 17 19  1  0  0  0  0
 17 18  1  0  0  0  0
 17 42  1  0  0  0  0
 18 19  1  0  0  0  0
 18 43  1  0  0  0  0
 18 44  1  0  0  0  0
 19 45  1  0  0  0  0
 19 46  1  0  0  0  0
 20 21  2  0  0  0  0
 20 47  1  0  0  0  0
 22 23  1  0  0  0  0
 22 48  1  0  0  0  0
 22 49  1  0  0  0  0
 23 24  1  0  0  0  0
 23 25  1  0  0  0  0
 23 50  1  0  0  0  0
 24 51  1  0  0  0  0
 24 52  1  0  0  0  0
 24 53  1  0  0  0  0
M  END
> <s_m_source_file>
AV-unprocessed.smi

> <i_m_source_file_index>
633

> <i_lp_mmshare_version>
43012

> <i_f3d_flags>
0

> <s_epik_input>
W0NIM11bQ0BASF0xW0NIMl1OKFtDSDJdW0NASF0oTzEpW0NIM10pYzJbY0hdW2NIXWMoW2NIXW4yKVtOSF1DKD1PKVtOSF1bQ0hdKFtDSF0zW0NIMl1bQ0gyXTMpW0NIXTRbQ0gyXVtDSDJdNA==

> <s_epik_cmdline>
J2VwaWtfcHl0aG9uJywgJy1waCcsICc3LjAnLCAnLXRuJywgJzgnLCAnLW1hJywgJzIwMCcsICctbWV0YWxfYmluZGluZycsICctaW1hZScsICc8aW5maWxlLm1hZT4nLCAnLW9tYWUnLCAnPG91dGZpbGUubWFlPic=

> <r_lp_tautomer_probability>
1

> <r_epik_Ionization_Penalty>
0.00291159

> <r_epik_Ionization_Penalty_Charging>
0

> <r_epik_Ionization_Penalty_Neutral>
0.00291159

> <r_epik_State_Penalty>
0.00200877

> <r_epik_Charging_Adjusted_Penalty>
0.00200877

> <i_epik_Tot_Q>
0

> <i_epik_Tot_abs_Q>
0

> <r_epik_Metal_State_Penalty>
-0

> <b_epik_Metal_Only>
0

> <s_lp_Force_Field>
OPLS_2005

> <r_lp_Energy>
43.7528

> <b_lp_Chiralities_Consistent>
1

> <s_lp_Variant>
AV-unprocessed.smi:633-1

> <Gold.Version>
5.8.1

> <Gold.Id.Protein>
6NUR|6NUR_protein|mol2

> <Gold.PLP.Fitness>
47.5493

> <Gold.PLP.PLP>
-42.9692

> <Gold.PLP.part.hbond>
-1.9004

> <Gold.PLP.part.metal>
0.0000

> <Gold.PLP.part.buried>
-4.1713

> <Gold.PLP.part.nonpolar>
-37.8462

> <Gold.PLP.part.repulsive>
0.2521

> <Gold.PLP.ligand.clash>
0.0000

> <Gold.PLP.ligand.torsion>
1.5643

> <Gold.PLP.Chemscore.Hbond>
1.7302

> <Gold.PLP.Chemscore.CHOScore>
0.0000

> <Gold.PLP.Chemscore.Metal>
0.0000

> <Gold.Chemscore.Hbonds>
donor molecule, donor type, donor heavy atom, donor atom, acceptor molecule, acceptor atom, score
      L1  H     9    34       P1  7948  0.71
      L1  H    12    35       P1  7948  1.00

> <Gold.PLP.Chemscore.Internal.Correction>
2.5182

> <Gold.Rescore>
     Score         DG    S(hbond)    S(metal)    S(lipo)     H(rot)  DE(clash)    DE(int)     intcor
     16.47     -20.67       1.83        0.00     108.30       1.40       0.19       4.00       ----

> <Gold.Chemscore.Fitness>
16.4743

> <Gold.Chemscore.DG>
-20.6668

> <Gold.Chemscore.ZeroCoef>
-5.4800

> <Gold.Chemscore.Hbond>
1.8280

> <Gold.Chemscore.Metal>
0.0000

> <Gold.Chemscore.Lipo>
108.2979

> <Gold.Chemscore.Internal_Hbond>
0.0000

> <Gold.Chemscore.DEClash>
0.1904

> <Gold.Chemscore.DEInternal>
4.0021

> <Gold.Chemscore.Rot>
1.4022

> <Gold.Chemscore.Internal.Correction>
   9.000000E+99

> <Gold.Chemscore.Hbonds>
donor molecule, donor type, donor heavy atom, donor atom, acceptor molecule, acceptor atom, score
      L1  H     9    34       P1  7948  0.69
      L1  H    12    35       P1  7948  0.93

> <Gold.Chemscore.Hbond.Weighted>
-6.1056

> <Gold.Chemscore.Metal.Weighted>
-0.0000

> <Gold.Chemscore.Lipo.Weighted>
-12.6709

> <Gold.Chemscore.Internal_Hbond.Weighted>
0.0000

> <Gold.Chemscore.DEClash.Weighted>
0.1904

> <Gold.Chemscore.DEInternal.Weighted>
4.0021

> <Gold.Chemscore.Rot.Weighted>
3.5897

> <Gold.Chemscore.Internal.Correction.Weighted>
   9.000000E+99

> <Gold.Protein.RotatedTorsions>
[ 6907 6896 6895 6894 ] final   35.52 input  -60.11 | X-H torsion
[ 7974 7965 7964 7962 ] final  -32.84 input  175.53 | X-H torsion
[ 8008 7997 7996 7995 ] final   91.52 input   59.86 | X-H torsion
[ 10167 10162 10161 10158 ] final  167.93 input  -65.29 | X-H torsion
[ 10718 10713 10712 10709 ] final  137.79 input   66.30 | X-H torsion
[ 10763 10752 10751 10750 ] final  -11.94 input  -60.55 | X-H torsion
[ 11005 11000 10999 10996 ] final  -13.28 input  -57.11 | X-H torsion

> <Gold.Protein.ActiveResidues>
 VAL166  LYS551  ARG553  GLY616  TRP617  ASP618  TYR619  PRO620  LYS621  CYS622 
 ASP623  PHE694  ASN695  SER759  ASP760  ASP761  ALA762  ILE779  LEU786  VAL792 
 PHE793  MET794  SER795  GLU796  ALA797  LYS798  CYS799  TRP800  GLU811  SER814 

> <Gold.Protein.RotatedAtoms>
  152.1173  134.9231  160.0564 H   0  0  0  0  0  0  0  0  0  0  0  0  # atno 6907 bound_to 6896
  152.0386  133.3962  159.4335 H   0  0  0  0  0  0  0  0  0  0  0  0  # atno 6908 bound_to 6896
  150.6847  134.3362  159.4892 H   0  0  0  0  0  0  0  0  0  0  0  0  # atno 6909 bound_to 6896
  146.0958  140.5843  142.8843 H   0  0  0  0  0  0  0  0  0  0  0  0  # atno 7974 bound_to 7965
  156.0247  140.3336  155.7075 H   0  0  0  0  0  0  0  0  0  0  0  0  # atno 8008 bound_to 7997
  155.5972  140.0652  157.2760 H   0  0  0  0  0  0  0  0  0  0  0  0  # atno 8009 bound_to 7997
  154.4329  140.1816  156.1124 H   0  0  0  0  0  0  0  0  0  0  0  0  # atno 8010 bound_to 7997
  139.4956  144.3869  151.9561 H   0  0  0  0  0  0  0  0  0  0  0  0  # atno 10167 bound_to 10162
  157.4322  131.1049  151.0237 H   0  0  0  0  0  0  0  0  0  0  0  0  # atno 10718 bound_to 10713
  153.4911  135.7017  153.5884 H   0  0  0  0  0  0  0  0  0  0  0  0  # atno 10763 bound_to 10752
  153.4056  135.3861  155.2016 H   0  0  0  0  0  0  0  0  0  0  0  0  # atno 10764 bound_to 10752
  154.8716  135.3892  154.4371 H   0  0  0  0  0  0  0  0  0  0  0  0  # atno 10765 bound_to 10752
  140.7745  133.8412  155.9236 H   0  0  0  0  0  0  0  0  0  0  0  0  # atno 11005 bound_to 11000
  144.7394  140.4900  143.6880 LP  0  0  0  0  0  0  0  0  0  0  0  0  # atno 17320 bound_to 7965
  145.5951  139.1499  143.3160 LP  0  0  0  0  0  0  0  0  0  0  0  0  # atno 17321 bound_to 7965
  140.3306  144.3321  150.5988 LP  0  0  0  0  0  0  0  0  0  0  0  0  # atno 17342 bound_to 10162
  140.5648  143.2187  151.7702 LP  0  0  0  0  0  0  0  0  0  0  0  0  # atno 17343 bound_to 10162
  157.1129  130.6029  149.5486 LP  0  0  0  0  0  0  0  0  0  0  0  0  # atno 17370 bound_to 10713
  155.9917  130.4973  150.7312 LP  0  0  0  0  0  0  0  0  0  0  0  0  # atno 17371 bound_to 10713
  140.9542  134.1740  157.4704 LP  0  0  0  0  0  0  0  0  0  0  0  0  # atno 17394 bound_to 11000
  139.8751  134.9920  156.5578 LP  0  0  0  0  0  0  0  0  0  0  0  0  # atno 17395 bound_to 11000

$$$$
