#       Name:                AV-unprocessed.smi:1994
#       Creating user name   scv26
#       Creation time:       Fri Mar 27 10:28:25 2020


#       File generated by GOLD software.
#

@<TRIPOS>MOLECULE
AV-unprocessed.smi:1994
    44    46     1
SMALL
NO_CHARGES


@<TRIPOS>ATOM
      1 ****        -1.7163   0.3364   3.0989 C.3            1 S1                 0.0000
      2 ****        -1.7943   1.5024   2.1652 C.2            1 S1                 0.0000
      3 ****        -2.3381   2.6654   2.5255 N.2            1 S1                 0.0000
      4 ****        -2.2045   3.4296   1.3822 C.ar           1 S1                 0.0000
      5 ****        -2.5885   4.7640   1.1181 C.ar           1 S1                 0.0000
      6 ****        -2.3461   5.3398  -0.1464 C.ar           1 S1                 0.0000
      7 ****        -1.7175   4.5917  -1.1630 C.ar           1 S1                 0.0000
      8 ****        -1.3269   3.2606  -0.9210 C.ar           1 S1                 0.0000
      9 ****        -1.5712   2.6907   0.3428 C.ar           1 S1                 0.0000
     10 ****        -1.3192   1.4398   0.8965 N.pl3          1 S1                 0.0000
     11 ****        -0.6801   0.3166   0.2249 C.3            1 S1                 0.0000
     12 ****         0.8523   0.4718   0.1463 C.3            1 S1                 0.0000
     13 ****         1.4335   0.5654   1.4318 O.3            1 S1                 0.0000
     14 ****         1.5453  -0.6480  -0.6474 C.3            1 S1                 0.0000
     15 ****         1.0792  -1.9175  -0.2067 O.3            1 S1                 0.0000
     16 ****         1.5562  -3.0472  -0.8368 C.ar           1 S1                 0.0000
     17 ****         2.5003  -3.0295  -1.8952 C.ar           1 S1                 0.0000
     18 ****         2.9324  -4.2331  -2.4860 C.ar           1 S1                 0.0000
     19 ****         2.4301  -5.4654  -2.0289 C.ar           1 S1                 0.0000
     20 ****         1.4943  -5.4928  -0.9786 C.ar           1 S1                 0.0000
     21 ****         1.0611  -4.2903  -0.3873 C.ar           1 S1                 0.0000
     22 ****         0.1588  -4.3307   0.6223 F              1 S1                 0.0000
     23 ****        -2.0606   0.6193   4.0943 H              1 S1                 0.0000
     24 ****        -0.6890  -0.0184   3.1806 H              1 S1                 0.0000
     25 ****        -2.3441  -0.4777   2.7363 H              1 S1                 0.0000
     26 ****        -3.0712   5.3450   1.8900 H              1 S1                 0.0000
     27 ****        -2.6440   6.3604  -0.3374 H              1 S1                 0.0000
     28 ****        -1.5359   5.0403  -2.1287 H              1 S1                 0.0000
     29 ****        -0.8454   2.6839  -1.6967 H              1 S1                 0.0000
     30 ****        -0.9510  -0.6104   0.7301 H              1 S1                 0.0000
     31 ****        -1.0961   0.2445  -0.7807 H              1 S1                 0.0000
     32 ****         1.0790   1.4144  -0.3533 H              1 S1                 0.0000
     33 ****         2.3609   0.7164   1.3325 H              1 S1                 0.0000
     34 ****         1.3004  -0.5269  -1.7037 H              1 S1                 0.0000
     35 ****         2.6293  -0.5712  -0.5469 H              1 S1                 0.0000
     36 ****         2.9085  -2.1050  -2.2738 H              1 S1                 0.0000
     37 ****         3.6507  -4.2097  -3.2923 H              1 S1                 0.0000
     38 ****         2.7615  -6.3875  -2.4830 H              1 S1                 0.0000
     39 ****         1.1067  -6.4374  -0.6261 H              1 S1                 0.0000
     40 ****        -2.7419   2.9208   3.4040 LP             1 S1                 0.0000
     41 ****         1.2825  -0.2868   1.9328 LP             1 S1                 0.0000
     42 ****         1.0202   1.3250   1.9341 LP             1 S1                 0.0000
     43 ****         0.0846  -1.9192  -0.3101 LP             1 S1                 0.0000
     44 ****         1.3137  -1.9983   0.7621 LP             1 S1                 0.0000
@<TRIPOS>BOND
    1    1    2 1     
    2    1   23 1     
    3    1   24 1     
    4    1   25 1     
    5    2   10 1     
    6    2    3 2     
    7    3    4 1     
    8    4    9 ar    
    9    4    5 ar    
   10    5    6 ar    
   11    5   26 1     
   12    6    7 ar    
   13    6   27 1     
   14    7    8 ar    
   15    7   28 1     
   16    8    9 ar    
   17    8   29 1     
   18    9   10 1     
   19   10   11 1     
   20   11   12 1     
   21   11   30 1     
   22   11   31 1     
   23   12   13 1     
   24   12   14 1     
   25   12   32 1     
   26   13   33 1     
   27   14   15 1     
   28   14   34 1     
   29   14   35 1     
   30   15   16 1     
   31   16   21 ar    
   32   16   17 ar    
   33   17   18 ar    
   34   17   36 1     
   35   18   19 ar    
   36   18   37 1     
   37   19   20 ar    
   38   19   38 1     
   39   20   21 ar    
   40   20   39 1     
   41   21   22 1     
   42    3   40 1     
   43   13   41 1     
   44   13   42 1     
   45   15   43 1     
   46   15   44 1     
@<TRIPOS>SUBSTRUCTURE
      1 S1             1
@<TRIPOS>SET
LONE_PAIRS      STATIC     ATOMS    <user>   **** ""
5 40 41 42 43 44
DONOR_HYDROGENS      STATIC     ATOMS    <user>   **** ""
1 33
ATOM$BLUE        STATIC     ATOMS    COLORGROUP SYSTEM
5 40 41 42 43 44
ATOM$RED        STATIC     ATOMS    COLORGROUP SYSTEM
1 33
