AV-unprocessed.smi:1999|AV-procd|sdf|8096|dock3
  -GOLD-   2272010313D 1   1.00000     0.00000
 Structure written by MMmdl.
 37 38  0  0  0  0  0  0  0  0  2 V2000
  145.8323  133.0608  162.3063 C   0  0  0  0  0  0  0  0  0  0  0  0
  146.2429  134.3861  161.7622 C   0  0  0  0  0  0  0  0  0  0  0  0
  145.5001  135.4867  161.9024 N   0  0  0  0  0  0  0  0  0  0  0  0
  146.0932  136.5954  161.3159 N   0  0  0  0  0  0  0  0  0  0  0  0
  147.2781  136.3216  160.7518 C   0  0  0  0  0  0  0  0  0  0  0  0
  148.0137  137.2585  160.1310 N   0  5  0  0  0  0  0  0  0  0  0  0
  148.9537  136.8920  159.2301 C   0  0  0  0  0  0  0  0  0  0  0  0
  149.1453  135.7530  158.7978 O   0  0  0  0  0  0  0  0  0  0  0  0
  149.7183  137.9078  158.8040 N   0  0  0  0  0  0  0  0  0  0  0  0
  150.7981  137.8238  157.8217 C   0  0  2  0  0  0  0  0  0  0  0  0
  151.9847  137.0434  158.4081 C   0  0  0  0  0  0  0  0  0  0  0  0
  151.2244  139.2408  157.3857 C   0  0  0  0  0  0  0  0  0  0  0  0
  150.2627  139.9683  156.5546 N   0  0  0  0  0  0  0  0  0  0  0  0
  149.9126  139.2504  155.3311 C   0  0  0  0  0  0  0  0  0  0  0  0
  148.9214  140.0454  154.4636 C   0  0  0  0  0  0  0  0  0  0  0  0
  149.4650  141.3272  154.1651 O   0  0  0  0  0  0  0  0  0  0  0  0
  149.7725  142.0770  155.3357 C   0  0  0  0  0  0  0  0  0  0  0  0
  150.7698  141.2899  156.2031 C   0  0  0  0  0  0  0  0  0  0  0  0
  147.7466  134.6270  160.8890 S   0  0  0  0  0  0  0  0  0  0  0  0
  146.1241  132.9828  163.3535 H   0  0  0  0  0  0  0  0  0  0  0  0
  146.3129  132.2579  161.7471 H   0  0  0  0  0  0  0  0  0  0  0  0
  144.7515  132.9381  162.2318 H   0  0  0  0  0  0  0  0  0  0  0  0
  149.5211  138.8228  159.1820 H   0  0  0  0  0  0  0  0  0  0  0  0
  150.4488  137.2786  156.9441 H   0  0  0  0  0  0  0  0  0  0  0  0
  152.7972  136.9657  157.6855 H   0  0  0  0  0  0  0  0  0  0  0  0
  151.6937  136.0294  158.6833 H   0  0  0  0  0  0  0  0  0  0  0  0
  152.3778  137.5306  159.3011 H   0  0  0  0  0  0  0  0  0  0  0  0
  151.4134  139.8225  158.2893 H   0  0  0  0  0  0  0  0  0  0  0  0
  152.1819  139.1828  156.8659 H   0  0  0  0  0  0  0  0  0  0  0  0
  150.8138  139.0419  154.7528 H   0  0  0  0  0  0  0  0  0  0  0  0
  149.4638  138.2874  155.5722 H   0  0  0  0  0  0  0  0  0  0  0  0
  148.7240  139.5158  153.5316 H   0  0  0  0  0  0  0  0  0  0  0  0
  147.9651  140.1590  154.9768 H   0  0  0  0  0  0  0  0  0  0  0  0
  150.1996  143.0361  155.0426 H   0  0  0  0  0  0  0  0  0  0  0  0
  148.8587  142.2887  155.8927 H   0  0  0  0  0  0  0  0  0  0  0  0
  150.9831  141.8574  157.1096 H   0  0  0  0  0  0  0  0  0  0  0  0
  151.7149  141.1926  155.6666 H   0  0  0  0  0  0  0  0  0  0  0  0
  1  2  1  0  0  0  0
  1 20  1  0  0  0  0
  1 21  1  0  0  0  0
  1 22  1  0  0  0  0
  2 19  1  0  0  0  0
  2  3  2  0  0  0  0
  3  4  1  0  0  0  0
  4  5  2  0  0  0  0
  5  6  1  0  0  0  0
  5 19  1  0  0  0  0
  6  7  1  0  0  0  0
  7  8  2  0  0  0  0
  7  9  1  0  0  0  0
  9 10  1  0  0  0  0
  9 23  1  0  0  0  0
 10 11  1  0  0  0  0
 10 12  1  0  0  0  0
 10 24  1  0  0  0  0
 11 25  1  0  0  0  0
 11 26  1  0  0  0  0
 11 27  1  0  0  0  0
 12 13  1  0  0  0  0
 12 28  1  0  0  0  0
 12 29  1  0  0  0  0
 13 18  1  0  0  0  0
 13 14  1  0  0  0  0
 14 15  1  0  0  0  0
 14 30  1  0  0  0  0
 14 31  1  0  0  0  0
 15 16  1  0  0  0  0
 15 32  1  0  0  0  0
 15 33  1  0  0  0  0
 16 17  1  0  0  0  0
 17 18  1  0  0  0  0
 17 34  1  0  0  0  0
 17 35  1  0  0  0  0
 18 36  1  0  0  0  0
 18 37  1  0  0  0  0
M  CHG  1   6  -1
M  END
> <s_m_source_file>
AV-unprocessed.smi

> <i_m_source_file_index>
1999

> <i_lp_mmshare_version>
43012

> <i_f3d_flags>
0

> <s_epik_input>
W0NIM11jMW5uYyhzMSlbTkhdQyg9TylbTkhdW0NASF0oW0NIM10pW0NIMl1OMltDSDJdW0NIMl1PW0NIMl1bQ0gyXTI=

> <s_epik_cmdline>
J2VwaWtfcHl0aG9uJywgJy1waCcsICc3LjAnLCAnLXRuJywgJzgnLCAnLW1hJywgJzIwMCcsICctbWV0YWxfYmluZGluZycsICctaW1hZScsICc8aW5maWxlLm1hZT4nLCAnLW9tYWUnLCAnPG91dGZpbGUubWFlPic=

> <r_lp_tautomer_probability>
1

> <r_epik_Ionization_Penalty>
3.74165

> <r_epik_Ionization_Penalty_Charging>
3.28066

> <r_epik_Ionization_Penalty_Neutral>
0.460988

> <r_epik_State_Penalty>
3.48767

> <r_epik_Charging_Adjusted_Penalty>
6.76834

> <i_epik_Tot_Q>
-1

> <i_epik_Tot_abs_Q>
1

> <r_epik_Metal_State_Penalty>
0.700129

> <b_epik_Metal_Only>
1

> <s_lp_Force_Field>
OPLS_2005

> <r_lp_Energy>
23.1925

> <b_lp_Chiralities_Consistent>
1

> <s_lp_Variant>
AV-unprocessed.smi:1999-5

> <Gold.Version>
5.8.1

> <Gold.Id.Protein>
6NUR|6NUR_protein|mol2

> <Gold.PLP.Fitness>
36.6837

> <Gold.PLP.PLP>
-24.9723

> <Gold.PLP.part.hbond>
-5.0000

> <Gold.PLP.part.metal>
0.0000

> <Gold.PLP.part.buried>
0.2842

> <Gold.PLP.part.nonpolar>
-20.5338

> <Gold.PLP.part.repulsive>
0.5161

> <Gold.PLP.ligand.clash>
0.0000

> <Gold.PLP.ligand.torsion>
0.2815

> <Gold.PLP.Chemscore.Hbond>
4.0544

> <Gold.PLP.Chemscore.CHOScore>
0.0000

> <Gold.PLP.Chemscore.Metal>
0.0000

> <Gold.Chemscore.Hbonds>
donor molecule, donor type, donor heavy atom, donor atom, acceptor molecule, acceptor atom, score
      P1  H  6896  6909       L1     8  0.89
      P1  H  6931  6943       L1     6  0.53
      P1  H  6934  6947       L1     6  1.19
      P1  H  7989  7998       L1    16  0.11
      P1  H  8011  8017       L1    16  0.49

> <Gold.PLP.Chemscore.Internal.Correction>
0.1113

> <Gold.Rescore>
     Score         DG    S(hbond)    S(metal)    S(lipo)     H(rot)  DE(clash)    DE(int)     intcor
     12.34     -15.47       2.02        0.00      61.84       1.56       1.41       1.72       ----

> <Gold.Chemscore.Fitness>
12.3426

> <Gold.Chemscore.DG>
-15.4744

> <Gold.Chemscore.ZeroCoef>
-5.4800

> <Gold.Chemscore.Hbond>
2.0184

> <Gold.Chemscore.Metal>
0.0000

> <Gold.Chemscore.Lipo>
61.8393

> <Gold.Chemscore.Internal_Hbond>
0.0000

> <Gold.Chemscore.DEClash>
1.4104

> <Gold.Chemscore.DEInternal>
1.7214

> <Gold.Chemscore.Rot>
1.5556

> <Gold.Chemscore.Internal.Correction>
   9.000000E+99

> <Gold.Chemscore.Hbonds>
donor molecule, donor type, donor heavy atom, donor atom, acceptor molecule, acceptor atom, score
      P1  H  6896  6909       L1     8  0.85
      P1  H  6931  6943       L1     6  0.06
      P1  H  6934  6947       L1     6  0.21
      P1  H  7989  7998       L1    16  0.01
      P1  H  8011  8017       L1    16  0.41

> <Gold.Chemscore.Hbond.Weighted>
-6.7414

> <Gold.Chemscore.Metal.Weighted>
-0.0000

> <Gold.Chemscore.Lipo.Weighted>
-7.2352

> <Gold.Chemscore.Internal_Hbond.Weighted>
0.0000

> <Gold.Chemscore.DEClash.Weighted>
1.4104

> <Gold.Chemscore.DEInternal.Weighted>
1.7214

> <Gold.Chemscore.Rot.Weighted>
3.9823

> <Gold.Chemscore.Internal.Correction.Weighted>
   9.000000E+99

> <Gold.Protein.RotatedTorsions>
[ 6907 6896 6895 6894 ] final   46.50 input  -60.11 | X-H torsion
[ 7974 7965 7964 7962 ] final   75.29 input  175.53 | X-H torsion
[ 8008 7997 7996 7995 ] final  162.20 input   59.86 | X-H torsion
[ 10167 10162 10161 10158 ] final    9.76 input  -65.29 | X-H torsion
[ 10718 10713 10712 10709 ] final -145.58 input   66.30 | X-H torsion
[ 10763 10752 10751 10750 ] final -120.60 input  -60.55 | X-H torsion
[ 11005 11000 10999 10996 ] final   35.41 input  -57.11 | X-H torsion

> <Gold.Protein.ActiveResidues>
 VAL166  LYS551  ARG553  GLY616  TRP617  ASP618  TYR619  PRO620  LYS621  CYS622 
 ASP623  PHE694  ASN695  SER759  ASP760  ASP761  ALA762  ILE779  LEU786  VAL792 
 PHE793  MET794  SER795  GLU796  ALA797  LYS798  CYS799  TRP800  GLU811  SER814 

> <Gold.Protein.RotatedAtoms>
  152.2571  134.8073  160.0436 H   0  0  0  0  0  0  0  0  0  0  0  0  # atno 6907 bound_to 6896
  151.8732  133.3475  159.3750 H   0  0  0  0  0  0  0  0  0  0  0  0  # atno 6908 bound_to 6896
  150.7103  134.5019  159.5609 H   0  0  0  0  0  0  0  0  0  0  0  0  # atno 6909 bound_to 6896
  145.7175  139.2636  143.1615 H   0  0  0  0  0  0  0  0  0  0  0  0  # atno 7974 bound_to 7965
  156.2049  140.1757  156.7822 H   0  0  0  0  0  0  0  0  0  0  0  0  # atno 8008 bound_to 7997
  154.5641  140.0694  156.8895 H   0  0  0  0  0  0  0  0  0  0  0  0  # atno 8009 bound_to 7997
  155.2794  140.3348  155.4262 H   0  0  0  0  0  0  0  0  0  0  0  0  # atno 8010 bound_to 7997
  140.6236  143.8151  150.7205 H   0  0  0  0  0  0  0  0  0  0  0  0  # atno 10167 bound_to 10162
  156.3842  130.7852  151.2048 H   0  0  0  0  0  0  0  0  0  0  0  0  # atno 10718 bound_to 10713
  154.8648  135.4197  154.2485 H   0  0  0  0  0  0  0  0  0  0  0  0  # atno 10763 bound_to 10752
  153.3436  135.6995  153.6852 H   0  0  0  0  0  0  0  0  0  0  0  0  # atno 10764 bound_to 10752
  153.5820  135.3571  155.2851 H   0  0  0  0  0  0  0  0  0  0  0  0  # atno 10765 bound_to 10752
  140.2430  134.3393  155.7918 H   0  0  0  0  0  0  0  0  0  0  0  0  # atno 11005 bound_to 11000
  146.0656  140.7924  142.9713 LP  0  0  0  0  0  0  0  0  0  0  0  0  # atno 17320 bound_to 7965
  144.6925  140.3264  143.7223 LP  0  0  0  0  0  0  0  0  0  0  0  0  # atno 17321 bound_to 7965
  140.1747  143.4165  152.1976 LP  0  0  0  0  0  0  0  0  0  0  0  0  # atno 17342 bound_to 10162
  139.5460  144.7298  151.4583 LP  0  0  0  0  0  0  0  0  0  0  0  0  # atno 17343 bound_to 10162
  157.7494  131.0335  150.4274 LP  0  0  0  0  0  0  0  0  0  0  0  0  # atno 17370 bound_to 10713
  156.4524  130.4014  149.6627 LP  0  0  0  0  0  0  0  0  0  0  0  0  # atno 17371 bound_to 10713
  141.2209  133.7309  156.8915 LP  0  0  0  0  0  0  0  0  0  0  0  0  # atno 17394 bound_to 11000
  140.1634  134.9149  157.2744 LP  0  0  0  0  0  0  0  0  0  0  0  0  # atno 17395 bound_to 11000

$$$$
