AV-unprocessed.smi:910|AV-procd|sdf|4131|dock1
  -GOLD-   22720 2 33D 1   1.00000     0.00000
 Structure written by MMmdl.
 47 48  0  0  0  0  0  0  0  0  2 V2000
  144.8928  135.6074  150.5507 C   0  0  0  0  0  0  0  0  0  0  0  0
  145.0316  136.5426  151.7107 C   0  0  0  0  0  0  0  0  0  0  0  0
  145.8535  137.6378  151.8387 N   0  3  0  0  0  0  0  0  0  0  0  0
  145.6707  138.1943  153.0337 C   0  0  0  0  0  0  0  0  0  0  0  0
  146.3589  139.3425  153.4883 N   0  0  0  0  0  0  0  0  0  0  0  0
  146.5111  139.7059  154.7706 C   0  0  0  0  0  0  0  0  0  0  0  0
  146.0928  139.0622  155.7334 O   0  0  0  0  0  0  0  0  0  0  0  0
  147.1783  140.8645  154.8805 N   0  0  0  0  0  0  0  0  0  0  0  0
  147.4734  141.5477  156.1360 C   0  0  0  0  0  0  0  0  0  0  0  0
  148.9857  141.7017  156.3514 C   0  0  0  0  0  0  0  0  0  0  0  0
  149.2593  141.7081  157.7443 O   0  0  0  0  0  0  0  0  0  0  0  0
  150.4311  142.4220  158.1134 C   0  0  1  0  0  0  0  0  0  0  0  0
  150.0344  143.6064  159.0197 C   0  0  0  0  0  0  0  0  0  0  0  0
  151.2689  144.3350  159.5704 C   0  0  0  0  0  0  0  0  0  0  0  0
  152.1950  143.3632  160.3152 C   0  0  0  0  0  0  0  0  0  0  0  0
  152.5991  142.1866  159.4138 C   0  0  0  0  0  0  0  0  0  0  0  0
  151.3684  141.4433  158.8560 C   0  0  2  0  0  0  0  0  0  0  0  0
  151.8019  140.2757  157.9546 C   0  0  0  0  0  0  0  0  0  0  0  0
  144.7337  137.5085  153.7421 O   0  0  0  0  0  0  0  0  0  0  0  0
  144.3434  136.4845  152.9034 C   0  0  0  0  0  0  0  0  0  0  0  0
  143.3031  135.5469  153.4162 C   0  0  0  0  0  0  0  0  0  0  0  0
  144.9580  134.5677  150.8721 H   0  0  0  0  0  0  0  0  0  0  0  0
  145.6759  135.7730  149.8107 H   0  0  0  0  0  0  0  0  0  0  0  0
  143.9327  135.7400  150.0517 H   0  0  0  0  0  0  0  0  0  0  0  0
  146.4874  137.9402  151.1098 H   0  0  0  0  0  0  0  0  0  0  0  0
  147.4887  141.3218  154.0355 H   0  0  0  0  0  0  0  0  0  0  0  0
  146.9744  142.5171  156.1842 H   0  0  0  0  0  0  0  0  0  0  0  0
  147.0545  140.9452  156.9422 H   0  0  0  0  0  0  0  0  0  0  0  0
  149.5093  140.8637  155.8898 H   0  0  0  0  0  0  0  0  0  0  0  0
  149.3428  142.6123  155.8695 H   0  0  0  0  0  0  0  0  0  0  0  0
  150.9477  142.7918  157.2252 H   0  0  0  0  0  0  0  0  0  0  0  0
  149.4120  144.3156  158.4748 H   0  0  0  0  0  0  0  0  0  0  0  0
  149.4290  143.2416  159.8506 H   0  0  0  0  0  0  0  0  0  0  0  0
  151.8129  144.8046  158.7499 H   0  0  0  0  0  0  0  0  0  0  0  0
  150.9595  145.1397  160.2379 H   0  0  0  0  0  0  0  0  0  0  0  0
  153.0851  143.8894  160.6611 H   0  0  0  0  0  0  0  0  0  0  0  0
  151.6916  142.9869  161.2066 H   0  0  0  0  0  0  0  0  0  0  0  0
  153.2105  142.5567  158.5895 H   0  0  0  0  0  0  0  0  0  0  0  0
  153.2279  141.4965  159.9772 H   0  0  0  0  0  0  0  0  0  0  0  0
  150.8200  141.0233  159.7009 H   0  0  0  0  0  0  0  0  0  0  0  0
  152.3469  140.6312  157.0795 H   0  0  0  0  0  0  0  0  0  0  0  0
  150.9419  139.7061  157.6012 H   0  0  0  0  0  0  0  0  0  0  0  0
  152.4509  139.5845  158.4927 H   0  0  0  0  0  0  0  0  0  0  0  0
  142.7099  135.1374  152.5982 H   0  0  0  0  0  0  0  0  0  0  0  0
  142.6241  136.0545  154.1015 H   0  0  0  0  0  0  0  0  0  0  0  0
  143.7634  134.7151  153.9494 H   0  0  0  0  0  0  0  0  0  0  0  0
  146.7571  139.9415  152.7804 H   0  0  0  0  0  0  0  0  0  0  0  0
  1 22  1  0  0  0  0
  1 23  1  0  0  0  0
  1 24  1  0  0  0  0
  1  2  1  0  0  0  0
  2  3  1  0  0  0  0
  2 20  2  0  0  0  0
  3 25  1  0  0  0  0
  3  4  2  0  0  0  0
  4 19  1  0  0  0  0
  4  5  1  0  0  0  0
  5  6  1  0  0  0  0
  5 47  1  0  0  0  0
  6  8  1  0  0  0  0
  6  7  2  0  0  0  0
  8  9  1  0  0  0  0
  8 26  1  0  0  0  0
  9 10  1  0  0  0  0
  9 27  1  0  0  0  0
  9 28  1  0  0  0  0
 10 11  1  0  0  0  0
 10 29  1  0  0  0  0
 10 30  1  0  0  0  0
 11 12  1  0  0  0  0
 12 17  1  0  0  0  0
 12 13  1  0  0  0  0
 12 31  1  0  0  0  0
 13 14  1  0  0  0  0
 13 32  1  0  0  0  0
 13 33  1  0  0  0  0
 14 15  1  0  0  0  0
 14 34  1  0  0  0  0
 14 35  1  0  0  0  0
 15 16  1  0  0  0  0
 15 36  1  0  0  0  0
 15 37  1  0  0  0  0
 16 17  1  0  0  0  0
 16 38  1  0  0  0  0
 16 39  1  0  0  0  0
 17 18  1  0  0  0  0
 17 40  1  0  0  0  0
 18 41  1  0  0  0  0
 18 42  1  0  0  0  0
 18 43  1  0  0  0  0
 19 20  1  0  0  0  0
 20 21  1  0  0  0  0
 21 44  1  0  0  0  0
 21 45  1  0  0  0  0
 21 46  1  0  0  0  0
M  CHG  1   3   1
M  END
> <s_m_source_file>
AV-unprocessed.smi

> <i_m_source_file_index>
910

> <i_lp_mmshare_version>
43012

> <i_f3d_flags>
0

> <s_epik_input>
W0NIM11jMW5jKG9jMVtDSDNdKVtOSF1DKD1PKVtOSF1bQ0gyXVtDSDJdT1tDQEBIXTJbQ0gyXVtDSDJdW0NIMl1bQ0gyXVtDQEhdMltDSDNd

> <s_epik_cmdline>
J2VwaWtfcHl0aG9uJywgJy1waCcsICc3LjAnLCAnLXRuJywgJzgnLCAnLW1hJywgJzIwMCcsICctbWV0YWxfYmluZGluZycsICctaW1hZScsICc8aW5maWxlLm1hZT4nLCAnLW9tYWUnLCAnPG91dGZpbGUubWFlPic=

> <r_epik_Ionization_Penalty>
7.32931

> <r_epik_Ionization_Penalty_Charging>
7.12214

> <r_epik_Ionization_Penalty_Neutral>
0.207166

> <r_epik_State_Penalty>
2.61278

> <r_epik_Charging_Adjusted_Penalty>
9.73492

> <i_epik_Tot_Q>
1

> <i_epik_Tot_abs_Q>
1

> <r_epik_Metal_State_Penalty>
2.64585

> <b_epik_Metal_Only>
0

> <s_lp_Force_Field>
OPLS_2005

> <r_lp_Energy>
16.7683

> <b_lp_Chiralities_Consistent>
1

> <s_lp_Variant>
AV-unprocessed.smi:910-16

> <Gold.Version>
5.8.1

> <Gold.Id.Protein>
6NUR|6NUR_protein|mol2

> <Gold.PLP.Fitness>
49.6018

> <Gold.PLP.PLP>
-41.9658

> <Gold.PLP.part.hbond>
-3.0609

> <Gold.PLP.part.metal>
0.0000

> <Gold.PLP.part.buried>
-4.4227

> <Gold.PLP.part.nonpolar>
-37.7093

> <Gold.PLP.part.repulsive>
2.1273

> <Gold.PLP.ligand.clash>
0.0000

> <Gold.PLP.ligand.torsion>
1.1865

> <Gold.PLP.Chemscore.Hbond>
3.2800

> <Gold.PLP.Chemscore.CHOScore>
0.0000

> <Gold.PLP.Chemscore.Metal>
0.0000

> <Gold.PLP.Chemscore.Internal.Correction>
0.1690

> <Gold.Rescore>
     Score         DG    S(hbond)    S(metal)    S(lipo)     H(rot)  DE(clash)    DE(int)     intcor
     16.47     -19.42       1.92        0.00     101.46       1.69       0.61       2.35       ----

> <Gold.Chemscore.Fitness>
16.4679

> <Gold.Chemscore.DG>
-19.4246

> <Gold.Chemscore.ZeroCoef>
-5.4800

> <Gold.Chemscore.Hbond>
1.9201

> <Gold.Chemscore.Metal>
0.0000

> <Gold.Chemscore.Lipo>
101.4581

> <Gold.Chemscore.Internal_Hbond>
0.0000

> <Gold.Chemscore.DEClash>
0.6113

> <Gold.Chemscore.DEInternal>
2.3455

> <Gold.Chemscore.Rot>
1.6949

> <Gold.Chemscore.Internal.Correction>
   9.000000E+99

> <Gold.Chemscore.Hbond.Weighted>
-6.4130

> <Gold.Chemscore.Metal.Weighted>
-0.0000

> <Gold.Chemscore.Lipo.Weighted>
-11.8706

> <Gold.Chemscore.Internal_Hbond.Weighted>
0.0000

> <Gold.Chemscore.DEClash.Weighted>
0.6113

> <Gold.Chemscore.DEInternal.Weighted>
2.3455

> <Gold.Chemscore.Rot.Weighted>
4.3390

> <Gold.Chemscore.Internal.Correction.Weighted>
   9.000000E+99

> <Gold.Protein.RotatedTorsions>
[ 6907 6896 6895 6894 ] final  107.22 input  -60.11 | X-H torsion
[ 7974 7965 7964 7962 ] final  -32.99 input  175.53 | X-H torsion
[ 8008 7997 7996 7995 ] final   31.46 input   59.86 | X-H torsion
[ 10167 10162 10161 10158 ] final -139.58 input  -65.29 | X-H torsion
[ 10718 10713 10712 10709 ] final -169.77 input   66.30 | X-H torsion
[ 10763 10752 10751 10750 ] final   40.14 input  -60.55 | X-H torsion
[ 11005 11000 10999 10996 ] final -118.50 input  -57.11 | X-H torsion

> <Gold.Protein.ActiveResidues>
 VAL166  LYS551  ARG553  GLY616  TRP617  ASP618  TYR619  PRO620  LYS621  CYS622 
 ASP623  PHE694  ASN695  SER759  ASP760  ASP761  ALA762  ILE779  LEU786  VAL792 
 PHE793  MET794  SER795  GLU796  ALA797  LYS798  CYS799  TRP800  GLU811  SER814 

> <Gold.Protein.RotatedAtoms>
  152.5163  133.9266  159.7560 H   0  0  0  0  0  0  0  0  0  0  0  0  # atno 6907 bound_to 6896
  150.9626  133.6420  159.2758 H   0  0  0  0  0  0  0  0  0  0  0  0  # atno 6908 bound_to 6896
  151.3660  135.0919  159.9503 H   0  0  0  0  0  0  0  0  0  0  0  0  # atno 6909 bound_to 6896
  146.0946  140.5860  142.8848 H   0  0  0  0  0  0  0  0  0  0  0  0  # atno 7974 bound_to 7965
  155.1067  140.3235  155.4532 H   0  0  0  0  0  0  0  0  0  0  0  0  # atno 8008 bound_to 7997
  156.2702  140.2051  156.6140 H   0  0  0  0  0  0  0  0  0  0  0  0  # atno 8009 bound_to 7997
  154.6787  140.0528  157.0230 H   0  0  0  0  0  0  0  0  0  0  0  0  # atno 8010 bound_to 7997
  139.8365  143.7378  152.2664 H   0  0  0  0  0  0  0  0  0  0  0  0  # atno 10167 bound_to 10162
  156.7165  130.9253  151.3094 H   0  0  0  0  0  0  0  0  0  0  0  0  # atno 10718 bound_to 10713
  152.9945  135.6200  154.2578 H   0  0  0  0  0  0  0  0  0  0  0  0  # atno 10763 bound_to 10752
  154.2315  135.2792  155.2890 H   0  0  0  0  0  0  0  0  0  0  0  0  # atno 10764 bound_to 10752
  154.5445  135.5751  153.6926 H   0  0  0  0  0  0  0  0  0  0  0  0  # atno 10765 bound_to 10752
  141.0281  134.0023  157.3184 H   0  0  0  0  0  0  0  0  0  0  0  0  # atno 11005 bound_to 11000
  144.7386  140.4878  143.6886 LP  0  0  0  0  0  0  0  0  0  0  0  0  # atno 17320 bound_to 7965
  145.5972  139.1500  143.3149 LP  0  0  0  0  0  0  0  0  0  0  0  0  # atno 17321 bound_to 7965
  139.7601  144.7509  151.0376 LP  0  0  0  0  0  0  0  0  0  0  0  0  # atno 17342 bound_to 10162
  140.7802  143.4760  151.0082 LP  0  0  0  0  0  0  0  0  0  0  0  0  # atno 17343 bound_to 10162
  157.6915  130.9238  150.0527 LP  0  0  0  0  0  0  0  0  0  0  0  0  # atno 17370 bound_to 10713
  156.1624  130.3644  149.9280 LP  0  0  0  0  0  0  0  0  0  0  0  0  # atno 17371 bound_to 10713
  139.9189  135.0199  156.7990 LP  0  0  0  0  0  0  0  0  0  0  0  0  # atno 17394 bound_to 11000
  140.6455  133.9779  155.7729 LP  0  0  0  0  0  0  0  0  0  0  0  0  # atno 17395 bound_to 11000

$$$$
