AV-unprocessed.smi:2462|AV-procd|sdf|9717|dock6
  -GOLD-   2272013353D 1   1.00000     0.00000
 Structure written by MMmdl.
 40 41  0  0  0  0  0  0  0  0  1 V2000
  151.7705  138.4204  154.3920 C   0  0  0  0  0  0  0  0  0  0  0  0
  151.4157  139.4244  155.4741 C   0  0  0  0  0  0  0  0  0  0  0  0
  150.7320  140.5627  155.0409 N   0  0  0  0  0  0  0  0  0  0  0  0
  150.4119  141.4837  155.8896 C   0  0  0  0  0  0  0  0  0  0  0  0
  150.7440  141.3881  157.2525 N   0  0  0  0  0  0  0  0  0  0  0  0
  150.3275  142.5271  158.0997 C   0  0  0  0  0  0  0  0  0  0  0  0
  151.3568  143.6978  158.2048 C   0  0  1  0  0  0  0  0  0  0  0  0
  151.4352  144.2929  156.9227 O   0  0  0  0  0  0  0  0  0  0  0  0
  150.8293  144.8271  159.1234 C   0  0  0  0  0  0  0  0  0  0  0  0
  150.9463  144.4902  160.6207 C   0  0  0  0  0  0  0  0  0  0  0  0
  152.3922  144.1319  161.0078 C   0  0  1  0  0  0  0  0  0  0  0  0
  152.5071  143.7957  162.5012 C   0  0  0  0  0  0  0  0  0  0  0  0
  152.9086  142.9783  160.1299 C   0  0  0  0  0  0  0  0  0  0  0  0
  152.7947  143.3063  158.6309 C   0  0  0  0  0  0  0  0  0  0  0  0
  151.3462  140.2746  157.7675 C   0  0  0  0  0  0  0  0  0  0  0  0
  151.5558  140.1437  158.9743 O   0  0  0  0  0  0  0  0  0  0  0  0
  151.7279  139.2457  156.7861 C   0  0  0  0  0  0  0  0  0  0  0  0
  152.4681  138.0241  157.3172 C   0  0  0  0  0  0  0  0  0  0  0  0
  151.3027  137.4570  154.5965 H   0  0  0  0  0  0  0  0  0  0  0  0
  152.8505  138.2808  154.3398 H   0  0  0  0  0  0  0  0  0  0  0  0
  151.4299  138.7558  153.4115 H   0  0  0  0  0  0  0  0  0  0  0  0
  149.8663  142.3838  155.6024 H   0  0  0  0  0  0  0  0  0  0  0  0
  149.3668  142.9096  157.7482 H   0  0  0  0  0  0  0  0  0  0  0  0
  150.0988  142.1682  159.1024 H   0  0  0  0  0  0  0  0  0  0  0  0
  150.5757  144.6042  156.6834 H   0  0  0  0  0  0  0  0  0  0  0  0
  151.3953  145.7425  158.9421 H   0  0  0  0  0  0  0  0  0  0  0  0
  149.7928  145.0628  158.8772 H   0  0  0  0  0  0  0  0  0  0  0  0
  150.6081  145.3440  161.2088 H   0  0  0  0  0  0  0  0  0  0  0  0
  150.2789  143.6669  160.8755 H   0  0  0  0  0  0  0  0  0  0  0  0
  153.0181  145.0052  160.8186 H   0  0  0  0  0  0  0  0  0  0  0  0
  151.9010  142.9268  162.7600 H   0  0  0  0  0  0  0  0  0  0  0  0
  152.1734  144.6303  163.1183 H   0  0  0  0  0  0  0  0  0  0  0  0
  153.5391  143.5748  162.7757 H   0  0  0  0  0  0  0  0  0  0  0  0
  153.9497  142.7646  160.3737 H   0  0  0  0  0  0  0  0  0  0  0  0
  152.3531  142.0720  160.3597 H   0  0  0  0  0  0  0  0  0  0  0  0
  153.1733  142.4761  158.0344 H   0  0  0  0  0  0  0  0  0  0  0  0
  153.4670  144.1403  158.4231 H   0  0  0  0  0  0  0  0  0  0  0  0
  153.3949  138.3289  157.8043 H   0  0  0  0  0  0  0  0  0  0  0  0
  152.7272  137.3069  156.5401 H   0  0  0  0  0  0  0  0  0  0  0  0
  151.8547  137.5027  158.0527 H   0  0  0  0  0  0  0  0  0  0  0  0
  1  2  1  0  0  0  0
  1 19  1  0  0  0  0
  1 20  1  0  0  0  0
  1 21  1  0  0  0  0
  2 17  2  0  0  0  0
  2  3  1  0  0  0  0
  3  4  2  0  0  0  0
  4  5  1  0  0  0  0
  4 22  1  0  0  0  0
  5  6  1  0  0  0  0
  5 15  1  0  0  0  0
  6  7  1  0  0  0  0
  6 23  1  0  0  0  0
  6 24  1  0  0  0  0
  7 14  1  0  0  0  0
  7  8  1  0  0  0  0
  7  9  1  0  0  0  0
  8 25  1  0  0  0  0
  9 10  1  0  0  0  0
  9 26  1  0  0  0  0
  9 27  1  0  0  0  0
 10 11  1  0  0  0  0
 10 28  1  0  0  0  0
 10 29  1  0  0  0  0
 11 12  1  0  0  0  0
 11 13  1  0  0  0  0
 11 30  1  0  0  0  0
 12 31  1  0  0  0  0
 12 32  1  0  0  0  0
 12 33  1  0  0  0  0
 13 14  1  0  0  0  0
 13 34  1  0  0  0  0
 13 35  1  0  0  0  0
 14 36  1  0  0  0  0
 14 37  1  0  0  0  0
 15 16  2  0  0  0  0
 15 17  1  0  0  0  0
 17 18  1  0  0  0  0
 18 38  1  0  0  0  0
 18 39  1  0  0  0  0
 18 40  1  0  0  0  0
M  END
> <s_m_source_file>
AV-unprocessed.smi

> <i_m_source_file_index>
2462

> <i_lp_mmshare_version>
43012

> <i_f3d_flags>
0

> <s_epik_input>
W0NIM11jMW5bY0hdbihjKD1PKWMxW0NIM10pW0NIMl1bQ0BAXTIoW09IXSlbQ0gyXVtDSDJdW0NAQEhdKFtDSDNdKVtDSDJdW0NIMl0y

> <s_epik_cmdline>
J2VwaWtfcHl0aG9uJywgJy1waCcsICc3LjAnLCAnLXRuJywgJzgnLCAnLW1hJywgJzIwMCcsICctbWV0YWxfYmluZGluZycsICctaW1hZScsICc8aW5maWxlLm1hZT4nLCAnLW9tYWUnLCAnPG91dGZpbGUubWFlPic=

> <r_lp_tautomer_probability>
1

> <r_epik_Ionization_Penalty>
0.000179745

> <r_epik_Ionization_Penalty_Charging>
2.35483e-07

> <r_epik_Ionization_Penalty_Neutral>
0.00017951

> <r_epik_State_Penalty>
-0

> <r_epik_Charging_Adjusted_Penalty>
2.35483e-07

> <i_epik_Tot_Q>
0

> <i_epik_Tot_abs_Q>
0

> <r_epik_Metal_State_Penalty>
-0

> <b_epik_Metal_Only>
0

> <s_lp_Force_Field>
OPLS_2005

> <r_lp_Energy>
24.5365

> <b_lp_Chiralities_Consistent>
1

> <s_lp_Variant>
AV-unprocessed.smi:2462-1

> <Gold.Version>
5.8.1

> <Gold.Id.Protein>
6NUR|6NUR_protein|mol2

> <Gold.PLP.Fitness>
49.6666

> <Gold.PLP.PLP>
-41.4014

> <Gold.PLP.part.hbond>
-2.0000

> <Gold.PLP.part.metal>
0.0000

> <Gold.PLP.part.buried>
-5.0268

> <Gold.PLP.part.nonpolar>
-34.2870

> <Gold.PLP.part.repulsive>
0.0672

> <Gold.PLP.ligand.clash>
0.0000

> <Gold.PLP.ligand.torsion>
0.3878

> <Gold.PLP.Chemscore.Hbond>
1.9920

> <Gold.PLP.Chemscore.CHOScore>
0.9956

> <Gold.PLP.Chemscore.Metal>
0.0000

> <Gold.Chemscore.Hbonds>
donor molecule, donor type, donor heavy atom, donor atom, acceptor molecule, acceptor atom, score
      L1  H     8    25       P1  8028  1.00
      P1  H  7989  7998       L1     3  0.99
      L1  C     4    22       P1  8028  1.00

> <Gold.PLP.Chemscore.Internal.Correction>
0.0780

> <Gold.Rescore>
     Score         DG    S(hbond)    S(metal)    S(lipo)     H(rot)  DE(clash)    DE(int)     intcor
     19.83     -20.29       1.84        0.00     110.75       1.68       0.11       0.34       ----

> <Gold.Chemscore.Fitness>
19.8331

> <Gold.Chemscore.DG>
-20.2873

> <Gold.Chemscore.ZeroCoef>
-5.4800

> <Gold.Chemscore.Hbond>
1.8381

> <Gold.Chemscore.Metal>
0.0000

> <Gold.Chemscore.Lipo>
110.7528

> <Gold.Chemscore.Internal_Hbond>
0.0000

> <Gold.Chemscore.DEClash>
0.1136

> <Gold.Chemscore.DEInternal>
0.3406

> <Gold.Chemscore.Rot>
1.6758

> <Gold.Chemscore.Internal.Correction>
   9.000000E+99

> <Gold.Chemscore.Hbonds>
donor molecule, donor type, donor heavy atom, donor atom, acceptor molecule, acceptor atom, score
      L1  H     8    25       P1  8028  0.93
      P1  H  7989  7998       L1     3  0.24

> <Gold.Chemscore.Hbond.Weighted>
-6.1392

> <Gold.Chemscore.Metal.Weighted>
-0.0000

> <Gold.Chemscore.Lipo.Weighted>
-12.9581

> <Gold.Chemscore.Internal_Hbond.Weighted>
0.0000

> <Gold.Chemscore.DEClash.Weighted>
0.1136

> <Gold.Chemscore.DEInternal.Weighted>
0.3406

> <Gold.Chemscore.Rot.Weighted>
4.2899

> <Gold.Chemscore.Internal.Correction.Weighted>
   9.000000E+99

> <Gold.Protein.RotatedTorsions>
[ 6907 6896 6895 6894 ] final  -31.44 input  -60.11 | X-H torsion
[ 7974 7965 7964 7962 ] final   48.39 input  175.53 | X-H torsion
[ 8008 7997 7996 7995 ] final   41.91 input   59.86 | X-H torsion
[ 10167 10162 10161 10158 ] final   63.05 input  -65.29 | X-H torsion
[ 10718 10713 10712 10709 ] final  111.03 input   66.30 | X-H torsion
[ 10763 10752 10751 10750 ] final  -52.05 input  -60.55 | X-H torsion
[ 11005 11000 10999 10996 ] final   19.24 input  -57.11 | X-H torsion

> <Gold.Protein.ActiveResidues>
 VAL166  LYS551  ARG553  GLY616  TRP617  ASP618  TYR619  PRO620  LYS621  CYS622 
 ASP623  PHE694  ASN695  SER759  ASP760  ASP761  ALA762  ILE779  LEU786  VAL792 
 PHE793  MET794  SER795  GLU796  ALA797  LYS798  CYS799  TRP800  GLU811  SER814 

> <Gold.Protein.RotatedAtoms>
  151.0920  134.9922  159.8407 H   0  0  0  0  0  0  0  0  0  0  0  0  # atno 6907 bound_to 6896
  152.5430  134.2053  159.8738 H   0  0  0  0  0  0  0  0  0  0  0  0  # atno 6908 bound_to 6896
  151.2090  133.4523  159.2631 H   0  0  0  0  0  0  0  0  0  0  0  0  # atno 6909 bound_to 6896
  146.0208  139.4649  142.9898 H   0  0  0  0  0  0  0  0  0  0  0  0  # atno 7974 bound_to 7965
  155.2774  140.3370  155.4261 H   0  0  0  0  0  0  0  0  0  0  0  0  # atno 8008 bound_to 7997
  156.2105  140.1768  156.7746 H   0  0  0  0  0  0  0  0  0  0  0  0  # atno 8009 bound_to 7997
  154.5680  140.0675  156.8906 H   0  0  0  0  0  0  0  0  0  0  0  0  # atno 8010 bound_to 7997
  140.1372  144.4587  150.6831 H   0  0  0  0  0  0  0  0  0  0  0  0  # atno 10167 bound_to 10162
  157.6465  131.0943  150.6688 H   0  0  0  0  0  0  0  0  0  0  0  0  # atno 10718 bound_to 10713
  154.1365  135.6512  153.4933 H   0  0  0  0  0  0  0  0  0  0  0  0  # atno 10763 bound_to 10752
  153.0179  135.5305  154.6948 H   0  0  0  0  0  0  0  0  0  0  0  0  # atno 10764 bound_to 10752
  154.6198  135.2963  155.0310 H   0  0  0  0  0  0  0  0  0  0  0  0  # atno 10765 bound_to 10752
  140.4158  134.1570  155.7670 H   0  0  0  0  0  0  0  0  0  0  0  0  # atno 11005 bound_to 11000
  145.7196  141.0079  143.1410 LP  0  0  0  0  0  0  0  0  0  0  0  0  # atno 17320 bound_to 7965
  144.6989  139.8854  143.7450 LP  0  0  0  0  0  0  0  0  0  0  0  0  # atno 17321 bound_to 7965
  140.6782  143.2314  151.5453 LP  0  0  0  0  0  0  0  0  0  0  0  0  # atno 17342 bound_to 10162
  139.5490  144.2446  152.1495 LP  0  0  0  0  0  0  0  0  0  0  0  0  # atno 17343 bound_to 10162
  156.7005  130.4622  149.5574 LP  0  0  0  0  0  0  0  0  0  0  0  0  # atno 17370 bound_to 10713
  156.1799  130.6492  151.0938 LP  0  0  0  0  0  0  0  0  0  0  0  0  # atno 17371 bound_to 10713
  141.1803  133.8427  157.1280 LP  0  0  0  0  0  0  0  0  0  0  0  0  # atno 17394 bound_to 11000
  140.0235  134.9935  157.0639 LP  0  0  0  0  0  0  0  0  0  0  0  0  # atno 17395 bound_to 11000

$$$$
