AV-unprocessed.smi:1402|AV-procd|sdf|5696|dock9
  -GOLD-   22720 5323D 1   1.00000     0.00000
 Structure written by MMmdl.
 44 45  0  0  0  0  0  0  0  0  1 V2000
  146.6117  129.7999  152.8176 C   0  0  0  0  0  0  0  0  0  0  0  0
  147.5038  130.9226  153.2573 C   0  0  0  0  0  0  0  0  0  0  0  0
  147.3686  132.3130  152.9761 C   0  0  0  0  0  0  0  0  0  0  0  0
  148.4530  132.8558  153.6098 C   0  0  0  0  0  0  0  0  0  0  0  0
  148.8292  134.1603  153.6805 N   0  0  0  0  0  0  0  0  0  0  0  0
  149.2788  134.8437  154.7472 C   0  0  0  0  0  0  0  0  0  0  0  0
  149.4682  134.3706  155.8682 O   0  0  0  0  0  0  0  0  0  0  0  0
  149.4849  136.1333  154.4435 N   0  0  0  0  0  0  0  0  0  0  0  0
  149.8735  137.1640  155.3995 C   0  0  0  0  0  0  0  0  0  0  0  0
  150.9158  138.1275  154.7947 C   0  0  0  0  0  0  0  0  0  0  0  0
  150.6180  139.5278  155.1178 N   0  0  0  0  0  0  0  0  0  0  0  0
  149.3636  140.0655  154.5688 C   0  0  0  0  0  0  0  0  0  0  0  0
  148.2734  140.3174  155.6361 C   0  0  0  0  0  0  0  0  0  0  0  0
  148.7733  140.6999  157.0435 C   0  0  0  0  0  0  0  0  0  0  0  0
  149.7825  141.8669  157.0841 C   0  0  0  0  0  0  0  0  0  0  0  0
  151.0455  141.7209  156.2012 C   0  0  0  0  0  0  0  0  0  0  0  0
  151.4439  140.2676  155.8978 C   0  0  0  0  0  0  0  0  0  0  0  0
  152.4897  139.8282  156.3762 O   0  0  0  0  0  0  0  0  0  0  0  0
  149.1587  131.8458  154.2283 N   0  0  0  0  0  0  0  0  0  0  0  0
  150.3715  131.8995  155.0217 C   0  0  0  0  0  0  0  0  0  0  0  0
  148.5689  130.6521  154.0034 N   0  0  0  0  0  0  0  0  0  0  0  0
  145.7587  130.1727  152.2503 H   0  0  0  0  0  0  0  0  0  0  0  0
  146.2246  129.2464  153.6732 H   0  0  0  0  0  0  0  0  0  0  0  0
  147.1512  129.0979  152.1816 H   0  0  0  0  0  0  0  0  0  0  0  0
  146.5986  132.8082  152.4037 H   0  0  0  0  0  0  0  0  0  0  0  0
  148.6941  134.6941  152.8346 H   0  0  0  0  0  0  0  0  0  0  0  0
  149.3113  136.4342  153.4956 H   0  0  0  0  0  0  0  0  0  0  0  0
  149.0082  137.6993  155.7955 H   0  0  0  0  0  0  0  0  0  0  0  0
  150.3162  136.6524  156.2545 H   0  0  0  0  0  0  0  0  0  0  0  0
  151.9045  137.8732  155.1791 H   0  0  0  0  0  0  0  0  0  0  0  0
  151.0049  137.9912  153.7149 H   0  0  0  0  0  0  0  0  0  0  0  0
  149.5760  140.9917  154.0345 H   0  0  0  0  0  0  0  0  0  0  0  0
  148.9640  139.4053  153.7980 H   0  0  0  0  0  0  0  0  0  0  0  0
  147.5935  141.0871  155.2688 H   0  0  0  0  0  0  0  0  0  0  0  0
  147.6693  139.4148  155.7333 H   0  0  0  0  0  0  0  0  0  0  0  0
  147.9133  140.9559  157.6630 H   0  0  0  0  0  0  0  0  0  0  0  0
  149.2127  139.8231  157.5212 H   0  0  0  0  0  0  0  0  0  0  0  0
  149.2694  142.7879  156.8052 H   0  0  0  0  0  0  0  0  0  0  0  0
  150.0952  142.0096  158.1191 H   0  0  0  0  0  0  0  0  0  0  0  0
  150.9091  142.2527  155.2599 H   0  0  0  0  0  0  0  0  0  0  0  0
  151.8816  142.2262  156.6867 H   0  0  0  0  0  0  0  0  0  0  0  0
  150.7071  132.9290  155.1453 H   0  0  0  0  0  0  0  0  0  0  0  0
  151.1586  131.3305  154.5260 H   0  0  0  0  0  0  0  0  0  0  0  0
  150.1865  131.4694  156.0063 H   0  0  0  0  0  0  0  0  0  0  0  0
  1  2  1  0  0  0  0
  1 22  1  0  0  0  0
  1 23  1  0  0  0  0
  1 24  1  0  0  0  0
  2 21  2  0  0  0  0
  2  3  1  0  0  0  0
  3  4  2  0  0  0  0
  3 25  1  0  0  0  0
  4  5  1  0  0  0  0
  4 19  1  0  0  0  0
  5  6  1  0  0  0  0
  5 26  1  0  0  0  0
  6  7  2  0  0  0  0
  6  8  1  0  0  0  0
  8  9  1  0  0  0  0
  8 27  1  0  0  0  0
  9 10  1  0  0  0  0
  9 28  1  0  0  0  0
  9 29  1  0  0  0  0
 10 11  1  0  0  0  0
 10 30  1  0  0  0  0
 10 31  1  0  0  0  0
 11 17  1  0  0  0  0
 11 12  1  0  0  0  0
 12 13  1  0  0  0  0
 12 32  1  0  0  0  0
 12 33  1  0  0  0  0
 13 14  1  0  0  0  0
 13 34  1  0  0  0  0
 13 35  1  0  0  0  0
 14 15  1  0  0  0  0
 14 36  1  0  0  0  0
 14 37  1  0  0  0  0
 15 16  1  0  0  0  0
 15 38  1  0  0  0  0
 15 39  1  0  0  0  0
 16 17  1  0  0  0  0
 16 40  1  0  0  0  0
 16 41  1  0  0  0  0
 17 18  2  0  0  0  0
 19 20  1  0  0  0  0
 19 21  1  0  0  0  0
 20 42  1  0  0  0  0
 20 43  1  0  0  0  0
 20 44  1  0  0  0  0
M  END
> <s_m_source_file>
AV-unprocessed.smi

> <i_m_source_file_index>
1402

> <i_lp_mmshare_version>
43012

> <i_f3d_flags>
0

> <s_epik_input>
W0NIM11jMVtjSF1jKG4objEpW0NIM10pW05IXUMoPU8pW05IXVtDSDJdW0NIMl1OMltDSDJdW0NIMl1bQ0gyXVtDSDJdW0NIMl1DMj1P

> <s_epik_cmdline>
J2VwaWtfcHl0aG9uJywgJy1waCcsICc3LjAnLCAnLXRuJywgJzgnLCAnLW1hJywgJzIwMCcsICctbWV0YWxfYmluZGluZycsICctaW1hZScsICc8aW5maWxlLm1hZT4nLCAnLW9tYWUnLCAnPG91dGZpbGUubWFlPic=

> <r_lp_tautomer_probability>
1

> <r_epik_Ionization_Penalty>
9.00432e-05

> <r_epik_Ionization_Penalty_Charging>
0

> <r_epik_Ionization_Penalty_Neutral>
9.00432e-05

> <r_epik_State_Penalty>
-0

> <r_epik_Charging_Adjusted_Penalty>
0

> <i_epik_Tot_Q>
0

> <i_epik_Tot_abs_Q>
0

> <r_epik_Metal_State_Penalty>
-0

> <b_epik_Metal_Only>
0

> <s_lp_Force_Field>
OPLS_2005

> <r_lp_Energy>
25.7606

> <b_lp_Chiralities_Consistent>
1

> <s_lp_Variant>
AV-unprocessed.smi:1402-1

> <Gold.Version>
5.8.1

> <Gold.Id.Protein>
6NUR|6NUR_protein|mol2

> <Gold.PLP.Fitness>
42.1656

> <Gold.PLP.PLP>
-35.2333

> <Gold.PLP.part.hbond>
-3.0000

> <Gold.PLP.part.metal>
0.0000

> <Gold.PLP.part.buried>
-3.3668

> <Gold.PLP.part.nonpolar>
-27.7584

> <Gold.PLP.part.repulsive>
0.1235

> <Gold.PLP.ligand.clash>
0.0000

> <Gold.PLP.ligand.torsion>
0.8156

> <Gold.PLP.Chemscore.Hbond>
2.8500

> <Gold.PLP.Chemscore.CHOScore>
0.0000

> <Gold.PLP.Chemscore.Metal>
0.0000

> <Gold.Chemscore.Hbonds>
donor molecule, donor type, donor heavy atom, donor atom, acceptor molecule, acceptor atom, score
      L1  H     5    26       P1  7948  0.85
      L1  H     8    27       P1  7948  1.00
      P1  H  7997  8010       L1    18  1.00

> <Gold.PLP.Chemscore.Internal.Correction>
0.0134

> <Gold.Rescore>
     Score         DG    S(hbond)    S(metal)    S(lipo)     H(rot)  DE(clash)    DE(int)     intcor
     15.20     -16.72       2.67        0.00      53.70       1.54       0.53       0.99       ----

> <Gold.Chemscore.Fitness>
15.1991

> <Gold.Chemscore.DG>
-16.7202

> <Gold.Chemscore.ZeroCoef>
-5.4800

> <Gold.Chemscore.Hbond>
2.6652

> <Gold.Chemscore.Metal>
0.0000

> <Gold.Chemscore.Lipo>
53.6969

> <Gold.Chemscore.Internal_Hbond>
0.0000

> <Gold.Chemscore.DEClash>
0.5301

> <Gold.Chemscore.DEInternal>
0.9910

> <Gold.Chemscore.Rot>
1.5407

> <Gold.Chemscore.Internal.Correction>
   9.000000E+99

> <Gold.Chemscore.Hbonds>
donor molecule, donor type, donor heavy atom, donor atom, acceptor molecule, acceptor atom, score
      L1  H     5    26       P1  7948  0.14
      L1  H     8    27       P1  7948  0.86
      P1  H  7997  8010       L1    18  0.99

> <Gold.Chemscore.Hbond.Weighted>
-8.9018

> <Gold.Chemscore.Metal.Weighted>
-0.0000

> <Gold.Chemscore.Lipo.Weighted>
-6.2825

> <Gold.Chemscore.Internal_Hbond.Weighted>
0.0000

> <Gold.Chemscore.DEClash.Weighted>
0.5301

> <Gold.Chemscore.DEInternal.Weighted>
0.9910

> <Gold.Chemscore.Rot.Weighted>
3.9441

> <Gold.Chemscore.Internal.Correction.Weighted>
   9.000000E+99

> <Gold.Protein.RotatedTorsions>
[ 6907 6896 6895 6894 ] final  -19.80 input  -60.11 | X-H torsion
[ 7974 7965 7964 7962 ] final  -97.35 input  175.53 | X-H torsion
[ 8008 7997 7996 7995 ] final   63.84 input   59.86 | X-H torsion
[ 10167 10162 10161 10158 ] final  -41.09 input  -65.29 | X-H torsion
[ 10718 10713 10712 10709 ] final -159.87 input   66.30 | X-H torsion
[ 10763 10752 10751 10750 ] final  137.83 input  -60.55 | X-H torsion
[ 11005 11000 10999 10996 ] final  -23.96 input  -57.11 | X-H torsion

> <Gold.Protein.ActiveResidues>
 VAL166  LYS551  ARG553  GLY616  TRP617  ASP618  TYR619  PRO620  LYS621  CYS622 
 ASP623  PHE694  ASN695  SER759  ASP760  ASP761  ALA762  ILE779  LEU786  VAL792 
 PHE793  MET794  SER795  GLU796  ALA797  LYS798  CYS799  TRP800  GLU811  SER814 

> <Gold.Protein.RotatedAtoms>
  151.2576  135.0643  159.9085 H   0  0  0  0  0  0  0  0  0  0  0  0  # atno 6907 bound_to 6896
  152.5371  134.0265  159.8015 H   0  0  0  0  0  0  0  0  0  0  0  0  # atno 6908 bound_to 6896
  151.0483  133.5597  159.2676 H   0  0  0  0  0  0  0  0  0  0  0  0  # atno 6909 bound_to 6896
  145.3349  140.9448  143.2641 H   0  0  0  0  0  0  0  0  0  0  0  0  # atno 7974 bound_to 7965
  155.6366  140.3496  155.4701 H   0  0  0  0  0  0  0  0  0  0  0  0  # atno 8008 bound_to 7997
  155.9960  140.1203  157.0617 H   0  0  0  0  0  0  0  0  0  0  0  0  # atno 8009 bound_to 7997
  154.4233  140.1110  156.5617 H   0  0  0  0  0  0  0  0  0  0  0  0  # atno 8010 bound_to 7997
  140.7013  143.3115  151.3017 H   0  0  0  0  0  0  0  0  0  0  0  0  # atno 10167 bound_to 10162
  156.5741  130.8701  151.2846 H   0  0  0  0  0  0  0  0  0  0  0  0  # atno 10718 bound_to 10713
  153.8795  135.3046  155.3445 H   0  0  0  0  0  0  0  0  0  0  0  0  # atno 10763 bound_to 10752
  154.7768  135.4857  153.9764 H   0  0  0  0  0  0  0  0  0  0  0  0  # atno 10764 bound_to 10752
  153.1359  135.6814  153.9200 H   0  0  0  0  0  0  0  0  0  0  0  0  # atno 10765 bound_to 10752
  140.8800  133.7660  156.0291 H   0  0  0  0  0  0  0  0  0  0  0  0  # atno 11005 bound_to 11000
  144.8835  139.4871  143.6711 LP  0  0  0  0  0  0  0  0  0  0  0  0  # atno 17320 bound_to 7965
  146.3031  139.7490  142.9076 LP  0  0  0  0  0  0  0  0  0  0  0  0  # atno 17321 bound_to 7965
  139.6539  144.0312  152.2646 LP  0  0  0  0  0  0  0  0  0  0  0  0  # atno 17342 bound_to 10162
  139.9857  144.6397  150.7859 LP  0  0  0  0  0  0  0  0  0  0  0  0  # atno 17343 bound_to 10162
  157.7341  130.9741  150.2013 LP  0  0  0  0  0  0  0  0  0  0  0  0  # atno 17370 bound_to 10713
  156.2688  130.3719  149.8053 LP  0  0  0  0  0  0  0  0  0  0  0  0  # atno 17371 bound_to 10713
  140.8472  134.2997  157.5290 LP  0  0  0  0  0  0  0  0  0  0  0  0  # atno 17394 bound_to 11000
  139.8719  134.9448  156.3892 LP  0  0  0  0  0  0  0  0  0  0  0  0  # atno 17395 bound_to 11000

$$$$
