AV-unprocessed.smi:2528|AV-procd|sdf|9952|dock2
  -GOLD-   2272013593D 1   1.00000     0.00000
 Structure written by MMmdl.
 44 46  0  0  0  0  0  0  0  0  2 V2000
  144.4021  136.6165  152.4581 O   0  0  0  0  0  0  0  0  0  0  0  0
  145.6165  136.4312  152.3768 C   0  0  0  0  0  0  0  0  0  0  0  0
  146.5276  137.2968  152.8447 N   0  0  0  0  0  0  0  0  0  0  0  0
  146.2212  138.5586  153.5098 C   0  0  0  0  0  0  0  0  0  0  0  0
  147.4097  139.5352  153.4608 C   0  0  2  0  0  0  0  0  0  0  0  0
  148.6737  138.9237  154.0925 C   0  0  0  0  0  0  0  0  0  0  0  0
  149.7853  139.9068  154.0967 N   0  3  2  0  0  0  0  0  0  0  0  0
  151.0602  139.3704  154.6407 C   0  0  0  0  0  0  0  0  0  0  0  0
  151.0335  139.2492  156.1766 C   0  0  0  0  0  0  0  0  0  0  0  0
  150.6573  140.5862  156.8293 C   0  0  0  0  0  0  0  0  0  0  0  0
  149.3336  141.1094  156.2537 C   0  0  0  0  0  0  0  0  0  0  0  0
  149.3962  141.2052  154.7134 C   0  0  2  0  0  0  0  0  0  0  0  0
  148.0792  141.7133  154.0956 C   0  0  0  0  0  0  0  0  0  0  0  0
  147.0744  140.7119  154.1891 O   0  0  0  0  0  0  0  0  0  0  0  0
  146.2054  135.3600  151.8167 N   0  0  0  0  0  0  0  0  0  0  0  0
  145.5854  134.2289  151.2222 C   0  0  0  0  0  0  0  0  0  0  0  0
  146.4762  133.2560  150.7144 C   0  0  0  0  0  0  0  0  0  0  0  0
  145.9609  132.0944  150.1075 C   0  0  0  0  0  0  0  0  0  0  0  0
  144.5661  131.9358  150.0227 C   0  0  0  0  0  0  0  0  0  0  0  0
  143.7496  132.9520  150.5523 C   0  0  0  0  0  0  0  0  0  0  0  0
  144.2414  134.0661  151.1346 N   0  0  0  0  0  0  0  0  0  0  0  0
  147.5041  137.0638  152.7381 H   0  0  0  0  0  0  0  0  0  0  0  0
  145.3265  139.0162  153.0840 H   0  0  0  0  0  0  0  0  0  0  0  0
  145.9813  138.3260  154.5477 H   0  0  0  0  0  0  0  0  0  0  0  0
  147.6112  139.7943  152.4193 H   0  0  0  0  0  0  0  0  0  0  0  0
  148.4555  138.5918  155.1076 H   0  0  0  0  0  0  0  0  0  0  0  0
  148.9779  138.0401  153.5300 H   0  0  0  0  0  0  0  0  0  0  0  0
  151.2841  138.4053  154.1845 H   0  0  0  0  0  0  0  0  0  0  0  0
  151.8663  140.0432  154.3456 H   0  0  0  0  0  0  0  0  0  0  0  0
  150.3251  138.4786  156.4812 H   0  0  0  0  0  0  0  0  0  0  0  0
  152.0092  138.9237  156.5387 H   0  0  0  0  0  0  0  0  0  0  0  0
  150.5776  140.4683  157.9104 H   0  0  0  0  0  0  0  0  0  0  0  0
  151.4482  141.3164  156.6532 H   0  0  0  0  0  0  0  0  0  0  0  0
  148.5156  140.4577  156.5627 H   0  0  0  0  0  0  0  0  0  0  0  0
  149.1154  142.0901  156.6779 H   0  0  0  0  0  0  0  0  0  0  0  0
  150.1755  141.9263  154.4624 H   0  0  0  0  0  0  0  0  0  0  0  0
  147.7371  142.6113  154.6109 H   0  0  0  0  0  0  0  0  0  0  0  0
  148.2254  141.9906  153.0504 H   0  0  0  0  0  0  0  0  0  0  0  0
  147.2144  135.3479  151.8221 H   0  0  0  0  0  0  0  0  0  0  0  0
  147.5453  133.3936  150.7874 H   0  0  0  0  0  0  0  0  0  0  0  0
  146.6250  131.3389  149.7139 H   0  0  0  0  0  0  0  0  0  0  0  0
  144.1332  131.0588  149.5649 H   0  0  0  0  0  0  0  0  0  0  0  0
  142.6738  132.8689  150.5080 H   0  0  0  0  0  0  0  0  0  0  0  0
  149.9627  140.1066  153.1225 H   0  0  0  0  0  0  0  0  0  0  0  0
  1  2  2  0  0  0  0
  2  3  1  0  0  0  0
  2 15  1  0  0  0  0
  3  4  1  0  0  0  0
  3 22  1  0  0  0  0
  4  5  1  0  0  0  0
  4 23  1  0  0  0  0
  4 24  1  0  0  0  0
  5 14  1  0  0  0  0
  5  6  1  0  0  0  0
  5 25  1  0  0  0  0
  6  7  1  0  0  0  0
  6 26  1  0  0  0  0
  6 27  1  0  0  0  0
  7 12  1  0  0  0  0
  7  8  1  0  0  0  0
  7 44  1  0  0  0  0
  8  9  1  0  0  0  0
  8 28  1  0  0  0  0
  8 29  1  0  0  0  0
  9 10  1  0  0  0  0
  9 30  1  0  0  0  0
  9 31  1  0  0  0  0
 10 11  1  0  0  0  0
 10 32  1  0  0  0  0
 10 33  1  0  0  0  0
 11 12  1  0  0  0  0
 11 34  1  0  0  0  0
 11 35  1  0  0  0  0
 12 13  1  0  0  0  0
 12 36  1  0  0  0  0
 13 14  1  0  0  0  0
 13 37  1  0  0  0  0
 13 38  1  0  0  0  0
 15 16  1  0  0  0  0
 15 39  1  0  0  0  0
 16 21  1  0  0  0  0
 16 17  2  0  0  0  0
 17 18  1  0  0  0  0
 17 40  1  0  0  0  0
 18 19  2  0  0  0  0
 18 41  1  0  0  0  0
 19 20  1  0  0  0  0
 19 42  1  0  0  0  0
 20 21  2  0  0  0  0
 20 43  1  0  0  0  0
M  CHG  1   7   1
M  END
> <s_m_source_file>
AV-unprocessed.smi

> <i_m_source_file_index>
2528

> <i_lp_mmshare_version>
43012

> <i_f3d_flags>
0

> <s_epik_input>
bjFbY0hdW2NIXVtjSF1bY0hdYzFbTkhdQyg9TylbTkhdW0NIMl1bQ0BIXShbQ0gyXTIpT1tDSDJdW0NAQEhdKE4yMylbQ0gyXVtDSDJdW0NIMl1bQ0gyXTM=

> <s_epik_cmdline>
J2VwaWtfcHl0aG9uJywgJy1waCcsICc3LjAnLCAnLXRuJywgJzgnLCAnLW1hJywgJzIwMCcsICctbWV0YWxfYmluZGluZycsICctaW1hZScsICc8aW5maWxlLm1hZT4nLCAnLW9tYWUnLCAnPG91dGZpbGUubWFlPic=

> <r_epik_Ionization_Penalty>
0.0932337

> <r_epik_Ionization_Penalty_Charging>
0.0931942

> <r_epik_Ionization_Penalty_Neutral>
3.9565e-05

> <r_epik_State_Penalty>
0.0834605

> <r_epik_Charging_Adjusted_Penalty>
0.176655

> <i_epik_Tot_Q>
1

> <i_epik_Tot_abs_Q>
1

> <r_epik_Metal_State_Penalty>
0.0834607

> <b_epik_Metal_Only>
0

> <s_lp_Force_Field>
OPLS_2005

> <r_lp_Energy>
26.7446

> <b_lp_Chiralities_Consistent>
1

> <s_lp_Variant>
AV-unprocessed.smi:2528-5

> <Gold.Version>
5.8.1

> <Gold.Id.Protein>
6NUR|6NUR_protein|mol2

> <Gold.PLP.Fitness>
49.1557

> <Gold.PLP.PLP>
-37.4596

> <Gold.PLP.part.hbond>
-3.0000

> <Gold.PLP.part.metal>
0.0000

> <Gold.PLP.part.buried>
-3.1953

> <Gold.PLP.part.nonpolar>
-32.4055

> <Gold.PLP.part.repulsive>
1.2585

> <Gold.PLP.ligand.clash>
0.0000

> <Gold.PLP.ligand.torsion>
0.1532

> <Gold.PLP.Chemscore.Hbond>
3.0000

> <Gold.PLP.Chemscore.CHOScore>
1.0000

> <Gold.PLP.Chemscore.Metal>
0.0000

> <Gold.Chemscore.Hbonds>
donor molecule, donor type, donor heavy atom, donor atom, acceptor molecule, acceptor atom, score
      L1  H     3    22       P1  7948  1.00
      L1  H     7    44       P1  7957  1.00
      L1  H    15    39       P1  7948  1.00
      L1  C    20    43       P1 10186  1.00

> <Gold.PLP.Chemscore.Internal.Correction>
0.0025

> <Gold.Rescore>
     Score         DG    S(hbond)    S(metal)    S(lipo)     H(rot)  DE(clash)    DE(int)     intcor
     21.43     -22.92       2.92        0.00      93.93       1.29       0.10       1.39       ----

> <Gold.Chemscore.Fitness>
21.4255

> <Gold.Chemscore.DG>
-22.9226

> <Gold.Chemscore.ZeroCoef>
-5.4800

> <Gold.Chemscore.Hbond>
2.9184

> <Gold.Chemscore.Metal>
0.0000

> <Gold.Chemscore.Lipo>
93.9323

> <Gold.Chemscore.Internal_Hbond>
0.0000

> <Gold.Chemscore.DEClash>
0.1042

> <Gold.Chemscore.DEInternal>
1.3929

> <Gold.Chemscore.Rot>
1.2870

> <Gold.Chemscore.Internal.Correction>
   9.000000E+99

> <Gold.Chemscore.Hbonds>
donor molecule, donor type, donor heavy atom, donor atom, acceptor molecule, acceptor atom, score
      L1  H     3    22       P1  7948  0.97
      L1  H     7    44       P1  7957  0.95
      L1  H    15    39       P1  7948  0.96

> <Gold.Chemscore.Hbond.Weighted>
-9.7474

> <Gold.Chemscore.Metal.Weighted>
-0.0000

> <Gold.Chemscore.Lipo.Weighted>
-10.9901

> <Gold.Chemscore.Internal_Hbond.Weighted>
0.0000

> <Gold.Chemscore.DEClash.Weighted>
0.1042

> <Gold.Chemscore.DEInternal.Weighted>
1.3929

> <Gold.Chemscore.Rot.Weighted>
3.2948

> <Gold.Chemscore.Internal.Correction.Weighted>
   9.000000E+99

> <Gold.Protein.RotatedTorsions>
[ 6907 6896 6895 6894 ] final  102.23 input  -60.11 | X-H torsion
[ 7974 7965 7964 7962 ] final  -16.68 input  175.53 | X-H torsion
[ 8008 7997 7996 7995 ] final   59.93 input   59.86 | X-H torsion
[ 10167 10162 10161 10158 ] final   23.19 input  -65.29 | X-H torsion
[ 10718 10713 10712 10709 ] final  -36.67 input   66.30 | X-H torsion
[ 10763 10752 10751 10750 ] final -128.03 input  -60.55 | X-H torsion
[ 11005 11000 10999 10996 ] final    1.09 input  -57.11 | X-H torsion

> <Gold.Protein.ActiveResidues>
 VAL166  LYS551  ARG553  GLY616  TRP617  ASP618  TYR619  PRO620  LYS621  CYS622 
 ASP623  PHE694  ASN695  SER759  ASP760  ASP761  ALA762  ILE779  LEU786  VAL792 
 PHE793  MET794  SER795  GLU796  ALA797  LYS798  CYS799  TRP800  GLU811  SER814 

> <Gold.Protein.RotatedAtoms>
  152.5329  134.0007  159.7892 H   0  0  0  0  0  0  0  0  0  0  0  0  # atno 6907 bound_to 6896
  151.0226  133.5855  159.2676 H   0  0  0  0  0  0  0  0  0  0  0  0  # atno 6908 bound_to 6896
  151.2889  135.0743  159.9250 H   0  0  0  0  0  0  0  0  0  0  0  0  # atno 6909 bound_to 6896
  146.1976  140.3671  142.8435 H   0  0  0  0  0  0  0  0  0  0  0  0  # atno 7974 bound_to 7965
  155.5741  140.3490  155.4523 H   0  0  0  0  0  0  0  0  0  0  0  0  # atno 8008 bound_to 7997
  156.0422  140.1298  157.0168 H   0  0  0  0  0  0  0  0  0  0  0  0  # atno 8009 bound_to 7997
  154.4397  140.1021  156.6239 H   0  0  0  0  0  0  0  0  0  0  0  0  # atno 8010 bound_to 7997
  140.5288  143.9877  150.6455 H   0  0  0  0  0  0  0  0  0  0  0  0  # atno 10167 bound_to 10162
  156.3241  130.4270  149.7933 H   0  0  0  0  0  0  0  0  0  0  0  0  # atno 10718 bound_to 10713
  154.8755  135.3942  154.3691 H   0  0  0  0  0  0  0  0  0  0  0  0  # atno 10763 bound_to 10752
  153.4453  135.7027  153.6148 H   0  0  0  0  0  0  0  0  0  0  0  0  # atno 10764 bound_to 10752
  153.4712  135.3790  155.2361 H   0  0  0  0  0  0  0  0  0  0  0  0  # atno 10765 bound_to 10752
  140.6194  133.9676  155.8217 H   0  0  0  0  0  0  0  0  0  0  0  0  # atno 11005 bound_to 11000
  144.8614  140.7145  143.6105 LP  0  0  0  0  0  0  0  0  0  0  0  0  # atno 17320 bound_to 7965
  145.3591  139.1686  143.4393 LP  0  0  0  0  0  0  0  0  0  0  0  0  # atno 17321 bound_to 7965
  140.3246  143.3116  152.0749 LP  0  0  0  0  0  0  0  0  0  0  0  0  # atno 17342 bound_to 10162
  139.4947  144.6551  151.6591 LP  0  0  0  0  0  0  0  0  0  0  0  0  # atno 17343 bound_to 10162
  156.5230  130.8223  151.3210 LP  0  0  0  0  0  0  0  0  0  0  0  0  # atno 17370 bound_to 10713
  157.7418  130.9876  150.2468 LP  0  0  0  0  0  0  0  0  0  0  0  0  # atno 17371 bound_to 10713
  141.0753  134.0144  157.3466 LP  0  0  0  0  0  0  0  0  0  0  0  0  # atno 17394 bound_to 11000
  139.9160  135.0196  156.7881 LP  0  0  0  0  0  0  0  0  0  0  0  0  # atno 17395 bound_to 11000

$$$$
