#       Name:                AV-unprocessed.smi:770
#       Creating user name   scv26
#       Creation time:       Fri Mar 27 01:09:21 2020


#       File generated by GOLD software.
#

@<TRIPOS>MOLECULE
AV-unprocessed.smi:770
    40    41     1
SMALL
NO_CHARGES


@<TRIPOS>ATOM
      1 ****        -4.0913   0.4562  -0.2582 C.1            1 S1                 0.0000
      2 ****        -3.8019   0.6667   0.9093 C.1            1 S1                 0.0000
      3 ****        -3.4283   0.9073   2.3142 C.3            1 S1                 0.0000
      4 ****        -2.5283  -0.1147   2.8364 N.am           1 S1                 0.0000
      5 ****        -1.1973  -0.1224   2.6754 C.2            1 S1                 0.0000
      6 ****        -0.5660   0.7753   2.1173 O.2            1 S1                 0.0000
      7 ****        -0.6449  -1.2465   3.1552 N.am           1 S1                 0.0000
      8 ****         0.7599  -1.6240   3.0130 C.3            1 S1                 0.0000
      9 ****         0.9989  -2.5416   1.7962 C.3            1 S1                 0.0000
     10 ****         0.5592  -1.9366   0.4944 C.2            1 S1                 0.0000
     11 ****        -0.5918  -2.2203  -0.1995 C.2            1 S1                 0.0000
     12 ****        -0.7545  -1.2297  -1.6229 S.3            1 S1                 0.0000
     13 ****         0.7835  -0.4694  -1.2268 C.2            1 S1                 0.0000
     14 ****         1.3368   0.5344  -2.0157 N.pl3          1 S1                 0.0000
     15 ****         2.6198   1.1947  -1.7963 C.3            1 S1                 0.0000
     16 ****         2.9457   2.0042  -3.0488 C.3            1 S1                 0.0000
     17 ****         1.5665   2.3773  -3.5560 C.3            1 S1                 0.0000
     18 ****         0.7460   1.1379  -3.2061 C.3            1 S1                 0.0000
     19 ****         1.3414  -0.9497  -0.1127 N.2            1 S1                 0.0000
     20 ****        -4.3372   0.2687  -1.2791 H              1 S1                 0.0000
     21 ****        -2.9849   1.9011   2.3933 H              1 S1                 0.0000
     22 ****        -4.3415   0.9134   2.9092 H              1 S1                 0.0000
     23 ****        -2.9553  -0.8980   3.3087 H              1 S1                 0.0000
     24 ****        -1.2518  -1.9197   3.5997 H              1 S1                 0.0000
     25 ****         1.3895  -0.7355   2.9404 H              1 S1                 0.0000
     26 ****         1.0667  -2.1384   3.9238 H              1 S1                 0.0000
     27 ****         2.0581  -2.7959   1.7460 H              1 S1                 0.0000
     28 ****         0.4785  -3.4865   1.9565 H              1 S1                 0.0000
     29 ****        -1.3637  -2.9313   0.0542 H              1 S1                 0.0000
     30 ****         2.5257   1.8516  -0.9310 H              1 S1                 0.0000
     31 ****         3.4038   0.4688  -1.5790 H              1 S1                 0.0000
     32 ****         3.5778   2.8687  -2.8448 H              1 S1                 0.0000
     33 ****         3.4533   1.3739  -3.7802 H              1 S1                 0.0000
     34 ****         1.1906   3.2419  -3.0069 H              1 S1                 0.0000
     35 ****         1.5490   2.6143  -4.6201 H              1 S1                 0.0000
     36 ****         0.7873   0.4113  -4.0183 H              1 S1                 0.0000
     37 ****        -0.3010   1.3938  -3.0401 H              1 S1                 0.0000
     38 ****        -1.0471   1.5718   1.7512 LP             1 S1                 0.0000
     39 ****         0.4279   0.7078   2.0300 LP             1 S1                 0.0000
     40 ****         2.2208  -0.6382   0.2473 LP             1 S1                 0.0000
@<TRIPOS>BOND
    1    1    2 3     
    2    1   20 1     
    3    2    3 1     
    4    3    4 1     
    5    3   21 1     
    6    3   22 1     
    7    4    5 am    
    8    4   23 1     
    9    5    6 2     
   10    5    7 am    
   11    7    8 1     
   12    7   24 1     
   13    8    9 1     
   14    8   25 1     
   15    8   26 1     
   16    9   10 1     
   17    9   27 1     
   18    9   28 1     
   19   10   19 1     
   20   10   11 2     
   21   11   12 1     
   22   11   29 1     
   23   12   13 1     
   24   13   14 1     
   25   13   19 2     
   26   14   18 1     
   27   14   15 1     
   28   15   16 1     
   29   15   30 1     
   30   15   31 1     
   31   16   17 1     
   32   16   32 1     
   33   16   33 1     
   34   17   18 1     
   35   17   34 1     
   36   17   35 1     
   37   18   36 1     
   38   18   37 1     
   39    6   38 1     
   40    6   39 1     
   41   19   40 1     
@<TRIPOS>SUBSTRUCTURE
      1 S1             1
@<TRIPOS>SET
LONE_PAIRS      STATIC     ATOMS    <user>   **** ""
3 38 39 40
DONOR_HYDROGENS      STATIC     ATOMS    <user>   **** ""
2 23 24
ATOM$BLUE        STATIC     ATOMS    COLORGROUP SYSTEM
3 38 39 40
ATOM$RED        STATIC     ATOMS    COLORGROUP SYSTEM
2 23 24
