AV-unprocessed.smi:156|AV-procd|sdf|1290|dock1
  -GOLD-   2262018573D 1   1.00000     0.00000
 Structure written by MMmdl.
 51 53  0  0  0  0  0  0  0  0  1 V2000
  150.3120  137.0043  157.7831 C   0  0  0  0  0  0  0  0  0  0  0  0
  150.1469  137.1450  156.2578 C   0  0  1  0  0  0  0  0  0  0  0  0
  151.2501  137.9872  155.5528 C   0  0  1  0  0  0  0  0  0  0  0  0
  151.1816  137.8154  154.0222 C   0  0  0  0  0  0  0  0  0  0  0  0
  151.1207  139.7912  155.9963 S   0  0  0  0  0  0  0  0  0  0  0  0
  149.6684  139.8612  157.1277 C   0  0  0  0  0  0  0  0  0  0  0  0
  152.3159  140.1716  156.7646 O   0  0  0  0  0  0  0  0  0  0  0  0
  150.7660  140.5472  154.7853 O   0  0  0  0  0  0  0  0  0  0  0  0
  150.0029  135.8128  155.6525 N   0  0  0  0  0  0  0  0  0  0  0  0
  151.0228  134.7895  155.8622 C   0  0  0  0  0  0  0  0  0  0  0  0
  148.7672  135.4194  155.2448 C   0  0  0  0  0  0  0  0  0  0  0  0
  147.6910  136.0783  155.7495 N   0  0  0  0  0  0  0  0  0  0  0  0
  146.4528  135.7427  155.3783 C   0  0  0  0  0  0  0  0  0  0  0  0
  146.0670  134.7903  154.5288 N   0  0  0  0  0  0  0  0  0  0  0  0
  147.1389  134.1181  154.0200 C   0  0  0  0  0  0  0  0  0  0  0  0
  148.5106  134.3688  154.3133 C   0  0  0  0  0  0  0  0  0  0  0  0
  149.3073  133.4807  153.5983 N   0  0  0  0  0  0  0  0  0  0  0  0
  148.4598  132.7558  152.9219 C   0  0  0  0  0  0  0  0  0  0  0  0
  147.1332  133.0566  153.1306 N   0  0  0  0  0  0  0  0  0  0  0  0
  145.9799  132.4103  152.5186 C   0  0  0  0  0  0  0  0  0  0  0  0
  145.4084  133.1302  151.2743 C   0  0  0  0  0  0  0  0  0  0  0  0
  146.3745  132.8126  150.1193 C   0  0  0  0  0  0  0  0  0  0  0  0
  146.4517  131.4310  149.8298 O   0  0  0  0  0  0  0  0  0  0  0  0
  143.9056  132.9294  151.0105 C   0  0  0  0  0  0  0  0  0  0  0  0
  143.5850  134.2288  151.5541 O   0  0  0  0  0  0  0  0  0  0  0  0
  144.9778  134.5982  151.4512 C   0  0  0  0  0  0  0  0  0  0  0  0
  150.1736  137.9551  158.2959 H   0  0  0  0  0  0  0  0  0  0  0  0
  151.2957  136.6151  158.0468 H   0  0  0  0  0  0  0  0  0  0  0  0
  149.5648  136.3234  158.1927 H   0  0  0  0  0  0  0  0  0  0  0  0
  149.2174  137.6987  156.1255 H   0  0  0  0  0  0  0  0  0  0  0  0
  152.2334  137.6674  155.8956 H   0  0  0  0  0  0  0  0  0  0  0  0
  151.2348  136.7663  153.7319 H   0  0  0  0  0  0  0  0  0  0  0  0
  152.0115  138.3102  153.5207 H   0  0  0  0  0  0  0  0  0  0  0  0
  150.2527  138.2213  153.6208 H   0  0  0  0  0  0  0  0  0  0  0  0
  149.4200  140.9041  157.3241 H   0  0  0  0  0  0  0  0  0  0  0  0
  149.9060  139.3748  158.0728 H   0  0  0  0  0  0  0  0  0  0  0  0
  148.8147  139.3704  156.6611 H   0  0  0  0  0  0  0  0  0  0  0  0
  150.9476  134.0039  155.1096 H   0  0  0  0  0  0  0  0  0  0  0  0
  150.9160  134.3375  156.8485 H   0  0  0  0  0  0  0  0  0  0  0  0
  152.0253  135.2089  155.7931 H   0  0  0  0  0  0  0  0  0  0  0  0
  145.6582  136.3190  155.8284 H   0  0  0  0  0  0  0  0  0  0  0  0
  148.7845  131.9742  152.2512 H   0  0  0  0  0  0  0  0  0  0  0  0
  146.2704  131.3887  152.2694 H   0  0  0  0  0  0  0  0  0  0  0  0
  145.2100  132.3177  153.2857 H   0  0  0  0  0  0  0  0  0  0  0  0
  146.0688  133.3271  149.2075 H   0  0  0  0  0  0  0  0  0  0  0  0
  147.3818  133.1597  150.3521 H   0  0  0  0  0  0  0  0  0  0  0  0
  147.2923  131.1086  150.1177 H   0  0  0  0  0  0  0  0  0  0  0  0
  143.6341  132.8592  149.9564 H   0  0  0  0  0  0  0  0  0  0  0  0
  143.4521  132.1118  151.5687 H   0  0  0  0  0  0  0  0  0  0  0  0
  145.3541  135.0850  152.3490 H   0  0  0  0  0  0  0  0  0  0  0  0
  145.1594  135.2298  150.5807 H   0  0  0  0  0  0  0  0  0  0  0  0
  1  2  1  0  0  0  0
  1 27  1  0  0  0  0
  1 28  1  0  0  0  0
  1 29  1  0  0  0  0
  2  3  1  0  0  0  0
  2  9  1  0  0  0  0
  2 30  1  0  0  0  0
  3  4  1  0  0  0  0
  3  5  1  0  0  0  0
  3 31  1  0  0  0  0
  4 32  1  0  0  0  0
  4 33  1  0  0  0  0
  4 34  1  0  0  0  0
  5  6  1  0  0  0  0
  5  7  2  0  0  0  0
  5  8  2  0  0  0  0
  6 35  1  0  0  0  0
  6 36  1  0  0  0  0
  6 37  1  0  0  0  0
  9 10  1  0  0  0  0
  9 11  1  0  0  0  0
 10 38  1  0  0  0  0
 10 39  1  0  0  0  0
 10 40  1  0  0  0  0
 11 16  1  0  0  0  0
 11 12  2  0  0  0  0
 12 13  1  0  0  0  0
 13 14  2  0  0  0  0
 13 41  1  0  0  0  0
 14 15  1  0  0  0  0
 15 19  1  0  0  0  0
 15 16  2  0  0  0  0
 16 17  1  0  0  0  0
 17 18  2  0  0  0  0
 18 19  1  0  0  0  0
 18 42  1  0  0  0  0
 19 20  1  0  0  0  0
 20 21  1  0  0  0  0
 20 43  1  0  0  0  0
 20 44  1  0  0  0  0
 21 26  1  0  0  0  0
 21 22  1  0  0  0  0
 21 24  1  0  0  0  0
 22 23  1  0  0  0  0
 22 45  1  0  0  0  0
 22 46  1  0  0  0  0
 23 47  1  0  0  0  0
 24 25  1  0  0  0  0
 24 48  1  0  0  0  0
 24 49  1  0  0  0  0
 25 26  1  0  0  0  0
 26 50  1  0  0  0  0
 26 51  1  0  0  0  0
M  END
> <s_m_source_file>
AV-unprocessed.smi

> <i_m_source_file_index>
156

> <i_lp_mmshare_version>
43012

> <i_f3d_flags>
0

> <s_epik_input>
W0NIM11TKD1PKSg9TylbQ0BASF0oW0NIM10pW0NAQEhdKFtDSDNdKU4oW0NIM10pYyhuW2NIXW4xKWMoYzEyKW5bY0hdbjJbQ0gyXUMzKFtDSDJdW09IXSlbQ0gyXU9bQ0gyXTM=

> <s_epik_cmdline>
J2VwaWtfcHl0aG9uJywgJy1waCcsICc3LjAnLCAnLXRuJywgJzgnLCAnLW1hJywgJzIwMCcsICctbWV0YWxfYmluZGluZycsICctaW1hZScsICc8aW5maWxlLm1hZT4nLCAnLW9tYWUnLCAnPG91dGZpbGUubWFlPic=

> <r_lp_tautomer_probability>
1

> <r_epik_Ionization_Penalty>
0.00107697

> <r_epik_Ionization_Penalty_Charging>
0

> <r_epik_Ionization_Penalty_Neutral>
0.00107697

> <r_epik_State_Penalty>
0.000614712

> <r_epik_Charging_Adjusted_Penalty>
0.000614712

> <i_epik_Tot_Q>
0

> <i_epik_Tot_abs_Q>
0

> <r_epik_Metal_State_Penalty>
-0

> <b_epik_Metal_Only>
0

> <s_lp_Force_Field>
OPLS_2005

> <r_lp_Energy>
27.5373

> <b_lp_Chiralities_Consistent>
1

> <s_lp_Variant>
AV-unprocessed.smi:156-4

> <Gold.Version>
5.8.1

> <Gold.Id.Protein>
6NUR|6NUR_protein|mol2

> <Gold.PLP.Fitness>
44.1222

> <Gold.PLP.PLP>
-33.7115

> <Gold.PLP.part.hbond>
-3.0000

> <Gold.PLP.part.metal>
0.0000

> <Gold.PLP.part.buried>
-4.9516

> <Gold.PLP.part.nonpolar>
-25.5530

> <Gold.PLP.part.repulsive>
0.5227

> <Gold.PLP.ligand.clash>
0.0000

> <Gold.PLP.ligand.torsion>
1.4726

> <Gold.PLP.Chemscore.Hbond>
3.0000

> <Gold.PLP.Chemscore.CHOScore>
1.0000

> <Gold.PLP.Chemscore.Metal>
0.0000

> <Gold.Chemscore.Hbonds>
donor molecule, donor type, donor heavy atom, donor atom, acceptor molecule, acceptor atom, score
      L1  H    23    47       P1 10747  1.00
      P1  H  7989  7998       L1     8  1.00
      P1  H  7997  8009       L1     7  0.98
      L1  C    18    42       P1 10747  1.00

> <Gold.PLP.Chemscore.Internal.Correction>
1.3560

> <Gold.Rescore>
     Score         DG    S(hbond)    S(metal)    S(lipo)     H(rot)  DE(clash)    DE(int)     intcor
     12.96     -14.64       2.99        0.00      63.29       3.21       0.05       1.63       ----

> <Gold.Chemscore.Fitness>
12.9592

> <Gold.Chemscore.DG>
-14.6379

> <Gold.Chemscore.ZeroCoef>
-5.4800

> <Gold.Chemscore.Hbond>
2.9863

> <Gold.Chemscore.Metal>
0.0000

> <Gold.Chemscore.Lipo>
63.2938

> <Gold.Chemscore.Internal_Hbond>
0.0000

> <Gold.Chemscore.DEClash>
0.0464

> <Gold.Chemscore.DEInternal>
1.6324

> <Gold.Chemscore.Rot>
3.2115

> <Gold.Chemscore.Internal.Correction>
   9.000000E+99

> <Gold.Chemscore.Hbonds>
donor molecule, donor type, donor heavy atom, donor atom, acceptor molecule, acceptor atom, score
      L1  H    23    47       P1 10747  1.00
      P1  H  7989  7998       L1     8  0.93
      P1  H  7997  8009       L1     7  0.89

> <Gold.Chemscore.Hbond.Weighted>
-9.9741

> <Gold.Chemscore.Metal.Weighted>
-0.0000

> <Gold.Chemscore.Lipo.Weighted>
-7.4054

> <Gold.Chemscore.Internal_Hbond.Weighted>
0.0000

> <Gold.Chemscore.DEClash.Weighted>
0.0464

> <Gold.Chemscore.DEInternal.Weighted>
1.6324

> <Gold.Chemscore.Rot.Weighted>
8.2215

> <Gold.Chemscore.Internal.Correction.Weighted>
   9.000000E+99

> <Gold.Protein.RotatedTorsions>
[ 6907 6896 6895 6894 ] final  126.40 input  -60.11 | X-H torsion
[ 7974 7965 7964 7962 ] final -161.77 input  175.53 | X-H torsion
[ 8008 7997 7996 7995 ] final -167.47 input   59.86 | X-H torsion
[ 10167 10162 10161 10158 ] final  -62.19 input  -65.29 | X-H torsion
[ 10718 10713 10712 10709 ] final  171.91 input   66.30 | X-H torsion
[ 10763 10752 10751 10750 ] final   86.50 input  -60.55 | X-H torsion
[ 11005 11000 10999 10996 ] final  -73.94 input  -57.11 | X-H torsion

> <Gold.Protein.ActiveResidues>
 VAL166  LYS551  ARG553  GLY616  TRP617  ASP618  TYR619  PRO620  LYS621  CYS622 
 ASP623  PHE694  ASN695  SER759  ASP760  ASP761  ALA762  ILE779  LEU786  VAL792 
 PHE793  MET794  SER795  GLU796  ALA797  LYS798  CYS799  TRP800  GLU811  SER814 

> <Gold.Protein.RotatedAtoms>
  152.3906  133.6674  159.6234 H   0  0  0  0  0  0  0  0  0  0  0  0  # atno 6907 bound_to 6896
  150.7815  133.8960  159.3336 H   0  0  0  0  0  0  0  0  0  0  0  0  # atno 6908 bound_to 6896
  151.6748  135.0972  160.0256 H   0  0  0  0  0  0  0  0  0  0  0  0  # atno 6909 bound_to 6896
  144.7380  140.3350  143.6146 H   0  0  0  0  0  0  0  0  0  0  0  0  # atno 7974 bound_to 7965
  155.8781  140.1004  157.1504 H   0  0  0  0  0  0  0  0  0  0  0  0  # atno 8008 bound_to 7997
  154.4002  140.1334  156.4225 H   0  0  0  0  0  0  0  0  0  0  0  0  # atno 8009 bound_to 7997
  155.7674  140.3461  155.5232 H   0  0  0  0  0  0  0  0  0  0  0  0  # atno 8010 bound_to 7997
  140.5956  143.2350  151.6044 H   0  0  0  0  0  0  0  0  0  0  0  0  # atno 10167 bound_to 10162
  156.9866  131.0135  151.2867 H   0  0  0  0  0  0  0  0  0  0  0  0  # atno 10718 bound_to 10713
  153.1577  135.4578  154.9727 H   0  0  0  0  0  0  0  0  0  0  0  0  # atno 10763 bound_to 10752
  154.7874  135.3208  154.7859 H   0  0  0  0  0  0  0  0  0  0  0  0  # atno 10764 bound_to 10752
  153.8353  135.6935  153.4864 H   0  0  0  0  0  0  0  0  0  0  0  0  # atno 10765 bound_to 10752
  141.1629  133.6895  156.7289 H   0  0  0  0  0  0  0  0  0  0  0  0  # atno 11005 bound_to 11000
  145.7433  139.1771  143.2363 LP  0  0  0  0  0  0  0  0  0  0  0  0  # atno 17320 bound_to 7965
  146.1117  140.7419  142.9500 LP  0  0  0  0  0  0  0  0  0  0  0  0  # atno 17321 bound_to 7965
  139.5256  144.3070  152.1025 LP  0  0  0  0  0  0  0  0  0  0  0  0  # atno 17342 bound_to 10162
  140.2242  144.4435  150.6328 LP  0  0  0  0  0  0  0  0  0  0  0  0  # atno 17343 bound_to 10162
  157.5488  130.8168  149.8119 LP  0  0  0  0  0  0  0  0  0  0  0  0  # atno 17370 bound_to 10713
  156.0223  130.3791  150.1925 LP  0  0  0  0  0  0  0  0  0  0  0  0  # atno 17371 bound_to 10713
  140.2760  134.8354  157.3890 LP  0  0  0  0  0  0  0  0  0  0  0  0  # atno 17394 bound_to 11000
  140.1477  134.4890  155.7984 LP  0  0  0  0  0  0  0  0  0  0  0  0  # atno 17395 bound_to 11000

$$$$
