AV-unprocessed.smi:1116|AV-procd|sdf|4809|dock6
  -GOLD-   22720 3363D 1   1.00000     0.00000
 Structure written by MMmdl.
 35 36  0  0  0  0  0  0  0  0  2 V2000
  153.6340  142.1697  160.3386 C   0  0  0  0  0  0  0  0  0  0  0  0
  152.4820  142.6965  159.5535 C   0  0  0  0  0  0  0  0  0  0  0  0
  151.5860  141.9180  158.9409 N   0  0  0  0  0  0  0  0  0  0  0  0
  150.6045  142.6531  158.2684 C   0  0  0  0  0  0  0  0  0  0  0  0
  149.5210  141.9444  157.5142 C   0  0  0  0  0  0  0  0  0  0  0  0
  150.0658  141.1923  156.2882 C   0  0  0  0  0  0  0  0  0  0  0  0
  150.9178  140.0742  156.6746 N   0  0  0  0  0  0  0  0  0  0  0  0
  151.7240  139.3925  155.8466 C   0  0  0  0  0  0  0  0  0  0  0  0
  151.8247  139.6383  154.6443 O   0  0  0  0  0  0  0  0  0  0  0  0
  152.5357  138.2569  156.4719 C   0  0  0  0  0  0  0  0  0  0  0  0
  152.4478  138.2559  158.0095 C   0  0  0  0  0  0  0  0  0  0  0  0
  153.4129  137.2449  158.6631 C   0  0  2  0  0  0  0  0  0  0  0  0
  152.9320  136.8192  159.9664 N   0  5  0  0  0  0  0  0  0  0  0  0
  153.8725  137.1230  160.8916 C   0  0  0  0  0  0  0  0  0  0  0  0
  153.8339  136.9089  162.1011 O   0  0  0  0  0  0  0  0  0  0  0  0
  154.9209  137.7251  160.3205 N   0  0  0  0  0  0  0  0  0  0  0  0
  154.7535  137.8644  159.0093 C   0  0  0  0  0  0  0  0  0  0  0  0
  155.5258  138.3897  158.2087 O   0  0  0  0  0  0  0  0  0  0  0  0
  150.7695  144.0107  158.3866 C   0  0  0  0  0  0  0  0  0  0  0  0
  152.1684  144.4148  159.3429 S   0  0  0  0  0  0  0  0  0  0  0  0
  153.6916  141.0838  160.2568 H   0  0  0  0  0  0  0  0  0  0  0  0
  153.5204  142.4358  161.3896 H   0  0  0  0  0  0  0  0  0  0  0  0
  154.5652  142.5978  159.9672 H   0  0  0  0  0  0  0  0  0  0  0  0
  149.0064  141.2475  158.1768 H   0  0  0  0  0  0  0  0  0  0  0  0
  148.7651  142.6618  157.1921 H   0  0  0  0  0  0  0  0  0  0  0  0
  149.2378  140.7936  155.7013 H   0  0  0  0  0  0  0  0  0  0  0  0
  150.6142  141.8708  155.6325 H   0  0  0  0  0  0  0  0  0  0  0  0
  150.9011  139.8014  157.6469 H   0  0  0  0  0  0  0  0  0  0  0  0
  152.1873  137.3015  156.0771 H   0  0  0  0  0  0  0  0  0  0  0  0
  153.5751  138.3597  156.1589 H   0  0  0  0  0  0  0  0  0  0  0  0
  152.6767  139.2584  158.3752 H   0  0  0  0  0  0  0  0  0  0  0  0
  151.4226  138.0489  158.3232 H   0  0  0  0  0  0  0  0  0  0  0  0
  153.5883  136.4058  157.9884 H   0  0  0  0  0  0  0  0  0  0  0  0
  155.7341  138.0433  160.8261 H   0  0  0  0  0  0  0  0  0  0  0  0
  150.1558  144.7943  157.9673 H   0  0  0  0  0  0  0  0  0  0  0  0
  1  2  1  0  0  0  0
  1 21  1  0  0  0  0
  1 22  1  0  0  0  0
  1 23  1  0  0  0  0
  2 20  1  0  0  0  0
  2  3  2  0  0  0  0
  3  4  1  0  0  0  0
  4  5  1  0  0  0  0
  4 19  2  0  0  0  0
  5  6  1  0  0  0  0
  5 24  1  0  0  0  0
  5 25  1  0  0  0  0
  6  7  1  0  0  0  0
  6 26  1  0  0  0  0
  6 27  1  0  0  0  0
  7  8  1  0  0  0  0
  7 28  1  0  0  0  0
  8  9  2  0  0  0  0
  8 10  1  0  0  0  0
 10 11  1  0  0  0  0
 10 29  1  0  0  0  0
 10 30  1  0  0  0  0
 11 12  1  0  0  0  0
 11 31  1  0  0  0  0
 11 32  1  0  0  0  0
 12 17  1  0  0  0  0
 12 13  1  0  0  0  0
 12 33  1  0  0  0  0
 13 14  1  0  0  0  0
 14 15  2  0  0  0  0
 14 16  1  0  0  0  0
 16 17  1  0  0  0  0
 16 34  1  0  0  0  0
 17 18  2  0  0  0  0
 19 20  1  0  0  0  0
 19 35  1  0  0  0  0
M  CHG  1  13  -1
M  END
> <s_m_source_file>
AV-unprocessed.smi

> <i_m_source_file_index>
1116

> <i_lp_mmshare_version>
43012

> <i_f3d_flags>
0

> <s_epik_input>
W0NIM11jMW5jKFtjSF1zMSlbQ0gyXVtDSDJdW05IXUMoPU8pW0NIMl1bQ0gyXVtDQEBIXTJbTkhdQyg9TylbTkhdQzI9Tw==

> <s_epik_cmdline>
J2VwaWtfcHl0aG9uJywgJy1waCcsICc3LjAnLCAnLXRuJywgJzgnLCAnLW1hJywgJzIwMCcsICctbWV0YWxfYmluZGluZycsICctaW1hZScsICc8aW5maWxlLm1hZT4nLCAnLW9tYWUnLCAnPG91dGZpbGUubWFlPic=

> <r_lp_tautomer_probability>
1

> <r_epik_Ionization_Penalty>
5.7962

> <r_epik_Ionization_Penalty_Charging>
5.79516

> <r_epik_Ionization_Penalty_Neutral>
0.00104588

> <r_epik_State_Penalty>
5.80096

> <r_epik_Charging_Adjusted_Penalty>
11.5961

> <i_epik_Tot_Q>
-1

> <i_epik_Tot_abs_Q>
1

> <r_epik_Metal_State_Penalty>
2.1448

> <b_epik_Metal_Only>
1

> <s_lp_Force_Field>
OPLS_2005

> <r_lp_Energy>
4.59195

> <b_lp_Chiralities_Consistent>
1

> <s_lp_Variant>
AV-unprocessed.smi:1116-3

> <Gold.Version>
5.8.1

> <Gold.Id.Protein>
6NUR|6NUR_protein|mol2

> <Gold.PLP.Fitness>
46.2250

> <Gold.PLP.PLP>
-33.2444

> <Gold.PLP.part.hbond>
-3.0000

> <Gold.PLP.part.metal>
0.0000

> <Gold.PLP.part.buried>
-5.8113

> <Gold.PLP.part.nonpolar>
-25.4456

> <Gold.PLP.part.repulsive>
0.1508

> <Gold.PLP.ligand.clash>
0.8803

> <Gold.PLP.ligand.torsion>
0.5898

> <Gold.PLP.Chemscore.Hbond>
3.9920

> <Gold.PLP.Chemscore.CHOScore>
0.9983

> <Gold.PLP.Chemscore.Metal>
0.0000

> <Gold.Chemscore.Hbonds>
donor molecule, donor type, donor heavy atom, donor atom, acceptor molecule, acceptor atom, score
      P1  H  6896  6908       L1    13  2.00
      P1  H  7989  7998       L1     9  1.00
      P1  H  7997  8010       L1    18  0.93
      L1  C    19    35       P1  8028  0.50
      L1  C    19    35       P1  8029  0.45

> <Gold.PLP.Chemscore.Internal.Correction>
0.0694

> <Gold.Rescore>
     Score         DG    S(hbond)    S(metal)    S(lipo)     H(rot)  DE(clash)    DE(int)     intcor
     17.17     -17.71       2.95        0.00      81.05       2.77       0.00       0.53       ----

> <Gold.Chemscore.Fitness>
17.1742

> <Gold.Chemscore.DG>
-17.7131

> <Gold.Chemscore.ZeroCoef>
-5.4800

> <Gold.Chemscore.Hbond>
2.9457

> <Gold.Chemscore.Metal>
0.0000

> <Gold.Chemscore.Lipo>
81.0547

> <Gold.Chemscore.Internal_Hbond>
0.0000

> <Gold.Chemscore.DEClash>
0.0046

> <Gold.Chemscore.DEInternal>
0.5342

> <Gold.Chemscore.Rot>
2.7691

> <Gold.Chemscore.Internal.Correction>
   9.000000E+99

> <Gold.Chemscore.Hbonds>
donor molecule, donor type, donor heavy atom, donor atom, acceptor molecule, acceptor atom, score
      P1  H  6896  6908       L1    13  0.89
      P1  H  7989  7998       L1     9  0.95
      P1  H  7997  8010       L1    18  0.90

> <Gold.Chemscore.Hbond.Weighted>
-9.8386

> <Gold.Chemscore.Metal.Weighted>
-0.0000

> <Gold.Chemscore.Lipo.Weighted>
-9.4834

> <Gold.Chemscore.Internal_Hbond.Weighted>
0.0000

> <Gold.Chemscore.DEClash.Weighted>
0.0046

> <Gold.Chemscore.DEInternal.Weighted>
0.5342

> <Gold.Chemscore.Rot.Weighted>
7.0889

> <Gold.Chemscore.Internal.Correction.Weighted>
   9.000000E+99

> <Gold.Protein.RotatedTorsions>
[ 6907 6896 6895 6894 ] final  -92.12 input  -60.11 | X-H torsion
[ 7974 7965 7964 7962 ] final  159.01 input  175.53 | X-H torsion
[ 8008 7997 7996 7995 ] final  -10.90 input   59.86 | X-H torsion
[ 10167 10162 10161 10158 ] final -178.66 input  -65.29 | X-H torsion
[ 10718 10713 10712 10709 ] final -168.38 input   66.30 | X-H torsion
[ 10763 10752 10751 10750 ] final -165.72 input  -60.55 | X-H torsion
[ 11005 11000 10999 10996 ] final  114.91 input  -57.11 | X-H torsion

> <Gold.Protein.ActiveResidues>
 VAL166  LYS551  ARG553  GLY616  TRP617  ASP618  TYR619  PRO620  LYS621  CYS622 
 ASP623  PHE694  ASN695  SER759  ASP760  ASP761  ALA762  ILE779  LEU786  VAL792 
 PHE793  MET794  SER795  GLU796  ALA797  LYS798  CYS799  TRP800  GLU811  SER814 

> <Gold.Protein.RotatedAtoms>
  150.6901  134.2171  159.4381 H   0  0  0  0  0  0  0  0  0  0  0  0  # atno 6907 bound_to 6896
  152.0130  134.9863  160.0578 H   0  0  0  0  0  0  0  0  0  0  0  0  # atno 6908 bound_to 6896
  152.1470  133.4464  159.4832 H   0  0  0  0  0  0  0  0  0  0  0  0  # atno 6909 bound_to 6896
  144.7814  139.7557  143.6258 H   0  0  0  0  0  0  0  0  0  0  0  0  # atno 7974 bound_to 7965
  154.5513  140.2316  155.8481 H   0  0  0  0  0  0  0  0  0  0  0  0  # atno 8008 bound_to 7997
  156.1949  140.3068  155.9367 H   0  0  0  0  0  0  0  0  0  0  0  0  # atno 8009 bound_to 7997
  155.3066  140.0433  157.3023 H   0  0  0  0  0  0  0  0  0  0  0  0  # atno 8010 bound_to 7997
  139.5422  144.2332  152.0918 H   0  0  0  0  0  0  0  0  0  0  0  0  # atno 10167 bound_to 10162
  156.6961  130.9178  151.3074 H   0  0  0  0  0  0  0  0  0  0  0  0  # atno 10718 bound_to 10713
  154.6904  135.2970  154.9487 H   0  0  0  0  0  0  0  0  0  0  0  0  # atno 10763 bound_to 10752
  154.0453  135.6652  153.4798 H   0  0  0  0  0  0  0  0  0  0  0  0  # atno 10764 bound_to 10752
  153.0608  135.5117  154.7993 H   0  0  0  0  0  0  0  0  0  0  0  0  # atno 10765 bound_to 10752
  139.8994  134.9575  156.6964 H   0  0  0  0  0  0  0  0  0  0  0  0  # atno 11005 bound_to 11000
  146.2024  139.5327  142.9735 LP  0  0  0  0  0  0  0  0  0  0  0  0  # atno 17320 bound_to 7965
  145.6040  141.0350  143.2003 LP  0  0  0  0  0  0  0  0  0  0  0  0  # atno 17321 bound_to 7965
  140.1812  144.4842  150.6527 LP  0  0  0  0  0  0  0  0  0  0  0  0  # atno 17342 bound_to 10162
  140.6657  143.2267  151.5750 LP  0  0  0  0  0  0  0  0  0  0  0  0  # atno 17343 bound_to 10162
  157.6990  130.9313  150.0730 LP  0  0  0  0  0  0  0  0  0  0  0  0  # atno 17370 bound_to 10713
  156.1762  130.3648  149.9097 LP  0  0  0  0  0  0  0  0  0  0  0  0  # atno 17371 bound_to 10713
  140.7185  133.9162  155.8131 LP  0  0  0  0  0  0  0  0  0  0  0  0  # atno 17394 bound_to 11000
  141.0246  134.0841  157.4083 LP  0  0  0  0  0  0  0  0  0  0  0  0  # atno 17395 bound_to 11000

$$$$
