AV-unprocessed.smi:2025|AV-procd|sdf|8199|dock1
  -GOLD-   2272010453D 1   1.00000     0.00000
 Structure written by MMmdl.
 39 40  0  0  0  0  0  0  0  0  1 V2000
  149.3909  141.8866  158.1020 C   0  0  0  0  0  0  0  0  0  0  0  0
  150.2981  142.4668  157.0073 C   0  0  2  0  0  0  0  0  0  0  0  0
  150.6866  141.3882  156.1007 N   0  0  0  0  0  0  0  0  0  0  0  0
  149.8724  140.7382  155.2548 C   0  0  0  0  0  0  0  0  0  0  0  0
  148.6649  140.9626  155.1664 O   0  0  0  0  0  0  0  0  0  0  0  0
  150.5275  139.6600  154.3827 C   0  0  0  0  0  0  0  0  0  0  0  0
  150.9731  138.5005  155.1656 N   0  0  0  0  0  0  0  0  0  0  0  0
  150.3650  137.2724  154.9789 C   0  0  0  0  0  0  0  0  0  0  0  0
  150.7275  136.1534  155.6429 C   0  0  0  0  0  0  0  0  0  0  0  0
  151.8061  136.1825  156.6227 C   0  0  0  0  0  0  0  0  0  0  0  0
  152.1852  135.1866  157.2405 O   0  0  0  0  0  0  0  0  0  0  0  0
  152.4010  137.4522  156.8061 N   0  0  0  0  0  0  0  0  0  0  0  0
  153.4885  137.5373  157.7588 C   0  0  0  0  0  0  0  0  0  0  0  0
  152.0310  138.6165  156.0939 C   0  0  0  0  0  0  0  0  0  0  0  0
  152.6014  139.6981  156.2570 O   0  0  0  0  0  0  0  0  0  0  0  0
  151.5477  143.1515  157.6017 C   0  0  1  0  0  0  0  0  0  0  0  0
  151.2815  144.4551  158.3563 C   0  0  0  0  0  0  0  0  0  0  0  0
  152.5196  144.5672  159.2161 C   0  0  0  0  0  0  0  0  0  0  0  0
  152.7984  143.1097  159.5786 C   0  0  0  0  0  0  0  0  0  0  0  0
  152.1590  142.3166  158.5803 O   0  0  0  0  0  0  0  0  0  0  0  0
  149.0463  142.6656  158.7824 H   0  0  0  0  0  0  0  0  0  0  0  0
  149.9134  141.1352  158.6952 H   0  0  0  0  0  0  0  0  0  0  0  0
  148.5068  141.4159  157.6708 H   0  0  0  0  0  0  0  0  0  0  0  0
  149.7183  143.2143  156.4629 H   0  0  0  0  0  0  0  0  0  0  0  0
  151.6622  141.1283  156.1032 H   0  0  0  0  0  0  0  0  0  0  0  0
  149.8394  139.3389  153.5980 H   0  0  0  0  0  0  0  0  0  0  0  0
  151.3749  140.1107  153.8648 H   0  0  0  0  0  0  0  0  0  0  0  0
  149.5623  137.1990  154.2596 H   0  0  0  0  0  0  0  0  0  0  0  0
  150.2148  135.2236  155.4446 H   0  0  0  0  0  0  0  0  0  0  0  0
  153.6447  138.5696  158.0721 H   0  0  0  0  0  0  0  0  0  0  0  0
  154.3746  137.1370  157.2644 H   0  0  0  0  0  0  0  0  0  0  0  0
  153.2230  136.9511  158.6401 H   0  0  0  0  0  0  0  0  0  0  0  0
  152.2819  143.3401  156.8160 H   0  0  0  0  0  0  0  0  0  0  0  0
  151.1431  145.3121  157.6963 H   0  0  0  0  0  0  0  0  0  0  0  0
  150.3967  144.3605  158.9874 H   0  0  0  0  0  0  0  0  0  0  0  0
  153.3443  144.9709  158.6272 H   0  0  0  0  0  0  0  0  0  0  0  0
  152.3797  145.2051  160.0891 H   0  0  0  0  0  0  0  0  0  0  0  0
  153.8674  142.8999  159.6219 H   0  0  0  0  0  0  0  0  0  0  0  0
  152.3657  142.8612  160.5483 H   0  0  0  0  0  0  0  0  0  0  0  0
  1  2  1  0  0  0  0
  1 21  1  0  0  0  0
  1 22  1  0  0  0  0
  1 23  1  0  0  0  0
  2  3  1  0  0  0  0
  2 16  1  0  0  0  0
  2 24  1  0  0  0  0
  3  4  1  0  0  0  0
  3 25  1  0  0  0  0
  4  5  2  0  0  0  0
  4  6  1  0  0  0  0
  6  7  1  0  0  0  0
  6 26  1  0  0  0  0
  6 27  1  0  0  0  0
  7 14  1  0  0  0  0
  7  8  1  0  0  0  0
  8  9  2  0  0  0  0
  8 28  1  0  0  0  0
  9 10  1  0  0  0  0
  9 29  1  0  0  0  0
 10 11  2  0  0  0  0
 10 12  1  0  0  0  0
 12 13  1  0  0  0  0
 12 14  1  0  0  0  0
 13 30  1  0  0  0  0
 13 31  1  0  0  0  0
 13 32  1  0  0  0  0
 14 15  2  0  0  0  0
 16 20  1  0  0  0  0
 16 17  1  0  0  0  0
 16 33  1  0  0  0  0
 17 18  1  0  0  0  0
 17 34  1  0  0  0  0
 17 35  1  0  0  0  0
 18 19  1  0  0  0  0
 18 36  1  0  0  0  0
 18 37  1  0  0  0  0
 19 20  1  0  0  0  0
 19 38  1  0  0  0  0
 19 39  1  0  0  0  0
M  END
> <s_m_source_file>
AV-unprocessed.smi

> <i_m_source_file_index>
2025

> <i_lp_mmshare_version>
43012

> <i_f3d_flags>
0

> <s_epik_input>
TzFbQ0gyXVtDSDJdW0NIMl1bQ0BIXTFbQ0BIXShbQ0gzXSlbTkhdQyg9TylbQ0gyXW4yW2NIXVtjSF1jKD1PKW4oW0NIM10pYzI9Tw==

> <s_epik_cmdline>
J2VwaWtfcHl0aG9uJywgJy1waCcsICc3LjAnLCAnLXRuJywgJzgnLCAnLW1hJywgJzIwMCcsICctbWV0YWxfYmluZGluZycsICctaW1hZScsICc8aW5maWxlLm1hZT4nLCAnLW9tYWUnLCAnPG91dGZpbGUubWFlPic=

> <r_lp_tautomer_probability>
1

> <r_epik_Ionization_Penalty>
3.54787e-08

> <r_epik_Ionization_Penalty_Charging>
1.24654e-08

> <r_epik_Ionization_Penalty_Neutral>
2.30132e-08

> <r_epik_State_Penalty>
-0

> <r_epik_Charging_Adjusted_Penalty>
1.24654e-08

> <i_epik_Tot_Q>
0

> <i_epik_Tot_abs_Q>
0

> <r_epik_Metal_State_Penalty>
-0

> <b_epik_Metal_Only>
0

> <s_lp_Force_Field>
OPLS_2005

> <r_lp_Energy>
25.1152

> <b_lp_Chiralities_Consistent>
1

> <s_lp_Variant>
AV-unprocessed.smi:2025-3

> <Gold.Version>
5.8.1

> <Gold.Id.Protein>
6NUR|6NUR_protein|mol2

> <Gold.PLP.Fitness>
37.7677

> <Gold.PLP.PLP>
-32.4702

> <Gold.PLP.part.hbond>
-2.0000

> <Gold.PLP.part.metal>
0.0000

> <Gold.PLP.part.buried>
-2.0076

> <Gold.PLP.part.nonpolar>
-28.6508

> <Gold.PLP.part.repulsive>
0.2241

> <Gold.PLP.ligand.clash>
0.0000

> <Gold.PLP.ligand.torsion>
0.3570

> <Gold.PLP.Chemscore.Hbond>
1.0000

> <Gold.PLP.Chemscore.CHOScore>
1.0000

> <Gold.PLP.Chemscore.Metal>
0.0000

> <Gold.Chemscore.Hbonds>
donor molecule, donor type, donor heavy atom, donor atom, acceptor molecule, acceptor atom, score
      P1  H  7997  8008       L1    15  1.00
      L1  C     8    28       P1  7948  0.75

> <Gold.PLP.Chemscore.Internal.Correction>
0.0114

> <Gold.Rescore>
     Score         DG    S(hbond)    S(metal)    S(lipo)     H(rot)  DE(clash)    DE(int)     intcor
     11.54     -13.61       1.00        0.00      80.88       1.82       0.10       1.97       ----

> <Gold.Chemscore.Fitness>
11.5409

> <Gold.Chemscore.DG>
-13.6054

> <Gold.Chemscore.ZeroCoef>
-5.4800

> <Gold.Chemscore.Hbond>
0.9966

> <Gold.Chemscore.Metal>
0.0000

> <Gold.Chemscore.Lipo>
80.8833

> <Gold.Chemscore.Internal_Hbond>
0.0000

> <Gold.Chemscore.DEClash>
0.0971

> <Gold.Chemscore.DEInternal>
1.9673

> <Gold.Chemscore.Rot>
1.8228

> <Gold.Chemscore.Internal.Correction>
   9.000000E+99

> <Gold.Chemscore.Hbonds>
donor molecule, donor type, donor heavy atom, donor atom, acceptor molecule, acceptor atom, score
      P1  H  7997  8008       L1    15  1.00

> <Gold.Chemscore.Hbond.Weighted>
-3.3285

> <Gold.Chemscore.Metal.Weighted>
-0.0000

> <Gold.Chemscore.Lipo.Weighted>
-9.4633

> <Gold.Chemscore.Internal_Hbond.Weighted>
0.0000

> <Gold.Chemscore.DEClash.Weighted>
0.0971

> <Gold.Chemscore.DEInternal.Weighted>
1.9673

> <Gold.Chemscore.Rot.Weighted>
4.6665

> <Gold.Chemscore.Internal.Correction.Weighted>
   9.000000E+99

> <Gold.Protein.RotatedTorsions>
[ 6907 6896 6895 6894 ] final -129.97 input  -60.11 | X-H torsion
[ 7974 7965 7964 7962 ] final  123.78 input  175.53 | X-H torsion
[ 8008 7997 7996 7995 ] final  -45.17 input   59.86 | X-H torsion
[ 10167 10162 10161 10158 ] final   58.88 input  -65.29 | X-H torsion
[ 10718 10713 10712 10709 ] final -110.63 input   66.30 | X-H torsion
[ 10763 10752 10751 10750 ] final  112.71 input  -60.55 | X-H torsion
[ 11005 11000 10999 10996 ] final   96.40 input  -57.11 | X-H torsion

> <Gold.Protein.ActiveResidues>
 VAL166  LYS551  ARG553  GLY616  TRP617  ASP618  TYR619  PRO620  LYS621  CYS622 
 ASP623  PHE694  ASN695  SER759  ASP760  ASP761  ALA762  ILE779  LEU786  VAL792 
 PHE793  MET794  SER795  GLU796  ALA797  LYS798  CYS799  TRP800  GLU811  SER814 

> <Gold.Protein.RotatedAtoms>
  150.9345  133.6727  159.2803 H   0  0  0  0  0  0  0  0  0  0  0  0  # atno 6907 bound_to 6896
  151.4138  135.0987  159.9603 H   0  0  0  0  0  0  0  0  0  0  0  0  # atno 6908 bound_to 6896
  152.5041  133.8812  159.7402 H   0  0  0  0  0  0  0  0  0  0  0  0  # atno 6909 bound_to 6896
  145.0920  139.3580  143.4856 H   0  0  0  0  0  0  0  0  0  0  0  0  # atno 7974 bound_to 7965
  154.4000  140.1403  156.3803 H   0  0  0  0  0  0  0  0  0  0  0  0  # atno 8008 bound_to 7997
  155.8010  140.3476  155.5382 H   0  0  0  0  0  0  0  0  0  0  0  0  # atno 8009 bound_to 7997
  155.8483  140.0937  157.1681 H   0  0  0  0  0  0  0  0  0  0  0  0  # atno 8010 bound_to 7997
  140.1825  144.4168  150.6609 H   0  0  0  0  0  0  0  0  0  0  0  0  # atno 10167 bound_to 10162
  156.0601  130.5825  150.8264 H   0  0  0  0  0  0  0  0  0  0  0  0  # atno 10718 bound_to 10713
  153.4818  135.3678  155.2446 H   0  0  0  0  0  0  0  0  0  0  0  0  # atno 10763 bound_to 10752
  154.8755  135.3956  154.3691 H   0  0  0  0  0  0  0  0  0  0  0  0  # atno 10764 bound_to 10752
  153.4296  135.7082  153.6305 H   0  0  0  0  0  0  0  0  0  0  0  0  # atno 10765 bound_to 10752
  139.8782  134.8949  156.4154 H   0  0  0  0  0  0  0  0  0  0  0  0  # atno 11005 bound_to 11000
  146.3531  140.0759  142.8620 LP  0  0  0  0  0  0  0  0  0  0  0  0  # atno 17320 bound_to 7965
  145.1055  140.9372  143.4687 LP  0  0  0  0  0  0  0  0  0  0  0  0  # atno 17321 bound_to 7965
  140.6510  143.2225  151.6076 LP  0  0  0  0  0  0  0  0  0  0  0  0  # atno 17342 bound_to 10162
  139.5290  144.2972  152.1103 LP  0  0  0  0  0  0  0  0  0  0  0  0  # atno 17343 bound_to 10162
  157.5604  131.0946  150.9568 LP  0  0  0  0  0  0  0  0  0  0  0  0  # atno 17370 bound_to 10713
  156.9807  130.5526  149.5296 LP  0  0  0  0  0  0  0  0  0  0  0  0  # atno 17371 bound_to 10713
  140.9171  133.7671  155.9862 LP  0  0  0  0  0  0  0  0  0  0  0  0  # atno 17394 bound_to 11000
  140.8481  134.2987  157.5286 LP  0  0  0  0  0  0  0  0  0  0  0  0  # atno 17395 bound_to 11000

$$$$
