AV-unprocessed.smi:686|AV-procd|sdf|3352|dock8
  -GOLD-   22720 0323D 1   1.00000     0.00000
 Structure written by MMmdl.
 40 41  0  0  0  0  0  0  0  0  3 V2000
  148.0262  140.6474  153.8146 C   0  0  0  0  0  0  0  0  0  0  0  0
  148.7180  139.5347  154.6264 C   0  0  1  0  0  0  0  0  0  0  0  0
  148.0109  138.1722  154.5184 C   0  0  0  0  0  0  0  0  0  0  0  0
  149.0671  137.1286  154.4713 N   0  3  2  0  0  0  0  0  0  0  0  0
  148.7954  135.9057  155.2790 C   0  0  0  0  0  0  0  0  0  0  0  0
  149.8997  134.8466  155.0972 C   0  0  0  0  0  0  0  0  0  0  0  0
  147.4301  135.2921  154.9154 C   0  0  0  0  0  0  0  0  0  0  0  0
  150.3518  137.8053  154.7498 C   0  0  0  0  0  0  0  0  0  0  0  0
  150.1701  139.2314  154.2287 C   0  0  2  0  0  0  0  0  0  0  0  0
  151.0962  140.1653  154.8514 N   0  5  0  0  0  0  0  0  0  0  0  0
  151.0843  140.3678  156.4617 S   0  0  0  0  0  0  0  0  0  0  0  0
  149.9029  139.7615  157.0980 O   0  0  0  0  0  0  0  0  0  0  0  0
  152.3948  140.0757  157.0642 O   0  0  0  0  0  0  0  0  0  0  0  0
  150.8679  142.1977  156.5815 C   0  0  0  0  0  0  0  0  0  0  0  0
  151.1609  142.6740  157.9785 C   0  0  0  0  0  0  0  0  0  0  0  0
  152.0738  143.6828  158.3948 C   0  0  0  0  0  0  0  0  0  0  0  0
  151.9355  143.6992  159.7524 C   0  0  0  0  0  0  0  0  0  0  0  0
  151.0228  142.7766  160.1478 O   0  0  0  0  0  0  0  0  0  0  0  0
  150.5367  142.1242  159.0089 N   0  0  0  0  0  0  0  0  0  0  0  0
  147.9769  140.4124  152.7497 H   0  0  0  0  0  0  0  0  0  0  0  0
  148.5369  141.6060  153.9220 H   0  0  0  0  0  0  0  0  0  0  0  0
  147.0025  140.7910  154.1613 H   0  0  0  0  0  0  0  0  0  0  0  0
  148.7011  139.8226  155.6798 H   0  0  0  0  0  0  0  0  0  0  0  0
  147.3425  138.0395  155.3707 H   0  0  0  0  0  0  0  0  0  0  0  0
  147.4047  138.0944  153.6142 H   0  0  0  0  0  0  0  0  0  0  0  0
  148.7740  136.1933  156.3314 H   0  0  0  0  0  0  0  0  0  0  0  0
  149.6645  133.9379  155.6522 H   0  0  0  0  0  0  0  0  0  0  0  0
  150.8660  135.1955  155.4618 H   0  0  0  0  0  0  0  0  0  0  0  0
  150.0166  134.5713  154.0483 H   0  0  0  0  0  0  0  0  0  0  0  0
  147.2455  134.3836  155.4896 H   0  0  0  0  0  0  0  0  0  0  0  0
  147.3841  135.0290  153.8581 H   0  0  0  0  0  0  0  0  0  0  0  0
  146.6039  135.9712  155.1252 H   0  0  0  0  0  0  0  0  0  0  0  0
  150.5353  137.8108  155.8264 H   0  0  0  0  0  0  0  0  0  0  0  0
  151.1832  137.2945  154.2632 H   0  0  0  0  0  0  0  0  0  0  0  0
  150.2485  139.2248  153.1405 H   0  0  0  0  0  0  0  0  0  0  0  0
  151.5502  142.6572  155.8661 H   0  0  0  0  0  0  0  0  0  0  0  0
  149.8541  142.4520  156.2736 H   0  0  0  0  0  0  0  0  0  0  0  0
  152.7215  144.3000  157.7899 H   0  0  0  0  0  0  0  0  0  0  0  0
  152.3950  144.2801  160.5386 H   0  0  0  0  0  0  0  0  0  0  0  0
  149.1226  136.8390  153.5053 H   0  0  0  0  0  0  0  0  0  0  0  0
  1  2  1  0  0  0  0
  1 20  1  0  0  0  0
  1 21  1  0  0  0  0
  1 22  1  0  0  0  0
  2  9  1  0  0  0  0
  2  3  1  0  0  0  0
  2 23  1  0  0  0  0
  3  4  1  0  0  0  0
  3 24  1  0  0  0  0
  3 25  1  0  0  0  0
  4  5  1  0  0  0  0
  4  8  1  0  0  0  0
  4 40  1  0  0  0  0
  5  6  1  0  0  0  0
  5  7  1  0  0  0  0
  5 26  1  0  0  0  0
  6 27  1  0  0  0  0
  6 28  1  0  0  0  0
  6 29  1  0  0  0  0
  7 30  1  0  0  0  0
  7 31  1  0  0  0  0
  7 32  1  0  0  0  0
  8  9  1  0  0  0  0
  8 33  1  0  0  0  0
  8 34  1  0  0  0  0
  9 10  1  0  0  0  0
  9 35  1  0  0  0  0
 10 11  1  0  0  0  0
 11 12  2  0  0  0  0
 11 13  2  0  0  0  0
 11 14  1  0  0  0  0
 14 15  1  0  0  0  0
 14 36  1  0  0  0  0
 14 37  1  0  0  0  0
 15 19  2  0  0  0  0
 15 16  1  0  0  0  0
 16 17  2  0  0  0  0
 16 38  1  0  0  0  0
 17 18  1  0  0  0  0
 17 39  1  0  0  0  0
 18 19  1  0  0  0  0
M  CHG  1   4   1
M  CHG  1  10  -1
M  END
> <s_m_source_file>
AV-unprocessed.smi

> <i_m_source_file_index>
686

> <i_lp_mmshare_version>
43012

> <i_f3d_flags>
0

> <s_epik_input>
W0NIM11bQ0BASF0xW0NIMl1OKFtDSF0oW0NIM10pW0NIM10pW0NIMl1bQ0BIXTFbTkhdUyg9TykoPU8pW0NIMl1jMltjSF1bY0hdb24y

> <s_epik_cmdline>
J2VwaWtfcHl0aG9uJywgJy1waCcsICc3LjAnLCAnLXRuJywgJzgnLCAnLW1hJywgJzIwMCcsICctbWV0YWxfYmluZGluZycsICctaW1hZScsICc8aW5maWxlLm1hZT4nLCAnLW9tYWUnLCAnPG91dGZpbGUubWFlPic=

> <r_epik_Ionization_Penalty>
3.62478

> <r_epik_Ionization_Penalty_Charging>
3.62478

> <r_epik_Ionization_Penalty_Neutral>
2.03645e-10

> <r_epik_State_Penalty>
3.6247

> <r_epik_Charging_Adjusted_Penalty>
7.24949

> <i_epik_Tot_Q>
0

> <i_epik_Tot_abs_Q>
2

> <r_epik_Metal_State_Penalty>
0.530836

> <b_epik_Metal_Only>
1

> <s_lp_Force_Field>
OPLS_2005

> <r_lp_Energy>
17.1192

> <b_lp_Chiralities_Consistent>
1

> <s_lp_Variant>
AV-unprocessed.smi:686-16

> <Gold.Version>
5.8.1

> <Gold.Id.Protein>
6NUR|6NUR_protein|mol2

> <Gold.PLP.Fitness>
44.5963

> <Gold.PLP.PLP>
-33.2336

> <Gold.PLP.part.hbond>
-4.2405

> <Gold.PLP.part.metal>
0.0000

> <Gold.PLP.part.buried>
-2.1530

> <Gold.PLP.part.nonpolar>
-25.9253

> <Gold.PLP.part.repulsive>
0.1186

> <Gold.PLP.ligand.clash>
0.0000

> <Gold.PLP.ligand.torsion>
0.8387

> <Gold.PLP.Chemscore.Hbond>
4.0000

> <Gold.PLP.Chemscore.CHOScore>
0.0000

> <Gold.PLP.Chemscore.Metal>
0.0000

> <Gold.Chemscore.Hbonds>
donor molecule, donor type, donor heavy atom, donor atom, acceptor molecule, acceptor atom, score
      L1  H     4    40       P1  7948  2.00
      P1  H  7989  7998       L1    10  0.90
      P1  H  7997  8010       L1    13  1.00

> <Gold.PLP.Chemscore.Internal.Correction>
1.0402

> <Gold.Rescore>
     Score         DG    S(hbond)    S(metal)    S(lipo)     H(rot)  DE(clash)    DE(int)     intcor
     17.53     -20.02       2.71        0.00      82.36       1.61       0.22       2.28       ----

> <Gold.Chemscore.Fitness>
17.5301

> <Gold.Chemscore.DG>
-20.0227

> <Gold.Chemscore.ZeroCoef>
-5.4800

> <Gold.Chemscore.Hbond>
2.7068

> <Gold.Chemscore.Metal>
0.0000

> <Gold.Chemscore.Lipo>
82.3583

> <Gold.Chemscore.Internal_Hbond>
0.0000

> <Gold.Chemscore.DEClash>
0.2152

> <Gold.Chemscore.DEInternal>
2.2773

> <Gold.Chemscore.Rot>
1.6149

> <Gold.Chemscore.Internal.Correction>
   9.000000E+99

> <Gold.Chemscore.Hbonds>
donor molecule, donor type, donor heavy atom, donor atom, acceptor molecule, acceptor atom, score
      L1  H     4    40       P1  7948  1.00
      P1  H  7989  7998       L1    10  0.18
      P1  H  7997  8010       L1    13  0.91

> <Gold.Chemscore.Hbond.Weighted>
-9.0408

> <Gold.Chemscore.Metal.Weighted>
-0.0000

> <Gold.Chemscore.Lipo.Weighted>
-9.6359

> <Gold.Chemscore.Internal_Hbond.Weighted>
0.0000

> <Gold.Chemscore.DEClash.Weighted>
0.2152

> <Gold.Chemscore.DEInternal.Weighted>
2.2773

> <Gold.Chemscore.Rot.Weighted>
4.1341

> <Gold.Chemscore.Internal.Correction.Weighted>
   9.000000E+99

> <Gold.Protein.RotatedTorsions>
[ 6907 6896 6895 6894 ] final  116.10 input  -60.11 | X-H torsion
[ 7974 7965 7964 7962 ] final -103.02 input  175.53 | X-H torsion
[ 8008 7997 7996 7995 ] final   55.98 input   59.86 | X-H torsion
[ 10167 10162 10161 10158 ] final  -87.39 input  -65.29 | X-H torsion
[ 10718 10713 10712 10709 ] final  122.92 input   66.30 | X-H torsion
[ 10763 10752 10751 10750 ] final  -44.45 input  -60.55 | X-H torsion
[ 11005 11000 10999 10996 ] final   51.34 input  -57.11 | X-H torsion

> <Gold.Protein.ActiveResidues>
 VAL166  LYS551  ARG553  GLY616  TRP617  ASP618  TYR619  PRO620  LYS621  CYS622 
 ASP623  PHE694  ASN695  SER759  ASP760  ASP761  ALA762  ILE779  LEU786  VAL792 
 PHE793  MET794  SER795  GLU796  ALA797  LYS798  CYS799  TRP800  GLU811  SER814 

> <Gold.Protein.RotatedAtoms>
  152.4700  133.8007  159.6951 H   0  0  0  0  0  0  0  0  0  0  0  0  # atno 6907 bound_to 6896
  150.8684  133.7532  159.2976 H   0  0  0  0  0  0  0  0  0  0  0  0  # atno 6908 bound_to 6896
  151.5075  135.1067  159.9897 H   0  0  0  0  0  0  0  0  0  0  0  0  # atno 6909 bound_to 6896
  145.2613  140.9270  143.3039 H   0  0  0  0  0  0  0  0  0  0  0  0  # atno 7974 bound_to 7965
  155.5100  140.3477  155.4386 H   0  0  0  0  0  0  0  0  0  0  0  0  # atno 8008 bound_to 7997
  156.0856  140.1397  156.9685 H   0  0  0  0  0  0  0  0  0  0  0  0  # atno 8009 bound_to 7997
  154.4605  140.0937  156.6855 H   0  0  0  0  0  0  0  0  0  0  0  0  # atno 8010 bound_to 7997
  140.3849  143.2731  151.9337 H   0  0  0  0  0  0  0  0  0  0  0  0  # atno 10167 bound_to 10162
  157.5705  131.1083  150.8376 H   0  0  0  0  0  0  0  0  0  0  0  0  # atno 10718 bound_to 10713
  154.0122  135.6680  153.4766 H   0  0  0  0  0  0  0  0  0  0  0  0  # atno 10763 bound_to 10752
  153.0616  135.5024  154.8102 H   0  0  0  0  0  0  0  0  0  0  0  0  # atno 10764 bound_to 10752
  154.6988  135.3075  154.9335 H   0  0  0  0  0  0  0  0  0  0  0  0  # atno 10765 bound_to 10752
  140.0940  134.5170  155.8824 H   0  0  0  0  0  0  0  0  0  0  0  0  # atno 11005 bound_to 11000
  144.9416  139.4182  143.6446 LP  0  0  0  0  0  0  0  0  0  0  0  0  # atno 17320 bound_to 7965
  146.3274  139.8379  142.8896 LP  0  0  0  0  0  0  0  0  0  0  0  0  # atno 17321 bound_to 7965
  139.4792  144.5783  151.7975 LP  0  0  0  0  0  0  0  0  0  0  0  0  # atno 17342 bound_to 10162
  140.4899  144.1326  150.5948 LP  0  0  0  0  0  0  0  0  0  0  0  0  # atno 17343 bound_to 10162
  156.8849  130.5192  149.5289 LP  0  0  0  0  0  0  0  0  0  0  0  0  # atno 17370 bound_to 10713
  156.0750  130.5774  150.9457 LP  0  0  0  0  0  0  0  0  0  0  0  0  # atno 17371 bound_to 10713
  141.2086  133.6676  156.6386 LP  0  0  0  0  0  0  0  0  0  0  0  0  # atno 17394 bound_to 11000
  140.3312  134.7927  157.4327 LP  0  0  0  0  0  0  0  0  0  0  0  0  # atno 17395 bound_to 11000

$$$$
