AV-unprocessed.smi:1550|AV-procd|sdf|6225|dock2
  -GOLD-   22720 6403D 1   1.00000     0.00000
 Structure written by MMmdl.
 43 44  0  0  0  0  0  0  0  0  1 V2000
  151.9962  136.8057  158.7103 C   0  0  0  0  0  0  0  0  0  0  0  0
  150.6278  137.0171  158.0456 C   0  0  1  0  0  0  0  0  0  0  0  0
  149.6757  136.2412  158.7681 O   0  0  0  0  0  0  0  0  0  0  0  0
  148.3852  136.1469  158.1750 C   0  0  0  0  0  0  0  0  0  0  0  0
  147.3806  135.7209  159.2533 C   0  0  2  0  0  0  0  0  0  0  0  0
  145.9560  136.2225  158.9457 C   0  0  0  0  0  0  0  0  0  0  0  0
  144.9975  135.8549  160.0844 C   0  0  0  0  0  0  0  0  0  0  0  0
  145.5633  136.3548  161.4179 C   0  0  0  0  0  0  0  0  0  0  0  0
  147.0078  135.8639  161.6025 C   0  0  0  0  0  0  0  0  0  0  0  0
  147.8048  136.2765  160.4966 O   0  0  0  0  0  0  0  0  0  0  0  0
  150.2242  138.5006  158.0550 C   0  0  0  0  0  0  0  0  0  0  0  0
  149.0592  138.8099  158.3043 O   0  0  0  0  0  0  0  0  0  0  0  0
  151.2167  139.3719  157.7863 N   0  0  0  0  0  0  0  0  0  0  0  0
  151.1652  140.7717  157.6823 C   0  0  0  0  0  0  0  0  0  0  0  0
  151.2409  141.6291  158.7335 C   0  0  0  0  0  0  0  0  0  0  0  0
  151.1683  143.0701  158.5604 C   0  0  0  0  0  0  0  0  0  0  0  0
  151.3379  144.0210  159.7351 C   0  0  0  0  0  0  0  0  0  0  0  0
  151.6657  143.3631  160.8482 F   0  0  0  0  0  0  0  0  0  0  0  0
  152.3054  144.8980  159.4708 F   0  0  0  0  0  0  0  0  0  0  0  0
  150.2142  144.7003  159.9657 F   0  0  0  0  0  0  0  0  0  0  0  0
  151.0285  143.5166  157.2984 C   0  0  0  0  0  0  0  0  0  0  0  0
  150.9249  142.6413  156.2150 N   0  0  0  0  0  0  0  0  0  0  0  0
  150.9796  141.2945  156.3185 C   0  0  0  0  0  0  0  0  0  0  0  0
  150.8779  140.5899  155.3147 O   0  0  0  0  0  0  0  0  0  0  0  0
  150.8024  143.0540  155.3013 H   0  0  0  0  0  0  0  0  0  0  0  0
  152.7720  137.3906  158.2150 H   0  0  0  0  0  0  0  0  0  0  0  0
  152.2917  135.7575  158.6595 H   0  0  0  0  0  0  0  0  0  0  0  0
  151.9807  137.0910  159.7630 H   0  0  0  0  0  0  0  0  0  0  0  0
  150.6869  136.6529  157.0180 H   0  0  0  0  0  0  0  0  0  0  0  0
  148.0722  137.0887  157.7225 H   0  0  0  0  0  0  0  0  0  0  0  0
  148.4163  135.3977  157.3825 H   0  0  0  0  0  0  0  0  0  0  0  0
  147.3731  134.6312  159.3197 H   0  0  0  0  0  0  0  0  0  0  0  0
  145.9672  137.3053  158.8133 H   0  0  0  0  0  0  0  0  0  0  0  0
  145.5983  135.7961  158.0079 H   0  0  0  0  0  0  0  0  0  0  0  0
  144.0102  136.2813  159.9054 H   0  0  0  0  0  0  0  0  0  0  0  0
  144.8700  134.7724  160.1225 H   0  0  0  0  0  0  0  0  0  0  0  0
  145.5447  137.4451  161.4385 H   0  0  0  0  0  0  0  0  0  0  0  0
  144.9395  136.0141  162.2446 H   0  0  0  0  0  0  0  0  0  0  0  0
  147.4306  136.2807  162.5167 H   0  0  0  0  0  0  0  0  0  0  0  0
  147.0408  134.7780  161.7031 H   0  0  0  0  0  0  0  0  0  0  0  0
  152.1398  138.9765  157.6790 H   0  0  0  0  0  0  0  0  0  0  0  0
  151.3352  141.2620  159.7425 H   0  0  0  0  0  0  0  0  0  0  0  0
  150.9908  144.5603  157.0227 H   0  0  0  0  0  0  0  0  0  0  0  0
  1  2  1  0  0  0  0
  1 26  1  0  0  0  0
  1 27  1  0  0  0  0
  1 28  1  0  0  0  0
  2  3  1  0  0  0  0
  2 11  1  0  0  0  0
  2 29  1  0  0  0  0
  3  4  1  0  0  0  0
  4  5  1  0  0  0  0
  4 30  1  0  0  0  0
  4 31  1  0  0  0  0
  5 10  1  0  0  0  0
  5  6  1  0  0  0  0
  5 32  1  0  0  0  0
  6  7  1  0  0  0  0
  6 33  1  0  0  0  0
  6 34  1  0  0  0  0
  7  8  1  0  0  0  0
  7 35  1  0  0  0  0
  7 36  1  0  0  0  0
  8  9  1  0  0  0  0
  8 37  1  0  0  0  0
  8 38  1  0  0  0  0
  9 10  1  0  0  0  0
  9 39  1  0  0  0  0
  9 40  1  0  0  0  0
 11 12  2  0  0  0  0
 11 13  1  0  0  0  0
 13 14  1  0  0  0  0
 13 41  1  0  0  0  0
 14 23  1  0  0  0  0
 14 15  2  0  0  0  0
 15 16  1  0  0  0  0
 15 42  1  0  0  0  0
 16 17  1  0  0  0  0
 16 21  2  0  0  0  0
 17 18  1  0  0  0  0
 17 19  1  0  0  0  0
 17 20  1  0  0  0  0
 21 22  1  0  0  0  0
 21 43  1  0  0  0  0
 22 25  1  0  0  0  0
 22 23  1  0  0  0  0
 23 24  2  0  0  0  0
M  END
> <s_m_source_file>
AV-unprocessed.smi

> <i_m_source_file_index>
1550

> <i_lp_mmshare_version>
43012

> <i_f3d_flags>
0

> <s_epik_input>
TzFbQ0gyXVtDSDJdW0NIMl1bQ0gyXVtDQEhdMVtDSDJdT1tDQEBIXShbQ0gzXSlDKD1PKVtOSF1jMltjSF1jKEMoRikoRilGKVtjSF1bbkhdYzI9Tw==

> <s_epik_cmdline>
J2VwaWtfcHl0aG9uJywgJy1waCcsICc3LjAnLCAnLXRuJywgJzgnLCAnLW1hJywgJzIwMCcsICctbWV0YWxfYmluZGluZycsICctaW1hZScsICc8aW5maWxlLm1hZT4nLCAnLW9tYWUnLCAnPG91dGZpbGUubWFlPic=

> <r_lp_tautomer_probability>
0.999

> <r_epik_Ionization_Penalty>
0.00891333

> <r_epik_Ionization_Penalty_Charging>
0.00891323

> <r_epik_Ionization_Penalty_Neutral>
1.00146e-07

> <r_epik_State_Penalty>
0.00674197

> <r_epik_Charging_Adjusted_Penalty>
0.0156552

> <i_epik_Tot_Q>
0

> <i_epik_Tot_abs_Q>
0

> <r_epik_Metal_State_Penalty>
0.321024

> <b_epik_Metal_Only>
0

> <s_lp_Force_Field>
OPLS_2005

> <r_lp_Energy>
24.7831

> <b_lp_Chiralities_Consistent>
1

> <s_lp_Variant>
AV-unprocessed.smi:1550-2

> <Gold.Version>
5.8.1

> <Gold.Id.Protein>
6NUR|6NUR_protein|mol2

> <Gold.PLP.Fitness>
47.4990

> <Gold.PLP.PLP>
-42.4151

> <Gold.PLP.part.hbond>
-4.5500

> <Gold.PLP.part.metal>
0.0000

> <Gold.PLP.part.buried>
-2.0992

> <Gold.PLP.part.nonpolar>
-35.4930

> <Gold.PLP.part.repulsive>
0.2557

> <Gold.PLP.ligand.clash>
0.0000

> <Gold.PLP.ligand.torsion>
1.8993

> <Gold.PLP.Chemscore.Hbond>
2.3976

> <Gold.PLP.Chemscore.CHOScore>
0.5292

> <Gold.PLP.Chemscore.Metal>
0.0000

> <Gold.Chemscore.Hbonds>
donor molecule, donor type, donor heavy atom, donor atom, acceptor molecule, acceptor atom, score
      P1  H  6896  6909       L1     3  1.00
      P1  H  7989  7998       L1    24  0.93
      L1  C    21    43       P1  8028  0.49

> <Gold.PLP.Chemscore.Internal.Correction>
0.1020

> <Gold.Rescore>
     Score         DG    S(hbond)    S(metal)    S(lipo)     H(rot)  DE(clash)    DE(int)     intcor
     12.43     -16.43       1.70        0.00      85.69       1.86       0.23       3.77       ----

> <Gold.Chemscore.Fitness>
12.4305

> <Gold.Chemscore.DG>
-16.4270

> <Gold.Chemscore.ZeroCoef>
-5.4800

> <Gold.Chemscore.Hbond>
1.6991

> <Gold.Chemscore.Metal>
0.0000

> <Gold.Chemscore.Lipo>
85.6919

> <Gold.Chemscore.Internal_Hbond>
0.0000

> <Gold.Chemscore.DEClash>
0.2287

> <Gold.Chemscore.DEInternal>
3.7678

> <Gold.Chemscore.Rot>
1.8571

> <Gold.Chemscore.Internal.Correction>
   9.000000E+99

> <Gold.Chemscore.Hbonds>
donor molecule, donor type, donor heavy atom, donor atom, acceptor molecule, acceptor atom, score
      P1  H  6896  6909       L1     3  0.42
      P1  H  7989  7998       L1    24  0.87

> <Gold.Chemscore.Hbond.Weighted>
-5.6752

> <Gold.Chemscore.Metal.Weighted>
-0.0000

> <Gold.Chemscore.Lipo.Weighted>
-10.0260

> <Gold.Chemscore.Internal_Hbond.Weighted>
0.0000

> <Gold.Chemscore.DEClash.Weighted>
0.2287

> <Gold.Chemscore.DEInternal.Weighted>
3.7678

> <Gold.Chemscore.Rot.Weighted>
4.7541

> <Gold.Chemscore.Internal.Correction.Weighted>
   9.000000E+99

> <Gold.Protein.RotatedTorsions>
[ 6907 6896 6895 6894 ] final   65.39 input  -60.11 | X-H torsion
[ 7974 7965 7964 7962 ] final -113.19 input  175.53 | X-H torsion
[ 8008 7997 7996 7995 ] final  117.98 input   59.86 | X-H torsion
[ 10167 10162 10161 10158 ] final -130.96 input  -65.29 | X-H torsion
[ 10718 10713 10712 10709 ] final  126.95 input   66.30 | X-H torsion
[ 10763 10752 10751 10750 ] final -170.20 input  -60.55 | X-H torsion
[ 11005 11000 10999 10996 ] final  -76.85 input  -57.11 | X-H torsion

> <Gold.Protein.ActiveResidues>
 VAL166  LYS551  ARG553  GLY616  TRP617  ASP618  TYR619  PRO620  LYS621  CYS622 
 ASP623  PHE694  ASN695  SER759  ASP760  ASP761  ALA762  ILE779  LEU786  VAL792 
 PHE793  MET794  SER795  GLU796  ALA797  LYS798  CYS799  TRP800  GLU811  SER814 

> <Gold.Protein.RotatedAtoms>
  152.4404  134.5602  159.9891 H   0  0  0  0  0  0  0  0  0  0  0  0  # atno 6907 bound_to 6896
  151.5701  133.3385  159.2996 H   0  0  0  0  0  0  0  0  0  0  0  0  # atno 6908 bound_to 6896
  150.8309  134.7595  159.6917 H   0  0  0  0  0  0  0  0  0  0  0  0  # atno 6909 bound_to 6896
  145.1350  140.8746  143.3735 H   0  0  0  0  0  0  0  0  0  0  0  0  # atno 7974 bound_to 7965
  156.2523  140.2884  156.0764 H   0  0  0  0  0  0  0  0  0  0  0  0  # atno 8008 bound_to 7997
  155.1615  140.0399  157.2861 H   0  0  0  0  0  0  0  0  0  0  0  0  # atno 8009 bound_to 7997
  154.6389  140.2517  155.7351 H   0  0  0  0  0  0  0  0  0  0  0  0  # atno 8010 bound_to 7997
  139.9239  143.6350  152.2547 H   0  0  0  0  0  0  0  0  0  0  0  0  # atno 10167 bound_to 10162
  157.5375  131.1097  150.8912 H   0  0  0  0  0  0  0  0  0  0  0  0  # atno 10718 bound_to 10713
  154.6441  135.2902  155.0067 H   0  0  0  0  0  0  0  0  0  0  0  0  # atno 10763 bound_to 10752
  154.1183  135.6552  153.4902 H   0  0  0  0  0  0  0  0  0  0  0  0  # atno 10764 bound_to 10752
  153.0342  135.5281  154.7321 H   0  0  0  0  0  0  0  0  0  0  0  0  # atno 10765 bound_to 10752
  141.1657  133.6999  156.7732 H   0  0  0  0  0  0  0  0  0  0  0  0  # atno 11005 bound_to 11000
  145.0594  139.3117  143.5888 LP  0  0  0  0  0  0  0  0  0  0  0  0  # atno 17320 bound_to 7965
  146.3510  140.0030  142.8674 LP  0  0  0  0  0  0  0  0  0  0  0  0  # atno 17321 bound_to 7965
  139.6839  144.7653  151.1560 LP  0  0  0  0  0  0  0  0  0  0  0  0  # atno 17342 bound_to 10162
  140.7655  143.5686  150.9021 LP  0  0  0  0  0  0  0  0  0  0  0  0  # atno 17343 bound_to 10162
  156.9475  130.5407  149.5281 LP  0  0  0  0  0  0  0  0  0  0  0  0  # atno 17370 bound_to 10713
  156.0470  130.5545  150.8903 LP  0  0  0  0  0  0  0  0  0  0  0  0  # atno 17371 bound_to 10713
  140.2449  134.8585  157.3610 LP  0  0  0  0  0  0  0  0  0  0  0  0  # atno 17394 bound_to 11000
  140.1760  134.4549  155.7802 LP  0  0  0  0  0  0  0  0  0  0  0  0  # atno 17395 bound_to 11000

$$$$
