#       Name:                AV-unprocessed.smi:3330
#       Creating user name   scv26
#       Creation time:       Fri Mar 27 19:16:59 2020


#       File generated by GOLD software.
#

@<TRIPOS>MOLECULE
AV-unprocessed.smi:3330
    44    45     1
SMALL
NO_CHARGES


@<TRIPOS>ATOM
      1 ****        -2.1111  -1.6800  -1.2958 C.3            1 S1                 0.0000
      2 ****        -1.5937  -0.9063  -0.0671 C.3            1 S1                 0.0000
      3 ****        -0.1332  -0.9210  -0.0887 N.3            1 S1                 0.0000
      4 ****         0.4214   0.1312  -0.9256 C.3            1 S1                 0.0000
      5 ****         1.9527   0.1143  -0.8087 C.3            1 S1                 0.0000
      6 ****         2.5570   1.1651  -1.6306 N.am           1 S1                 0.0000
      7 ****         2.9487   0.9982  -2.9004 C.2            1 S1                 0.0000
      8 ****         2.8833  -0.0278  -3.5768 O.2            1 S1                 0.0000
      9 ****         3.5006   2.3126  -3.4079 C.3            1 S1                 0.0000
     10 ****         3.3092   3.1207  -2.2228 N.am           1 S1                 0.0000
     11 ****         2.7595   2.4292  -1.2162 C.2            1 S1                 0.0000
     12 ****         2.4879   2.8879  -0.1075 O.2            1 S1                 0.0000
     13 ****        -2.0750  -1.5125   1.2795 C.3            1 S1                 0.0000
     14 ****        -3.6096  -1.5928   1.3961 C.3            1 S1                 0.0000
     15 ****        -1.5299  -0.7763   2.4162 N.pl3          1 S1                 0.0000
     16 ****        -0.6113  -1.2098   3.3500 C.2            1 S1                 0.0000
     17 ****        -0.3822  -0.1747   4.2105 C.2            1 S1                 0.0000
     18 ****        -1.2140   0.8671   3.7146 C.2            1 S1                 0.0000
     19 ****        -1.8982   0.5060   2.6416 N.2            1 S1                 0.0000
     20 ****        -3.1969  -1.6298  -1.3691 H              1 S1                 0.0000
     21 ****        -1.8285  -2.7324  -1.2511 H              1 S1                 0.0000
     22 ****        -1.7213  -1.2719  -2.2281 H              1 S1                 0.0000
     23 ****        -1.9441   0.1257  -0.1210 H              1 S1                 0.0000
     24 ****         0.2062  -1.8269  -0.3787 H              1 S1                 0.0000
     25 ****         0.1215  -0.0126  -1.9636 H              1 S1                 0.0000
     26 ****         0.0348   1.0984  -0.6013 H              1 S1                 0.0000
     27 ****         2.2492   0.2463   0.2338 H              1 S1                 0.0000
     28 ****         2.3411  -0.8617  -1.1059 H              1 S1                 0.0000
     29 ****         4.5550   2.2312  -3.6740 H              1 S1                 0.0000
     30 ****         2.9253   2.6929  -4.2525 H              1 S1                 0.0000
     31 ****         3.5603   4.0976  -2.1756 H              1 S1                 0.0000
     32 ****        -1.6938  -2.5328   1.3509 H              1 S1                 0.0000
     33 ****        -4.0327  -2.2868   0.6707 H              1 S1                 0.0000
     34 ****        -4.0748  -0.6193   1.2379 H              1 S1                 0.0000
     35 ****        -3.9074  -1.9462   2.3838 H              1 S1                 0.0000
     36 ****        -0.1982  -2.2073   3.3219 H              1 S1                 0.0000
     37 ****         0.2814  -0.1623   5.0622 H              1 S1                 0.0000
     38 ****        -1.3391   1.8686   4.0989 H              1 S1                 0.0000
     39 ****         0.1777  -0.7411   0.8446 LP             1 S1                 0.0000
     40 ****         2.5019  -0.8636  -3.1818 LP             1 S1                 0.0000
     41 ****         3.2116  -0.0258  -4.5214 LP             1 S1                 0.0000
     42 ****         2.0740   2.3012   0.5886 LP             1 S1                 0.0000
     43 ****         2.6810   3.8473   0.0976 LP             1 S1                 0.0000
     44 ****        -2.5441   1.0580   2.1143 LP             1 S1                 0.0000
@<TRIPOS>BOND
    1    1    2 1     
    2    1   20 1     
    3    1   21 1     
    4    1   22 1     
    5    2    3 1     
    6    2   13 1     
    7    2   23 1     
    8    3    4 1     
    9    3   24 1     
   10    4    5 1     
   11    4   25 1     
   12    4   26 1     
   13    5    6 1     
   14    5   27 1     
   15    5   28 1     
   16    6   11 am    
   17    6    7 am    
   18    7    8 2     
   19    7    9 1     
   20    9   10 1     
   21    9   29 1     
   22    9   30 1     
   23   10   11 am    
   24   10   31 1     
   25   11   12 2     
   26   13   14 1     
   27   13   15 1     
   28   13   32 1     
   29   14   33 1     
   30   14   34 1     
   31   14   35 1     
   32   15   19 1     
   33   15   16 1     
   34   16   17 2     
   35   16   36 1     
   36   17   18 1     
   37   17   37 1     
   38   18   19 2     
   39   18   38 1     
   40    3   39 1     
   41    8   40 1     
   42    8   41 1     
   43   12   42 1     
   44   12   43 1     
   45   19   44 1     
@<TRIPOS>SUBSTRUCTURE
      1 S1             1
@<TRIPOS>SET
LONE_PAIRS      STATIC     ATOMS    <user>   **** ""
6 39 40 41 42 43 44
DONOR_HYDROGENS      STATIC     ATOMS    <user>   **** ""
2 24 31
ATOM$BLUE        STATIC     ATOMS    COLORGROUP SYSTEM
6 39 40 41 42 43 44
ATOM$RED        STATIC     ATOMS    COLORGROUP SYSTEM
2 24 31
