#       Name:                AV-unprocessed.smi:2110
#       Creating user name   scv26
#       Creation time:       Fri Mar 27 11:35:24 2020


#       File generated by GOLD software.
#

@<TRIPOS>MOLECULE
AV-unprocessed.smi:2110
    50    51     1
SMALL
NO_CHARGES


@<TRIPOS>ATOM
      1 ****        -2.6072   3.6730   0.7741 C.3            1 S1                 0.0000
      2 ****        -2.6993   3.7951   2.3040 C.3            1 S1                 0.0000
      3 ****        -1.8947   2.7806   3.0150 N.pl3          1 S1                 0.0000
      4 ****        -2.6208   1.6194   3.5676 C.3            1 S1                 0.0000
      5 ****        -3.2889   0.7567   2.4861 C.3            1 S1                 0.0000
      6 ****        -0.1637   2.7275   2.8273 S.o2           1 S1                 0.0000
      7 ****         0.2588   4.1026   2.5128 O.2            1 S1                 0.0000
      8 ****         0.3672   2.1094   4.0533 O.2            1 S1                 0.0000
      9 ****        -0.1243   1.7318   1.5502 N.pl3          1 S1                -1.0000
     10 ****         1.1540   1.4052   0.9473 C.3            1 S1                 0.0000
     11 ****         0.9797   0.6914  -0.3869 C.ar           1 S1                 0.0000
     12 ****         0.4196   1.3634  -1.4959 C.ar           1 S1                 0.0000
     13 ****         0.2772   0.6576  -2.7041 C.ar           1 S1                 0.0000
     14 ****         0.6578  -0.6268  -2.8623 N.ar           1 S1                 0.0000
     15 ****         1.2058  -1.2821  -1.8092 C.ar           1 S1                 0.0000
     16 ****         1.6100  -2.6226  -1.9941 N.3            1 S1                 0.0000
     17 ****         2.9882  -2.9236  -1.6142 C.3            1 S1                 0.0000
     18 ****         3.2110  -4.4451  -1.5682 C.3            1 S1                 0.0000
     19 ****         2.8441  -5.0249  -2.8158 O.3            1 S1                 0.0000
     20 ****         1.4679  -4.8129  -3.1126 C.3            1 S1                 0.0000
     21 ****         1.1864  -3.3044  -3.2158 C.3            1 S1                 0.0000
     22 ****         1.3753  -0.6564  -0.5504 C.ar           1 S1                 0.0000
     23 ****        -3.2756   4.3862   0.2923 H              1 S1                 0.0000
     24 ****        -2.8811   2.6777   0.4263 H              1 S1                 0.0000
     25 ****        -1.5993   3.8839   0.4168 H              1 S1                 0.0000
     26 ****        -2.3606   4.7852   2.6094 H              1 S1                 0.0000
     27 ****        -3.7407   3.7227   2.6188 H              1 S1                 0.0000
     28 ****        -1.9337   1.0041   4.1475 H              1 S1                 0.0000
     29 ****        -3.3743   1.9767   4.2698 H              1 S1                 0.0000
     30 ****        -3.7595  -0.1181   2.9344 H              1 S1                 0.0000
     31 ****        -2.5665   0.3985   1.7533 H              1 S1                 0.0000
     32 ****        -4.0667   1.3054   1.9560 H              1 S1                 0.0000
     33 ****         1.7512   2.2980   0.7596 H              1 S1                 0.0000
     34 ****         1.7595   0.7821   1.6065 H              1 S1                 0.0000
     35 ****         0.0937   2.3928  -1.4336 H              1 S1                 0.0000
     36 ****        -0.1531   1.1388  -3.5698 H              1 S1                 0.0000
     37 ****         3.6600  -2.4708  -2.3444 H              1 S1                 0.0000
     38 ****         3.2439  -2.4992  -0.6444 H              1 S1                 0.0000
     39 ****         4.2604  -4.6642  -1.3706 H              1 S1                 0.0000
     40 ****         2.6342  -4.8978  -0.7599 H              1 S1                 0.0000
     41 ****         1.2278  -5.3047  -4.0553 H              1 S1                 0.0000
     42 ****         0.8437  -5.2731  -2.3448 H              1 S1                 0.0000
     43 ****         0.1208  -3.1465  -3.3865 H              1 S1                 0.0000
     44 ****         1.7202  -2.8833  -4.0689 H              1 S1                 0.0000
     45 ****         1.7915  -1.2109   0.2794 H              1 S1                 0.0000
     46 ****        -0.9707   1.3471   1.1820 LP             1 S1                 0.0000
     47 ****         0.5378  -1.0879  -3.7415 LP             1 S1                 0.0000
     48 ****         1.0358  -3.0551  -1.2989 LP             1 S1                 0.0000
     49 ****         3.0197  -6.0087  -2.7797 LP             1 S1                 0.0000
     50 ****         3.3984  -4.6137  -3.5394 LP             1 S1                 0.0000
@<TRIPOS>BOND
    1    1    2 1     
    2    1   23 1     
    3    1   24 1     
    4    1   25 1     
    5    2    3 1     
    6    2   26 1     
    7    2   27 1     
    8    3    4 1     
    9    3    6 1     
   10    4    5 1     
   11    4   28 1     
   12    4   29 1     
   13    5   30 1     
   14    5   31 1     
   15    5   32 1     
   16    6    7 2     
   17    6    8 2     
   18    6    9 1     
   19    9   10 1     
   20   10   11 1     
   21   10   33 1     
   22   10   34 1     
   23   11   22 ar    
   24   11   12 ar    
   25   12   13 ar    
   26   12   35 1     
   27   13   14 ar    
   28   13   36 1     
   29   14   15 ar    
   30   15   16 1     
   31   15   22 ar    
   32   16   21 1     
   33   16   17 1     
   34   17   18 1     
   35   17   37 1     
   36   17   38 1     
   37   18   19 1     
   38   18   39 1     
   39   18   40 1     
   40   19   20 1     
   41   20   21 1     
   42   20   41 1     
   43   20   42 1     
   44   21   43 1     
   45   21   44 1     
   46   22   45 1     
   47    9   46 1     
   48   14   47 1     
   49   16   48 1     
   50   19   49 1     
   51   19   50 1     
@<TRIPOS>SUBSTRUCTURE
      1 S1             1
@<TRIPOS>SET
LONE_PAIRS      STATIC     ATOMS    <user>   **** ""
7 7 8 46 47 48 49 50
ATOM$BLUE        STATIC     ATOMS    COLORGROUP SYSTEM
7 7 8 46 47 48 49 50
