#       Name:                AV-unprocessed.smi:1039
#       Creating user name   scv26
#       Creation time:       Fri Mar 27 02:53:57 2020


#       File generated by GOLD software.
#

@<TRIPOS>MOLECULE
AV-unprocessed.smi:1039
    43    44     1
SMALL
NO_CHARGES


@<TRIPOS>ATOM
      1 ****        -4.5102   0.2935   0.8799 C.3            1 S1                 0.0000
      2 ****        -3.3434   0.9518   0.1313 C.3            1 S1                 0.0000
      3 ****        -2.2151  -0.0586  -0.1696 C.3            1 S1                 0.0000
      4 ****        -1.0060   0.6336  -0.8244 C.3            1 S1                 0.0000
      5 ****        -0.5428   1.7166   0.0606 N.am           1 S1                 0.0000
      6 ****         0.5455   1.6725   0.8697 C.2            1 S1                 0.0000
      7 ****         0.7455   2.4760   1.7817 O.2            1 S1                 0.0000
      8 ****         1.4238   0.7040   0.5685 N.am           1 S1                 0.0000
      9 ****         2.6526   0.4253   1.3009 C.3            1 S1                 0.0000
     10 ****         3.5400  -0.5896   0.5583 C.3            1 S1                 0.0000
     11 ****         2.8079  -1.8252   0.1209 C.2            1 S1                 0.0000
     12 ****         2.3961  -2.7661   0.9652 N.2            1 S1                 0.0000
     13 ****         1.7517  -3.7038   0.1672 C.2            1 S1                 0.0000
     14 ****         1.8010  -3.2963  -1.1434 C.2            1 S1                 0.0000
     15 ****         2.4917  -2.0896  -1.1637 N.pl3          1 S1                 0.0000
     16 ****         2.7941  -1.2911  -2.3416 C.3            1 S1                 0.0000
     17 ****         2.4755  -1.9534  -3.4542 F              1 S1                 0.0000
     18 ****         2.1235  -0.1406  -2.3019 F              1 S1                 0.0000
     19 ****        -1.5608   2.7663   0.1891 C.3            1 S1                 0.0000
     20 ****        -2.7980   2.1793   0.8927 C.3            1 S1                 0.0000
     21 ****        -4.1933  -0.0871   1.8514 H              1 S1                 0.0000
     22 ****        -4.9190  -0.5426   0.3120 H              1 S1                 0.0000
     23 ****        -5.3190   1.0049   1.0488 H              1 S1                 0.0000
     24 ****        -3.7269   1.3064  -0.8265 H              1 S1                 0.0000
     25 ****        -1.8956  -0.5441   0.7538 H              1 S1                 0.0000
     26 ****        -2.5858  -0.8500  -0.8218 H              1 S1                 0.0000
     27 ****        -0.2428  -0.1097  -1.0538 H              1 S1                 0.0000
     28 ****        -1.2955   1.0565  -1.7876 H              1 S1                 0.0000
     29 ****         1.2066   0.0948  -0.2069 H              1 S1                 0.0000
     30 ****         3.2088   1.3469   1.4786 H              1 S1                 0.0000
     31 ****         2.3791   0.0247   2.2781 H              1 S1                 0.0000
     32 ****         3.9954  -0.1060  -0.3050 H              1 S1                 0.0000
     33 ****         4.3678  -0.8885   1.2020 H              1 S1                 0.0000
     34 ****         1.3053  -4.5900   0.5933 H              1 S1                 0.0000
     35 ****         1.4134  -3.7582  -2.0395 H              1 S1                 0.0000
     36 ****         3.8610  -1.0717  -2.3851 H              1 S1                 0.0000
     37 ****        -1.1970   3.6379   0.7350 H              1 S1                 0.0000
     38 ****        -1.8311   3.1317  -0.8025 H              1 S1                 0.0000
     39 ****        -3.5728   2.9421   0.9756 H              1 S1                 0.0000
     40 ****        -2.5330   1.8955   1.9123 H              1 S1                 0.0000
     41 ****         0.0874   3.2084   1.9561 LP             1 S1                 0.0000
     42 ****         1.5661   2.3959   2.3477 LP             1 S1                 0.0000
     43 ****         2.5224  -2.7931   1.9568 LP             1 S1                 0.0000
@<TRIPOS>BOND
    1    1    2 1     
    2    1   21 1     
    3    1   22 1     
    4    1   23 1     
    5    2   20 1     
    6    2    3 1     
    7    2   24 1     
    8    3    4 1     
    9    3   25 1     
   10    3   26 1     
   11    4    5 1     
   12    4   27 1     
   13    4   28 1     
   14    5    6 am    
   15    5   19 1     
   16    6    7 2     
   17    6    8 am    
   18    8    9 1     
   19    8   29 1     
   20    9   10 1     
   21    9   30 1     
   22    9   31 1     
   23   10   11 1     
   24   10   32 1     
   25   10   33 1     
   26   11   15 1     
   27   11   12 2     
   28   12   13 1     
   29   13   14 2     
   30   13   34 1     
   31   14   15 1     
   32   14   35 1     
   33   15   16 1     
   34   16   17 1     
   35   16   18 1     
   36   16   36 1     
   37   19   20 1     
   38   19   37 1     
   39   19   38 1     
   40   20   39 1     
   41   20   40 1     
   42    7   41 1     
   43    7   42 1     
   44   12   43 1     
@<TRIPOS>SUBSTRUCTURE
      1 S1             1
@<TRIPOS>SET
LONE_PAIRS      STATIC     ATOMS    <user>   **** ""
3 41 42 43
DONOR_HYDROGENS      STATIC     ATOMS    <user>   **** ""
1 29
ATOM$BLUE        STATIC     ATOMS    COLORGROUP SYSTEM
3 41 42 43
ATOM$RED        STATIC     ATOMS    COLORGROUP SYSTEM
1 29
