AV-unprocessed.smi:2014|AV-procd|sdf|8161|dock4
  -GOLD-   2272010403D 1   1.00000     0.00000
 Structure written by MMmdl.
 46 48  0  0  0  0  0  0  0  0  1 V2000
  144.2314  143.0092  154.9825 C   0  0  0  0  0  0  0  0  0  0  0  0
  145.7338  142.8718  155.2676 C   0  0  2  0  0  0  0  0  0  0  0  0
  146.4588  142.1365  154.1243 C   0  0  0  0  0  0  0  0  0  0  0  0
  147.9629  141.9924  154.4058 C   0  0  0  0  0  0  0  0  0  0  0  0
  148.2210  141.2887  155.7535 C   0  0  1  0  0  0  0  0  0  0  0  0
  149.6518  141.2341  156.0367 N   0  0  0  0  0  0  0  0  0  0  0  0
  150.2257  140.4881  156.9928 C   0  0  0  0  0  0  0  0  0  0  0  0
  149.5864  139.7670  157.7606 O   0  0  0  0  0  0  0  0  0  0  0  0
  151.7564  140.5826  157.0841 C   0  0  0  0  0  0  0  0  0  0  0  0
  152.2330  141.2689  158.3052 N   0  0  0  0  0  0  0  0  0  0  0  0
  153.2260  140.6335  159.0940 C   0  0  0  0  0  0  0  0  0  0  0  0
  153.7043  139.5483  158.7588 O   0  0  0  0  0  0  0  0  0  0  0  0
  153.6134  141.3442  160.3103 C   0  0  0  0  0  0  0  0  0  0  0  0
  154.5822  140.7195  161.1485 C   0  0  0  0  0  0  0  0  0  0  0  0
  155.3698  140.2327  161.8430 N   0  0  0  0  0  0  0  0  0  0  0  0
  153.0665  142.5373  160.6218 C   0  0  0  0  0  0  0  0  0  0  0  0
  152.1330  143.1570  159.8200 N   0  0  0  0  0  0  0  0  0  0  0  0
  151.4547  144.3486  160.2457 C   0  0  0  0  0  0  0  0  0  0  0  0
  151.0947  145.4261  159.2409 C   0  0  0  0  0  0  0  0  0  0  0  0
  152.2052  145.6625  160.2352 C   0  0  0  0  0  0  0  0  0  0  0  0
  151.6490  142.5082  158.6628 C   0  0  0  0  0  0  0  0  0  0  0  0
  150.7392  142.9989  157.9896 O   0  0  0  0  0  0  0  0  0  0  0  0
  147.4951  142.0217  156.8965 C   0  0  0  0  0  0  0  0  0  0  0  0
  145.9911  142.1608  156.6101 C   0  0  0  0  0  0  0  0  0  0  0  0
  143.7525  142.0331  154.8973 H   0  0  0  0  0  0  0  0  0  0  0  0
  144.0569  143.5480  154.0507 H   0  0  0  0  0  0  0  0  0  0  0  0
  143.7293  143.5590  155.7794 H   0  0  0  0  0  0  0  0  0  0  0  0
  146.1480  143.8789  155.3361 H   0  0  0  0  0  0  0  0  0  0  0  0
  146.0210  141.1469  153.9859 H   0  0  0  0  0  0  0  0  0  0  0  0
  146.3140  142.6714  153.1850 H   0  0  0  0  0  0  0  0  0  0  0  0
  148.4324  141.4359  153.5936 H   0  0  0  0  0  0  0  0  0  0  0  0
  148.4258  142.9806  154.4093 H   0  0  0  0  0  0  0  0  0  0  0  0
  147.8290  140.2710  155.7016 H   0  0  0  0  0  0  0  0  0  0  0  0
  150.2521  141.7992  155.4539 H   0  0  0  0  0  0  0  0  0  0  0  0
  152.1750  139.5767  157.0233 H   0  0  0  0  0  0  0  0  0  0  0  0
  152.1230  141.0753  156.1825 H   0  0  0  0  0  0  0  0  0  0  0  0
  153.3739  143.0308  161.5326 H   0  0  0  0  0  0  0  0  0  0  0  0
  150.7511  144.2130  161.0653 H   0  0  0  0  0  0  0  0  0  0  0  0
  151.3829  145.2799  158.2015 H   0  0  0  0  0  0  0  0  0  0  0  0
  150.1595  145.9605  159.3936 H   0  0  0  0  0  0  0  0  0  0  0  0
  152.0109  146.3576  161.0494 H   0  0  0  0  0  0  0  0  0  0  0  0
  153.2233  145.6688  159.8508 H   0  0  0  0  0  0  0  0  0  0  0  0
  147.6412  141.4870  157.8360 H   0  0  0  0  0  0  0  0  0  0  0  0
  147.9284  143.0135  157.0349 H   0  0  0  0  0  0  0  0  0  0  0  0
  145.5155  142.7120  157.4220 H   0  0  0  0  0  0  0  0  0  0  0  0
  145.5313  141.1715  156.5985 H   0  0  0  0  0  0  0  0  0  0  0  0
  1  2  1  0  0  0  0
  1 25  1  0  0  0  0
  1 26  1  0  0  0  0
  1 27  1  0  0  0  0
  2 24  1  0  0  0  0
  2  3  1  0  0  0  0
  2 28  1  0  0  0  0
  3  4  1  0  0  0  0
  3 29  1  0  0  0  0
  3 30  1  0  0  0  0
  4  5  1  0  0  0  0
  4 31  1  0  0  0  0
  4 32  1  0  0  0  0
  5  6  1  0  0  0  0
  5 23  1  0  0  0  0
  5 33  1  0  0  0  0
  6  7  1  0  0  0  0
  6 34  1  0  0  0  0
  7  8  2  0  0  0  0
  7  9  1  0  0  0  0
  9 10  1  0  0  0  0
  9 35  1  0  0  0  0
  9 36  1  0  0  0  0
 10 21  1  0  0  0  0
 10 11  1  0  0  0  0
 11 12  2  0  0  0  0
 11 13  1  0  0  0  0
 13 14  1  0  0  0  0
 13 16  2  0  0  0  0
 14 15  3  0  0  0  0
 16 17  1  0  0  0  0
 16 37  1  0  0  0  0
 17 18  1  0  0  0  0
 17 21  1  0  0  0  0
 18 20  1  0  0  0  0
 18 19  1  0  0  0  0
 18 38  1  0  0  0  0
 19 20  1  0  0  0  0
 19 39  1  0  0  0  0
 19 40  1  0  0  0  0
 20 41  1  0  0  0  0
 20 42  1  0  0  0  0
 21 22  2  0  0  0  0
 23 24  1  0  0  0  0
 23 43  1  0  0  0  0
 23 44  1  0  0  0  0
 24 45  1  0  0  0  0
 24 46  1  0  0  0  0
M  END
> <s_m_source_file>
AV-unprocessed.smi

> <i_m_source_file_index>
2014

> <i_lp_mmshare_version>
43012

> <i_f3d_flags>
0

> <s_epik_input>
W0NIM11bQ0BASF0xW0NIMl1bQ0gyXVtDQEhdKFtDSDJdW0NIMl0xKVtOSF1DKD1PKVtDSDJdbjJjKD1PKWMoQyNOKVtjSF1uKGMyPU8pW0NIXTNbQ0gyXVtDSDJdMw==

> <s_epik_cmdline>
J2VwaWtfcHl0aG9uJywgJy1waCcsICc3LjAnLCAnLXRuJywgJzgnLCAnLW1hJywgJzIwMCcsICctbWV0YWxfYmluZGluZycsICctaW1hZScsICc8aW5maWxlLm1hZT4nLCAnLW9tYWUnLCAnPG91dGZpbGUubWFlPic=

> <r_lp_tautomer_probability>
1

> <r_epik_Ionization_Penalty>
1.91358e-08

> <r_epik_Ionization_Penalty_Charging>
8.89021e-11

> <r_epik_Ionization_Penalty_Neutral>
1.90469e-08

> <r_epik_State_Penalty>
-0

> <r_epik_Charging_Adjusted_Penalty>
8.89021e-11

> <i_epik_Tot_Q>
0

> <i_epik_Tot_abs_Q>
0

> <r_epik_Metal_State_Penalty>
-0

> <b_epik_Metal_Only>
0

> <s_lp_Force_Field>
OPLS_2005

> <r_lp_Energy>
34.0792

> <b_lp_Chiralities_Consistent>
1

> <s_lp_Variant>
AV-unprocessed.smi:2014-1

> <Gold.Version>
5.8.1

> <Gold.Id.Protein>
6NUR|6NUR_protein|mol2

> <Gold.PLP.Fitness>
48.2205

> <Gold.PLP.PLP>
-46.3388

> <Gold.PLP.part.hbond>
-1.6233

> <Gold.PLP.part.metal>
0.0000

> <Gold.PLP.part.buried>
-6.0155

> <Gold.PLP.part.nonpolar>
-39.9234

> <Gold.PLP.part.repulsive>
0.2053

> <Gold.PLP.ligand.clash>
0.0069

> <Gold.PLP.ligand.torsion>
0.6603

> <Gold.PLP.Chemscore.Hbond>
1.0000

> <Gold.PLP.Chemscore.CHOScore>
0.0000

> <Gold.PLP.Chemscore.Metal>
0.0000

> <Gold.Chemscore.Hbonds>
donor molecule, donor type, donor heavy atom, donor atom, acceptor molecule, acceptor atom, score
      P1  H  7997  8009       L1    12  1.00

> <Gold.PLP.Chemscore.Internal.Correction>
0.2093

> <Gold.Rescore>
     Score         DG    S(hbond)    S(metal)    S(lipo)     H(rot)  DE(clash)    DE(int)     intcor
      9.34     -14.45       0.87        0.00      88.98       1.70       0.20       4.92       ----

> <Gold.Chemscore.Fitness>
9.3353

> <Gold.Chemscore.DG>
-14.4484

> <Gold.Chemscore.ZeroCoef>
-5.4800

> <Gold.Chemscore.Hbond>
0.8740

> <Gold.Chemscore.Metal>
0.0000

> <Gold.Chemscore.Lipo>
88.9827

> <Gold.Chemscore.Internal_Hbond>
0.0000

> <Gold.Chemscore.DEClash>
0.1978

> <Gold.Chemscore.DEInternal>
4.9153

> <Gold.Chemscore.Rot>
1.7038

> <Gold.Chemscore.Internal.Correction>
   9.000000E+99

> <Gold.Chemscore.Hbonds>
donor molecule, donor type, donor heavy atom, donor atom, acceptor molecule, acceptor atom, score
      P1  H  7997  8009       L1    12  0.39

> <Gold.Chemscore.Hbond.Weighted>
-2.9192

> <Gold.Chemscore.Metal.Weighted>
-0.0000

> <Gold.Chemscore.Lipo.Weighted>
-10.4110

> <Gold.Chemscore.Internal_Hbond.Weighted>
0.0000

> <Gold.Chemscore.DEClash.Weighted>
0.1978

> <Gold.Chemscore.DEInternal.Weighted>
4.9153

> <Gold.Chemscore.Rot.Weighted>
4.3618

> <Gold.Chemscore.Internal.Correction.Weighted>
   9.000000E+99

> <Gold.Protein.RotatedTorsions>
[ 6907 6896 6895 6894 ] final -169.00 input  -60.11 | X-H torsion
[ 7974 7965 7964 7962 ] final   57.22 input  175.53 | X-H torsion
[ 8008 7997 7996 7995 ] final  134.40 input   59.86 | X-H torsion
[ 10167 10162 10161 10158 ] final   35.33 input  -65.29 | X-H torsion
[ 10718 10713 10712 10709 ] final   43.45 input   66.30 | X-H torsion
[ 10763 10752 10751 10750 ] final   62.40 input  -60.55 | X-H torsion
[ 11005 11000 10999 10996 ] final  -51.10 input  -57.11 | X-H torsion

> <Gold.Protein.ActiveResidues>
 VAL166  LYS551  ARG553  GLY616  TRP617  ASP618  TYR619  PRO620  LYS621  CYS622 
 ASP623  PHE694  ASN695  SER759  ASP760  ASP761  ALA762  ILE779  LEU786  VAL792 
 PHE793  MET794  SER795  GLU796  ALA797  LYS798  CYS799  TRP800  GLU811  SER814 

> <Gold.Protein.RotatedAtoms>
  151.4845  133.3539  159.2843 H   0  0  0  0  0  0  0  0  0  0  0  0  # atno 6907 bound_to 6896
  150.8875  134.8277  159.7280 H   0  0  0  0  0  0  0  0  0  0  0  0  # atno 6908 bound_to 6896
  152.4802  134.4751  159.9699 H   0  0  0  0  0  0  0  0  0  0  0  0  # atno 6909 bound_to 6896
  145.9314  139.3810  143.0419 H   0  0  0  0  0  0  0  0  0  0  0  0  # atno 7974 bound_to 7965
  156.2999  140.2497  156.3410 H   0  0  0  0  0  0  0  0  0  0  0  0  # atno 8008 bound_to 7997
  154.9055  140.0405  157.1936 H   0  0  0  0  0  0  0  0  0  0  0  0  # atno 8009 bound_to 7997
  154.8458  140.2898  155.5634 H   0  0  0  0  0  0  0  0  0  0  0  0  # atno 8010 bound_to 7997
  140.4232  144.1431  150.6150 H   0  0  0  0  0  0  0  0  0  0  0  0  # atno 10167 bound_to 10162
  157.4160  130.7942  149.7473 H   0  0  0  0  0  0  0  0  0  0  0  0  # atno 10718 bound_to 10713
  152.9981  135.5466  154.6186 H   0  0  0  0  0  0  0  0  0  0  0  0  # atno 10763 bound_to 10752
  154.5491  135.2825  155.1028 H   0  0  0  0  0  0  0  0  0  0  0  0  # atno 10764 bound_to 10752
  154.2275  135.6439  153.5217 H   0  0  0  0  0  0  0  0  0  0  0  0  # atno 10765 bound_to 10752
  141.0852  133.6644  156.3827 H   0  0  0  0  0  0  0  0  0  0  0  0  # atno 11005 bound_to 11000
  145.8421  140.9575  143.0794 LP  0  0  0  0  0  0  0  0  0  0  0  0  # atno 17320 bound_to 7965
  144.6765  140.0298  143.7482 LP  0  0  0  0  0  0  0  0  0  0  0  0  # atno 17321 bound_to 7965
  140.4511  143.2486  151.9347 LP  0  0  0  0  0  0  0  0  0  0  0  0  # atno 17342 bound_to 10162
  139.4783  144.5561  151.8311 LP  0  0  0  0  0  0  0  0  0  0  0  0  # atno 17343 bound_to 10162
  155.9865  130.3974  150.3208 LP  0  0  0  0  0  0  0  0  0  0  0  0  # atno 17370 bound_to 10713
  157.1351  131.0282  151.2952 LP  0  0  0  0  0  0  0  0  0  0  0  0  # atno 17371 bound_to 10713
  140.5378  134.6149  157.5370 LP  0  0  0  0  0  0  0  0  0  0  0  0  # atno 17394 bound_to 11000
  139.9670  134.7357  156.0119 LP  0  0  0  0  0  0  0  0  0  0  0  0  # atno 17395 bound_to 11000

$$$$
