#       Name:                AV-unprocessed.smi:2988
#       Creating user name   scv26
#       Creation time:       Fri Mar 27 16:31:08 2020


#       File generated by GOLD software.
#

@<TRIPOS>MOLECULE
AV-unprocessed.smi:2988
    42    43     1
SMALL
NO_CHARGES


@<TRIPOS>ATOM
      1 ****        -1.4653  -0.7134  -1.6210 C.3            1 S1                 0.0000
      2 ****        -1.9258  -1.1725  -0.2253 C.3            1 S1                 0.0000
      3 ****        -3.4662  -1.1910  -0.1447 C.3            1 S1                 0.0000
      4 ****        -3.9637  -1.6604   1.2309 C.3            1 S1                 0.0000
      5 ****        -3.3790  -0.7933   2.3540 C.3            1 S1                 0.0000
      6 ****        -1.8448  -0.7788   2.2950 C.3            1 S1                 0.0000
      7 ****        -1.3328  -0.3095   0.9190 C.3            1 S1                 0.0000
      8 ****         0.1284  -0.3664   0.9152 N.am           1 S1                 0.0000
      9 ****         0.9541   0.6226   0.5390 C.2            1 S1                 0.0000
     10 ****         0.5632   1.7299   0.1669 O.2            1 S1                 0.0000
     11 ****         2.4553   0.3080   0.6052 C.3            1 S1                 0.0000
     12 ****         3.2359   1.0164  -0.4199 N.am           1 S1                 0.0000
     13 ****         3.9201   2.1220   0.0539 N.2            1 S1                 0.0000
     14 ****         4.6230   2.8301  -0.7614 C.2            1 S1                 0.0000
     15 ****         4.7300   2.5077  -2.1672 C.2            1 S1                 0.0000
     16 ****         5.6885   3.4953  -3.2128 Cl             1 S1                 0.0000
     17 ****         4.0607   1.4179  -2.6201 C.2            1 S1                 0.0000
     18 ****         4.1421   0.9673  -4.2888 Cl             1 S1                 0.0000
     19 ****         3.2491   0.5873  -1.7198 C.2            1 S1                 0.0000
     20 ****         2.6287  -0.4100  -2.0914 O.2            1 S1                 0.0000
     21 ****        -1.7305   0.3287  -1.8016 H              1 S1                 0.0000
     22 ****        -1.9279  -1.3148  -2.4039 H              1 S1                 0.0000
     23 ****        -0.3861  -0.8077  -1.7409 H              1 S1                 0.0000
     24 ****        -1.5785  -2.1981  -0.0903 H              1 S1                 0.0000
     25 ****        -3.8567  -0.1931  -0.3494 H              1 S1                 0.0000
     26 ****        -3.8728  -1.8439  -0.9179 H              1 S1                 0.0000
     27 ****        -5.0531  -1.6259   1.2640 H              1 S1                 0.0000
     28 ****        -3.6822  -2.7025   1.3872 H              1 S1                 0.0000
     29 ****        -3.7588   0.2255   2.2666 H              1 S1                 0.0000
     30 ****        -3.7110  -1.1658   3.3237 H              1 S1                 0.0000
     31 ****        -1.4559  -0.1283   3.0797 H              1 S1                 0.0000
     32 ****        -1.4669  -1.7797   2.5092 H              1 S1                 0.0000
     33 ****        -1.6663   0.7204   0.7784 H              1 S1                 0.0000
     34 ****         0.5449  -1.2380   1.2088 H              1 S1                 0.0000
     35 ****         2.8103   0.5703   1.6034 H              1 S1                 0.0000
     36 ****         2.6136  -0.7683   0.5117 H              1 S1                 0.0000
     37 ****         5.1756   3.7110  -0.4347 H              1 S1                 0.0000
     38 ****        -0.4161   1.9293   0.1338 LP             1 S1                 0.0000
     39 ****         1.2253   2.4295  -0.1021 LP             1 S1                 0.0000
     40 ****         3.8694   2.3695   1.0215 LP             1 S1                 0.0000
     41 ****         2.0906  -0.9377  -1.4342 LP             1 S1                 0.0000
     42 ****         2.6632  -0.6918  -3.0503 LP             1 S1                 0.0000
@<TRIPOS>BOND
    1    1    2 1     
    2    1   21 1     
    3    1   22 1     
    4    1   23 1     
    5    2    7 1     
    6    2    3 1     
    7    2   24 1     
    8    3    4 1     
    9    3   25 1     
   10    3   26 1     
   11    4    5 1     
   12    4   27 1     
   13    4   28 1     
   14    5    6 1     
   15    5   29 1     
   16    5   30 1     
   17    6    7 1     
   18    6   31 1     
   19    6   32 1     
   20    7    8 1     
   21    7   33 1     
   22    8    9 am    
   23    8   34 1     
   24    9   10 2     
   25    9   11 1     
   26   11   12 1     
   27   11   35 1     
   28   11   36 1     
   29   12   19 am    
   30   12   13 1     
   31   13   14 2     
   32   14   15 1     
   33   14   37 1     
   34   15   16 1     
   35   15   17 2     
   36   17   18 1     
   37   17   19 1     
   38   19   20 2     
   39   10   38 1     
   40   10   39 1     
   41   13   40 1     
   42   20   41 1     
   43   20   42 1     
@<TRIPOS>SUBSTRUCTURE
      1 S1             1
@<TRIPOS>SET
LONE_PAIRS      STATIC     ATOMS    <user>   **** ""
5 38 39 40 41 42
DONOR_HYDROGENS      STATIC     ATOMS    <user>   **** ""
1 34
ATOM$BLUE        STATIC     ATOMS    COLORGROUP SYSTEM
5 38 39 40 41 42
ATOM$RED        STATIC     ATOMS    COLORGROUP SYSTEM
1 34
