AV-unprocessed.smi:142|AV-procd|sdf|1190|dock8
  -GOLD-   2262018343D 1   1.00000     0.00000
 Structure written by MMmdl.
 52 55  0  0  0  0  0  0  0  0  1 V2000
  152.7499  138.5816  155.4737 C   0  0  0  0  0  0  0  0  0  0  0  0
  151.4829  139.4457  155.4189 C   0  0  1  0  0  0  0  0  0  0  0  0
  150.3080  138.5889  155.5627 N   0  0  0  0  0  0  0  0  0  0  0  0
  150.1159  137.7029  156.5517 C   0  0  0  0  0  0  0  0  0  0  0  0
  150.8986  137.5598  157.4919 O   0  0  0  0  0  0  0  0  0  0  0  0
  148.8426  136.8508  156.4560 C   0  0  0  0  0  0  0  0  0  0  0  0
  148.6085  136.0433  157.6726 N   0  0  0  0  0  0  0  0  0  0  0  0
  148.5851  134.6302  157.5675 C   0  0  0  0  0  0  0  0  0  0  0  0
  148.7634  134.0657  156.4872 O   0  0  0  0  0  0  0  0  0  0  0  0
  148.3348  133.9107  158.8113 C   0  0  0  0  0  0  0  0  0  0  0  0
  148.3150  132.5670  158.8103 F   0  0  0  0  0  0  0  0  0  0  0  0
  148.1257  134.5730  159.9676 C   0  0  0  0  0  0  0  0  0  0  0  0
  148.1311  135.9535  160.0515 N   0  0  0  0  0  0  0  0  0  0  0  0
  147.8876  136.6666  161.3638 C   0  0  2  0  0  0  0  0  0  0  0  0
  147.7516  135.6491  162.5019 C   0  0  0  0  0  0  0  0  0  0  0  0
  146.2542  135.4353  162.5480 C   0  0  0  0  0  0  0  0  0  0  0  0
  145.7351  136.8268  162.2037 C   0  0  0  0  0  0  0  0  0  0  0  0
  146.6816  137.3715  161.2870 O   0  0  0  0  0  0  0  0  0  0  0  0
  148.3833  136.7219  158.8946 C   0  0  0  0  0  0  0  0  0  0  0  0
  148.4075  137.9540  158.9494 O   0  0  0  0  0  0  0  0  0  0  0  0
  151.5369  140.5620  156.4584 C   0  0  0  0  0  0  0  0  0  0  0  0
  150.8090  141.7615  156.2844 C   0  0  0  0  0  0  0  0  0  0  0  0
  150.8729  142.7814  157.2525 C   0  0  0  0  0  0  0  0  0  0  0  0
  151.6611  142.6109  158.4081 C   0  0  0  0  0  0  0  0  0  0  0  0
  151.7298  143.6296  159.3809 C   0  0  0  0  0  0  0  0  0  0  0  0
  152.5189  143.4516  160.5341 C   0  0  0  0  0  0  0  0  0  0  0  0
  153.2406  142.2564  160.7185 C   0  0  0  0  0  0  0  0  0  0  0  0
  153.1757  141.2356  159.7501 C   0  0  0  0  0  0  0  0  0  0  0  0
  152.3874  141.4083  158.5933 C   0  0  0  0  0  0  0  0  0  0  0  0
  152.3196  140.3904  157.6201 C   0  0  0  0  0  0  0  0  0  0  0  0
  153.6420  139.1850  155.3038 H   0  0  0  0  0  0  0  0  0  0  0  0
  152.7297  137.8032  154.7101 H   0  0  0  0  0  0  0  0  0  0  0  0
  152.8577  138.0952  156.4439 H   0  0  0  0  0  0  0  0  0  0  0  0
  151.4398  139.9059  154.4297 H   0  0  0  0  0  0  0  0  0  0  0  0
  149.6109  138.6455  154.8346 H   0  0  0  0  0  0  0  0  0  0  0  0
  148.0057  137.5157  156.2383 H   0  0  0  0  0  0  0  0  0  0  0  0
  148.9008  136.2016  155.5803 H   0  0  0  0  0  0  0  0  0  0  0  0
  147.9514  133.9865  160.8572 H   0  0  0  0  0  0  0  0  0  0  0  0
  148.7158  137.3663  161.4876 H   0  0  0  0  0  0  0  0  0  0  0  0
  148.3271  134.7404  162.3219 H   0  0  0  0  0  0  0  0  0  0  0  0
  148.1003  136.1120  163.4260 H   0  0  0  0  0  0  0  0  0  0  0  0
  145.9513  134.7172  161.7848 H   0  0  0  0  0  0  0  0  0  0  0  0
  145.9014  135.0759  163.5149 H   0  0  0  0  0  0  0  0  0  0  0  0
  144.7315  136.8076  161.7785 H   0  0  0  0  0  0  0  0  0  0  0  0
  145.7143  137.4537  163.0959 H   0  0  0  0  0  0  0  0  0  0  0  0
  150.1969  141.9089  155.4067 H   0  0  0  0  0  0  0  0  0  0  0  0
  150.3139  143.6937  157.1028 H   0  0  0  0  0  0  0  0  0  0  0  0
  151.1795  144.5497  159.2475 H   0  0  0  0  0  0  0  0  0  0  0  0
  152.5704  144.2332  161.2777 H   0  0  0  0  0  0  0  0  0  0  0  0
  153.8453  142.1220  161.6034 H   0  0  0  0  0  0  0  0  0  0  0  0
  153.7335  140.3224  159.8990 H   0  0  0  0  0  0  0  0  0  0  0  0
  152.8740  139.4736  157.7621 H   0  0  0  0  0  0  0  0  0  0  0  0
  1  2  1  0  0  0  0
  1 31  1  0  0  0  0
  1 32  1  0  0  0  0
  1 33  1  0  0  0  0
  2  3  1  0  0  0  0
  2 21  1  0  0  0  0
  2 34  1  0  0  0  0
  3  4  1  0  0  0  0
  3 35  1  0  0  0  0
  4  5  2  0  0  0  0
  4  6  1  0  0  0  0
  6  7  1  0  0  0  0
  6 36  1  0  0  0  0
  6 37  1  0  0  0  0
  7 19  1  0  0  0  0
  7  8  1  0  0  0  0
  8  9  2  0  0  0  0
  8 10  1  0  0  0  0
 10 11  1  0  0  0  0
 10 12  2  0  0  0  0
 12 13  1  0  0  0  0
 12 38  1  0  0  0  0
 13 14  1  0  0  0  0
 13 19  1  0  0  0  0
 14 18  1  0  0  0  0
 14 15  1  0  0  0  0
 14 39  1  0  0  0  0
 15 16  1  0  0  0  0
 15 40  1  0  0  0  0
 15 41  1  0  0  0  0
 16 17  1  0  0  0  0
 16 42  1  0  0  0  0
 16 43  1  0  0  0  0
 17 18  1  0  0  0  0
 17 44  1  0  0  0  0
 17 45  1  0  0  0  0
 19 20  2  0  0  0  0
 21 30  1  0  0  0  0
 21 22  2  0  0  0  0
 22 23  1  0  0  0  0
 22 46  1  0  0  0  0
 23 24  2  0  0  0  0
 23 47  1  0  0  0  0
 24 29  1  0  0  0  0
 24 25  1  0  0  0  0
 25 26  2  0  0  0  0
 25 48  1  0  0  0  0
 26 27  1  0  0  0  0
 26 49  1  0  0  0  0
 27 28  2  0  0  0  0
 27 50  1  0  0  0  0
 28 29  1  0  0  0  0
 28 51  1  0  0  0  0
 29 30  2  0  0  0  0
 30 52  1  0  0  0  0
M  END
> <s_m_source_file>
AV-unprocessed.smi

> <i_m_source_file_index>
142

> <i_lp_mmshare_version>
43012

> <i_f3d_flags>
0

> <s_epik_input>
W2NIXTFbY0hdW2NIXVtjSF1jKGMxMilbY0hdYyhbY0hdW2NIXTIpW0NASF0oW0NIM10pW05IXUMoPU8pW0NIMl1uM2MoPU8pYyhGKVtjSF1uKGMzPU8pW0NAQEhdNFtDSDJdW0NIMl1bQ0gyXU80

> <s_epik_cmdline>
J2VwaWtfcHl0aG9uJywgJy1waCcsICc3LjAnLCAnLXRuJywgJzgnLCAnLW1hJywgJzIwMCcsICctbWV0YWxfYmluZGluZycsICctaW1hZScsICc8aW5maWxlLm1hZT4nLCAnLW9tYWUnLCAnPG91dGZpbGUubWFlPic=

> <r_lp_tautomer_probability>
1

> <r_epik_Ionization_Penalty>
3.35688e-08

> <r_epik_Ionization_Penalty_Charging>
3.59856e-09

> <r_epik_Ionization_Penalty_Neutral>
2.99702e-08

> <r_epik_State_Penalty>
-0

> <r_epik_Charging_Adjusted_Penalty>
3.59856e-09

> <i_epik_Tot_Q>
0

> <i_epik_Tot_abs_Q>
0

> <r_epik_Metal_State_Penalty>
-0

> <b_epik_Metal_Only>
0

> <s_epik_Chemistry_Notes>
This compound contains an acetal/aminal-like group ( X-CH(R)-Y where X, Y are N, S, or O) that may be acid/base labile, releasing an aldehyde.

> <s_lp_Force_Field>
OPLS_2005

> <r_lp_Energy>
30.4955

> <b_lp_Chiralities_Consistent>
1

> <s_lp_Variant>
AV-unprocessed.smi:142-2

> <Gold.Version>
5.8.1

> <Gold.Id.Protein>
6NUR|6NUR_protein|mol2

> <Gold.PLP.Fitness>
54.8114

> <Gold.PLP.PLP>
-53.5253

> <Gold.PLP.part.hbond>
-1.8607

> <Gold.PLP.part.metal>
0.0000

> <Gold.PLP.part.buried>
-4.6669

> <Gold.PLP.part.nonpolar>
-46.4489

> <Gold.PLP.part.repulsive>
0.0268

> <Gold.PLP.ligand.clash>
0.0000

> <Gold.PLP.ligand.torsion>
0.8961

> <Gold.PLP.Chemscore.Hbond>
1.0000

> <Gold.PLP.Chemscore.CHOScore>
0.0000

> <Gold.PLP.Chemscore.Metal>
0.0000

> <Gold.Chemscore.Hbonds>
donor molecule, donor type, donor heavy atom, donor atom, acceptor molecule, acceptor atom, score
      P1  H  6934  6947       L1    18  1.00

> <Gold.PLP.Chemscore.Internal.Correction>
0.0783

> <Gold.Rescore>
     Score         DG    S(hbond)    S(metal)    S(lipo)     H(rot)  DE(clash)    DE(int)     intcor
     14.11     -18.63       0.59        0.00     139.58       2.02       0.15       4.37       ----

> <Gold.Chemscore.Fitness>
14.1057

> <Gold.Chemscore.DG>
-18.6310

> <Gold.Chemscore.ZeroCoef>
-5.4800

> <Gold.Chemscore.Hbond>
0.5943

> <Gold.Chemscore.Metal>
0.0000

> <Gold.Chemscore.Lipo>
139.5788

> <Gold.Chemscore.Internal_Hbond>
0.0000

> <Gold.Chemscore.DEClash>
0.1511

> <Gold.Chemscore.DEInternal>
4.3742

> <Gold.Chemscore.Rot>
2.0175

> <Gold.Chemscore.Internal.Correction>
   9.000000E+99

> <Gold.Chemscore.Hbonds>
donor molecule, donor type, donor heavy atom, donor atom, acceptor molecule, acceptor atom, score
      P1  H  6934  6947       L1    18  0.45

> <Gold.Chemscore.Hbond.Weighted>
-1.9851

> <Gold.Chemscore.Metal.Weighted>
-0.0000

> <Gold.Chemscore.Lipo.Weighted>
-16.3307

> <Gold.Chemscore.Internal_Hbond.Weighted>
0.0000

> <Gold.Chemscore.DEClash.Weighted>
0.1511

> <Gold.Chemscore.DEInternal.Weighted>
4.3742

> <Gold.Chemscore.Rot.Weighted>
5.1648

> <Gold.Chemscore.Internal.Correction.Weighted>
   9.000000E+99

> <Gold.Protein.RotatedTorsions>
[ 6907 6896 6895 6894 ] final  120.20 input  -60.11 | X-H torsion
[ 7974 7965 7964 7962 ] final  112.81 input  175.53 | X-H torsion
[ 8008 7997 7996 7995 ] final   -2.77 input   59.86 | X-H torsion
[ 10167 10162 10161 10158 ] final -133.75 input  -65.29 | X-H torsion
[ 10718 10713 10712 10709 ] final    1.59 input   66.30 | X-H torsion
[ 10763 10752 10751 10750 ] final   76.30 input  -60.55 | X-H torsion
[ 11005 11000 10999 10996 ] final   90.07 input  -57.11 | X-H torsion

> <Gold.Protein.ActiveResidues>
 VAL166  LYS551  ARG553  GLY616  TRP617  ASP618  TYR619  PRO620  LYS621  CYS622 
 ASP623  PHE694  ASN695  SER759  ASP760  ASP761  ALA762  ILE779  LEU786  VAL792 
 PHE793  MET794  SER795  GLU796  ALA797  LYS798  CYS799  TRP800  GLU811  SER814 

> <Gold.Protein.RotatedAtoms>
  152.4416  133.7458  159.6666 H   0  0  0  0  0  0  0  0  0  0  0  0  # atno 6907 bound_to 6896
  150.8308  133.8084  159.3105 H   0  0  0  0  0  0  0  0  0  0  0  0  # atno 6908 bound_to 6896
  151.5739  135.1064  160.0053 H   0  0  0  0  0  0  0  0  0  0  0  0  # atno 6909 bound_to 6896
  145.2248  139.2846  143.4199 H   0  0  0  0  0  0  0  0  0  0  0  0  # atno 7974 bound_to 7965
  154.6321  140.2526  155.7421 H   0  0  0  0  0  0  0  0  0  0  0  0  # atno 8008 bound_to 7997
  156.2485  140.2905  156.0598 H   0  0  0  0  0  0  0  0  0  0  0  0  # atno 8009 bound_to 7997
  155.1728  140.0387  157.2857 H   0  0  0  0  0  0  0  0  0  0  0  0  # atno 8010 bound_to 7997
  139.8951  143.6676  152.2605 H   0  0  0  0  0  0  0  0  0  0  0  0  # atno 10167 bound_to 10162
  156.8505  130.5552  149.5670 H   0  0  0  0  0  0  0  0  0  0  0  0  # atno 10718 bound_to 10713
  153.0715  135.4956  154.8316 H   0  0  0  0  0  0  0  0  0  0  0  0  # atno 10763 bound_to 10752
  154.7030  135.3005  154.9315 H   0  0  0  0  0  0  0  0  0  0  0  0  # atno 10764 bound_to 10752
  154.0033  135.6763  153.4813 H   0  0  0  0  0  0  0  0  0  0  0  0  # atno 10765 bound_to 10752
  139.8863  134.8591  156.3232 H   0  0  0  0  0  0  0  0  0  0  0  0  # atno 11005 bound_to 11000
  146.3367  140.2565  142.8600 LP  0  0  0  0  0  0  0  0  0  0  0  0  # atno 17320 bound_to 7965
  144.9731  140.8388  143.5443 LP  0  0  0  0  0  0  0  0  0  0  0  0  # atno 17321 bound_to 7965
  139.7075  144.7625  151.1168 LP  0  0  0  0  0  0  0  0  0  0  0  0  # atno 17342 bound_to 10162
  140.7719  143.5375  150.9351 LP  0  0  0  0  0  0  0  0  0  0  0  0  # atno 17343 bound_to 10162
  156.0831  130.5836  150.9599 LP  0  0  0  0  0  0  0  0  0  0  0  0  # atno 17370 bound_to 10713
  157.6306  131.0921  150.8449 LP  0  0  0  0  0  0  0  0  0  0  0  0  # atno 17371 bound_to 10713
  140.9773  133.7289  156.0620 LP  0  0  0  0  0  0  0  0  0  0  0  0  # atno 17394 bound_to 11000
  140.7795  134.3742  157.5490 LP  0  0  0  0  0  0  0  0  0  0  0  0  # atno 17395 bound_to 11000

$$$$
