AV-unprocessed.smi:3335|AV-procd|sdf|12840|dock8
  -GOLD-   2272019223D 1   1.00000     0.00000
 Structure written by MMmdl.
 47 48  0  0  0  0  0  0  0  0  2 V2000
  152.4317  144.1959  161.5318 C   0  0  0  0  0  0  0  0  0  0  0  0
  152.9876  142.8396  161.2078 C   0  0  0  0  0  0  0  0  0  0  0  0
  152.7539  142.0522  160.0456 C   0  0  0  0  0  0  0  0  0  0  0  0
  153.4086  140.9032  160.0651 N   0  0  0  0  0  0  0  0  0  0  0  0
  154.0727  140.9044  161.2431 N   0  0  0  0  0  0  0  0  0  0  0  0
  154.9562  139.7999  161.6112 C   0  0  1  0  0  0  0  0  0  0  0  0
  155.7955  140.1223  162.8638 C   0  0  0  0  0  0  0  0  0  0  0  0
  154.2038  138.4458  161.7198 C   0  0  1  0  0  0  0  0  0  0  0  0
  153.4963  138.0205  160.4150 C   0  0  0  0  0  0  0  0  0  0  0  0
  155.1548  137.4026  162.1800 N   0  3  0  0  0  0  0  0  0  0  0  0
  154.6697  136.3853  163.1459 C   0  0  2  0  0  0  0  0  0  0  0  0
  154.3561  137.0123  164.5182 C   0  0  0  0  0  0  0  0  0  0  0  0
  155.7296  135.2788  163.3073 C   0  0  0  0  0  0  0  0  0  0  0  0
  156.7950  135.3835  162.6966 O   0  0  0  0  0  0  0  0  0  0  0  0
  155.4775  134.2301  164.1207 N   0  0  0  0  0  0  0  0  0  0  0  0
  154.2596  134.0061  164.9010 C   0  0  0  0  0  0  0  0  0  0  0  0
  154.5743  132.8364  165.8338 C   0  0  0  0  0  0  0  0  0  0  0  0
  155.6611  132.0624  165.1027 C   0  0  0  0  0  0  0  0  0  0  0  0
  156.4261  133.1370  164.3309 C   0  0  0  0  0  0  0  0  0  0  0  0
  153.8375  142.0679  161.9473 C   0  0  0  0  0  0  0  0  0  0  0  0
  151.8822  144.6207  160.6914 H   0  0  0  0  0  0  0  0  0  0  0  0
  153.2204  144.9033  161.7886 H   0  0  0  0  0  0  0  0  0  0  0  0
  151.7456  144.1573  162.3780 H   0  0  0  0  0  0  0  0  0  0  0  0
  152.1372  142.2842  159.1898 H   0  0  0  0  0  0  0  0  0  0  0  0
  155.6774  139.7035  160.7974 H   0  0  0  0  0  0  0  0  0  0  0  0
  156.5130  139.3274  163.0681 H   0  0  0  0  0  0  0  0  0  0  0  0
  155.1818  140.2472  163.7557 H   0  0  0  0  0  0  0  0  0  0  0  0
  156.3624  141.0435  162.7246 H   0  0  0  0  0  0  0  0  0  0  0  0
  153.4456  138.5697  162.4923 H   0  0  0  0  0  0  0  0  0  0  0  0
  152.8832  138.8261  160.0126 H   0  0  0  0  0  0  0  0  0  0  0  0
  152.8262  137.1770  160.5760 H   0  0  0  0  0  0  0  0  0  0  0  0
  154.2103  137.7307  159.6437 H   0  0  0  0  0  0  0  0  0  0  0  0
  155.4876  136.9140  161.3607 H   0  0  0  0  0  0  0  0  0  0  0  0
  153.7661  135.9390  162.7361 H   0  0  0  0  0  0  0  0  0  0  0  0
  154.1089  136.2515  165.2595 H   0  0  0  0  0  0  0  0  0  0  0  0
  153.5018  137.6866  164.4672 H   0  0  0  0  0  0  0  0  0  0  0  0
  155.2061  137.5780  164.9016 H   0  0  0  0  0  0  0  0  0  0  0  0
  153.9564  134.8862  165.4689 H   0  0  0  0  0  0  0  0  0  0  0  0
  153.4472  133.7394  164.2235 H   0  0  0  0  0  0  0  0  0  0  0  0
  154.9700  133.2163  166.7767 H   0  0  0  0  0  0  0  0  0  0  0  0
  153.6993  132.2265  166.0599 H   0  0  0  0  0  0  0  0  0  0  0  0
  156.2995  131.4885  165.7753 H   0  0  0  0  0  0  0  0  0  0  0  0
  155.2022  131.3649  164.4007 H   0  0  0  0  0  0  0  0  0  0  0  0
  156.8175  132.7446  163.3909 H   0  0  0  0  0  0  0  0  0  0  0  0
  157.2668  133.5056  164.9207 H   0  0  0  0  0  0  0  0  0  0  0  0
  154.2953  142.2532  162.9080 H   0  0  0  0  0  0  0  0  0  0  0  0
  155.9453  137.8650  162.6062 H   0  0  0  0  0  0  0  0  0  0  0  0
  1  2  1  0  0  0  0
  1 21  1  0  0  0  0
  1 22  1  0  0  0  0
  1 23  1  0  0  0  0
  2 20  2  0  0  0  0
  2  3  1  0  0  0  0
  3  4  2  0  0  0  0
  3 24  1  0  0  0  0
  4  5  1  0  0  0  0
  5  6  1  0  0  0  0
  5 20  1  0  0  0  0
  6  7  1  0  0  0  0
  6  8  1  0  0  0  0
  6 25  1  0  0  0  0
  7 26  1  0  0  0  0
  7 27  1  0  0  0  0
  7 28  1  0  0  0  0
  8  9  1  0  0  0  0
  8 10  1  0  0  0  0
  8 29  1  0  0  0  0
  9 30  1  0  0  0  0
  9 31  1  0  0  0  0
  9 32  1  0  0  0  0
 10 11  1  0  0  0  0
 10 33  1  0  0  0  0
 10 47  1  0  0  0  0
 11 12  1  0  0  0  0
 11 13  1  0  0  0  0
 11 34  1  0  0  0  0
 12 35  1  0  0  0  0
 12 36  1  0  0  0  0
 12 37  1  0  0  0  0
 13 14  2  0  0  0  0
 13 15  1  0  0  0  0
 15 19  1  0  0  0  0
 15 16  1  0  0  0  0
 16 17  1  0  0  0  0
 16 38  1  0  0  0  0
 16 39  1  0  0  0  0
 17 18  1  0  0  0  0
 17 40  1  0  0  0  0
 17 41  1  0  0  0  0
 18 19  1  0  0  0  0
 18 42  1  0  0  0  0
 18 43  1  0  0  0  0
 19 44  1  0  0  0  0
 19 45  1  0  0  0  0
 20 46  1  0  0  0  0
M  CHG  1  10   1
M  END
> <s_m_source_file>
AV-unprocessed.smi

> <i_m_source_file_index>
3335

> <i_lp_mmshare_version>
43012

> <i_f3d_flags>
0

> <s_epik_input>
W0NIM11jMVtjSF1ubihbY0hdMSlbQ0BIXShbQ0gzXSlbQ0BIXShbQ0gzXSlbTkhdW0NASF0oW0NIM10pQyg9TylOMltDSDJdW0NIMl1bQ0gyXVtDSDJdMg==

> <s_epik_cmdline>
J2VwaWtfcHl0aG9uJywgJy1waCcsICc3LjAnLCAnLXRuJywgJzgnLCAnLW1hJywgJzIwMCcsICctbWV0YWxfYmluZGluZycsICctaW1hZScsICc8aW5maWxlLm1hZT4nLCAnLW9tYWUnLCAnPG91dGZpbGUubWFlPic=

> <r_lp_tautomer_probability>
1

> <r_epik_Ionization_Penalty>
0.14175

> <r_epik_Ionization_Penalty_Charging>
0.141731

> <r_epik_Ionization_Penalty_Neutral>
1.91261e-05

> <r_epik_State_Penalty>
0.131043

> <r_epik_Charging_Adjusted_Penalty>
0.272773

> <i_epik_Tot_Q>
1

> <i_epik_Tot_abs_Q>
1

> <r_epik_Metal_State_Penalty>
0.131408

> <b_epik_Metal_Only>
0

> <s_lp_Force_Field>
OPLS_2005

> <r_lp_Energy>
37.3946

> <b_lp_Chiralities_Consistent>
1

> <s_lp_Variant>
AV-unprocessed.smi:3335-4

> <Gold.Version>
5.8.1

> <Gold.Id.Protein>
6NUR|6NUR_protein|mol2

> <Gold.PLP.Fitness>
41.9232

> <Gold.PLP.PLP>
-43.0212

> <Gold.PLP.part.hbond>
0.0000

> <Gold.PLP.part.metal>
0.0000

> <Gold.PLP.part.buried>
-4.4488

> <Gold.PLP.part.nonpolar>
-37.6028

> <Gold.PLP.part.repulsive>
0.0000

> <Gold.PLP.ligand.clash>
0.0000

> <Gold.PLP.ligand.torsion>
0.6519

> <Gold.PLP.Chemscore.Hbond>
0.0000

> <Gold.PLP.Chemscore.CHOScore>
0.0000

> <Gold.PLP.Chemscore.Metal>
0.0000

> <Gold.PLP.Chemscore.Internal.Correction>
0.2058

> <Gold.Rescore>
     Score         DG    S(hbond)    S(metal)    S(lipo)     H(rot)  DE(clash)    DE(int)     intcor
     13.20     -15.07       0.00        0.00     118.66       1.68       0.06       1.82       ----

> <Gold.Chemscore.Fitness>
13.1953

> <Gold.Chemscore.DG>
-15.0685

> <Gold.Chemscore.ZeroCoef>
-5.4800

> <Gold.Chemscore.Hbond>
0.0000

> <Gold.Chemscore.Metal>
0.0000

> <Gold.Chemscore.Lipo>
118.6642

> <Gold.Chemscore.Internal_Hbond>
0.0000

> <Gold.Chemscore.DEClash>
0.0553

> <Gold.Chemscore.DEInternal>
1.8180

> <Gold.Chemscore.Rot>
1.6778

> <Gold.Chemscore.Internal.Correction>
   9.000000E+99

> <Gold.Chemscore.Hbond.Weighted>
-0.0000

> <Gold.Chemscore.Metal.Weighted>
-0.0000

> <Gold.Chemscore.Lipo.Weighted>
-13.8837

> <Gold.Chemscore.Internal_Hbond.Weighted>
0.0000

> <Gold.Chemscore.DEClash.Weighted>
0.0553

> <Gold.Chemscore.DEInternal.Weighted>
1.8180

> <Gold.Chemscore.Rot.Weighted>
4.2952

> <Gold.Chemscore.Internal.Correction.Weighted>
   9.000000E+99

> <Gold.Protein.RotatedTorsions>
[ 6907 6896 6895 6894 ] final    4.61 input  -60.11 | X-H torsion
[ 7974 7965 7964 7962 ] final   47.05 input  175.53 | X-H torsion
[ 8008 7997 7996 7995 ] final   82.49 input   59.86 | X-H torsion
[ 10167 10162 10161 10158 ] final -112.69 input  -65.29 | X-H torsion
[ 10718 10713 10712 10709 ] final   24.85 input   66.30 | X-H torsion
[ 10763 10752 10751 10750 ] final   96.67 input  -60.55 | X-H torsion
[ 11005 11000 10999 10996 ] final  -53.72 input  -57.11 | X-H torsion

> <Gold.Protein.ActiveResidues>
 VAL166  LYS551  ARG553  GLY616  TRP617  ASP618  TYR619  PRO620  LYS621  CYS622 
 ASP623  PHE694  ASN695  SER759  ASP760  ASP761  ALA762  ILE779  LEU786  VAL792 
 PHE793  MET794  SER795  GLU796  ALA797  LYS798  CYS799  TRP800  GLU811  SER814 

> <Gold.Protein.RotatedAtoms>
  151.6441  135.1009  160.0147 H   0  0  0  0  0  0  0  0  0  0  0  0  # atno 6907 bound_to 6896
  152.4037  133.6853  159.6347 H   0  0  0  0  0  0  0  0  0  0  0  0  # atno 6908 bound_to 6896
  150.7934  133.8663  159.3287 H   0  0  0  0  0  0  0  0  0  0  0  0  # atno 6909 bound_to 6896
  146.0333  139.4790  142.9824 H   0  0  0  0  0  0  0  0  0  0  0  0  # atno 7974 bound_to 7965
  155.9113  140.3427  155.6101 H   0  0  0  0  0  0  0  0  0  0  0  0  # atno 8008 bound_to 7997
  155.7384  140.0804  157.2276 H   0  0  0  0  0  0  0  0  0  0  0  0  # atno 8009 bound_to 7997
  154.4056  140.1575  156.2575 H   0  0  0  0  0  0  0  0  0  0  0  0  # atno 8010 bound_to 7997
  140.1200  143.4452  152.1697 H   0  0  0  0  0  0  0  0  0  0  0  0  # atno 10167 bound_to 10162
  157.1854  130.6822  149.6129 H   0  0  0  0  0  0  0  0  0  0  0  0  # atno 10718 bound_to 10713
  153.2677  135.4210  155.0957 H   0  0  0  0  0  0  0  0  0  0  0  0  # atno 10763 bound_to 10752
  154.8444  135.3464  154.6288 H   0  0  0  0  0  0  0  0  0  0  0  0  # atno 10764 bound_to 10752
  153.6708  135.7044  153.5205 H   0  0  0  0  0  0  0  0  0  0  0  0  # atno 10765 bound_to 10752
  141.0990  133.6620  156.4213 H   0  0  0  0  0  0  0  0  0  0  0  0  # atno 11005 bound_to 11000
  145.7005  141.0137  143.1507 LP  0  0  0  0  0  0  0  0  0  0  0  0  # atno 17320 bound_to 7965
  144.7040  139.8638  143.7435 LP  0  0  0  0  0  0  0  0  0  0  0  0  # atno 17321 bound_to 7965
  139.5574  144.7382  151.4255 LP  0  0  0  0  0  0  0  0  0  0  0  0  # atno 17342 bound_to 10162
  140.6877  143.7934  150.7210 LP  0  0  0  0  0  0  0  0  0  0  0  0  # atno 17343 bound_to 10162
  155.9718  130.4632  150.6174 LP  0  0  0  0  0  0  0  0  0  0  0  0  # atno 17370 bound_to 10713
  157.3912  131.0796  151.1392 LP  0  0  0  0  0  0  0  0  0  0  0  0  # atno 17371 bound_to 10713
  140.5069  134.6432  157.5270 LP  0  0  0  0  0  0  0  0  0  0  0  0  # atno 17394 bound_to 11000
  139.9835  134.7099  155.9816 LP  0  0  0  0  0  0  0  0  0  0  0  0  # atno 17395 bound_to 11000

$$$$
