AV-unprocessed.smi:39|AV-procd|sdf|361|dock3
  -GOLD-   2262016203D 1   1.00000     0.00000
 Structure written by MMmdl.
 31 32  0  0  0  0  0  0  0  0  4 V2000
  150.9177  143.2989  158.1523 C   0  0  0  0  0  0  0  0  0  0  0  0
  151.1263  142.0114  157.3744 C   0  0  0  0  0  0  0  0  0  0  0  0
  150.3906  141.6992  156.2847 C   0  0  0  0  0  0  0  0  0  0  0  0
  150.5802  140.5272  155.5724 N   0  0  0  0  0  0  0  0  0  0  0  0
  149.7858  140.2703  154.3071 C   0  0  1  0  0  0  0  0  0  0  0  0
  148.7993  139.1017  154.4108 C   0  0  0  0  0  0  0  0  0  0  0  0
  147.7902  139.5160  153.3547 C   0  0  1  0  0  0  0  0  0  0  0  0
  146.4770  138.8777  153.4933 N   0  0  0  0  0  0  0  0  0  0  0  0
  146.1650  138.0607  152.6173 N   0  3  0  0  0  0  0  0  0  0  0  0
  145.8831  137.2224  151.9011 N   0  5  0  0  0  0  0  0  0  0  0  0
  147.7748  141.0522  153.4973 C   0  0  1  0  0  0  0  0  0  0  0  0
  146.6800  141.7019  154.3738 C   0  0  0  0  0  0  0  0  0  0  0  0
  146.7471  143.1131  154.3970 O   0  0  0  0  0  0  0  0  0  0  0  0
  149.0571  141.4207  154.0054 O   0  0  0  0  0  0  0  0  0  0  0  0
  151.6523  139.6651  155.9346 C   0  0  0  0  0  0  0  0  0  0  0  0
  151.8754  138.6751  155.2378 O   0  0  0  0  0  0  0  0  0  0  0  0
  152.3887  139.9619  157.0437 N   0  5  0  0  0  0  0  0  0  0  0  0
  152.1737  141.0767  157.7985 C   0  0  0  0  0  0  0  0  0  0  0  0
  152.8312  141.3194  158.8103 O   0  0  0  0  0  0  0  0  0  0  0  0
  150.4882  140.0873  153.4946 H   0  0  0  0  0  0  0  0  0  0  0  0
  148.2165  139.2831  152.3762 H   0  0  0  0  0  0  0  0  0  0  0  0
  147.6904  141.4888  152.5014 H   0  0  0  0  0  0  0  0  0  0  0  0
  150.1122  143.8953  157.7227 H   0  0  0  0  0  0  0  0  0  0  0  0
  151.8264  143.9013  158.1416 H   0  0  0  0  0  0  0  0  0  0  0  0
  150.6600  143.0802  159.1890 H   0  0  0  0  0  0  0  0  0  0  0  0
  149.6446  142.4044  155.9560 H   0  0  0  0  0  0  0  0  0  0  0  0
  149.2935  138.1533  154.1991 H   0  0  0  0  0  0  0  0  0  0  0  0
  148.3324  139.0444  155.3920 H   0  0  0  0  0  0  0  0  0  0  0  0
  145.6913  141.3962  154.0312 H   0  0  0  0  0  0  0  0  0  0  0  0
  146.7781  141.3508  155.4012 H   0  0  0  0  0  0  0  0  0  0  0  0
  147.5324  143.3689  154.8559 H   0  0  0  0  0  0  0  0  0  0  0  0
  1  2  1  0  0  0  0
  1 23  1  0  0  0  0
  1 24  1  0  0  0  0
  1 25  1  0  0  0  0
  2 18  1  0  0  0  0
  2  3  2  0  0  0  0
  3  4  1  0  0  0  0
  3 26  1  0  0  0  0
  4  5  1  0  0  0  0
  4 15  1  0  0  0  0
  5 20  1  0  0  0  0
  5 14  1  0  0  0  0
  5  6  1  0  0  0  0
  6  7  1  0  0  0  0
  6 27  1  0  0  0  0
  6 28  1  0  0  0  0
  7 21  1  0  0  0  0
  7  8  1  0  0  0  0
  7 11  1  0  0  0  0
  8  9  2  0  0  0  0
  9 10  2  0  0  0  0
 11 22  1  0  0  0  0
 11 12  1  0  0  0  0
 11 14  1  0  0  0  0
 12 13  1  0  0  0  0
 12 29  1  0  0  0  0
 12 30  1  0  0  0  0
 13 31  1  0  0  0  0
 15 16  2  0  0  0  0
 15 17  1  0  0  0  0
 17 18  1  0  0  0  0
 18 19  2  0  0  0  0
M  CHG  1   9   1
M  CHG  1  10  -1
M  CHG  1  17  -1
M  END
> <s_m_source_file>
AV-unprocessed.smi

> <i_m_source_file_index>
39

> <i_lp_mmshare_version>
43012

> <i_f3d_flags>
0

> <s_epik_input>
Tz1jMVtuSF1jKD1PKW4oW2NIXWMxW0NIM10pW0NASF0yW0NIMl1bQ0BIXShOPVtOK109W04tXSlbQ0BIXShPMilbQ0gyXVtPSF0=

> <s_epik_cmdline>
J2VwaWtfcHl0aG9uJywgJy1waCcsICc3LjAnLCAnLXRuJywgJzgnLCAnLW1hJywgJzIwMCcsICctbWV0YWxfYmluZGluZycsICctaW1hZScsICc8aW5maWxlLm1hZT4nLCAnLW9tYWUnLCAnPG91dGZpbGUubWFlPic=

> <r_lp_tautomer_probability>
0.999537

> <r_epik_Ionization_Penalty>
3.6393

> <r_epik_Ionization_Penalty_Charging>
9.76484e-08

> <r_epik_Ionization_Penalty_Neutral>
3.6393

> <r_epik_State_Penalty>
3.63887

> <r_epik_Charging_Adjusted_Penalty>
3.63887

> <i_epik_Tot_Q>
-1

> <i_epik_Tot_abs_Q>
3

> <r_epik_Metal_State_Penalty>
0.225911

> <b_epik_Metal_Only>
1

> <s_epik_Chemistry_Notes>
This compound contains an acetal/aminal-like group ( X-CH(R)-Y where X, Y are N, S, or O) that may be acid/base labile, releasing an aldehyde.

> <s_lp_Force_Field>
OPLS_2005

> <r_lp_Energy>
41.1751

> <b_lp_Chiralities_Consistent>
1

> <s_lp_Variant>
AV-unprocessed.smi:39-11

> <Gold.Version>
5.8.1

> <Gold.Id.Protein>
6NUR|6NUR_protein|mol2

> <Gold.PLP.Fitness>
41.0911

> <Gold.PLP.PLP>
-27.6883

> <Gold.PLP.part.hbond>
-3.9651

> <Gold.PLP.part.metal>
0.0000

> <Gold.PLP.part.buried>
0.7777

> <Gold.PLP.part.nonpolar>
-24.0308

> <Gold.PLP.part.repulsive>
0.9289

> <Gold.PLP.ligand.clash>
0.0000

> <Gold.PLP.ligand.torsion>
0.3291

> <Gold.PLP.Chemscore.Hbond>
3.6578

> <Gold.PLP.Chemscore.CHOScore>
1.0000

> <Gold.PLP.Chemscore.Metal>
0.0000

> <Gold.Chemscore.Hbonds>
donor molecule, donor type, donor heavy atom, donor atom, acceptor molecule, acceptor atom, score
      L1  H    13    31       P1  8028  1.00
      P1  H  7997  8010       L1    17  2.00
      P1  H  8011  8017       L1    14  0.60
      L1  C     3    26       P1  8028  1.00

> <Gold.PLP.Chemscore.Internal.Correction>
0.0876

> <Gold.Rescore>
     Score         DG    S(hbond)    S(metal)    S(lipo)     H(rot)  DE(clash)    DE(int)     intcor
      6.48      -7.69       1.00        0.00      49.73       2.72       0.77       0.44       ----

> <Gold.Chemscore.Fitness>
6.4765

> <Gold.Chemscore.DG>
-7.6896

> <Gold.Chemscore.ZeroCoef>
-5.4800

> <Gold.Chemscore.Hbond>
1.0007

> <Gold.Chemscore.Metal>
0.0000

> <Gold.Chemscore.Lipo>
49.7308

> <Gold.Chemscore.Internal_Hbond>
0.0000

> <Gold.Chemscore.DEClash>
0.7690

> <Gold.Chemscore.DEInternal>
0.4440

> <Gold.Chemscore.Rot>
2.7153

> <Gold.Chemscore.Internal.Correction>
   9.000000E+99

> <Gold.Chemscore.Hbonds>
donor molecule, donor type, donor heavy atom, donor atom, acceptor molecule, acceptor atom, score
      L1  H    13    31       P1  8028  0.23
      P1  H  7997  8010       L1    17  0.29
      P1  H  8011  8017       L1    14  0.11

> <Gold.Chemscore.Hbond.Weighted>
-3.3423

> <Gold.Chemscore.Metal.Weighted>
-0.0000

> <Gold.Chemscore.Lipo.Weighted>
-5.8185

> <Gold.Chemscore.Internal_Hbond.Weighted>
0.0000

> <Gold.Chemscore.DEClash.Weighted>
0.7690

> <Gold.Chemscore.DEInternal.Weighted>
0.4440

> <Gold.Chemscore.Rot.Weighted>
6.9512

> <Gold.Chemscore.Internal.Correction.Weighted>
   9.000000E+99

> <Gold.Protein.RotatedTorsions>
[ 6907 6896 6895 6894 ] final  -72.38 input  -60.11 | X-H torsion
[ 7974 7965 7964 7962 ] final -174.72 input  175.53 | X-H torsion
[ 8008 7997 7996 7995 ] final   64.06 input   59.86 | X-H torsion
[ 10167 10162 10161 10158 ] final -165.64 input  -65.29 | X-H torsion
[ 10718 10713 10712 10709 ] final   23.51 input   66.30 | X-H torsion
[ 10763 10752 10751 10750 ] final  -14.51 input  -60.55 | X-H torsion
[ 11005 11000 10999 10996 ] final  -69.38 input  -57.11 | X-H torsion

> <Gold.Protein.ActiveResidues>
 VAL166  LYS551  ARG553  GLY616  TRP617  ASP618  TYR619  PRO620  LYS621  CYS622 
 ASP623  PHE694  ASN695  SER759  ASP760  ASP761  ALA762  ILE779  LEU786  VAL792 
 PHE793  MET794  SER795  GLU796  ALA797  LYS798  CYS799  TRP800  GLU811  SER814 

> <Gold.Protein.RotatedAtoms>
  150.7172  134.5171  159.5635 H   0  0  0  0  0  0  0  0  0  0  0  0  # atno 6907 bound_to 6896
  152.2735  134.7904  160.0419 H   0  0  0  0  0  0  0  0  0  0  0  0  # atno 6908 bound_to 6896
  151.8576  133.3416  159.3730 H   0  0  0  0  0  0  0  0  0  0  0  0  # atno 6909 bound_to 6896
  144.7130  140.1429  143.6390 H   0  0  0  0  0  0  0  0  0  0  0  0  # atno 7974 bound_to 7965
  155.6400  140.3497  155.4712 H   0  0  0  0  0  0  0  0  0  0  0  0  # atno 8008 bound_to 7997
  155.9934  140.1198  157.0640 H   0  0  0  0  0  0  0  0  0  0  0  0  # atno 8009 bound_to 7997
  154.4226  140.1115  156.5582 H   0  0  0  0  0  0  0  0  0  0  0  0  # atno 8010 bound_to 7997
  139.6168  144.0703  152.1895 H   0  0  0  0  0  0  0  0  0  0  0  0  # atno 10167 bound_to 10162
  157.1671  130.6743  149.6064 H   0  0  0  0  0  0  0  0  0  0  0  0  # atno 10718 bound_to 10713
  153.5293  135.7015  153.5691 H   0  0  0  0  0  0  0  0  0  0  0  0  # atno 10763 bound_to 10752
  153.3705  135.3946  155.1785 H   0  0  0  0  0  0  0  0  0  0  0  0  # atno 10764 bound_to 10752
  154.8686  135.3811  154.4789 H   0  0  0  0  0  0  0  0  0  0  0  0  # atno 10765 bound_to 10752
  141.1553  133.6763  156.6591 H   0  0  0  0  0  0  0  0  0  0  0  0  # atno 11005 bound_to 11000
  145.9186  139.2531  143.1395 LP  0  0  0  0  0  0  0  0  0  0  0  0  # atno 17320 bound_to 7965
  145.9643  140.8810  143.0194 LP  0  0  0  0  0  0  0  0  0  0  0  0  # atno 17321 bound_to 7965
  140.0335  144.6062  150.7468 LP  0  0  0  0  0  0  0  0  0  0  0  0  # atno 17342 bound_to 10162
  140.7356  143.2743  151.3790 LP  0  0  0  0  0  0  0  0  0  0  0  0  # atno 17343 bound_to 10162
  155.9744  130.4692  150.6386 LP  0  0  0  0  0  0  0  0  0  0  0  0  # atno 17370 bound_to 10713
  157.4078  131.0819  151.1249 LP  0  0  0  0  0  0  0  0  0  0  0  0  # atno 17371 bound_to 10713
  140.3261  134.7967  157.4290 LP  0  0  0  0  0  0  0  0  0  0  0  0  # atno 17394 bound_to 11000
  140.1056  134.5414  155.8313 LP  0  0  0  0  0  0  0  0  0  0  0  0  # atno 17395 bound_to 11000

$$$$
