AV-unprocessed.smi:123|AV-procd|sdf|1143|dock10
  -GOLD-   2262018273D 1   1.00000     0.00000
 Structure written by MMmdl.
 43 45  0  0  0  0  0  0  0  0  1 V2000
  146.9786  137.7580  153.9323 C   0  0  0  0  0  0  0  0  0  0  0  0
  147.7091  139.0501  153.5230 C   0  0  2  0  0  0  0  0  0  0  0  0
  149.1363  138.9736  153.8391 N   0  0  0  0  0  0  0  0  0  0  0  0
  149.6835  138.5786  155.0012 C   0  0  0  0  0  0  0  0  0  0  0  0
  149.0203  138.2350  155.9809 O   0  0  0  0  0  0  0  0  0  0  0  0
  151.2189  138.5858  155.0511 C   0  0  0  0  0  0  0  0  0  0  0  0
  151.7604  138.9520  156.3784 N   0  0  0  0  0  0  0  0  0  0  0  0
  152.6628  138.0586  157.0085 C   0  0  0  0  0  0  0  0  0  0  0  0
  153.0005  137.0048  156.4668 O   0  0  0  0  0  0  0  0  0  0  0  0
  153.1466  138.4722  158.3208 C   0  0  0  0  0  0  0  0  0  0  0  0
  154.0172  137.6938  158.9858 F   0  0  0  0  0  0  0  0  0  0  0  0
  152.7338  139.6282  158.8789 C   0  0  0  0  0  0  0  0  0  0  0  0
  151.8395  140.4812  158.2608 N   0  0  0  0  0  0  0  0  0  0  0  0
  151.4098  141.7592  158.9412 C   0  0  2  0  0  0  0  0  0  0  0  0
  151.8456  142.9791  158.1189 C   0  0  0  0  0  0  0  0  0  0  0  0
  153.0306  143.4973  158.9079 C   0  0  0  0  0  0  0  0  0  0  0  0
  152.6542  143.1031  160.3304 C   0  0  0  0  0  0  0  0  0  0  0  0
  152.0374  141.8297  160.1883 O   0  0  0  0  0  0  0  0  0  0  0  0
  151.3343  140.1601  156.9817 C   0  0  0  0  0  0  0  0  0  0  0  0
  150.5464  140.9121  156.4044 O   0  0  0  0  0  0  0  0  0  0  0  0
  147.0685  140.3009  154.0508 C   0  0  0  0  0  0  0  0  0  0  0  0
  145.9489  140.5533  154.7969 C   0  0  0  0  0  0  0  0  0  0  0  0
  145.8838  141.9640  154.9638 C   0  0  0  0  0  0  0  0  0  0  0  0
  146.9645  142.4711  154.3011 C   0  0  0  0  0  0  0  0  0  0  0  0
  147.6947  141.4716  153.7366 O   0  0  0  0  0  0  0  0  0  0  0  0
  145.9503  137.7597  153.5700 H   0  0  0  0  0  0  0  0  0  0  0  0
  146.9449  137.6365  155.0154 H   0  0  0  0  0  0  0  0  0  0  0  0
  147.4712  136.8794  153.5142 H   0  0  0  0  0  0  0  0  0  0  0  0
  147.6630  139.1032  152.4348 H   0  0  0  0  0  0  0  0  0  0  0  0
  149.7686  139.2416  153.0991 H   0  0  0  0  0  0  0  0  0  0  0  0
  151.5867  137.6049  154.7452 H   0  0  0  0  0  0  0  0  0  0  0  0
  151.5817  139.2574  154.2718 H   0  0  0  0  0  0  0  0  0  0  0  0
  153.1225  139.8905  159.8514 H   0  0  0  0  0  0  0  0  0  0  0  0
  150.3311  141.7045  159.0919 H   0  0  0  0  0  0  0  0  0  0  0  0
  152.0816  142.7210  157.0855 H   0  0  0  0  0  0  0  0  0  0  0  0
  151.0341  143.7076  158.1240 H   0  0  0  0  0  0  0  0  0  0  0  0
  153.9431  142.9842  158.6021 H   0  0  0  0  0  0  0  0  0  0  0  0
  153.1866  144.5698  158.7903 H   0  0  0  0  0  0  0  0  0  0  0  0
  153.5138  143.0603  160.9995 H   0  0  0  0  0  0  0  0  0  0  0  0
  151.9310  143.8071  160.7446 H   0  0  0  0  0  0  0  0  0  0  0  0
  145.2628  139.8130  155.1806 H   0  0  0  0  0  0  0  0  0  0  0  0
  145.1408  142.5355  155.5001 H   0  0  0  0  0  0  0  0  0  0  0  0
  147.3444  143.4689  154.1385 H   0  0  0  0  0  0  0  0  0  0  0  0
  1  2  1  0  0  0  0
  1 26  1  0  0  0  0
  1 27  1  0  0  0  0
  1 28  1  0  0  0  0
  2  3  1  0  0  0  0
  2 21  1  0  0  0  0
  2 29  1  0  0  0  0
  3  4  1  0  0  0  0
  3 30  1  0  0  0  0
  4  5  2  0  0  0  0
  4  6  1  0  0  0  0
  6  7  1  0  0  0  0
  6 31  1  0  0  0  0
  6 32  1  0  0  0  0
  7 19  1  0  0  0  0
  7  8  1  0  0  0  0
  8  9  2  0  0  0  0
  8 10  1  0  0  0  0
 10 11  1  0  0  0  0
 10 12  2  0  0  0  0
 12 13  1  0  0  0  0
 12 33  1  0  0  0  0
 13 14  1  0  0  0  0
 13 19  1  0  0  0  0
 14 18  1  0  0  0  0
 14 15  1  0  0  0  0
 14 34  1  0  0  0  0
 15 16  1  0  0  0  0
 15 35  1  0  0  0  0
 15 36  1  0  0  0  0
 16 17  1  0  0  0  0
 16 37  1  0  0  0  0
 16 38  1  0  0  0  0
 17 18  1  0  0  0  0
 17 39  1  0  0  0  0
 17 40  1  0  0  0  0
 19 20  2  0  0  0  0
 21 25  1  0  0  0  0
 21 22  2  0  0  0  0
 22 23  1  0  0  0  0
 22 41  1  0  0  0  0
 23 24  2  0  0  0  0
 23 42  1  0  0  0  0
 24 25  1  0  0  0  0
 24 43  1  0  0  0  0
M  END
> <s_m_source_file>
AV-unprocessed.smi

> <i_m_source_file_index>
123

> <i_lp_mmshare_version>
43012

> <i_f3d_flags>
0

> <s_epik_input>
bzFbY0hdW2NIXVtjSF1jMVtDQEhdKFtDSDNdKVtOSF1DKD1PKVtDSDJdbjJjKD1PKWMoRilbY0hdbihjMj1PKVtDQEBIXTNbQ0gyXVtDSDJdW0NIMl1PMw==

> <s_epik_cmdline>
J2VwaWtfcHl0aG9uJywgJy1waCcsICc3LjAnLCAnLXRuJywgJzgnLCAnLW1hJywgJzIwMCcsICctbWV0YWxfYmluZGluZycsICctaW1hZScsICc8aW5maWxlLm1hZT4nLCAnLW9tYWUnLCAnPG91dGZpbGUubWFlPic=

> <r_lp_tautomer_probability>
1

> <r_epik_Ionization_Penalty>
2.31906e-08

> <r_epik_Ionization_Penalty_Charging>
3.85846e-09

> <r_epik_Ionization_Penalty_Neutral>
1.93321e-08

> <r_epik_State_Penalty>
-0

> <r_epik_Charging_Adjusted_Penalty>
3.85846e-09

> <i_epik_Tot_Q>
0

> <i_epik_Tot_abs_Q>
0

> <r_epik_Metal_State_Penalty>
-0

> <b_epik_Metal_Only>
0

> <s_epik_Chemistry_Notes>
This compound contains an acetal/aminal-like group ( X-CH(R)-Y where X, Y are N, S, or O) that may be acid/base labile, releasing an aldehyde.

> <s_lp_Force_Field>
OPLS_2005

> <r_lp_Energy>
21.3093

> <b_lp_Chiralities_Consistent>
1

> <s_lp_Variant>
AV-unprocessed.smi:123-1

> <Gold.Version>
5.8.1

> <Gold.Id.Protein>
6NUR|6NUR_protein|mol2

> <Gold.PLP.Fitness>
43.8470

> <Gold.PLP.PLP>
-38.0710

> <Gold.PLP.part.hbond>
-2.0000

> <Gold.PLP.part.metal>
0.0000

> <Gold.PLP.part.buried>
-5.1214

> <Gold.PLP.part.nonpolar>
-31.7691

> <Gold.PLP.part.repulsive>
0.3070

> <Gold.PLP.ligand.clash>
0.0000

> <Gold.PLP.ligand.torsion>
0.6917

> <Gold.PLP.Chemscore.Hbond>
1.5200

> <Gold.PLP.Chemscore.CHOScore>
0.8302

> <Gold.PLP.Chemscore.Metal>
0.0000

> <Gold.Chemscore.Hbonds>
donor molecule, donor type, donor heavy atom, donor atom, acceptor molecule, acceptor atom, score
      L1  H     3    30       P1  7957  0.62
      P1  H 10752 10765       L1     9  0.83
      L1  C    24    43       P1  8028  0.92

> <Gold.PLP.Chemscore.Internal.Correction>
0.1090

> <Gold.Rescore>
     Score         DG    S(hbond)    S(metal)    S(lipo)     H(rot)  DE(clash)    DE(int)     intcor
     11.51     -14.94       1.77        0.00      79.35       2.23       0.06       3.37       ----

> <Gold.Chemscore.Fitness>
11.5130

> <Gold.Chemscore.DG>
-14.9410

> <Gold.Chemscore.ZeroCoef>
-5.4800

> <Gold.Chemscore.Hbond>
1.7657

> <Gold.Chemscore.Metal>
0.0000

> <Gold.Chemscore.Lipo>
79.3535

> <Gold.Chemscore.Internal_Hbond>
0.0000

> <Gold.Chemscore.DEClash>
0.0610

> <Gold.Chemscore.DEInternal>
3.3670

> <Gold.Chemscore.Rot>
2.2347

> <Gold.Chemscore.Internal.Correction>
   9.000000E+99

> <Gold.Chemscore.Hbonds>
donor molecule, donor type, donor heavy atom, donor atom, acceptor molecule, acceptor atom, score
      L1  H     3    30       P1  7957  0.60
      P1  H 10752 10765       L1     9  0.77

> <Gold.Chemscore.Hbond.Weighted>
-5.8974

> <Gold.Chemscore.Metal.Weighted>
-0.0000

> <Gold.Chemscore.Lipo.Weighted>
-9.2844

> <Gold.Chemscore.Internal_Hbond.Weighted>
0.0000

> <Gold.Chemscore.DEClash.Weighted>
0.0610

> <Gold.Chemscore.DEInternal.Weighted>
3.3670

> <Gold.Chemscore.Rot.Weighted>
5.7208

> <Gold.Chemscore.Internal.Correction.Weighted>
   9.000000E+99

> <Gold.Protein.RotatedTorsions>
[ 6907 6896 6895 6894 ] final   83.84 input  -60.11 | X-H torsion
[ 7974 7965 7964 7962 ] final  150.74 input  175.53 | X-H torsion
[ 8008 7997 7996 7995 ] final -170.01 input   59.86 | X-H torsion
[ 10167 10162 10161 10158 ] final  -24.89 input  -65.29 | X-H torsion
[ 10718 10713 10712 10709 ] final -132.98 input   66.30 | X-H torsion
[ 10763 10752 10751 10750 ] final -131.83 input  -60.55 | X-H torsion
[ 11005 11000 10999 10996 ] final   96.71 input  -57.11 | X-H torsion

> <Gold.Protein.ActiveResidues>
 VAL166  LYS551  ARG553  GLY616  TRP617  ASP618  TYR619  PRO620  LYS621  CYS622 
 ASP623  PHE694  ASN695  SER759  ASP760  ASP761  ALA762  ILE779  LEU786  VAL792 
 PHE793  MET794  SER795  GLU796  ALA797  LYS798  CYS799  TRP800  GLU811  SER814 

> <Gold.Protein.RotatedAtoms>
  152.5337  134.2833  159.9015 H   0  0  0  0  0  0  0  0  0  0  0  0  # atno 6907 bound_to 6896
  151.2787  133.4213  159.2633 H   0  0  0  0  0  0  0  0  0  0  0  0  # atno 6908 bound_to 6896
  151.0303  134.9549  159.8164 H   0  0  0  0  0  0  0  0  0  0  0  0  # atno 6909 bound_to 6896
  144.8342  139.6448  143.6045 H   0  0  0  0  0  0  0  0  0  0  0  0  # atno 7974 bound_to 7965
  155.9126  140.1060  157.1268 H   0  0  0  0  0  0  0  0  0  0  0  0  # atno 8008 bound_to 7997
  154.4041  140.1271  156.4642 H   0  0  0  0  0  0  0  0  0  0  0  0  # atno 8009 bound_to 7997
  155.7292  140.3468  155.5054 H   0  0  0  0  0  0  0  0  0  0  0  0  # atno 8010 bound_to 7997
  140.7287  143.4313  151.0797 H   0  0  0  0  0  0  0  0  0  0  0  0  # atno 10167 bound_to 10162
  156.2402  130.7091  151.0949 H   0  0  0  0  0  0  0  0  0  0  0  0  # atno 10718 bound_to 10713
  154.8748  135.3817  154.4310 H   0  0  0  0  0  0  0  0  0  0  0  0  # atno 10763 bound_to 10752
  153.5004  135.7030  153.5840 H   0  0  0  0  0  0  0  0  0  0  0  0  # atno 10764 bound_to 10752
  153.4174  135.3910  155.2056 H   0  0  0  0  0  0  0  0  0  0  0  0  # atno 10765 bound_to 10752
  139.8780  134.8964  156.4199 H   0  0  0  0  0  0  0  0  0  0  0  0  # atno 11005 bound_to 11000
  146.2642  139.6481  142.9341 LP  0  0  0  0  0  0  0  0  0  0  0  0  # atno 17320 bound_to 7965
  145.4830  141.0438  143.2635 LP  0  0  0  0  0  0  0  0  0  0  0  0  # atno 17321 bound_to 7965
  139.7970  143.8137  152.3159 LP  0  0  0  0  0  0  0  0  0  0  0  0  # atno 17342 bound_to 10162
  139.8141  144.7324  150.9659 LP  0  0  0  0  0  0  0  0  0  0  0  0  # atno 17343 bound_to 10162
  157.7172  131.0703  150.6281 LP  0  0  0  0  0  0  0  0  0  0  0  0  # atno 17370 bound_to 10713
  156.6353  130.4443  149.5771 LP  0  0  0  0  0  0  0  0  0  0  0  0  # atno 17371 bound_to 10713
  140.9141  133.7691  155.9827 LP  0  0  0  0  0  0  0  0  0  0  0  0  # atno 17394 bound_to 11000
  140.8513  134.2950  157.5274 LP  0  0  0  0  0  0  0  0  0  0  0  0  # atno 17395 bound_to 11000

$$$$
