AV-unprocessed.smi:3249|AV-procd|sdf|12417|dock7
  -GOLD-   2272018303D 1   1.00000     0.00000
 Structure written by MMmdl.
 44 45  0  0  0  0  0  0  0  0  2 V2000
  153.0855  138.6632  155.2301 C   0  0  0  0  0  0  0  0  0  0  0  0
  151.6195  138.8966  155.0032 C   0  0  0  0  0  0  0  0  0  0  0  0
  150.6835  138.0304  154.3704 C   0  0  0  0  0  0  0  0  0  0  0  0
  149.4606  138.5335  154.3346 N   0  0  0  0  0  0  0  0  0  0  0  0
  149.5690  139.7363  154.9385 N   0  0  0  0  0  0  0  0  0  0  0  0
  148.3874  140.5763  155.0925 C   0  0  2  0  0  0  0  0  0  0  0  0
  148.4358  141.7368  154.0810 C   0  0  0  0  0  0  0  0  0  0  0  0
  148.2071  141.0658  156.5534 C   0  0  2  0  0  0  0  0  0  0  0  0
  146.8307  141.7173  156.8051 C   0  0  0  0  0  0  0  0  0  0  0  0
  149.2882  142.0180  156.8963 N   0  3  0  0  0  0  0  0  0  0  0  0
  149.5010  142.2393  158.3422 C   0  0  0  0  0  0  0  0  0  0  0  0
  150.0285  143.6559  158.6090 C   0  0  2  0  0  0  0  0  0  0  0  0
  151.5361  143.7728  158.3104 C   0  0  0  0  0  0  0  0  0  0  0  0
  152.0541  145.1666  158.6828 C   0  0  0  0  0  0  0  0  0  0  0  0
  151.6765  145.4863  160.1327 C   0  0  0  0  0  0  0  0  0  0  0  0
  150.1692  145.2805  160.3490 C   0  0  0  0  0  0  0  0  0  0  0  0
  149.8039  143.9523  159.9860 O   0  0  0  0  0  0  0  0  0  0  0  0
  150.8634  139.9789  155.3535 C   0  0  0  0  0  0  0  0  0  0  0  0
  153.4746  137.8744  154.5860 H   0  0  0  0  0  0  0  0  0  0  0  0
  153.2899  138.3676  156.2592 H   0  0  0  0  0  0  0  0  0  0  0  0
  153.6729  139.5594  155.0294 H   0  0  0  0  0  0  0  0  0  0  0  0
  150.8556  137.0547  153.9401 H   0  0  0  0  0  0  0  0  0  0  0  0
  147.5209  139.9618  154.8389 H   0  0  0  0  0  0  0  0  0  0  0  0
  147.5154  142.3205  154.0952 H   0  0  0  0  0  0  0  0  0  0  0  0
  148.5649  141.3625  153.0649 H   0  0  0  0  0  0  0  0  0  0  0  0
  149.2621  142.4168  154.2906 H   0  0  0  0  0  0  0  0  0  0  0  0
  148.2962  140.1973  157.2083 H   0  0  0  0  0  0  0  0  0  0  0  0
  146.0139  141.0129  156.6469 H   0  0  0  0  0  0  0  0  0  0  0  0
  146.6697  142.5654  156.1389 H   0  0  0  0  0  0  0  0  0  0  0  0
  146.7322  142.0788  157.8280 H   0  0  0  0  0  0  0  0  0  0  0  0
  150.1510  141.6526  156.5193 H   0  0  0  0  0  0  0  0  0  0  0  0
  148.5753  142.0797  158.8949 H   0  0  0  0  0  0  0  0  0  0  0  0
  150.2208  141.5032  158.7026 H   0  0  0  0  0  0  0  0  0  0  0  0
  149.4797  144.3667  157.9881 H   0  0  0  0  0  0  0  0  0  0  0  0
  152.0837  143.0188  158.8776 H   0  0  0  0  0  0  0  0  0  0  0  0
  151.7311  143.5731  157.2563 H   0  0  0  0  0  0  0  0  0  0  0  0
  153.1349  145.2196  158.5506 H   0  0  0  0  0  0  0  0  0  0  0  0
  151.6186  145.9121  158.0161 H   0  0  0  0  0  0  0  0  0  0  0  0
  152.2330  144.8355  160.8085 H   0  0  0  0  0  0  0  0  0  0  0  0
  151.9588  146.5098  160.3810 H   0  0  0  0  0  0  0  0  0  0  0  0
  149.9164  145.4409  161.3971 H   0  0  0  0  0  0  0  0  0  0  0  0
  149.5900  146.0003  159.7685 H   0  0  0  0  0  0  0  0  0  0  0  0
  151.1371  140.8917  155.8621 H   0  0  0  0  0  0  0  0  0  0  0  0
  149.0954  142.9033  156.4493 H   0  0  0  0  0  0  0  0  0  0  0  0
  1  2  1  0  0  0  0
  1 19  1  0  0  0  0
  1 20  1  0  0  0  0
  1 21  1  0  0  0  0
  2 18  2  0  0  0  0
  2  3  1  0  0  0  0
  3  4  2  0  0  0  0
  3 22  1  0  0  0  0
  4  5  1  0  0  0  0
  5  6  1  0  0  0  0
  5 18  1  0  0  0  0
  6  7  1  0  0  0  0
  6  8  1  0  0  0  0
  6 23  1  0  0  0  0
  7 24  1  0  0  0  0
  7 25  1  0  0  0  0
  7 26  1  0  0  0  0
  8  9  1  0  0  0  0
  8 10  1  0  0  0  0
  8 27  1  0  0  0  0
  9 28  1  0  0  0  0
  9 29  1  0  0  0  0
  9 30  1  0  0  0  0
 10 11  1  0  0  0  0
 10 31  1  0  0  0  0
 10 44  1  0  0  0  0
 11 12  1  0  0  0  0
 11 32  1  0  0  0  0
 11 33  1  0  0  0  0
 12 17  1  0  0  0  0
 12 13  1  0  0  0  0
 12 34  1  0  0  0  0
 13 14  1  0  0  0  0
 13 35  1  0  0  0  0
 13 36  1  0  0  0  0
 14 15  1  0  0  0  0
 14 37  1  0  0  0  0
 14 38  1  0  0  0  0
 15 16  1  0  0  0  0
 15 39  1  0  0  0  0
 15 40  1  0  0  0  0
 16 17  1  0  0  0  0
 16 41  1  0  0  0  0
 16 42  1  0  0  0  0
 18 43  1  0  0  0  0
M  CHG  1  10   1
M  END
> <s_m_source_file>
AV-unprocessed.smi

> <i_m_source_file_index>
3249

> <i_lp_mmshare_version>
43012

> <i_f3d_flags>
0

> <s_epik_input>
W0NIM11jMVtjSF1ubihbY0hdMSlbQ0BIXShbQ0gzXSlbQ0BIXShbQ0gzXSlbTkhdW0NIMl1bQ0BASF0yW0NIMl1bQ0gyXVtDSDJdW0NIMl1PMg==

> <s_epik_cmdline>
J2VwaWtfcHl0aG9uJywgJy1waCcsICc3LjAnLCAnLXRuJywgJzgnLCAnLW1hJywgJzIwMCcsICctbWV0YWxfYmluZGluZycsICctaW1hZScsICc8aW5maWxlLm1hZT4nLCAnLW9tYWUnLCAnPG91dGZpbGUubWFlPic=

> <r_lp_tautomer_probability>
1

> <r_epik_Ionization_Penalty>
0.00659207

> <r_epik_Ionization_Penalty_Charging>
0.00656881

> <r_epik_Ionization_Penalty_Neutral>
2.32662e-05

> <r_epik_State_Penalty>
0.0048654

> <r_epik_Charging_Adjusted_Penalty>
0.0114342

> <i_epik_Tot_Q>
1

> <i_epik_Tot_abs_Q>
1

> <r_epik_Metal_State_Penalty>
-0

> <b_epik_Metal_Only>
0

> <s_lp_Force_Field>
OPLS_2005

> <r_lp_Energy>
18.0263

> <b_lp_Chiralities_Consistent>
1

> <s_lp_Variant>
AV-unprocessed.smi:3249-1

> <Gold.Version>
5.8.1

> <Gold.Id.Protein>
6NUR|6NUR_protein|mol2

> <Gold.PLP.Fitness>
47.1736

> <Gold.PLP.PLP>
-39.6152

> <Gold.PLP.part.hbond>
-1.9812

> <Gold.PLP.part.metal>
0.0000

> <Gold.PLP.part.buried>
-2.1027

> <Gold.PLP.part.nonpolar>
-35.8887

> <Gold.PLP.part.repulsive>
0.3673

> <Gold.PLP.ligand.clash>
0.0000

> <Gold.PLP.ligand.torsion>
0.8275

> <Gold.PLP.Chemscore.Hbond>
2.0000

> <Gold.PLP.Chemscore.CHOScore>
1.0496

> <Gold.PLP.Chemscore.Metal>
0.0000

> <Gold.Chemscore.Hbonds>
donor molecule, donor type, donor heavy atom, donor atom, acceptor molecule, acceptor atom, score
      L1  H    10    44       P1  8028  2.00
      L1  C     3    22       P1  7948  0.04
      L1  C     3    22       P1  7949  0.56

> <Gold.PLP.Chemscore.Internal.Correction>
0.0647

> <Gold.Rescore>
     Score         DG    S(hbond)    S(metal)    S(lipo)     H(rot)  DE(clash)    DE(int)     intcor
     16.67     -17.71       1.00        0.00     109.61       1.53       0.31       0.73       ----

> <Gold.Chemscore.Fitness>
16.6728

> <Gold.Chemscore.DG>
-17.7138

> <Gold.Chemscore.ZeroCoef>
-5.4800

> <Gold.Chemscore.Hbond>
0.9983

> <Gold.Chemscore.Metal>
0.0000

> <Gold.Chemscore.Lipo>
109.6135

> <Gold.Chemscore.Internal_Hbond>
0.0000

> <Gold.Chemscore.DEClash>
0.3123

> <Gold.Chemscore.DEInternal>
0.7287

> <Gold.Chemscore.Rot>
1.5333

> <Gold.Chemscore.Internal.Correction>
   9.000000E+99

> <Gold.Chemscore.Hbonds>
donor molecule, donor type, donor heavy atom, donor atom, acceptor molecule, acceptor atom, score
      L1  H    10    44       P1  8028  0.97
      P1  H  6933  6944       L1    17  0.01

> <Gold.Chemscore.Hbond.Weighted>
-3.3342

> <Gold.Chemscore.Metal.Weighted>
-0.0000

> <Gold.Chemscore.Lipo.Weighted>
-12.8248

> <Gold.Chemscore.Internal_Hbond.Weighted>
0.0000

> <Gold.Chemscore.DEClash.Weighted>
0.3123

> <Gold.Chemscore.DEInternal.Weighted>
0.7287

> <Gold.Chemscore.Rot.Weighted>
3.9252

> <Gold.Chemscore.Internal.Correction.Weighted>
   9.000000E+99

> <Gold.Protein.RotatedTorsions>
[ 6907 6896 6895 6894 ] final   34.55 input  -60.11 | X-H torsion
[ 7974 7965 7964 7962 ] final   21.56 input  175.53 | X-H torsion
[ 8008 7997 7996 7995 ] final  -67.55 input   59.86 | X-H torsion
[ 10167 10162 10161 10158 ] final   91.31 input  -65.29 | X-H torsion
[ 10718 10713 10712 10709 ] final  -50.04 input   66.30 | X-H torsion
[ 10763 10752 10751 10750 ] final  -39.76 input  -60.55 | X-H torsion
[ 11005 11000 10999 10996 ] final -103.63 input  -57.11 | X-H torsion

> <Gold.Protein.ActiveResidues>
 VAL166  LYS551  ARG553  GLY616  TRP617  ASP618  TYR619  PRO620  LYS621  CYS622 
 ASP623  PHE694  ASN695  SER759  ASP760  ASP761  ALA762  ILE779  LEU786  VAL792 
 PHE793  MET794  SER795  GLU796  ALA797  LYS798  CYS799  TRP800  GLU811  SER814 

> <Gold.Protein.RotatedAtoms>
  152.1039  134.9322  160.0568 H   0  0  0  0  0  0  0  0  0  0  0  0  # atno 6907 bound_to 6896
  152.0525  133.4021  159.4391 H   0  0  0  0  0  0  0  0  0  0  0  0  # atno 6908 bound_to 6896
  150.6840  134.3212  159.4831 H   0  0  0  0  0  0  0  0  0  0  0  0  # atno 6909 bound_to 6896
  146.2066  139.8010  142.8721 H   0  0  0  0  0  0  0  0  0  0  0  0  # atno 7974 bound_to 7965
  154.4807  140.0890  156.7371 H   0  0  0  0  0  0  0  0  0  0  0  0  # atno 8008 bound_to 7997
  155.4477  140.3456  155.4279 H   0  0  0  0  0  0  0  0  0  0  0  0  # atno 8009 bound_to 7997
  156.1187  140.1468  156.9224 H   0  0  0  0  0  0  0  0  0  0  0  0  # atno 8010 bound_to 7997
  139.8387  144.6652  150.9310 H   0  0  0  0  0  0  0  0  0  0  0  0  # atno 10167 bound_to 10162
  156.1837  130.4151  149.9470 H   0  0  0  0  0  0  0  0  0  0  0  0  # atno 10718 bound_to 10713
  153.9347  135.6768  153.4745 H   0  0  0  0  0  0  0  0  0  0  0  0  # atno 10763 bound_to 10752
  153.0962  135.4850  154.8779 H   0  0  0  0  0  0  0  0  0  0  0  0  # atno 10764 bound_to 10752
  154.7409  135.3160  154.8687 H   0  0  0  0  0  0  0  0  0  0  0  0  # atno 10765 bound_to 10752
  141.1137  133.8656  157.1510 H   0  0  0  0  0  0  0  0  0  0  0  0  # atno 11005 bound_to 11000
  145.3297  141.0263  143.3453 LP  0  0  0  0  0  0  0  0  0  0  0  0  # atno 17320 bound_to 7965
  144.8808  139.4907  143.6724 LP  0  0  0  0  0  0  0  0  0  0  0  0  # atno 17321 bound_to 7965
  140.7800  143.3933  151.1273 LP  0  0  0  0  0  0  0  0  0  0  0  0  # atno 17342 bound_to 10162
  139.7581  143.8677  152.3093 LP  0  0  0  0  0  0  0  0  0  0  0  0  # atno 17343 bound_to 10162
  156.7232  130.9015  151.3620 LP  0  0  0  0  0  0  0  0  0  0  0  0  # atno 17370 bound_to 10713
  157.6885  130.9209  150.0450 LP  0  0  0  0  0  0  0  0  0  0  0  0  # atno 17371 bound_to 10713
  140.0046  135.0014  157.0264 LP  0  0  0  0  0  0  0  0  0  0  0  0  # atno 17394 bound_to 11000
  140.4705  134.1391  155.7202 LP  0  0  0  0  0  0  0  0  0  0  0  0  # atno 17395 bound_to 11000

$$$$
