AV-unprocessed.smi:2069|AV-procd|sdf|8438|dock5
  -GOLD-   2272011133D 1   1.00000     0.00000
 Structure written by MMmdl.
 38 39  0  0  0  0  0  0  0  0  3 V2000
  148.9466  141.0851  155.1401 C   0  0  0  0  0  0  0  0  0  0  0  0
  149.8333  139.9207  154.8593 C   0  0  0  0  0  0  0  0  0  0  0  0
  151.1636  140.0215  154.8056 N   0  0  0  0  0  0  0  0  0  0  0  0
  151.7695  138.8037  154.5307 N   0  0  0  0  0  0  0  0  0  0  0  0
  150.8924  137.7997  154.3917 C   0  0  0  0  0  0  0  0  0  0  0  0
  151.2738  136.5408  154.1196 N   0  5  0  0  0  0  0  0  0  0  0  0
  150.6930  135.5049  154.7647 C   0  0  0  0  0  0  0  0  0  0  0  0
  151.0750  134.9922  155.8193 O   0  0  0  0  0  0  0  0  0  0  0  0
  149.5946  135.0376  154.1548 N   0  0  0  0  0  0  0  0  0  0  0  0
  148.7543  133.9454  154.6369 C   0  0  0  0  0  0  0  0  0  0  0  0
  148.8536  132.6688  153.7582 C   0  0  1  0  0  0  0  0  0  0  0  0
  149.2950  131.4623  154.6231 C   0  0  0  0  0  0  0  0  0  0  0  0
  147.5675  132.4330  153.0236 N   0  3  0  0  0  0  0  0  0  0  0  0
  147.3772  133.3743  151.8851 C   0  0  0  0  0  0  0  0  0  0  0  0
  146.0205  133.1517  151.1981 C   0  0  0  0  0  0  0  0  0  0  0  0
  145.9330  131.8093  150.7453 O   0  0  0  0  0  0  0  0  0  0  0  0
  146.0031  130.8928  151.8270 C   0  0  0  0  0  0  0  0  0  0  0  0
  147.3524  131.0365  152.5516 C   0  0  0  0  0  0  0  0  0  0  0  0
  149.2124  138.3034  154.5759 S   0  0  0  0  0  0  0  0  0  0  0  0
  148.9324  141.2927  156.2101 H   0  0  0  0  0  0  0  0  0  0  0  0
  147.9290  140.8745  154.8107 H   0  0  0  0  0  0  0  0  0  0  0  0
  149.3065  141.9698  154.6143 H   0  0  0  0  0  0  0  0  0  0  0  0
  149.3192  135.4824  153.2912 H   0  0  0  0  0  0  0  0  0  0  0  0
  149.0610  133.7149  155.6575 H   0  0  0  0  0  0  0  0  0  0  0  0
  147.7349  134.3217  154.7073 H   0  0  0  0  0  0  0  0  0  0  0  0
  149.6315  132.8169  153.0076 H   0  0  0  0  0  0  0  0  0  0  0  0
  150.2121  131.6725  155.1734 H   0  0  0  0  0  0  0  0  0  0  0  0
  149.5153  130.5828  154.0185 H   0  0  0  0  0  0  0  0  0  0  0  0
  148.5309  131.1949  155.3537 H   0  0  0  0  0  0  0  0  0  0  0  0
  147.4230  134.4103  152.2142 H   0  0  0  0  0  0  0  0  0  0  0  0
  148.1825  133.2385  151.1613 H   0  0  0  0  0  0  0  0  0  0  0  0
  145.1961  133.3788  151.8760 H   0  0  0  0  0  0  0  0  0  0  0  0
  145.9209  133.8187  150.3414 H   0  0  0  0  0  0  0  0  0  0  0  0
  145.1721  131.0585  152.5148 H   0  0  0  0  0  0  0  0  0  0  0  0
  145.8939  129.8808  151.4370 H   0  0  0  0  0  0  0  0  0  0  0  0
  148.1677  130.7454  151.8874 H   0  0  0  0  0  0  0  0  0  0  0  0
  147.3457  130.3391  153.3885 H   0  0  0  0  0  0  0  0  0  0  0  0
  146.8273  132.6178  153.6855 H   0  0  0  0  0  0  0  0  0  0  0  0
  1  2  1  0  0  0  0
  1 20  1  0  0  0  0
  1 21  1  0  0  0  0
  1 22  1  0  0  0  0
  2 19  1  0  0  0  0
  2  3  2  0  0  0  0
  3  4  1  0  0  0  0
  4  5  2  0  0  0  0
  5  6  1  0  0  0  0
  5 19  1  0  0  0  0
  6  7  1  0  0  0  0
  7  8  2  0  0  0  0
  7  9  1  0  0  0  0
  9 10  1  0  0  0  0
  9 23  1  0  0  0  0
 10 11  1  0  0  0  0
 10 24  1  0  0  0  0
 10 25  1  0  0  0  0
 11 12  1  0  0  0  0
 11 13  1  0  0  0  0
 11 26  1  0  0  0  0
 12 27  1  0  0  0  0
 12 28  1  0  0  0  0
 12 29  1  0  0  0  0
 13 18  1  0  0  0  0
 13 14  1  0  0  0  0
 13 38  1  0  0  0  0
 14 15  1  0  0  0  0
 14 30  1  0  0  0  0
 14 31  1  0  0  0  0
 15 16  1  0  0  0  0
 15 32  1  0  0  0  0
 15 33  1  0  0  0  0
 16 17  1  0  0  0  0
 17 18  1  0  0  0  0
 17 34  1  0  0  0  0
 17 35  1  0  0  0  0
 18 36  1  0  0  0  0
 18 37  1  0  0  0  0
M  CHG  1   6  -1
M  CHG  1  13   1
M  END
> <s_m_source_file>
AV-unprocessed.smi

> <i_m_source_file_index>
2069

> <i_lp_mmshare_version>
43012

> <i_f3d_flags>
0

> <s_epik_input>
W0NIM11jMW5uYyhzMSlbTkhdQyg9TylbTkhdW0NIMl1bQ0BIXShbQ0gzXSlOMltDSDJdW0NIMl1PW0NIMl1bQ0gyXTI=

> <s_epik_cmdline>
J2VwaWtfcHl0aG9uJywgJy1waCcsICc3LjAnLCAnLXRuJywgJzgnLCAnLW1hJywgJzIwMCcsICctbWV0YWxfYmluZGluZycsICctaW1hZScsICc8aW5maWxlLm1hZT4nLCAnLW9tYWUnLCAnPG91dGZpbGUubWFlPic=

> <r_lp_tautomer_probability>
1

> <r_epik_Ionization_Penalty>
3.53072

> <r_epik_Ionization_Penalty_Charging>
3.4216

> <r_epik_Ionization_Penalty_Neutral>
0.109115

> <r_epik_State_Penalty>
3.61496

> <r_epik_Charging_Adjusted_Penalty>
7.03656

> <i_epik_Tot_Q>
0

> <i_epik_Tot_abs_Q>
2

> <r_epik_Metal_State_Penalty>
1.13918

> <b_epik_Metal_Only>
1

> <s_lp_Force_Field>
OPLS_2005

> <r_lp_Energy>
13.0561

> <b_lp_Chiralities_Consistent>
1

> <s_lp_Variant>
AV-unprocessed.smi:2069-8

> <Gold.Version>
5.8.1

> <Gold.Id.Protein>
6NUR|6NUR_protein|mol2

> <Gold.PLP.Fitness>
38.0712

> <Gold.PLP.PLP>
-30.4712

> <Gold.PLP.part.hbond>
-3.0193

> <Gold.PLP.part.metal>
0.0000

> <Gold.PLP.part.buried>
-4.6180

> <Gold.PLP.part.nonpolar>
-24.2416

> <Gold.PLP.part.repulsive>
1.6376

> <Gold.PLP.ligand.clash>
0.0000

> <Gold.PLP.ligand.torsion>
2.2421

> <Gold.PLP.Chemscore.Hbond>
4.0000

> <Gold.PLP.Chemscore.CHOScore>
0.0000

> <Gold.PLP.Chemscore.Metal>
0.0000

> <Gold.Chemscore.Hbonds>
donor molecule, donor type, donor heavy atom, donor atom, acceptor molecule, acceptor atom, score
      L1  H     9    23       P1  7948  0.95
      P1  H  7989  7998       L1     3  1.00
      P1  H 10752 10765       L1     6  0.90

> <Gold.PLP.Chemscore.Internal.Correction>
0.0841

> <Gold.Rescore>
     Score         DG    S(hbond)    S(metal)    S(lipo)     H(rot)  DE(clash)    DE(int)     intcor
     11.08     -13.21       1.55        0.00      57.37       1.62       0.13       2.01       ----

> <Gold.Chemscore.Fitness>
11.0790

> <Gold.Chemscore.DG>
-13.2126

> <Gold.Chemscore.ZeroCoef>
-5.4800

> <Gold.Chemscore.Hbond>
1.5466

> <Gold.Chemscore.Metal>
0.0000

> <Gold.Chemscore.Lipo>
57.3686

> <Gold.Chemscore.Internal_Hbond>
0.0000

> <Gold.Chemscore.DEClash>
0.1284

> <Gold.Chemscore.DEInternal>
2.0053

> <Gold.Chemscore.Rot>
1.6192

> <Gold.Chemscore.Internal.Correction>
   9.000000E+99

> <Gold.Chemscore.Hbonds>
donor molecule, donor type, donor heavy atom, donor atom, acceptor molecule, acceptor atom, score
      L1  H     9    23       P1  7948  0.21
      P1  H  7989  7998       L1     3  0.20
      P1  H 10752 10765       L1     6  0.02

> <Gold.Chemscore.Hbond.Weighted>
-5.1657

> <Gold.Chemscore.Metal.Weighted>
-0.0000

> <Gold.Chemscore.Lipo.Weighted>
-6.7121

> <Gold.Chemscore.Internal_Hbond.Weighted>
0.0000

> <Gold.Chemscore.DEClash.Weighted>
0.1284

> <Gold.Chemscore.DEInternal.Weighted>
2.0053

> <Gold.Chemscore.Rot.Weighted>
4.1452

> <Gold.Chemscore.Internal.Correction.Weighted>
   9.000000E+99

> <Gold.Protein.RotatedTorsions>
[ 6907 6896 6895 6894 ] final   14.95 input  -60.11 | X-H torsion
[ 7974 7965 7964 7962 ] final  167.43 input  175.53 | X-H torsion
[ 8008 7997 7996 7995 ] final -163.96 input   59.86 | X-H torsion
[ 10167 10162 10161 10158 ] final  164.19 input  -65.29 | X-H torsion
[ 10718 10713 10712 10709 ] final   42.64 input   66.30 | X-H torsion
[ 10763 10752 10751 10750 ] final  160.27 input  -60.55 | X-H torsion
[ 11005 11000 10999 10996 ] final -149.39 input  -57.11 | X-H torsion

> <Gold.Protein.ActiveResidues>
 VAL166  LYS551  ARG553  GLY616  TRP617  ASP618  TYR619  PRO620  LYS621  CYS622 
 ASP623  PHE694  ASN695  SER759  ASP760  ASP761  ALA762  ILE779  LEU786  VAL792 
 PHE793  MET794  SER795  GLU796  ALA797  LYS798  CYS799  TRP800  GLU811  SER814 

> <Gold.Protein.RotatedAtoms>
  151.8104  135.0682  160.0411 H   0  0  0  0  0  0  0  0  0  0  0  0  # atno 6907 bound_to 6896
  152.3024  133.5665  159.5636 H   0  0  0  0  0  0  0  0  0  0  0  0  # atno 6908 bound_to 6896
  150.7280  134.0187  159.3736 H   0  0  0  0  0  0  0  0  0  0  0  0  # atno 6909 bound_to 6896
  144.7425  139.8760  143.6392 H   0  0  0  0  0  0  0  0  0  0  0  0  # atno 7974 bound_to 7965
  155.8288  140.0930  157.1805 H   0  0  0  0  0  0  0  0  0  0  0  0  # atno 8008 bound_to 7997
  154.3979  140.1423  156.3650 H   0  0  0  0  0  0  0  0  0  0  0  0  # atno 8009 bound_to 7997
  155.8188  140.3447  155.5504 H   0  0  0  0  0  0  0  0  0  0  0  0  # atno 8010 bound_to 7997
  139.4885  144.4260  151.9128 H   0  0  0  0  0  0  0  0  0  0  0  0  # atno 10167 bound_to 10162
  157.4071  130.7893  149.7398 H   0  0  0  0  0  0  0  0  0  0  0  0  # atno 10718 bound_to 10713
  154.2447  135.2773  155.2840 H   0  0  0  0  0  0  0  0  0  0  0  0  # atno 10763 bound_to 10752
  154.5515  135.5673  153.6930 H   0  0  0  0  0  0  0  0  0  0  0  0  # atno 10764 bound_to 10752
  152.9992  135.6275  154.2593 H   0  0  0  0  0  0  0  0  0  0  0  0  # atno 10765 bound_to 10752
  140.7513  134.3403  157.5125 H   0  0  0  0  0  0  0  0  0  0  0  0  # atno 11005 bound_to 11000
  146.1246  139.4270  143.0207 LP  0  0  0  0  0  0  0  0  0  0  0  0  # atno 17320 bound_to 7965
  145.7254  141.0061  143.1380 LP  0  0  0  0  0  0  0  0  0  0  0  0  # atno 17321 bound_to 7965
  140.3706  144.2860  150.5920 LP  0  0  0  0  0  0  0  0  0  0  0  0  # atno 17342 bound_to 10162
  140.5322  143.2241  151.8220 LP  0  0  0  0  0  0  0  0  0  0  0  0  # atno 17343 bound_to 10162
  155.9839  130.3996  150.3337 LP  0  0  0  0  0  0  0  0  0  0  0  0  # atno 17370 bound_to 10713
  157.1471  131.0311  151.2902 LP  0  0  0  0  0  0  0  0  0  0  0  0  # atno 17371 bound_to 10713
  139.8787  134.9143  156.3105 LP  0  0  0  0  0  0  0  0  0  0  0  0  # atno 17394 bound_to 11000
  140.9748  133.7304  156.0587 LP  0  0  0  0  0  0  0  0  0  0  0  0  # atno 17395 bound_to 11000

$$$$
