#       Name:                AV-unprocessed.smi:910
#       Creating user name   scv26
#       Creation time:       Fri Mar 27 02:01:52 2020


#       File generated by GOLD software.
#

@<TRIPOS>MOLECULE
AV-unprocessed.smi:910
    53    54     1
SMALL
NO_CHARGES


@<TRIPOS>ATOM
      1 ****        -3.7175   4.7691   1.6950 C.3            1 S1                 0.0000
      2 ****        -3.4613   3.3084   1.8953 C.2            1 S1                 0.0000
      3 ****        -2.1783   2.7931   2.0144 N.2            1 S1                 0.0000
      4 ****        -2.3580   1.4813   2.1787 C.2            1 S1                 0.0000
      5 ****        -1.3448   0.5044   2.3438 N.am           1 S1                 0.0000
      6 ****        -0.0155   0.6964   2.3433 C.2            1 S1                 0.0000
      7 ****         0.5453   1.7862   2.2246 O.2            1 S1                 0.0000
      8 ****         0.6417  -0.4641   2.4783 N.am           1 S1                 0.0000
      9 ****         2.0918  -0.6217   2.4307 C.3            1 S1                 0.0000
     10 ****         2.6286  -0.4766   0.9989 C.3            1 S1                 0.0000
     11 ****         1.9740  -1.4278   0.1722 O.3            1 S1                 0.0000
     12 ****         2.2482  -1.2936  -1.2158 C.3            1 S1                 0.0000
     13 ****         3.5460  -2.0534  -1.5582 C.3            1 S1                 0.0000
     14 ****         3.8108  -2.0616  -3.0709 C.3            1 S1                 0.0000
     15 ****         2.6142  -2.6432  -3.8371 C.3            1 S1                 0.0000
     16 ****         1.3225  -1.8806  -3.5051 C.3            1 S1                 0.0000
     17 ****         1.0400  -1.8673  -1.9893 C.3            1 S1                 0.0000
     18 ****        -0.2510  -1.0893  -1.6826 C.3            1 S1                 0.0000
     19 ****        -3.6629   1.1001   2.1763 O.3            1 S1                 0.0000
     20 ****        -4.3521   2.2698   1.9964 C.2            1 S1                 0.0000
     21 ****        -5.8405   2.1993   1.9452 C.3            1 S1                 0.0000
     22 ****        -4.5483   4.9331   1.0085 H              1 S1                 0.0000
     23 ****        -2.8444   5.2747   1.2811 H              1 S1                 0.0000
     24 ****        -3.9660   5.2557   2.6382 H              1 S1                 0.0000
     25 ****        -1.6670  -0.4459   2.4520 H              1 S1                 0.0000
     26 ****         0.0990  -1.3098   2.5727 H              1 S1                 0.0000
     27 ****         2.5686   0.1043   3.0910 H              1 S1                 0.0000
     28 ****         2.3403  -1.6092   2.8201 H              1 S1                 0.0000
     29 ****         2.4492   0.5362   0.6351 H              1 S1                 0.0000
     30 ****         3.7064  -0.6396   0.9854 H              1 S1                 0.0000
     31 ****         2.3571  -0.2414  -1.4857 H              1 S1                 0.0000
     32 ****         4.3963  -1.6052  -1.0445 H              1 S1                 0.0000
     33 ****         3.4742  -3.0803  -1.1974 H              1 S1                 0.0000
     34 ****         4.0065  -1.0450  -3.4141 H              1 S1                 0.0000
     35 ****         4.7087  -2.6409  -3.2883 H              1 S1                 0.0000
     36 ****         2.8047  -2.6030  -4.9099 H              1 S1                 0.0000
     37 ****         2.4926  -3.6969  -3.5831 H              1 S1                 0.0000
     38 ****         1.4020  -0.8568  -3.8739 H              1 S1                 0.0000
     39 ****         0.4856  -2.3347  -4.0367 H              1 S1                 0.0000
     40 ****         0.8898  -2.8992  -1.6681 H              1 S1                 0.0000
     41 ****        -0.1594  -0.0407  -1.9674 H              1 S1                 0.0000
     42 ****        -0.4938  -1.1231  -0.6200 H              1 S1                 0.0000
     43 ****        -1.0995  -1.5083  -2.2239 H              1 S1                 0.0000
     44 ****        -6.2866   3.0260   2.4982 H              1 S1                 0.0000
     45 ****        -6.2039   1.2681   2.3804 H              1 S1                 0.0000
     46 ****        -6.1931   2.2521   0.9151 H              1 S1                 0.0000
     47 ****        -1.3128   3.2931   1.9839 LP             1 S1                 0.0000
     48 ****         0.0021   2.6190   2.1178 LP             1 S1                 0.0000
     49 ****         1.5439   1.8384   2.2351 LP             1 S1                 0.0000
     50 ****         0.9877  -1.3310   0.3061 LP             1 S1                 0.0000
     51 ****         2.2614  -2.3413   0.4600 LP             1 S1                 0.0000
     52 ****        -3.9096   0.6729   3.0462 LP             1 S1                 0.0000
     53 ****        -3.8450   0.4621   1.4282 LP             1 S1                 0.0000
@<TRIPOS>BOND
    1    1    2 1     
    2    1   22 1     
    3    1   23 1     
    4    1   24 1     
    5    2   20 2     
    6    2    3 1     
    7    3    4 2     
    8    4    5 1     
    9    4   19 1     
   10    5    6 am    
   11    5   25 1     
   12    6    7 2     
   13    6    8 am    
   14    8    9 1     
   15    8   26 1     
   16    9   10 1     
   17    9   27 1     
   18    9   28 1     
   19   10   11 1     
   20   10   29 1     
   21   10   30 1     
   22   11   12 1     
   23   12   17 1     
   24   12   13 1     
   25   12   31 1     
   26   13   14 1     
   27   13   32 1     
   28   13   33 1     
   29   14   15 1     
   30   14   34 1     
   31   14   35 1     
   32   15   16 1     
   33   15   36 1     
   34   15   37 1     
   35   16   17 1     
   36   16   38 1     
   37   16   39 1     
   38   17   18 1     
   39   17   40 1     
   40   18   41 1     
   41   18   42 1     
   42   18   43 1     
   43   19   20 1     
   44   20   21 1     
   45   21   44 1     
   46   21   45 1     
   47   21   46 1     
   48    3   47 1     
   49    7   48 1     
   50    7   49 1     
   51   11   50 1     
   52   11   51 1     
   53   19   52 1     
   54   19   53 1     
@<TRIPOS>SUBSTRUCTURE
      1 S1             1
@<TRIPOS>SET
LONE_PAIRS      STATIC     ATOMS    <user>   **** ""
7 47 48 49 50 51 52 53
DONOR_HYDROGENS      STATIC     ATOMS    <user>   **** ""
2 25 26
ATOM$BLUE        STATIC     ATOMS    COLORGROUP SYSTEM
7 47 48 49 50 51 52 53
ATOM$RED        STATIC     ATOMS    COLORGROUP SYSTEM
2 25 26
