AV-unprocessed.smi:1427|AV-procd|sdf|5810|dock8
  -GOLD-   22720 5463D 1   1.00000     0.00000
 Structure written by MMmdl.
 33 34  0  0  0  0  0  0  0  0  1 V2000
  149.6958  142.7450  158.0385 C   0  0  0  0  0  0  0  0  0  0  0  0
  151.0675  142.8124  157.3538 C   0  0  1  0  0  0  0  0  0  0  0  0
  152.0173  143.7820  158.0883 C   0  0  0  0  0  0  0  0  0  0  0  0
  152.4645  143.2630  159.3696 N   0  0  0  0  0  0  0  0  0  0  0  0
  153.3801  142.2619  159.6155 C   0  0  0  0  0  0  0  0  0  0  0  0
  153.4607  142.1089  160.9699 C   0  0  0  0  0  0  0  0  0  0  0  0
  152.5468  143.0758  161.4743 C   0  0  0  0  0  0  0  0  0  0  0  0
  151.9549  143.7679  160.5145 N   0  0  0  0  0  0  0  0  0  0  0  0
  151.6409  141.4681  157.2985 N   0  0  0  0  0  0  0  0  0  0  0  0
  151.4613  140.5805  156.3074 C   0  0  0  0  0  0  0  0  0  0  0  0
  150.7538  140.7987  155.3224 O   0  0  0  0  0  0  0  0  0  0  0  0
  152.2321  139.2602  156.4427 C   0  0  2  0  0  0  0  0  0  0  0  0
  151.7403  138.2192  155.4126 C   0  0  0  0  0  0  0  0  0  0  0  0
  151.6348  136.8918  156.1742 C   0  0  0  0  0  0  0  0  0  0  0  0
  151.6638  137.3300  157.6274 C   0  0  0  0  0  0  0  0  0  0  0  0
  151.4228  136.5773  158.5681 O   0  0  0  0  0  0  0  0  0  0  0  0
  151.9778  138.6209  157.7237 N   0  0  0  0  0  0  0  0  0  0  0  0
  149.2221  143.7268  158.0635 H   0  0  0  0  0  0  0  0  0  0  0  0
  149.7805  142.3904  159.0665 H   0  0  0  0  0  0  0  0  0  0  0  0
  149.0238  142.0705  157.5068 H   0  0  0  0  0  0  0  0  0  0  0  0
  150.9025  143.1894  156.3427 H   0  0  0  0  0  0  0  0  0  0  0  0
  152.9023  143.9698  157.4793 H   0  0  0  0  0  0  0  0  0  0  0  0
  151.5356  144.7495  158.2410 H   0  0  0  0  0  0  0  0  0  0  0  0
  153.8866  141.7429  158.8149 H   0  0  0  0  0  0  0  0  0  0  0  0
  154.0765  141.4110  161.5172 H   0  0  0  0  0  0  0  0  0  0  0  0
  152.2973  143.2940  162.5022 H   0  0  0  0  0  0  0  0  0  0  0  0
  152.2489  141.2043  158.0604 H   0  0  0  0  0  0  0  0  0  0  0  0
  153.3064  139.4277  156.3467 H   0  0  0  0  0  0  0  0  0  0  0  0
  150.7593  138.4779  155.0088 H   0  0  0  0  0  0  0  0  0  0  0  0
  152.4240  138.1434  154.5664 H   0  0  0  0  0  0  0  0  0  0  0  0
  150.7190  136.3497  155.9359 H   0  0  0  0  0  0  0  0  0  0  0  0
  152.4899  136.2459  155.9734 H   0  0  0  0  0  0  0  0  0  0  0  0
  152.0379  139.1225  158.5979 H   0  0  0  0  0  0  0  0  0  0  0  0
  1  2  1  0  0  0  0
  1 18  1  0  0  0  0
  1 19  1  0  0  0  0
  1 20  1  0  0  0  0
  2  3  1  0  0  0  0
  2  9  1  0  0  0  0
  2 21  1  0  0  0  0
  3  4  1  0  0  0  0
  3 22  1  0  0  0  0
  3 23  1  0  0  0  0
  4  8  1  0  0  0  0
  4  5  1  0  0  0  0
  5  6  2  0  0  0  0
  5 24  1  0  0  0  0
  6  7  1  0  0  0  0
  6 25  1  0  0  0  0
  7  8  2  0  0  0  0
  7 26  1  0  0  0  0
  9 10  1  0  0  0  0
  9 27  1  0  0  0  0
 10 11  2  0  0  0  0
 10 12  1  0  0  0  0
 12 17  1  0  0  0  0
 12 13  1  0  0  0  0
 12 28  1  0  0  0  0
 13 14  1  0  0  0  0
 13 29  1  0  0  0  0
 13 30  1  0  0  0  0
 14 15  1  0  0  0  0
 14 31  1  0  0  0  0
 14 32  1  0  0  0  0
 15 16  2  0  0  0  0
 15 17  1  0  0  0  0
 17 33  1  0  0  0  0
M  END
> <s_m_source_file>
AV-unprocessed.smi

> <i_m_source_file_index>
1427

> <i_lp_mmshare_version>
43012

> <i_f3d_flags>
0

> <s_epik_input>
bjFbY0hdW2NIXVtjSF1uMVtDSDJdW0NAQEhdKFtDSDNdKVtOSF1DKD1PKVtDQEBIXTJbQ0gyXVtDSDJdQyg9TylbTkhdMg==

> <s_epik_cmdline>
J2VwaWtfcHl0aG9uJywgJy1waCcsICc3LjAnLCAnLXRuJywgJzgnLCAnLW1hJywgJzIwMCcsICctbWV0YWxfYmluZGluZycsICctaW1hZScsICc8aW5maWxlLm1hZT4nLCAnLW9tYWUnLCAnPG91dGZpbGUubWFlPic=

> <r_lp_tautomer_probability>
1

> <r_epik_Ionization_Penalty>
0.000310707

> <r_epik_Ionization_Penalty_Charging>
0

> <r_epik_Ionization_Penalty_Neutral>
0.000310707

> <r_epik_State_Penalty>
-0

> <r_epik_Charging_Adjusted_Penalty>
0

> <i_epik_Tot_Q>
0

> <i_epik_Tot_abs_Q>
0

> <r_epik_Metal_State_Penalty>
-0

> <b_epik_Metal_Only>
0

> <s_lp_Force_Field>
OPLS_2005

> <r_lp_Energy>
14.2046

> <b_lp_Chiralities_Consistent>
1

> <s_lp_Variant>
AV-unprocessed.smi:1427-2

> <Gold.Version>
5.8.1

> <Gold.Id.Protein>
6NUR|6NUR_protein|mol2

> <Gold.PLP.Fitness>
37.5524

> <Gold.PLP.PLP>
-34.1879

> <Gold.PLP.part.hbond>
-2.0000

> <Gold.PLP.part.metal>
0.0000

> <Gold.PLP.part.buried>
-3.0828

> <Gold.PLP.part.nonpolar>
-28.6571

> <Gold.PLP.part.repulsive>
0.2797

> <Gold.PLP.ligand.clash>
0.0000

> <Gold.PLP.ligand.torsion>
0.7832

> <Gold.PLP.Chemscore.Hbond>
1.6320

> <Gold.PLP.Chemscore.CHOScore>
0.0000

> <Gold.PLP.Chemscore.Metal>
0.0000

> <Gold.Chemscore.Hbonds>
donor molecule, donor type, donor heavy atom, donor atom, acceptor molecule, acceptor atom, score
      P1  H  6896  6908       L1    16  0.74
      P1  H  7989  7998       L1    11  0.83

> <Gold.PLP.Chemscore.Internal.Correction>
0.0349

> <Gold.Rescore>
     Score         DG    S(hbond)    S(metal)    S(lipo)     H(rot)  DE(clash)    DE(int)     intcor
     14.99     -15.96       1.79        0.00      79.66       1.88       0.27       0.71       ----

> <Gold.Chemscore.Fitness>
14.9884

> <Gold.Chemscore.DG>
-15.9632

> <Gold.Chemscore.ZeroCoef>
-5.4800

> <Gold.Chemscore.Hbond>
1.7908

> <Gold.Chemscore.Metal>
0.0000

> <Gold.Chemscore.Lipo>
79.6572

> <Gold.Chemscore.Internal_Hbond>
0.0000

> <Gold.Chemscore.DEClash>
0.2694

> <Gold.Chemscore.DEInternal>
0.7054

> <Gold.Chemscore.Rot>
1.8821

> <Gold.Chemscore.Internal.Correction>
   9.000000E+99

> <Gold.Chemscore.Hbonds>
donor molecule, donor type, donor heavy atom, donor atom, acceptor molecule, acceptor atom, score
      P1  H  6896  6908       L1    16  0.73
      P1  H  7989  7998       L1    11  0.74

> <Gold.Chemscore.Hbond.Weighted>
-5.9814

> <Gold.Chemscore.Metal.Weighted>
-0.0000

> <Gold.Chemscore.Lipo.Weighted>
-9.3199

> <Gold.Chemscore.Internal_Hbond.Weighted>
0.0000

> <Gold.Chemscore.DEClash.Weighted>
0.2694

> <Gold.Chemscore.DEInternal.Weighted>
0.7054

> <Gold.Chemscore.Rot.Weighted>
4.8181

> <Gold.Chemscore.Internal.Correction.Weighted>
   9.000000E+99

> <Gold.Protein.RotatedTorsions>
[ 6907 6896 6895 6894 ] final -139.48 input  -60.11 | X-H torsion
[ 7974 7965 7964 7962 ] final   56.41 input  175.53 | X-H torsion
[ 8008 7997 7996 7995 ] final -133.89 input   59.86 | X-H torsion
[ 10167 10162 10161 10158 ] final   56.10 input  -65.29 | X-H torsion
[ 10718 10713 10712 10709 ] final  -29.73 input   66.30 | X-H torsion
[ 10763 10752 10751 10750 ] final  108.86 input  -60.55 | X-H torsion
[ 11005 11000 10999 10996 ] final -124.58 input  -57.11 | X-H torsion

> <Gold.Protein.ActiveResidues>
 VAL166  LYS551  ARG553  GLY616  TRP617  ASP618  TYR619  PRO620  LYS621  CYS622 
 ASP623  PHE694  ASN695  SER759  ASP760  ASP761  ALA762  ILE779  LEU786  VAL792 
 PHE793  MET794  SER795  GLU796  ALA797  LYS798  CYS799  TRP800  GLU811  SER814 

> <Gold.Protein.RotatedAtoms>
  151.0483  133.5646  159.2644 H   0  0  0  0  0  0  0  0  0  0  0  0  # atno 6907 bound_to 6896
  151.2666  135.0670  159.9128 H   0  0  0  0  0  0  0  0  0  0  0  0  # atno 6908 bound_to 6896
  152.5377  134.0220  159.8040 H   0  0  0  0  0  0  0  0  0  0  0  0  # atno 6909 bound_to 6896
  145.9401  139.3881  143.0368 H   0  0  0  0  0  0  0  0  0  0  0  0  # atno 7974 bound_to 7965
  155.3530  140.0478  157.3046 H   0  0  0  0  0  0  0  0  0  0  0  0  # atno 8008 bound_to 7997
  154.5217  140.2227  155.8927 H   0  0  0  0  0  0  0  0  0  0  0  0  # atno 8009 bound_to 7997
  156.1697  140.3098  155.8957 H   0  0  0  0  0  0  0  0  0  0  0  0  # atno 8010 bound_to 7997
  140.2124  144.3875  150.6483 H   0  0  0  0  0  0  0  0  0  0  0  0  # atno 10167 bound_to 10162
  156.4088  130.4404  149.7268 H   0  0  0  0  0  0  0  0  0  0  0  0  # atno 10718 bound_to 10713
  153.4265  135.3798  155.2144 H   0  0  0  0  0  0  0  0  0  0  0  0  # atno 10763 bound_to 10752
  154.8748  135.3830  154.4320 H   0  0  0  0  0  0  0  0  0  0  0  0  # atno 10764 bound_to 10752
  153.4847  135.7088  153.5981 H   0  0  0  0  0  0  0  0  0  0  0  0  # atno 10765 bound_to 10752
  140.9830  134.0647  157.3743 H   0  0  0  0  0  0  0  0  0  0  0  0  # atno 11005 bound_to 11000
  145.8311  140.9630  143.0848 LP  0  0  0  0  0  0  0  0  0  0  0  0  # atno 17320 bound_to 7965
  144.6778  140.0163  143.7484 LP  0  0  0  0  0  0  0  0  0  0  0  0  # atno 17321 bound_to 7965
  140.6314  143.2188  151.6488 LP  0  0  0  0  0  0  0  0  0  0  0  0  # atno 17342 bound_to 10162
  139.5175  144.3314  152.0823 LP  0  0  0  0  0  0  0  0  0  0  0  0  # atno 17343 bound_to 10162
  156.4255  130.7789  151.2808 LP  0  0  0  0  0  0  0  0  0  0  0  0  # atno 17370 bound_to 10713
  157.7506  131.0170  150.3567 LP  0  0  0  0  0  0  0  0  0  0  0  0  # atno 17371 bound_to 10713
  139.8958  135.0143  156.7021 LP  0  0  0  0  0  0  0  0  0  0  0  0  # atno 17394 bound_to 11000
  140.7158  133.9184  155.8114 LP  0  0  0  0  0  0  0  0  0  0  0  0  # atno 17395 bound_to 11000

$$$$
