#       Name:                AV-unprocessed.smi:99
#       Creating user name   scv26
#       Creation time:       Thu Mar 26 17:39:07 2020


#       File generated by GOLD software.
#

@<TRIPOS>MOLECULE
AV-unprocessed.smi:99
    65    68     1
SMALL
NO_CHARGES


@<TRIPOS>ATOM
      1 ****        -4.0169  -0.8484  -0.4716 O.2            1 S1                 0.0000
      2 ****        -3.1571  -0.1558   0.0760 C.2            1 S1                 0.0000
      3 ****        -1.9400  -0.6131   0.4272 O.3            1 S1                 0.0000
      4 ****        -1.5349  -1.9296   0.0877 C.3            1 S1                 0.0000
      5 ****        -0.0026  -1.9976   0.1093 C.3            1 S1                 0.0000
      6 ****         0.4257  -3.3481  -0.0313 O.3            1 S1                 0.0000
      7 ****         1.7229  -3.3881  -0.5608 C.3            1 S1                 0.0000
      8 ****         2.6835  -3.9065   0.4928 N.am           1 S1                 0.0000
      9 ****         2.3645  -3.8797   1.8409 C.2            1 S1                 0.0000
     10 ****         3.2237  -4.3389   2.7740 C.2            1 S1                 0.0000
     11 ****         4.5166  -4.8746   2.3574 C.2            1 S1                 0.0000
     12 ****         5.2913  -5.2946   3.2146 O.2            1 S1                 0.0000
     13 ****         4.8095  -4.8831   1.0249 N.pl3          1 S1                -1.0000
     14 ****         3.9440  -4.4153   0.0789 C.2            1 S1                 0.0000
     15 ****         4.2028  -4.4007  -1.1249 O.2            1 S1                 0.0000
     16 ****         2.0682  -1.9588  -1.0462 C.3            1 S1                 0.0000
     17 ****         2.9371  -1.2695  -0.1590 O.3            1 S1                 0.0000
     18 ****         0.6862  -1.3239  -1.0764 C.3            1 S1                 0.0000
     19 ****         0.7464   0.0985  -1.0031 O.3            1 S1                 0.0000
     20 ****        -0.0597   0.8770  -1.7572 C.2            1 S1                 0.0000
     21 ****        -0.8548   0.4393  -2.5911 O.2            1 S1                 0.0000
     22 ****         0.0808   2.3270  -1.4415 C.ar           1 S1                 0.0000
     23 ****        -0.8022   3.2550  -2.0412 C.ar           1 S1                 0.0000
     24 ****        -0.7109   4.6280  -1.7419 C.ar           1 S1                 0.0000
     25 ****         0.2667   5.0900  -0.8418 C.ar           1 S1                 0.0000
     26 ****         1.1534   4.1773  -0.2416 C.ar           1 S1                 0.0000
     27 ****         1.0623   2.8034  -0.5381 C.ar           1 S1                 0.0000
     28 ****        -3.3422   1.2889   0.3976 C.ar           1 S1                 0.0000
     29 ****        -4.5387   1.9376   0.0133 C.ar           1 S1                 0.0000
     30 ****        -4.7303   3.3068   0.2825 C.ar           1 S1                 0.0000
     31 ****        -3.7280   4.0439   0.9393 C.ar           1 S1                 0.0000
     32 ****        -2.5350   3.4091   1.3307 C.ar           1 S1                 0.0000
     33 ****        -2.3427   2.0398   1.0644 C.ar           1 S1                 0.0000
     34 ****        -1.9551  -2.6247   0.8151 H              1 S1                 0.0000
     35 ****        -1.9052  -2.2189  -0.8971 H              1 S1                 0.0000
     36 ****         0.3843  -1.6061   1.0517 H              1 S1                 0.0000
     37 ****         1.7280  -4.1314  -1.3599 H              1 S1                 0.0000
     38 ****         1.4162  -3.4833   2.1695 H              1 S1                 0.0000
     39 ****         2.9595  -4.3089   3.8209 H              1 S1                 0.0000
     40 ****         2.5247  -1.9990  -2.0354 H              1 S1                 0.0000
     41 ****         3.7397  -1.7644  -0.0879 H              1 S1                 0.0000
     42 ****         0.1961  -1.6520  -1.9945 H              1 S1                 0.0000
     43 ****        -1.5660   2.9225  -2.7293 H              1 S1                 0.0000
     44 ****        -1.3943   5.3264  -2.2016 H              1 S1                 0.0000
     45 ****         0.3365   6.1429  -0.6116 H              1 S1                 0.0000
     46 ****         1.9051   4.5306   0.4485 H              1 S1                 0.0000
     47 ****         1.7566   2.1290  -0.0586 H              1 S1                 0.0000
     48 ****        -5.3198   1.3939  -0.4984 H              1 S1                 0.0000
     49 ****        -5.6470   3.7923  -0.0184 H              1 S1                 0.0000
     50 ****        -3.8735   5.0945   1.1421 H              1 S1                 0.0000
     51 ****        -1.7624   3.9735   1.8315 H              1 S1                 0.0000
     52 ****        -1.4117   1.5864   1.3718 H              1 S1                 0.0000
     53 ****        -3.8282  -1.8082  -0.6793 LP             1 S1                 0.0000
     54 ****        -4.9033  -0.4505  -0.7083 LP             1 S1                 0.0000
     55 ****        -0.1979  -3.8307  -0.6464 LP             1 S1                 0.0000
     56 ****         0.4201  -3.7920   0.8647 LP             1 S1                 0.0000
     57 ****         5.0320  -5.2660   4.1799 LP             1 S1                 0.0000
     58 ****         6.1807  -5.6648   2.9464 LP             1 S1                 0.0000
     59 ****         5.6931  -5.2464   0.7297 LP             1 S1                 0.0000
     60 ****         3.5352  -4.0386  -1.7755 LP             1 S1                 0.0000
     61 ****         5.0805  -4.7508  -1.4519 LP             1 S1                 0.0000
     62 ****         2.5081  -1.1891   0.7407 LP             1 S1                 0.0000
     63 ****         3.1327  -0.3568  -0.5178 LP             1 S1                 0.0000
     64 ****        -0.9302  -0.5465  -2.7408 LP             1 S1                 0.0000
     65 ****        -1.4245   1.0701  -3.1181 LP             1 S1                 0.0000
@<TRIPOS>BOND
    1    1    2 2     
    2    2    3 1     
    3    2   28 1     
    4    3    4 1     
    5    4    5 1     
    6    4   34 1     
    7    4   35 1     
    8    5   18 1     
    9    5    6 1     
   10    5   36 1     
   11    6    7 1     
   12    7    8 1     
   13    7   16 1     
   14    7   37 1     
   15    8   14 am    
   16    8    9 1     
   17    9   10 2     
   18    9   38 1     
   19   10   11 1     
   20   10   39 1     
   21   11   12 2     
   22   11   13 1     
   23   13   14 1     
   24   14   15 2     
   25   16   17 1     
   26   16   18 1     
   27   16   40 1     
   28   17   41 1     
   29   18   19 1     
   30   18   42 1     
   31   19   20 1     
   32   20   21 2     
   33   20   22 1     
   34   22   27 ar    
   35   22   23 ar    
   36   23   24 ar    
   37   23   43 1     
   38   24   25 ar    
   39   24   44 1     
   40   25   26 ar    
   41   25   45 1     
   42   26   27 ar    
   43   26   46 1     
   44   27   47 1     
   45   28   33 ar    
   46   28   29 ar    
   47   29   30 ar    
   48   29   48 1     
   49   30   31 ar    
   50   30   49 1     
   51   31   32 ar    
   52   31   50 1     
   53   32   33 ar    
   54   32   51 1     
   55   33   52 1     
   56    1   53 1     
   57    1   54 1     
   58    6   55 1     
   59    6   56 1     
   60   12   57 1     
   61   12   58 1     
   62   13   59 1     
   63   15   60 1     
   64   15   61 1     
   65   17   62 1     
   66   17   63 1     
   67   21   64 1     
   68   21   65 1     
@<TRIPOS>SUBSTRUCTURE
      1 S1             1
@<TRIPOS>SET
LONE_PAIRS      STATIC     ATOMS    <user>   **** ""
13 53 54 55 56 57 58 59 60 61 62 63 64 65
DONOR_HYDROGENS      STATIC     ATOMS    <user>   **** ""
1 41
ATOM$BLUE        STATIC     ATOMS    COLORGROUP SYSTEM
13 53 54 55 56 57 58 59 60 61 62 63 64 65
ATOM$RED        STATIC     ATOMS    COLORGROUP SYSTEM
1 41
