AV-unprocessed.smi:235|AV-procd|sdf|1805|dock10
  -GOLD-   2262020383D 1   1.00000     0.00000
 Structure written by MMmdl.
 54 58  0  0  0  0  0  0  0  0  1 V2000
  145.0009  136.5658  154.4965 O   0  0  0  0  0  0  0  0  0  0  0  0
  146.1505  136.3464  154.1123 C   0  0  0  0  0  0  0  0  0  0  0  0
  146.4932  136.2675  152.8182 N   0  0  0  0  0  0  0  0  0  0  0  0
  145.5994  136.4214  151.7186 C   0  0  0  0  0  0  0  0  0  0  0  0
  144.2499  135.7448  151.8187 C   0  0  0  0  0  0  0  0  0  0  0  0
  145.2919  135.2033  150.8772 C   0  0  0  0  0  0  0  0  0  0  0  0
  147.2903  136.1710  155.1256 C   0  0  2  0  0  0  0  0  0  0  0  0
  147.1219  134.9105  155.9991 C   0  0  0  0  0  0  0  0  0  0  0  0
  147.6587  135.3262  157.3626 C   0  0  0  0  0  0  0  0  0  0  0  0
  147.2323  136.7868  157.4380 C   0  0  0  0  0  0  0  0  0  0  0  0
  147.3291  137.2941  156.0712 N   0  0  0  0  0  0  0  0  0  0  0  0
  148.2897  138.2093  155.7851 C   0  0  0  0  0  0  0  0  0  0  0  0
  148.4115  138.7018  154.5234 N   0  0  0  0  0  0  0  0  0  0  0  0
  149.3136  139.6508  154.2561 C   0  0  0  0  0  0  0  0  0  0  0  0
  150.1682  140.2486  155.0887 N   0  0  0  0  0  0  0  0  0  0  0  0
  150.0469  139.7590  156.3558 C   0  0  0  0  0  0  0  0  0  0  0  0
  149.1482  138.7430  156.7847 C   0  0  0  0  0  0  0  0  0  0  0  0
  149.3192  138.5025  158.1426 N   0  0  0  0  0  0  0  0  0  0  0  0
  150.2492  139.3439  158.5018 C   0  0  0  0  0  0  0  0  0  0  0  0
  150.7319  140.1467  157.4933 N   0  0  0  0  0  0  0  0  0  0  0  0
  151.7400  141.1831  157.6132 C   0  0  0  0  0  0  0  0  0  0  0  0
  151.1366  142.6023  157.6880 C   0  0  2  0  0  0  0  0  0  0  0  0
  151.1085  143.1145  156.3710 O   0  0  0  0  0  0  0  0  0  0  0  0
  151.9143  143.5848  158.5932 C   0  0  1  0  0  0  0  0  0  0  0  0
  151.4001  145.0277  158.5442 C   0  0  0  0  0  0  0  0  0  0  0  0
  151.7726  145.6060  159.9018 C   0  0  0  0  0  0  0  0  0  0  0  0
  152.2127  144.3889  160.7150 C   0  0  0  0  0  0  0  0  0  0  0  0
  151.7459  143.2757  159.9698 O   0  0  0  0  0  0  0  0  0  0  0  0
  147.4632  136.0963  152.5961 H   0  0  0  0  0  0  0  0  0  0  0  0
  145.6099  137.3800  151.2014 H   0  0  0  0  0  0  0  0  0  0  0  0
  144.0337  135.1644  152.7136 H   0  0  0  0  0  0  0  0  0  0  0  0
  143.3969  136.2589  151.3805 H   0  0  0  0  0  0  0  0  0  0  0  0
  145.1364  135.3578  149.8115 H   0  0  0  0  0  0  0  0  0  0  0  0
  145.7840  134.2701  151.1441 H   0  0  0  0  0  0  0  0  0  0  0  0
  148.2439  136.0948  154.5964 H   0  0  0  0  0  0  0  0  0  0  0  0
  146.0729  134.6271  156.1013 H   0  0  0  0  0  0  0  0  0  0  0  0
  147.6549  134.0504  155.5926 H   0  0  0  0  0  0  0  0  0  0  0  0
  147.2642  134.7232  158.1808 H   0  0  0  0  0  0  0  0  0  0  0  0
  148.7470  135.2521  157.3754 H   0  0  0  0  0  0  0  0  0  0  0  0
  146.1875  136.8560  157.7437 H   0  0  0  0  0  0  0  0  0  0  0  0
  147.8118  137.3463  158.1734 H   0  0  0  0  0  0  0  0  0  0  0  0
  149.3483  139.9858  153.2299 H   0  0  0  0  0  0  0  0  0  0  0  0
  150.5979  139.4128  159.5220 H   0  0  0  0  0  0  0  0  0  0  0  0
  152.3402  140.9802  158.5013 H   0  0  0  0  0  0  0  0  0  0  0  0
  152.4106  141.1008  156.7567 H   0  0  0  0  0  0  0  0  0  0  0  0
  150.1043  142.5399  158.0345 H   0  0  0  0  0  0  0  0  0  0  0  0
  150.3809  143.7135  156.2980 H   0  0  0  0  0  0  0  0  0  0  0  0
  152.9791  143.5620  158.3531 H   0  0  0  0  0  0  0  0  0  0  0  0
  151.8254  145.5926  157.7141 H   0  0  0  0  0  0  0  0  0  0  0  0
  150.3149  145.0382  158.4328 H   0  0  0  0  0  0  0  0  0  0  0  0
  152.5787  146.3366  159.8267 H   0  0  0  0  0  0  0  0  0  0  0  0
  150.9126  146.0984  160.3572 H   0  0  0  0  0  0  0  0  0  0  0  0
  153.3005  144.3477  160.7805 H   0  0  0  0  0  0  0  0  0  0  0  0
  151.8084  144.3868  161.7273 H   0  0  0  0  0  0  0  0  0  0  0  0
  1  2  2  0  0  0  0
  2  3  1  0  0  0  0
  2  7  1  0  0  0  0
  3  4  1  0  0  0  0
  3 29  1  0  0  0  0
  4  6  1  0  0  0  0
  4  5  1  0  0  0  0
  4 30  1  0  0  0  0
  5  6  1  0  0  0  0
  5 31  1  0  0  0  0
  5 32  1  0  0  0  0
  6 33  1  0  0  0  0
  6 34  1  0  0  0  0
  7 11  1  0  0  0  0
  7  8  1  0  0  0  0
  7 35  1  0  0  0  0
  8  9  1  0  0  0  0
  8 36  1  0  0  0  0
  8 37  1  0  0  0  0
  9 10  1  0  0  0  0
  9 38  1  0  0  0  0
  9 39  1  0  0  0  0
 10 11  1  0  0  0  0
 10 40  1  0  0  0  0
 10 41  1  0  0  0  0
 11 12  1  0  0  0  0
 12 17  1  0  0  0  0
 12 13  2  0  0  0  0
 13 14  1  0  0  0  0
 14 15  2  0  0  0  0
 14 42  1  0  0  0  0
 15 16  1  0  0  0  0
 16 20  1  0  0  0  0
 16 17  2  0  0  0  0
 17 18  1  0  0  0  0
 18 19  2  0  0  0  0
 19 20  1  0  0  0  0
 19 43  1  0  0  0  0
 20 21  1  0  0  0  0
 21 22  1  0  0  0  0
 21 44  1  0  0  0  0
 21 45  1  0  0  0  0
 22 23  1  0  0  0  0
 22 24  1  0  0  0  0
 22 46  1  0  0  0  0
 23 47  1  0  0  0  0
 24 28  1  0  0  0  0
 24 25  1  0  0  0  0
 24 48  1  0  0  0  0
 25 26  1  0  0  0  0
 25 49  1  0  0  0  0
 25 50  1  0  0  0  0
 26 27  1  0  0  0  0
 26 51  1  0  0  0  0
 26 52  1  0  0  0  0
 27 28  1  0  0  0  0
 27 53  1  0  0  0  0
 27 54  1  0  0  0  0
M  END
> <s_m_source_file>
AV-unprocessed.smi

> <i_m_source_file_index>
235

> <i_lp_mmshare_version>
43012

> <i_f3d_flags>
0

> <s_epik_input>
W0NIMl0xW0NIMl1bQ0hdMVtOSF1DKD1PKVtDQEBIXTJbQ0gyXVtDSDJdW0NIMl1OMmMobltjSF1uMyljKGMzNCluW2NIXW40W0NIMl1bQ0BIXShbT0hdKVtDQEBIXTVbQ0gyXVtDSDJdW0NIMl1PNQ==

> <s_epik_cmdline>
J2VwaWtfcHl0aG9uJywgJy1waCcsICc3LjAnLCAnLXRuJywgJzgnLCAnLW1hJywgJzIwMCcsICctbWV0YWxfYmluZGluZycsICctaW1hZScsICc8aW5maWxlLm1hZT4nLCAnLW9tYWUnLCAnPG91dGZpbGUubWFlPic=

> <r_lp_tautomer_probability>
1

> <r_epik_Ionization_Penalty>
0.000526714

> <r_epik_Ionization_Penalty_Charging>
0

> <r_epik_Ionization_Penalty_Neutral>
0.000526714

> <r_epik_State_Penalty>
0.000272704

> <r_epik_Charging_Adjusted_Penalty>
0.000272704

> <i_epik_Tot_Q>
0

> <i_epik_Tot_abs_Q>
0

> <r_epik_Metal_State_Penalty>
-0

> <b_epik_Metal_Only>
0

> <s_lp_Force_Field>
OPLS_2005

> <r_lp_Energy>
59.397

> <b_lp_Chiralities_Consistent>
1

> <s_lp_Variant>
AV-unprocessed.smi:235-5

> <Gold.Version>
5.8.1

> <Gold.Id.Protein>
6NUR|6NUR_protein|mol2

> <Gold.PLP.Fitness>
46.8914

> <Gold.PLP.PLP>
-38.8606

> <Gold.PLP.part.hbond>
-2.6303

> <Gold.PLP.part.metal>
0.0000

> <Gold.PLP.part.buried>
-6.5110

> <Gold.PLP.part.nonpolar>
-30.1046

> <Gold.PLP.part.repulsive>
0.3136

> <Gold.PLP.ligand.clash>
0.0000

> <Gold.PLP.ligand.torsion>
1.1988

> <Gold.PLP.Chemscore.Hbond>
2.3748

> <Gold.PLP.Chemscore.CHOScore>
1.0000

> <Gold.PLP.Chemscore.Metal>
0.0000

> <Gold.Chemscore.Hbonds>
donor molecule, donor type, donor heavy atom, donor atom, acceptor molecule, acceptor atom, score
      L1  H     3    29       P1  7948  1.00
      L1  H    23    47       P1  8028  1.00
      P1  H  7989  7998       L1    15  0.36
      L1  C    14    42       P1  7957  1.00

> <Gold.PLP.Chemscore.Internal.Correction>
0.3041

> <Gold.Rescore>
     Score         DG    S(hbond)    S(metal)    S(lipo)     H(rot)  DE(clash)    DE(int)     intcor
     12.35     -14.72       2.03        0.00      86.66       3.00       0.06       2.31       ----

> <Gold.Chemscore.Fitness>
12.3519

> <Gold.Chemscore.DG>
-14.7169

> <Gold.Chemscore.ZeroCoef>
-5.4800

> <Gold.Chemscore.Hbond>
2.0284

> <Gold.Chemscore.Metal>
0.0000

> <Gold.Chemscore.Lipo>
86.6596

> <Gold.Chemscore.Internal_Hbond>
0.0000

> <Gold.Chemscore.DEClash>
0.0573

> <Gold.Chemscore.DEInternal>
2.3077

> <Gold.Chemscore.Rot>
2.9989

> <Gold.Chemscore.Internal.Correction>
   9.000000E+99

> <Gold.Chemscore.Hbonds>
donor molecule, donor type, donor heavy atom, donor atom, acceptor molecule, acceptor atom, score
      L1  H     3    29       P1  7948  0.99
      L1  H    23    47       P1  8028  1.00
      P1  H  7989  7998       L1    15  0.05

> <Gold.Chemscore.Hbond.Weighted>
-6.7750

> <Gold.Chemscore.Metal.Weighted>
-0.0000

> <Gold.Chemscore.Lipo.Weighted>
-10.1392

> <Gold.Chemscore.Internal_Hbond.Weighted>
0.0000

> <Gold.Chemscore.DEClash.Weighted>
0.0573

> <Gold.Chemscore.DEInternal.Weighted>
2.3077

> <Gold.Chemscore.Rot.Weighted>
7.6772

> <Gold.Chemscore.Internal.Correction.Weighted>
   9.000000E+99

> <Gold.Protein.RotatedTorsions>
[ 6907 6896 6895 6894 ] final    4.42 input  -60.11 | X-H torsion
[ 7974 7965 7964 7962 ] final -103.36 input  175.53 | X-H torsion
[ 8008 7997 7996 7995 ] final   -0.75 input   59.86 | X-H torsion
[ 10167 10162 10161 10158 ] final  133.47 input  -65.29 | X-H torsion
[ 10718 10713 10712 10709 ] final   20.58 input   66.30 | X-H torsion
[ 10763 10752 10751 10750 ] final  140.03 input  -60.55 | X-H torsion
[ 11005 11000 10999 10996 ] final  -11.18 input  -57.11 | X-H torsion

> <Gold.Protein.ActiveResidues>
 VAL166  LYS551  ARG553  GLY616  TRP617  ASP618  TYR619  PRO620  LYS621  CYS622 
 ASP623  PHE694  ASN695  SER759  ASP760  ASP761  ALA762  ILE779  LEU786  VAL792 
 PHE793  MET794  SER795  GLU796  ALA797  LYS798  CYS799  TRP800  GLU811  SER814 

> <Gold.Protein.RotatedAtoms>
  151.6410  135.1013  160.0141 H   0  0  0  0  0  0  0  0  0  0  0  0  # atno 6907 bound_to 6896
  152.4054  133.6877  159.6360 H   0  0  0  0  0  0  0  0  0  0  0  0  # atno 6908 bound_to 6896
  150.7949  133.8635  159.3279 H   0  0  0  0  0  0  0  0  0  0  0  0  # atno 6909 bound_to 6896
  145.2569  140.9256  143.3063 H   0  0  0  0  0  0  0  0  0  0  0  0  # atno 7974 bound_to 7965
  154.6545  140.2576  155.7177 H   0  0  0  0  0  0  0  0  0  0  0  0  # atno 8008 bound_to 7997
  156.2590  140.2861  156.0913 H   0  0  0  0  0  0  0  0  0  0  0  0  # atno 8009 bound_to 7997
  155.1401  140.0380  157.2786 H   0  0  0  0  0  0  0  0  0  0  0  0  # atno 8010 bound_to 7997
  139.5295  144.6614  151.5001 H   0  0  0  0  0  0  0  0  0  0  0  0  # atno 10167 bound_to 10162
  157.1265  130.6572  149.5939 H   0  0  0  0  0  0  0  0  0  0  0  0  # atno 10718 bound_to 10713
  153.9160  135.3006  155.3448 H   0  0  0  0  0  0  0  0  0  0  0  0  # atno 10763 bound_to 10752
  154.7600  135.4939  153.9449 H   0  0  0  0  0  0  0  0  0  0  0  0  # atno 10764 bound_to 10752
  153.1167  135.6772  153.9508 H   0  0  0  0  0  0  0  0  0  0  0  0  # atno 10765 bound_to 10752
  140.7526  133.8580  155.9057 H   0  0  0  0  0  0  0  0  0  0  0  0  # atno 11005 bound_to 11000
  144.9453  139.4143  143.6429 LP  0  0  0  0  0  0  0  0  0  0  0  0  # atno 17320 bound_to 7965
  146.3286  139.8433  142.8886 LP  0  0  0  0  0  0  0  0  0  0  0  0  # atno 17321 bound_to 7965
  140.6464  143.8786  150.6741 LP  0  0  0  0  0  0  0  0  0  0  0  0  # atno 17342 bound_to 10162
  140.2137  143.3863  152.1698 LP  0  0  0  0  0  0  0  0  0  0  0  0  # atno 17343 bound_to 10162
  155.9817  130.4826  150.6842 LP  0  0  0  0  0  0  0  0  0  0  0  0  # atno 17370 bound_to 10713
  157.4430  131.0863  151.0924 LP  0  0  0  0  0  0  0  0  0  0  0  0  # atno 17371 bound_to 10713
  140.9737  134.1497  157.4554 LP  0  0  0  0  0  0  0  0  0  0  0  0  # atno 17394 bound_to 11000
  139.8785  134.9987  156.5916 LP  0  0  0  0  0  0  0  0  0  0  0  0  # atno 17395 bound_to 11000

$$$$
