AV-unprocessed.smi:605|AV-procd|sdf|3040|dock3
  -GOLD-   2262023563D 1   1.00000     0.00000
 Structure written by MMmdl.
 34 35  0  0  0  0  0  0  0  0  2 V2000
  147.3829  140.1812  153.4815 C   0  0  0  0  0  0  0  0  0  0  0  0
  148.4250  140.4496  154.5769 C   0  0  0  0  0  0  0  0  0  0  0  0
  149.0646  141.8418  154.4729 C   0  0  0  0  0  0  0  0  0  0  0  0
  149.4518  139.3635  154.6571 C   0  0  0  0  0  0  0  0  0  0  0  0
  150.7555  139.5740  154.4505 N   0  0  0  0  0  0  0  0  0  0  0  0
  151.5023  138.4134  154.5858 N   0  0  0  0  0  0  0  0  0  0  0  0
  150.7592  137.3441  154.9032 C   0  0  0  0  0  0  0  0  0  0  0  0
  151.2921  136.1225  155.0910 N   0  5  0  0  0  0  0  0  0  0  0  0
  150.5301  135.0040  155.2189 C   0  0  0  0  0  0  0  0  0  0  0  0
  150.7129  134.1600  156.0952 O   0  0  0  0  0  0  0  0  0  0  0  0
  149.5269  134.8220  154.3380 N   0  0  0  0  0  0  0  0  0  0  0  0
  148.6035  133.6908  154.3007 C   0  0  0  0  0  0  0  0  0  0  0  0
  148.6931  132.9625  152.9455 C   0  0  0  0  0  0  0  0  0  0  0  0
  147.2541  132.8041  152.4510 C   0  0  0  0  0  0  0  0  0  0  0  0
  146.5125  133.9904  153.0583 C   0  0  0  0  0  0  0  0  0  0  0  0
  147.1398  134.1533  154.4426 C   0  0  0  0  0  0  0  0  0  0  0  0
  149.0376  137.6990  155.0347 S   0  0  0  0  0  0  0  0  0  0  0  0
  146.8911  139.2200  153.6352 H   0  0  0  0  0  0  0  0  0  0  0  0
  147.8425  140.1658  152.4929 H   0  0  0  0  0  0  0  0  0  0  0  0
  146.6101  140.9503  153.4764 H   0  0  0  0  0  0  0  0  0  0  0  0
  147.8847  140.4313  155.5242 H   0  0  0  0  0  0  0  0  0  0  0  0
  149.7350  142.0286  155.3125 H   0  0  0  0  0  0  0  0  0  0  0  0
  148.3055  142.6242  154.4754 H   0  0  0  0  0  0  0  0  0  0  0  0
  149.6440  141.9442  153.5549 H   0  0  0  0  0  0  0  0  0  0  0  0
  149.3942  135.5353  153.6362 H   0  0  0  0  0  0  0  0  0  0  0  0
  148.8463  132.9932  155.1041 H   0  0  0  0  0  0  0  0  0  0  0  0
  149.2523  133.5598  152.2234 H   0  0  0  0  0  0  0  0  0  0  0  0
  149.2022  132.0018  153.0281 H   0  0  0  0  0  0  0  0  0  0  0  0
  147.1845  132.7768  151.3633 H   0  0  0  0  0  0  0  0  0  0  0  0
  146.8336  131.8741  152.8357 H   0  0  0  0  0  0  0  0  0  0  0  0
  146.7001  134.8854  152.4632 H   0  0  0  0  0  0  0  0  0  0  0  0
  145.4338  133.8367  153.1012 H   0  0  0  0  0  0  0  0  0  0  0  0
  146.6260  133.5003  155.1495 H   0  0  0  0  0  0  0  0  0  0  0  0
  147.0395  135.1721  154.8193 H   0  0  0  0  0  0  0  0  0  0  0  0
  1  2  1  0  0  0  0
  1 18  1  0  0  0  0
  1 19  1  0  0  0  0
  1 20  1  0  0  0  0
  2  3  1  0  0  0  0
  2  4  1  0  0  0  0
  2 21  1  0  0  0  0
  3 22  1  0  0  0  0
  3 23  1  0  0  0  0
  3 24  1  0  0  0  0
  4 17  1  0  0  0  0
  4  5  2  0  0  0  0
  5  6  1  0  0  0  0
  6  7  2  0  0  0  0
  7  8  1  0  0  0  0
  7 17  1  0  0  0  0
  8  9  1  0  0  0  0
  9 10  2  0  0  0  0
  9 11  1  0  0  0  0
 11 12  1  0  0  0  0
 11 25  1  0  0  0  0
 12 16  1  0  0  0  0
 12 13  1  0  0  0  0
 12 26  1  0  0  0  0
 13 14  1  0  0  0  0
 13 27  1  0  0  0  0
 13 28  1  0  0  0  0
 14 15  1  0  0  0  0
 14 29  1  0  0  0  0
 14 30  1  0  0  0  0
 15 16  1  0  0  0  0
 15 31  1  0  0  0  0
 15 32  1  0  0  0  0
 16 33  1  0  0  0  0
 16 34  1  0  0  0  0
M  CHG  1   8  -1
M  END
> <s_m_source_file>
AV-unprocessed.smi

> <i_m_source_file_index>
605

> <i_lp_mmshare_version>
43012

> <i_f3d_flags>
0

> <s_epik_input>
W0NIM11bQ0hdKFtDSDNdKWMxbm5jKHMxKVtOSF1DKD1PKVtOSF1bQ0hdMltDSDJdW0NIMl1bQ0gyXVtDSDJdMg==

> <s_epik_cmdline>
J2VwaWtfcHl0aG9uJywgJy1waCcsICc3LjAnLCAnLXRuJywgJzgnLCAnLW1hJywgJzIwMCcsICctbWV0YWxfYmluZGluZycsICctaW1hZScsICc8aW5maWxlLm1hZT4nLCAnLW9tYWUnLCAnPG91dGZpbGUubWFlPic=

> <r_lp_tautomer_probability>
1

> <r_epik_Ionization_Penalty>
4.57432

> <r_epik_Ionization_Penalty_Charging>
4.40687

> <r_epik_Ionization_Penalty_Neutral>
0.167446

> <r_epik_State_Penalty>
4.40652

> <r_epik_Charging_Adjusted_Penalty>
8.8134

> <i_epik_Tot_Q>
-1

> <i_epik_Tot_abs_Q>
1

> <r_epik_Metal_State_Penalty>
0.774635

> <b_epik_Metal_Only>
1

> <s_lp_Force_Field>
OPLS_2005

> <r_lp_Energy>
11.4858

> <b_lp_Chiralities_Consistent>
1

> <s_lp_Variant>
AV-unprocessed.smi:605-2

> <Gold.Version>
5.8.1

> <Gold.Id.Protein>
6NUR|6NUR_protein|mol2

> <Gold.PLP.Fitness>
37.4837

> <Gold.PLP.PLP>
-26.4139

> <Gold.PLP.part.hbond>
-3.0000

> <Gold.PLP.part.metal>
0.0000

> <Gold.PLP.part.buried>
-1.4561

> <Gold.PLP.part.nonpolar>
-22.5083

> <Gold.PLP.part.repulsive>
0.4402

> <Gold.PLP.ligand.clash>
0.0000

> <Gold.PLP.ligand.torsion>
0.5082

> <Gold.PLP.Chemscore.Hbond>
4.0000

> <Gold.PLP.Chemscore.CHOScore>
0.0000

> <Gold.PLP.Chemscore.Metal>
0.0000

> <Gold.Chemscore.Hbonds>
donor molecule, donor type, donor heavy atom, donor atom, acceptor molecule, acceptor atom, score
      L1  H    11    25       P1  7948  1.00
      P1  H  7989  7998       L1     5  1.00
      P1  H 10752 10764       L1     8  2.00

> <Gold.PLP.Chemscore.Internal.Correction>
0.0862

> <Gold.Rescore>
     Score         DG    S(hbond)    S(metal)    S(lipo)     H(rot)  DE(clash)    DE(int)     intcor
     15.51     -17.19       2.64        0.00      50.71       1.18       0.26       1.42       ----

> <Gold.Chemscore.Fitness>
15.5111

> <Gold.Chemscore.DG>
-17.1851

> <Gold.Chemscore.ZeroCoef>
-5.4800

> <Gold.Chemscore.Hbond>
2.6352

> <Gold.Chemscore.Metal>
0.0000

> <Gold.Chemscore.Lipo>
50.7089

> <Gold.Chemscore.Internal_Hbond>
0.0000

> <Gold.Chemscore.DEClash>
0.2550

> <Gold.Chemscore.DEInternal>
1.4190

> <Gold.Chemscore.Rot>
1.1833

> <Gold.Chemscore.Internal.Correction>
   9.000000E+99

> <Gold.Chemscore.Hbonds>
donor molecule, donor type, donor heavy atom, donor atom, acceptor molecule, acceptor atom, score
      L1  H    11    25       P1  7948  0.29
      P1  H  7989  7998       L1     5  0.82
      P1  H 10752 10764       L1     8  0.55

> <Gold.Chemscore.Hbond.Weighted>
-8.8015

> <Gold.Chemscore.Metal.Weighted>
-0.0000

> <Gold.Chemscore.Lipo.Weighted>
-5.9329

> <Gold.Chemscore.Internal_Hbond.Weighted>
0.0000

> <Gold.Chemscore.DEClash.Weighted>
0.2550

> <Gold.Chemscore.DEInternal.Weighted>
1.4190

> <Gold.Chemscore.Rot.Weighted>
3.0293

> <Gold.Chemscore.Internal.Correction.Weighted>
   9.000000E+99

> <Gold.Protein.RotatedTorsions>
[ 6907 6896 6895 6894 ] final -152.80 input  -60.11 | X-H torsion
[ 7974 7965 7964 7962 ] final  -47.83 input  175.53 | X-H torsion
[ 8008 7997 7996 7995 ] final  -30.50 input   59.86 | X-H torsion
[ 10167 10162 10161 10158 ] final -131.57 input  -65.29 | X-H torsion
[ 10718 10713 10712 10709 ] final -123.48 input   66.30 | X-H torsion
[ 10763 10752 10751 10750 ] final  -56.73 input  -60.55 | X-H torsion
[ 11005 11000 10999 10996 ] final -109.66 input  -57.11 | X-H torsion

> <Gold.Protein.ActiveResidues>
 VAL166  LYS551  ARG553  GLY616  TRP617  ASP618  TYR619  PRO620  LYS621  CYS622 
 ASP623  PHE694  ASN695  SER759  ASP760  ASP761  ALA762  ILE779  LEU786  VAL792 
 PHE793  MET794  SER795  GLU796  ALA797  LYS798  CYS799  TRP800  GLU811  SER814 

> <Gold.Protein.RotatedAtoms>
  151.2331  133.4439  159.2604 H   0  0  0  0  0  0  0  0  0  0  0  0  # atno 6907 bound_to 6896
  151.0776  134.9838  159.8350 H   0  0  0  0  0  0  0  0  0  0  0  0  # atno 6908 bound_to 6896
  152.5420  134.2273  159.8864 H   0  0  0  0  0  0  0  0  0  0  0  0  # atno 6909 bound_to 6896
  145.9575  140.7512  142.9474 H   0  0  0  0  0  0  0  0  0  0  0  0  # atno 7974 bound_to 7965
  154.4248  140.1789  156.1417 H   0  0  0  0  0  0  0  0  0  0  0  0  # atno 8008 bound_to 7997
  155.9986  140.3362  155.6798 H   0  0  0  0  0  0  0  0  0  0  0  0  # atno 8009 bound_to 7997
  155.6274  140.0666  157.2650 H   0  0  0  0  0  0  0  0  0  0  0  0  # atno 8010 bound_to 7997
  139.9176  143.6420  152.2561 H   0  0  0  0  0  0  0  0  0  0  0  0  # atno 10167 bound_to 10162
  156.1505  130.6531  150.9907 H   0  0  0  0  0  0  0  0  0  0  0  0  # atno 10718 bound_to 10713
  154.2113  135.6394  153.5116 H   0  0  0  0  0  0  0  0  0  0  0  0  # atno 10763 bound_to 10752
  152.9989  135.5474  154.6212 H   0  0  0  0  0  0  0  0  0  0  0  0  # atno 10764 bound_to 10752
  154.5650  135.2912  155.0856 H   0  0  0  0  0  0  0  0  0  0  0  0  # atno 10765 bound_to 10752
  141.0835  133.9179  157.2237 H   0  0  0  0  0  0  0  0  0  0  0  0  # atno 11005 bound_to 11000
  144.6808  140.2536  143.7328 LP  0  0  0  0  0  0  0  0  0  0  0  0  # atno 17320 bound_to 7965
  145.8086  139.1994  143.2006 LP  0  0  0  0  0  0  0  0  0  0  0  0  # atno 17321 bound_to 7965
  139.6889  144.7649  151.1474 LP  0  0  0  0  0  0  0  0  0  0  0  0  # atno 17342 bound_to 10162
  140.7670  143.5617  150.9091 LP  0  0  0  0  0  0  0  0  0  0  0  0  # atno 17343 bound_to 10162
  157.6653  131.0873  150.7743 LP  0  0  0  0  0  0  0  0  0  0  0  0  # atno 17370 bound_to 10713
  156.7811  130.4860  149.5401 LP  0  0  0  0  0  0  0  0  0  0  0  0  # atno 17371 bound_to 10713
  139.9651  135.0144  156.9365 LP  0  0  0  0  0  0  0  0  0  0  0  0  # atno 17394 bound_to 11000
  140.5415  134.0715  155.7343 LP  0  0  0  0  0  0  0  0  0  0  0  0  # atno 17395 bound_to 11000

$$$$
