AV-unprocessed.smi:2677|AV-procd|sdf|10365|dock10
  -GOLD-   2272014393D 1   1.00000     0.00000
 Structure written by MMmdl.
 40 41  0  0  0  0  0  0  0  0  1 V2000
  153.4218  142.5107  162.4833 C   0  0  0  0  0  0  0  0  0  0  0  0
  152.5207  143.6108  161.9124 C   0  0  0  0  0  0  0  0  0  0  0  0
  152.1213  143.3384  160.4922 C   0  0  0  0  0  0  0  0  0  0  0  0
  151.9753  142.0156  160.0662 N   0  0  0  0  0  0  0  0  0  0  0  0
  151.6193  141.9212  158.7832 C   0  0  0  0  0  0  0  0  0  0  0  0
  151.4679  140.6200  158.0614 C   0  0  0  0  0  0  0  0  0  0  0  0
  151.3933  140.7721  156.5296 C   0  0  0  0  0  0  0  0  0  0  0  0
  150.0233  140.9567  156.0623 N   0  0  0  0  0  0  0  0  0  0  0  0
  149.5484  140.5668  154.8677 C   0  0  0  0  0  0  0  0  0  0  0  0
  150.2184  139.8903  154.0864 O   0  0  0  0  0  0  0  0  0  0  0  0
  148.2771  140.9648  154.6084 N   0  0  0  0  0  0  0  0  0  0  0  0
  147.5086  141.9632  155.3701 C   0  0  0  0  0  0  0  0  0  0  0  0
  146.5166  141.2369  156.2922 C   0  0  0  0  0  0  0  0  0  0  0  0
  145.3134  140.2769  155.3211 S   0  0  0  0  0  0  0  0  0  0  0  0
  146.4541  139.3765  154.2242 C   0  0  0  0  0  0  0  0  0  0  0  0
  147.4618  140.3331  153.5640 C   0  0  0  0  0  0  0  0  0  0  0  0
  151.4398  143.4845  158.0014 S   0  0  0  0  0  0  0  0  0  0  0  0
  151.8604  144.2617  159.5064 C   0  0  0  0  0  0  0  0  0  0  0  0
  151.9108  145.7501  159.6084 C   0  0  0  0  0  0  0  0  0  0  0  0
  153.6975  142.7300  163.5149 H   0  0  0  0  0  0  0  0  0  0  0  0
  154.3417  142.4148  161.9057 H   0  0  0  0  0  0  0  0  0  0  0  0
  152.9160  141.5447  162.4715 H   0  0  0  0  0  0  0  0  0  0  0  0
  151.6366  143.7143  162.5420 H   0  0  0  0  0  0  0  0  0  0  0  0
  153.0410  144.5675  161.9746 H   0  0  0  0  0  0  0  0  0  0  0  0
  152.3082  139.9776  158.3276 H   0  0  0  0  0  0  0  0  0  0  0  0
  150.5717  140.1188  158.4276 H   0  0  0  0  0  0  0  0  0  0  0  0
  152.0319  141.5904  156.1934 H   0  0  0  0  0  0  0  0  0  0  0  0
  151.7783  139.8677  156.0578 H   0  0  0  0  0  0  0  0  0  0  0  0
  149.4089  141.4902  156.6598 H   0  0  0  0  0  0  0  0  0  0  0  0
  148.1394  142.6367  155.9513 H   0  0  0  0  0  0  0  0  0  0  0  0
  146.9674  142.6158  154.6835 H   0  0  0  0  0  0  0  0  0  0  0  0
  147.0463  140.5662  156.9696 H   0  0  0  0  0  0  0  0  0  0  0  0
  145.9754  141.9540  156.9094 H   0  0  0  0  0  0  0  0  0  0  0  0
  146.9774  138.6149  154.8035 H   0  0  0  0  0  0  0  0  0  0  0  0
  145.8706  138.8555  153.4649 H   0  0  0  0  0  0  0  0  0  0  0  0
  146.9376  141.0935  152.9834 H   0  0  0  0  0  0  0  0  0  0  0  0
  148.0683  139.7850  152.8416 H   0  0  0  0  0  0  0  0  0  0  0  0
  152.9430  146.0992  159.6366 H   0  0  0  0  0  0  0  0  0  0  0  0
  151.4119  146.0946  160.5142 H   0  0  0  0  0  0  0  0  0  0  0  0
  151.4187  146.2209  158.7572 H   0  0  0  0  0  0  0  0  0  0  0  0
  1  2  1  0  0  0  0
  1 20  1  0  0  0  0
  1 21  1  0  0  0  0
  1 22  1  0  0  0  0
  2  3  1  0  0  0  0
  2 23  1  0  0  0  0
  2 24  1  0  0  0  0
  3 18  2  0  0  0  0
  3  4  1  0  0  0  0
  4  5  2  0  0  0  0
  5  6  1  0  0  0  0
  5 17  1  0  0  0  0
  6  7  1  0  0  0  0
  6 25  1  0  0  0  0
  6 26  1  0  0  0  0
  7  8  1  0  0  0  0
  7 27  1  0  0  0  0
  7 28  1  0  0  0  0
  8  9  1  0  0  0  0
  8 29  1  0  0  0  0
  9 10  2  0  0  0  0
  9 11  1  0  0  0  0
 11 16  1  0  0  0  0
 11 12  1  0  0  0  0
 12 13  1  0  0  0  0
 12 30  1  0  0  0  0
 12 31  1  0  0  0  0
 13 14  1  0  0  0  0
 13 32  1  0  0  0  0
 13 33  1  0  0  0  0
 14 15  1  0  0  0  0
 15 16  1  0  0  0  0
 15 34  1  0  0  0  0
 15 35  1  0  0  0  0
 16 36  1  0  0  0  0
 16 37  1  0  0  0  0
 17 18  1  0  0  0  0
 18 19  1  0  0  0  0
 19 38  1  0  0  0  0
 19 39  1  0  0  0  0
 19 40  1  0  0  0  0
M  END
> <s_m_source_file>
AV-unprocessed.smi

> <i_m_source_file_index>
2677

> <i_lp_mmshare_version>
43012

> <i_f3d_flags>
0

> <s_epik_input>
W0NIM11bQ0gyXWMxbmMoc2MxW0NIM10pW0NIMl1bQ0gyXVtOSF1DKD1PKU4yW0NIMl1bQ0gyXVNbQ0gyXVtDSDJdMg==

> <s_epik_cmdline>
J2VwaWtfcHl0aG9uJywgJy1waCcsICc3LjAnLCAnLXRuJywgJzgnLCAnLW1hJywgJzIwMCcsICctbWV0YWxfYmluZGluZycsICctaW1hZScsICc8aW5maWxlLm1hZT4nLCAnLW9tYWUnLCAnPG91dGZpbGUubWFlPic=

> <r_epik_Ionization_Penalty>
0.00440659

> <r_epik_Ionization_Penalty_Charging>
0

> <r_epik_Ionization_Penalty_Neutral>
0.00440659

> <r_epik_State_Penalty>
0.00314229

> <r_epik_Charging_Adjusted_Penalty>
0.00314229

> <i_epik_Tot_Q>
0

> <i_epik_Tot_abs_Q>
0

> <r_epik_Metal_State_Penalty>
-0

> <b_epik_Metal_Only>
0

> <s_lp_Force_Field>
OPLS_2005

> <r_lp_Energy>
14.3594

> <b_lp_Chiralities_Consistent>
1

> <s_lp_Variant>
AV-unprocessed.smi:2677-1

> <Gold.Version>
5.8.1

> <Gold.Id.Protein>
6NUR|6NUR_protein|mol2

> <Gold.PLP.Fitness>
42.6885

> <Gold.PLP.PLP>
-41.6276

> <Gold.PLP.part.hbond>
-1.1462

> <Gold.PLP.part.metal>
0.0000

> <Gold.PLP.part.buried>
-3.8120

> <Gold.PLP.part.nonpolar>
-37.0119

> <Gold.PLP.part.repulsive>
1.0969

> <Gold.PLP.ligand.clash>
0.0000

> <Gold.PLP.ligand.torsion>
0.9795

> <Gold.PLP.Chemscore.Hbond>
1.0000

> <Gold.PLP.Chemscore.CHOScore>
0.0000

> <Gold.PLP.Chemscore.Metal>
0.0000

> <Gold.Chemscore.Hbonds>
donor molecule, donor type, donor heavy atom, donor atom, acceptor molecule, acceptor atom, score
      P1  H  7989  7998       L1    10  1.00

> <Gold.PLP.Chemscore.Internal.Correction>
0.0199

> <Gold.Rescore>
     Score         DG    S(hbond)    S(metal)    S(lipo)     H(rot)  DE(clash)    DE(int)     intcor
     16.49     -17.45       0.87        0.00     108.16       1.40       0.15       0.82       ----

> <Gold.Chemscore.Fitness>
16.4882

> <Gold.Chemscore.DG>
-17.4518

> <Gold.Chemscore.ZeroCoef>
-5.4800

> <Gold.Chemscore.Hbond>
0.8685

> <Gold.Chemscore.Metal>
0.0000

> <Gold.Chemscore.Lipo>
108.1615

> <Gold.Chemscore.Internal_Hbond>
0.0000

> <Gold.Chemscore.DEClash>
0.1464

> <Gold.Chemscore.DEInternal>
0.8173

> <Gold.Chemscore.Rot>
1.4000

> <Gold.Chemscore.Internal.Correction>
   9.000000E+99

> <Gold.Chemscore.Hbonds>
donor molecule, donor type, donor heavy atom, donor atom, acceptor molecule, acceptor atom, score
      P1  H  7989  7998       L1    10  0.72

> <Gold.Chemscore.Hbond.Weighted>
-2.9009

> <Gold.Chemscore.Metal.Weighted>
-0.0000

> <Gold.Chemscore.Lipo.Weighted>
-12.6549

> <Gold.Chemscore.Internal_Hbond.Weighted>
0.0000

> <Gold.Chemscore.DEClash.Weighted>
0.1464

> <Gold.Chemscore.DEInternal.Weighted>
0.8173

> <Gold.Chemscore.Rot.Weighted>
3.5839

> <Gold.Chemscore.Internal.Correction.Weighted>
   9.000000E+99

> <Gold.Protein.RotatedTorsions>
[ 6907 6896 6895 6894 ] final -176.09 input  -60.11 | X-H torsion
[ 7974 7965 7964 7962 ] final -164.13 input  175.53 | X-H torsion
[ 8008 7997 7996 7995 ] final   16.01 input   59.86 | X-H torsion
[ 10167 10162 10161 10158 ] final  116.73 input  -65.29 | X-H torsion
[ 10718 10713 10712 10709 ] final  121.52 input   66.30 | X-H torsion
[ 10763 10752 10751 10750 ] final   23.60 input  -60.55 | X-H torsion
[ 11005 11000 10999 10996 ] final   78.27 input  -57.11 | X-H torsion

> <Gold.Protein.ActiveResidues>
 VAL166  LYS551  ARG553  GLY616  TRP617  ASP618  TYR619  PRO620  LYS621  CYS622 
 ASP623  PHE694  ASN695  SER759  ASP760  ASP761  ALA762  ILE779  LEU786  VAL792 
 PHE793  MET794  SER795  GLU796  ALA797  LYS798  CYS799  TRP800  GLU811  SER814 

> <Gold.Protein.RotatedAtoms>
  151.5991  133.3358  159.3043 H   0  0  0  0  0  0  0  0  0  0  0  0  # atno 6907 bound_to 6896
  150.8217  134.7432  159.6789 H   0  0  0  0  0  0  0  0  0  0  0  0  # atno 6908 bound_to 6896
  152.4310  134.5783  159.9992 H   0  0  0  0  0  0  0  0  0  0  0  0  # atno 6909 bound_to 6896
  144.7306  140.3006  143.6205 H   0  0  0  0  0  0  0  0  0  0  0  0  # atno 7974 bound_to 7965
  154.8708  140.2958  155.5483 H   0  0  0  0  0  0  0  0  0  0  0  0  # atno 8008 bound_to 7997
  156.3021  140.2460  156.3629 H   0  0  0  0  0  0  0  0  0  0  0  0  # atno 8009 bound_to 7997
  154.8819  140.0397  157.1777 H   0  0  0  0  0  0  0  0  0  0  0  0  # atno 8010 bound_to 7997
  139.6227  144.7103  151.2600 H   0  0  0  0  0  0  0  0  0  0  0  0  # atno 10167 bound_to 10162
  157.5812  131.1074  150.8184 H   0  0  0  0  0  0  0  0  0  0  0  0  # atno 10718 bound_to 10713
  153.0826  135.6623  154.0014 H   0  0  0  0  0  0  0  0  0  0  0  0  # atno 10763 bound_to 10752
  153.9632  135.2972  155.3433 H   0  0  0  0  0  0  0  0  0  0  0  0  # atno 10764 bound_to 10752
  154.7228  135.5157  153.8910 H   0  0  0  0  0  0  0  0  0  0  0  0  # atno 10765 bound_to 10752
  139.9219  134.7750  156.1629 H   0  0  0  0  0  0  0  0  0  0  0  0  # atno 11005 bound_to 11000
  145.7764  139.1875  143.2183 LP  0  0  0  0  0  0  0  0  0  0  0  0  # atno 17320 bound_to 7965
  146.0869  140.7700  142.9614 LP  0  0  0  0  0  0  0  0  0  0  0  0  # atno 17321 bound_to 7965
  140.7392  143.6625  150.8151 LP  0  0  0  0  0  0  0  0  0  0  0  0  # atno 17342 bound_to 10162
  140.0239  143.5514  152.2789 LP  0  0  0  0  0  0  0  0  0  0  0  0  # atno 17343 bound_to 10162
  156.8630  130.5119  149.5302 LP  0  0  0  0  0  0  0  0  0  0  0  0  # atno 17370 bound_to 10713
  156.0858  130.5857  150.9645 LP  0  0  0  0  0  0  0  0  0  0  0  0  # atno 17371 bound_to 10713
  141.0747  133.6781  156.2212 LP  0  0  0  0  0  0  0  0  0  0  0  0  # atno 17394 bound_to 11000
  140.6448  134.5128  157.5572 LP  0  0  0  0  0  0  0  0  0  0  0  0  # atno 17395 bound_to 11000

$$$$
