#       Name:                AV-unprocessed.smi:3061
#       Creating user name   scv26
#       Creation time:       Fri Mar 27 17:08:49 2020


#       File generated by GOLD software.
#

@<TRIPOS>MOLECULE
AV-unprocessed.smi:3061
    41    42     1
SMALL
NO_CHARGES


@<TRIPOS>ATOM
      1 ****        -3.0179  -1.1713  -1.6608 C.3            1 S1                 0.0000
      2 ****        -2.3811  -0.5449  -0.4116 C.3            1 S1                 0.0000
      3 ****        -3.0342  -1.0639   0.8836 C.3            1 S1                 0.0000
      4 ****        -2.5214  -0.3886   2.0623 N.pl3          1 S1                 0.0000
      5 ****        -2.8115   0.8104   2.5696 C.2            1 S1                 0.0000
      6 ****        -2.1246   1.1089   3.6635 N.2            1 S1                 0.0000
      7 ****        -1.3797  -0.0302   3.7833 C.2            1 S1                 0.0000
      8 ****        -1.5791  -0.9599   2.8491 N.2            1 S1                 0.0000
      9 ****        -0.9469  -0.8246  -0.3946 N.am           1 S1                 0.0000
     10 ****         0.0122  -0.0172  -0.8717 C.2            1 S1                 0.0000
     11 ****        -0.2209   1.0559  -1.4291 O.2            1 S1                 0.0000
     12 ****         1.4606  -0.4925  -0.6798 C.3            1 S1                 0.0000
     13 ****         2.1970  -0.6301  -2.0280 C.3            1 S1                 0.0000
     14 ****         3.2552   0.4595  -1.9825 C.2            1 S1                 0.0000
     15 ****         3.9887   0.7185  -2.9351 O.2            1 S1                 0.0000
     16 ****         3.2597   1.0726  -0.7957 N.am           1 S1                 0.0000
     17 ****         4.1409   2.1646  -0.4058 C.3            1 S1                 0.0000
     18 ****         2.3015   0.5105   0.1403 C.3            1 S1                 0.0000
     19 ****        -4.0864  -0.9593  -1.7035 H              1 S1                 0.0000
     20 ****        -2.8928  -2.2546  -1.6705 H              1 S1                 0.0000
     21 ****        -2.5685  -0.7755  -2.5722 H              1 S1                 0.0000
     22 ****        -2.5435   0.5338  -0.4569 H              1 S1                 0.0000
     23 ****        -4.1127  -0.9051   0.8500 H              1 S1                 0.0000
     24 ****        -2.8805  -2.1391   0.9910 H              1 S1                 0.0000
     25 ****        -3.5341   1.4800   2.1266 H              1 S1                 0.0000
     26 ****        -0.6685  -0.1785   4.5825 H              1 S1                 0.0000
     27 ****        -0.6595  -1.6846   0.0502 H              1 S1                 0.0000
     28 ****         1.4525  -1.4572  -0.1692 H              1 S1                 0.0000
     29 ****         2.6818  -1.6032  -2.1129 H              1 S1                 0.0000
     30 ****         1.5513  -0.4989  -2.8981 H              1 S1                 0.0000
     31 ****         5.1838   1.8498  -0.4540 H              1 S1                 0.0000
     32 ****         3.9334   2.4926   0.6132 H              1 S1                 0.0000
     33 ****         4.0082   3.0190  -1.0701 H              1 S1                 0.0000
     34 ****         1.7013   1.3016   0.5939 H              1 S1                 0.0000
     35 ****         2.8362   0.0023   0.9438 H              1 S1                 0.0000
     36 ****        -2.1456   1.9293   4.2349 LP             1 S1                 0.0000
     37 ****        -1.1425  -1.8545   2.7534 LP             1 S1                 0.0000
     38 ****        -1.1650   1.3645  -1.5448 LP             1 S1                 0.0000
     39 ****         0.5339   1.6186  -1.7661 LP             1 S1                 0.0000
     40 ****         3.9027   0.2022  -3.7872 LP             1 S1                 0.0000
     41 ****         4.6710   1.4454  -2.8576 LP             1 S1                 0.0000
@<TRIPOS>BOND
    1    1    2 1     
    2    1   19 1     
    3    1   20 1     
    4    1   21 1     
    5    2    3 1     
    6    2    9 1     
    7    2   22 1     
    8    3    4 1     
    9    3   23 1     
   10    3   24 1     
   11    4    8 1     
   12    4    5 1     
   13    5    6 2     
   14    5   25 1     
   15    6    7 1     
   16    7    8 2     
   17    7   26 1     
   18    9   10 am    
   19    9   27 1     
   20   10   11 2     
   21   10   12 1     
   22   12   18 1     
   23   12   13 1     
   24   12   28 1     
   25   13   14 1     
   26   13   29 1     
   27   13   30 1     
   28   14   15 2     
   29   14   16 am    
   30   16   17 1     
   31   16   18 1     
   32   17   31 1     
   33   17   32 1     
   34   17   33 1     
   35   18   34 1     
   36   18   35 1     
   37    6   36 1     
   38    8   37 1     
   39   11   38 1     
   40   11   39 1     
   41   15   40 1     
   42   15   41 1     
@<TRIPOS>SUBSTRUCTURE
      1 S1             1
@<TRIPOS>SET
LONE_PAIRS      STATIC     ATOMS    <user>   **** ""
6 36 37 38 39 40 41
DONOR_HYDROGENS      STATIC     ATOMS    <user>   **** ""
1 27
ATOM$BLUE        STATIC     ATOMS    COLORGROUP SYSTEM
6 36 37 38 39 40 41
ATOM$RED        STATIC     ATOMS    COLORGROUP SYSTEM
1 27
