AV-unprocessed.smi:1851|AV-procd|sdf|7524|dock9
  -GOLD-   22720 9233D 1   1.00000     0.00000
 Structure written by MMmdl.
 40 42  0  0  0  0  0  0  0  0  2 V2000
  147.7047  140.3945  153.5768 O   0  0  0  0  0  0  0  0  0  0  0  0
  147.6970  141.5329  154.0424 C   0  0  0  0  0  0  0  0  0  0  0  0
  148.5435  141.9679  154.9865 N   0  0  0  0  0  0  0  0  0  0  0  0
  149.6291  141.1799  155.5628 C   0  0  0  0  0  0  0  0  0  0  0  0
  150.3701  141.8642  156.6731 C   0  0  0  0  0  0  0  0  0  0  0  0
  150.5340  143.2081  156.8476 N   0  3  0  0  0  0  0  0  0  0  0  0
  151.2879  143.4504  157.9965 C   0  0  0  0  0  0  0  0  0  0  0  0
  151.7114  144.6426  158.5756 C   0  0  0  0  0  0  0  0  0  0  0  0
  152.4764  144.5357  159.7559 C   0  0  0  0  0  0  0  0  0  0  0  0
  152.7925  143.2801  160.3150 C   0  0  0  0  0  0  0  0  0  0  0  0
  152.3554  142.0784  159.7195 C   0  0  0  0  0  0  0  0  0  0  0  0
  151.5987  142.1940  158.5539 C   0  0  0  0  0  0  0  0  0  0  0  0
  151.0080  141.2481  157.7096 N   0  0  0  0  0  0  0  0  0  0  0  0
  151.1445  139.8210  158.0264 C   0  0  0  0  0  0  0  0  0  0  0  0
  152.5344  139.2828  157.6663 C   0  0  0  0  0  0  0  0  0  0  0  0
  153.4711  139.8053  158.5969 O   0  0  0  0  0  0  0  0  0  0  0  0
  153.7080  139.0944  159.7536 C   0  0  0  0  0  0  0  0  0  0  0  0
  154.6433  139.6389  160.6578 C   0  0  0  0  0  0  0  0  0  0  0  0
  154.9477  138.9801  161.8645 C   0  0  0  0  0  0  0  0  0  0  0  0
  154.3158  137.7629  162.1800 C   0  0  0  0  0  0  0  0  0  0  0  0
  154.6867  136.9535  163.6578 Cl  0  0  0  0  0  0  0  0  0  0  0  0
  153.3801  137.2081  161.2870 C   0  0  0  0  0  0  0  0  0  0  0  0
  153.0756  137.8677  160.0802 C   0  0  0  0  0  0  0  0  0  0  0  0
  146.9958  142.3278  153.7451 H   0  0  0  0  0  0  0  0  0  0  0  0
  148.4504  142.9217  155.3053 H   0  0  0  0  0  0  0  0  0  0  0  0
  149.2508  140.2225  155.9245 H   0  0  0  0  0  0  0  0  0  0  0  0
  150.3347  140.9507  154.7639 H   0  0  0  0  0  0  0  0  0  0  0  0
  151.4709  145.6052  158.1487 H   0  0  0  0  0  0  0  0  0  0  0  0
  152.8283  145.4343  160.2418 H   0  0  0  0  0  0  0  0  0  0  0  0
  153.3820  143.2371  161.2193 H   0  0  0  0  0  0  0  0  0  0  0  0
  152.6032  141.1215  160.1546 H   0  0  0  0  0  0  0  0  0  0  0  0
  150.9260  139.6721  159.0844 H   0  0  0  0  0  0  0  0  0  0  0  0
  150.3767  139.2797  157.4731 H   0  0  0  0  0  0  0  0  0  0  0  0
  152.5299  138.1924  157.7067 H   0  0  0  0  0  0  0  0  0  0  0  0
  152.8006  139.5867  156.6528 H   0  0  0  0  0  0  0  0  0  0  0  0
  155.1334  140.5726  160.4236 H   0  0  0  0  0  0  0  0  0  0  0  0
  155.6664  139.4107  162.5464 H   0  0  0  0  0  0  0  0  0  0  0  0
  152.8930  136.2743  161.5267 H   0  0  0  0  0  0  0  0  0  0  0  0
  152.3526  137.4109  159.4219 H   0  0  0  0  0  0  0  0  0  0  0  0
  150.1506  143.9064  156.2237 H   0  0  0  0  0  0  0  0  0  0  0  0
  1  2  2  0  0  0  0
  2  3  1  0  0  0  0
  2 24  1  0  0  0  0
  3  4  1  0  0  0  0
  3 25  1  0  0  0  0
  4  5  1  0  0  0  0
  4 26  1  0  0  0  0
  4 27  1  0  0  0  0
  5 13  1  0  0  0  0
  5  6  2  0  0  0  0
  6  7  1  0  0  0  0
  6 40  1  0  0  0  0
  7 12  2  0  0  0  0
  7  8  1  0  0  0  0
  8  9  2  0  0  0  0
  8 28  1  0  0  0  0
  9 10  1  0  0  0  0
  9 29  1  0  0  0  0
 10 11  2  0  0  0  0
 10 30  1  0  0  0  0
 11 12  1  0  0  0  0
 11 31  1  0  0  0  0
 12 13  1  0  0  0  0
 13 14  1  0  0  0  0
 14 15  1  0  0  0  0
 14 32  1  0  0  0  0
 14 33  1  0  0  0  0
 15 16  1  0  0  0  0
 15 34  1  0  0  0  0
 15 35  1  0  0  0  0
 16 17  1  0  0  0  0
 17 23  1  0  0  0  0
 17 18  2  0  0  0  0
 18 19  1  0  0  0  0
 18 36  1  0  0  0  0
 19 20  2  0  0  0  0
 19 37  1  0  0  0  0
 20 21  1  0  0  0  0
 20 22  1  0  0  0  0
 22 23  2  0  0  0  0
 22 38  1  0  0  0  0
 23 39  1  0  0  0  0
M  CHG  1   6   1
M  END
> <s_m_source_file>
AV-unprocessed.smi

> <i_m_source_file_index>
1851

> <i_lp_mmshare_version>
43012

> <i_f3d_flags>
0

> <s_epik_input>
Tz1bQ0hdW05IXVtDSDJdYyhuMSluKGMoYzEyKVtjSF1bY0hdW2NIXVtjSF0yKVtDSDJdW0NIMl1PYzNbY0hdW2NIXWMoQ2wpW2NIXVtjSF0z

> <s_epik_cmdline>
J2VwaWtfcHl0aG9uJywgJy1waCcsICc3LjAnLCAnLXRuJywgJzgnLCAnLW1hJywgJzIwMCcsICctbWV0YWxfYmluZGluZycsICctaW1hZScsICc8aW5maWxlLm1hZT4nLCAnLW9tYWUnLCAnPG91dGZpbGUubWFlPic=

> <r_lp_tautomer_probability>
1

> <r_epik_Ionization_Penalty>
1.32442

> <r_epik_Ionization_Penalty_Charging>
1.32442

> <r_epik_Ionization_Penalty_Neutral>
7.38905e-08

> <r_epik_State_Penalty>
1.4003

> <r_epik_Charging_Adjusted_Penalty>
2.72472

> <i_epik_Tot_Q>
1

> <i_epik_Tot_abs_Q>
1

> <r_epik_Metal_State_Penalty>
1.46133

> <b_epik_Metal_Only>
0

> <s_lp_Force_Field>
OPLS_2005

> <r_lp_Energy>
15.621

> <b_lp_Chiralities_Consistent>
1

> <s_lp_Variant>
AV-unprocessed.smi:1851-2

> <Gold.Version>
5.8.1

> <Gold.Id.Protein>
6NUR|6NUR_protein|mol2

> <Gold.PLP.Fitness>
59.9632

> <Gold.PLP.PLP>
-50.4129

> <Gold.PLP.part.hbond>
-2.9803

> <Gold.PLP.part.metal>
0.0000

> <Gold.PLP.part.buried>
-7.4689

> <Gold.PLP.part.nonpolar>
-41.4124

> <Gold.PLP.part.repulsive>
0.8886

> <Gold.PLP.ligand.clash>
0.0000

> <Gold.PLP.ligand.torsion>
0.8187

> <Gold.PLP.Chemscore.Hbond>
3.7136

> <Gold.PLP.Chemscore.CHOScore>
0.0000

> <Gold.PLP.Chemscore.Metal>
0.0000

> <Gold.Chemscore.Hbonds>
donor molecule, donor type, donor heavy atom, donor atom, acceptor molecule, acceptor atom, score
      L1  H     3    25       P1  8028  1.00
      L1  H     6    40       P1  8028  2.00
      P1  H  7997  8009       L1    16  0.73

> <Gold.PLP.Chemscore.Internal.Correction>
0.0470

> <Gold.Rescore>
     Score         DG    S(hbond)    S(metal)    S(lipo)     H(rot)  DE(clash)    DE(int)     intcor
     20.35     -22.30       2.39        0.00     129.84       2.49       0.01       1.94       ----

> <Gold.Chemscore.Fitness>
20.3513

> <Gold.Chemscore.DG>
-22.3029

> <Gold.Chemscore.ZeroCoef>
-5.4800

> <Gold.Chemscore.Hbond>
2.3935

> <Gold.Chemscore.Metal>
0.0000

> <Gold.Chemscore.Lipo>
129.8406

> <Gold.Chemscore.Internal_Hbond>
0.0000

> <Gold.Chemscore.DEClash>
0.0128

> <Gold.Chemscore.DEInternal>
1.9389

> <Gold.Chemscore.Rot>
2.4854

> <Gold.Chemscore.Internal.Correction>
   9.000000E+99

> <Gold.Chemscore.Hbonds>
donor molecule, donor type, donor heavy atom, donor atom, acceptor molecule, acceptor atom, score
      L1  H     3    25       P1  8028  1.00
      L1  H     6    40       P1  8028  0.94
      P1  H  7997  8009       L1    16  0.10

> <Gold.Chemscore.Hbond.Weighted>
-7.9942

> <Gold.Chemscore.Metal.Weighted>
-0.0000

> <Gold.Chemscore.Lipo.Weighted>
-15.1913

> <Gold.Chemscore.Internal_Hbond.Weighted>
0.0000

> <Gold.Chemscore.DEClash.Weighted>
0.0128

> <Gold.Chemscore.DEInternal.Weighted>
1.9389

> <Gold.Chemscore.Rot.Weighted>
6.3627

> <Gold.Chemscore.Internal.Correction.Weighted>
   9.000000E+99

> <Gold.Protein.RotatedTorsions>
[ 6907 6896 6895 6894 ] final  -45.20 input  -60.11 | X-H torsion
[ 7974 7965 7964 7962 ] final  100.03 input  175.53 | X-H torsion
[ 8008 7997 7996 7995 ] final  127.06 input   59.86 | X-H torsion
[ 10167 10162 10161 10158 ] final   60.37 input  -65.29 | X-H torsion
[ 10718 10713 10712 10709 ] final   40.06 input   66.30 | X-H torsion
[ 10763 10752 10751 10750 ] final  163.72 input  -60.55 | X-H torsion
[ 11005 11000 10999 10996 ] final -163.39 input  -57.11 | X-H torsion

> <Gold.Protein.ActiveResidues>
 VAL166  LYS551  ARG553  GLY616  TRP617  ASP618  TYR619  PRO620  LYS621  CYS622 
 ASP623  PHE694  ASN695  SER759  ASP760  ASP761  ALA762  ILE779  LEU786  VAL792 
 PHE793  MET794  SER795  GLU796  ALA797  LYS798  CYS799  TRP800  GLU811  SER814 

> <Gold.Protein.RotatedAtoms>
  150.9245  134.8662  159.7510 H   0  0  0  0  0  0  0  0  0  0  0  0  # atno 6907 bound_to 6896
  152.5009  134.4169  159.9477 H   0  0  0  0  0  0  0  0  0  0  0  0  # atno 6908 bound_to 6896
  151.4200  133.3661  159.2790 H   0  0  0  0  0  0  0  0  0  0  0  0  # atno 6909 bound_to 6896
  145.3909  139.2363  143.3352 H   0  0  0  0  0  0  0  0  0  0  0  0  # atno 7974 bound_to 7965
  156.2881  140.2678  156.2211 H   0  0  0  0  0  0  0  0  0  0  0  0  # atno 8008 bound_to 7997
  155.0167  140.0387  157.2439 H   0  0  0  0  0  0  0  0  0  0  0  0  # atno 8009 bound_to 7997
  154.7471  140.2736  155.6329 H   0  0  0  0  0  0  0  0  0  0  0  0  # atno 8010 bound_to 7997
  140.1664  144.4320  150.6683 H   0  0  0  0  0  0  0  0  0  0  0  0  # atno 10167 bound_to 10162
  157.3778  130.7737  149.7169 H   0  0  0  0  0  0  0  0  0  0  0  0  # atno 10718 bound_to 10713
  154.2980  135.2759  155.2624 H   0  0  0  0  0  0  0  0  0  0  0  0  # atno 10763 bound_to 10752
  154.5074  135.5792  153.6581 H   0  0  0  0  0  0  0  0  0  0  0  0  # atno 10764 bound_to 10752
  152.9904  135.6172  154.3149 H   0  0  0  0  0  0  0  0  0  0  0  0  # atno 10765 bound_to 10752
  140.5986  134.4971  157.5202 H   0  0  0  0  0  0  0  0  0  0  0  0  # atno 11005 bound_to 11000
  146.2798  140.4592  142.8781 LP  0  0  0  0  0  0  0  0  0  0  0  0  # atno 17320 bound_to 7965
  144.8441  140.6902  143.6211 LP  0  0  0  0  0  0  0  0  0  0  0  0  # atno 17321 bound_to 7965
  140.6610  143.2252  151.5855 LP  0  0  0  0  0  0  0  0  0  0  0  0  # atno 17342 bound_to 10162
  139.5358  144.2786  152.1247 LP  0  0  0  0  0  0  0  0  0  0  0  0  # atno 17343 bound_to 10162
  155.9769  130.4069  150.3747 LP  0  0  0  0  0  0  0  0  0  0  0  0  # atno 17370 bound_to 10713
  157.1847  131.0401  151.2730 LP  0  0  0  0  0  0  0  0  0  0  0  0  # atno 17371 bound_to 10713
  139.9242  134.8088  156.1118 LP  0  0  0  0  0  0  0  0  0  0  0  0  # atno 17394 bound_to 11000
  141.0887  133.6723  156.2493 LP  0  0  0  0  0  0  0  0  0  0  0  0  # atno 17395 bound_to 11000

$$$$
