AV-unprocessed.smi:362|AV-procd|sdf|2422|dock5
  -GOLD-   2262022363D 1   1.00000     0.00000
 Structure written by MMmdl.
 35 37  0  0  0  0  0  0  0  0  2 V2000
  150.7790  142.3432  156.4860 O   0  0  0  0  0  0  0  0  0  0  0  0
  150.9805  141.5119  157.3722 C   0  0  0  0  0  0  0  0  0  0  0  0
  150.2749  140.1502  157.3338 C   0  0  0  0  0  0  0  0  0  0  0  0
  151.2216  139.0272  157.2435 N   0  0  0  0  0  0  0  0  0  0  0  0
  151.3835  138.2134  158.3785 C   0  0  0  0  0  0  0  0  0  0  0  0
  152.2322  137.1680  158.3876 C   0  0  0  0  0  0  0  0  0  0  0  0
  152.9946  136.8871  157.1773 C   0  0  0  0  0  0  0  0  0  0  0  0
  153.7691  135.9322  157.1653 O   0  0  0  0  0  0  0  0  0  0  0  0
  152.8069  137.7093  156.1036 N   0  5  0  0  0  0  0  0  0  0  0  0
  151.9427  138.7713  156.1100 C   0  0  0  0  0  0  0  0  0  0  0  0
  151.7905  139.5030  155.1308 O   0  0  0  0  0  0  0  0  0  0  0  0
  151.8227  141.7106  158.3992 N   0  0  0  0  0  0  0  0  0  0  0  0
  152.5861  142.9240  158.6819 C   0  0  0  0  0  0  0  0  0  0  0  0
  153.4378  142.8281  159.9391 C   0  0  0  0  0  0  0  0  0  0  0  0
  153.8939  141.4938  160.4789 C   0  0  0  0  0  0  0  0  0  0  0  0
  152.8618  142.3038  161.2319 C   0  0  0  0  0  0  0  0  0  0  0  0
  151.7484  144.1943  158.6879 C   0  0  0  0  0  0  0  0  0  0  0  0
  152.3012  145.4938  159.2214 C   0  0  0  0  0  0  0  0  0  0  0  0
  151.2085  144.7697  159.9758 C   0  0  0  0  0  0  0  0  0  0  0  0
  149.6595  140.0616  158.2299 H   0  0  0  0  0  0  0  0  0  0  0  0
  149.5723  140.1148  156.4987 H   0  0  0  0  0  0  0  0  0  0  0  0
  150.7873  138.4934  159.2345 H   0  0  0  0  0  0  0  0  0  0  0  0
  152.3484  136.5547  159.2692 H   0  0  0  0  0  0  0  0  0  0  0  0
  151.9169  140.9601  159.0680 H   0  0  0  0  0  0  0  0  0  0  0  0
  153.2773  143.0088  157.8424 H   0  0  0  0  0  0  0  0  0  0  0  0
  154.1549  143.6403  160.0432 H   0  0  0  0  0  0  0  0  0  0  0  0
  153.5500  140.5935  159.9739 H   0  0  0  0  0  0  0  0  0  0  0  0
  154.8962  141.4396  160.8987 H   0  0  0  0  0  0  0  0  0  0  0  0
  153.1744  142.7929  162.1521 H   0  0  0  0  0  0  0  0  0  0  0  0
  151.8341  141.9465  161.2197 H   0  0  0  0  0  0  0  0  0  0  0  0
  151.0842  144.2832  157.8302 H   0  0  0  0  0  0  0  0  0  0  0  0
  153.3008  145.4817  159.6514 H   0  0  0  0  0  0  0  0  0  0  0  0
  152.0310  146.4068  158.6946 H   0  0  0  0  0  0  0  0  0  0  0  0
  150.2093  145.1997  159.9524 H   0  0  0  0  0  0  0  0  0  0  0  0
  151.4846  144.2822  160.9084 H   0  0  0  0  0  0  0  0  0  0  0  0
  1  2  2  0  0  0  0
  2  3  1  0  0  0  0
  2 12  1  0  0  0  0
  3  4  1  0  0  0  0
  3 20  1  0  0  0  0
  3 21  1  0  0  0  0
  4 10  1  0  0  0  0
  4  5  1  0  0  0  0
  5  6  2  0  0  0  0
  5 22  1  0  0  0  0
  6  7  1  0  0  0  0
  6 23  1  0  0  0  0
  7  8  2  0  0  0  0
  7  9  1  0  0  0  0
  9 10  1  0  0  0  0
 10 11  2  0  0  0  0
 12 13  1  0  0  0  0
 12 24  1  0  0  0  0
 13 14  1  0  0  0  0
 13 17  1  0  0  0  0
 13 25  1  0  0  0  0
 14 16  1  0  0  0  0
 14 15  1  0  0  0  0
 14 26  1  0  0  0  0
 15 16  1  0  0  0  0
 15 27  1  0  0  0  0
 15 28  1  0  0  0  0
 16 29  1  0  0  0  0
 16 30  1  0  0  0  0
 17 19  1  0  0  0  0
 17 18  1  0  0  0  0
 17 31  1  0  0  0  0
 18 19  1  0  0  0  0
 18 32  1  0  0  0  0
 18 33  1  0  0  0  0
 19 34  1  0  0  0  0
 19 35  1  0  0  0  0
M  CHG  1   9  -1
M  END
> <s_m_source_file>
AV-unprocessed.smi

> <i_m_source_file_index>
362

> <i_lp_mmshare_version>
43012

> <i_f3d_flags>
0

> <s_epik_input>
W0NIMl0xW0NIMl1bQ0hdMVtDSF0oW0NIXTJbQ0gyXVtDSDJdMilbTkhdQyg9TylbQ0gyXW4zW2NIXVtjSF1jKD1PKVtuSF1jMz1P

> <s_epik_cmdline>
J2VwaWtfcHl0aG9uJywgJy1waCcsICc3LjAnLCAnLXRuJywgJzgnLCAnLW1hJywgJzIwMCcsICctbWV0YWxfYmluZGluZycsICctaW1hZScsICc8aW5maWxlLm1hZT4nLCAnLW9tYWUnLCAnPG91dGZpbGUubWFlPic=

> <r_lp_tautomer_probability>
0.999537

> <r_epik_Ionization_Penalty>
3.10326

> <r_epik_Ionization_Penalty_Charging>
2.95532e-08

> <r_epik_Ionization_Penalty_Neutral>
3.10326

> <r_epik_State_Penalty>
3.10233

> <r_epik_Charging_Adjusted_Penalty>
3.10233

> <i_epik_Tot_Q>
-1

> <i_epik_Tot_abs_Q>
1

> <r_epik_Metal_State_Penalty>
0.461987

> <b_epik_Metal_Only>
1

> <s_lp_Force_Field>
OPLS_2005

> <r_lp_Energy>
32.875

> <b_lp_Chiralities_Consistent>
1

> <s_lp_Variant>
AV-unprocessed.smi:362-2

> <Gold.Version>
5.8.1

> <Gold.Id.Protein>
6NUR|6NUR_protein|mol2

> <Gold.PLP.Fitness>
44.7650

> <Gold.PLP.PLP>
-39.1447

> <Gold.PLP.part.hbond>
-2.3306

> <Gold.PLP.part.metal>
0.0000

> <Gold.PLP.part.buried>
-6.5245

> <Gold.PLP.part.nonpolar>
-30.4066

> <Gold.PLP.part.repulsive>
0.4930

> <Gold.PLP.ligand.clash>
0.0000

> <Gold.PLP.ligand.torsion>
1.2438

> <Gold.PLP.Chemscore.Hbond>
1.9760

> <Gold.PLP.Chemscore.CHOScore>
0.0000

> <Gold.PLP.Chemscore.Metal>
0.0000

> <Gold.Chemscore.Hbonds>
donor molecule, donor type, donor heavy atom, donor atom, acceptor molecule, acceptor atom, score
      P1  H  7989  7998       L1    11  0.76
      P1  H 10752 10764       L1     8  1.00

> <Gold.PLP.Chemscore.Internal.Correction>
2.1799

> <Gold.Rescore>
     Score         DG    S(hbond)    S(metal)    S(lipo)     H(rot)  DE(clash)    DE(int)     intcor
     15.84     -17.23       1.90        0.00      91.98       2.09       0.05       1.34       ----

> <Gold.Chemscore.Fitness>
15.8433

> <Gold.Chemscore.DG>
-17.2271

> <Gold.Chemscore.ZeroCoef>
-5.4800

> <Gold.Chemscore.Hbond>
1.8994

> <Gold.Chemscore.Metal>
0.0000

> <Gold.Chemscore.Lipo>
91.9757

> <Gold.Chemscore.Internal_Hbond>
0.0000

> <Gold.Chemscore.DEClash>
0.0465

> <Gold.Chemscore.DEInternal>
1.3373

> <Gold.Chemscore.Rot>
2.0929

> <Gold.Chemscore.Internal.Correction>
   9.000000E+99

> <Gold.Chemscore.Hbonds>
donor molecule, donor type, donor heavy atom, donor atom, acceptor molecule, acceptor atom, score
      P1  H  7989  7998       L1    11  0.74
      P1  H 10752 10764       L1     8  0.70

> <Gold.Chemscore.Hbond.Weighted>
-6.3439

> <Gold.Chemscore.Metal.Weighted>
-0.0000

> <Gold.Chemscore.Lipo.Weighted>
-10.7612

> <Gold.Chemscore.Internal_Hbond.Weighted>
0.0000

> <Gold.Chemscore.DEClash.Weighted>
0.0465

> <Gold.Chemscore.DEInternal.Weighted>
1.3373

> <Gold.Chemscore.Rot.Weighted>
5.3579

> <Gold.Chemscore.Internal.Correction.Weighted>
   9.000000E+99

> <Gold.Protein.RotatedTorsions>
[ 6907 6896 6895 6894 ] final  -29.87 input  -60.11 | X-H torsion
[ 7974 7965 7964 7962 ] final  103.52 input  175.53 | X-H torsion
[ 8008 7997 7996 7995 ] final  -28.20 input   59.86 | X-H torsion
[ 10167 10162 10161 10158 ] final   -2.45 input  -65.29 | X-H torsion
[ 10718 10713 10712 10709 ] final  -62.98 input   66.30 | X-H torsion
[ 10763 10752 10751 10750 ] final   24.62 input  -60.55 | X-H torsion
[ 11005 11000 10999 10996 ] final  101.30 input  -57.11 | X-H torsion

> <Gold.Protein.ActiveResidues>
 VAL166  LYS551  ARG553  GLY616  TRP617  ASP618  TYR619  PRO620  LYS621  CYS622 
 ASP623  PHE694  ASN695  SER759  ASP760  ASP761  ALA762  ILE779  LEU786  VAL792 
 PHE793  MET794  SER795  GLU796  ALA797  LYS798  CYS799  TRP800  GLU811  SER814 

> <Gold.Protein.RotatedAtoms>
  151.1132  135.0038  159.8503 H   0  0  0  0  0  0  0  0  0  0  0  0  # atno 6907 bound_to 6896
  152.5444  134.1810  159.8646 H   0  0  0  0  0  0  0  0  0  0  0  0  # atno 6908 bound_to 6896
  151.1862  133.4650  159.2627 H   0  0  0  0  0  0  0  0  0  0  0  0  # atno 6909 bound_to 6896
  145.3449  139.2453  143.3589 H   0  0  0  0  0  0  0  0  0  0  0  0  # atno 7974 bound_to 7965
  154.4343  140.1851  156.1052 H   0  0  0  0  0  0  0  0  0  0  0  0  # atno 8008 bound_to 7997
  156.0261  140.3335  155.7064 H   0  0  0  0  0  0  0  0  0  0  0  0  # atno 8009 bound_to 7997
  155.5907  140.0630  157.2750 H   0  0  0  0  0  0  0  0  0  0  0  0  # atno 8010 bound_to 7997
  140.6851  143.6655  150.8230 H   0  0  0  0  0  0  0  0  0  0  0  0  # atno 10167 bound_to 10162
  156.0820  130.4215  150.1212 H   0  0  0  0  0  0  0  0  0  0  0  0  # atno 10718 bound_to 10713
  153.0751  135.6601  154.0164 H   0  0  0  0  0  0  0  0  0  0  0  0  # atno 10763 bound_to 10752
  153.9800  135.2956  155.3422 H   0  0  0  0  0  0  0  0  0  0  0  0  # atno 10764 bound_to 10752
  154.7136  135.5194  153.8774 H   0  0  0  0  0  0  0  0  0  0  0  0  # atno 10765 bound_to 10752
  139.8773  134.9177  156.4886 H   0  0  0  0  0  0  0  0  0  0  0  0  # atno 11005 bound_to 11000
  146.2992  140.4053  142.8710 LP  0  0  0  0  0  0  0  0  0  0  0  0  # atno 17320 bound_to 7965
  144.8762  140.7339  143.6015 LP  0  0  0  0  0  0  0  0  0  0  0  0  # atno 17321 bound_to 7965
  140.0361  143.5394  152.2739 LP  0  0  0  0  0  0  0  0  0  0  0  0  # atno 17342 bound_to 10162
  139.6204  144.7628  151.2753 LP  0  0  0  0  0  0  0  0  0  0  0  0  # atno 17343 bound_to 10162
  156.9241  130.9692  151.3544 LP  0  0  0  0  0  0  0  0  0  0  0  0  # atno 17370 bound_to 10713
  157.5940  130.8464  149.8702 LP  0  0  0  0  0  0  0  0  0  0  0  0  # atno 17371 bound_to 10713
  140.8675  133.8013  155.9329 LP  0  0  0  0  0  0  0  0  0  0  0  0  # atno 17394 bound_to 11000
  140.8987  134.2406  157.5054 LP  0  0  0  0  0  0  0  0  0  0  0  0  # atno 17395 bound_to 11000

$$$$
