AV-unprocessed.smi:1447|AV-procd|sdf|5893|dock8
  -GOLD-   22720 5573D 1   1.00000     0.00000
 Structure written by MMmdl.
 47 49  0  0  0  0  0  0  0  0  1 V2000
  154.9405  134.1876  158.0762 C   0  0  0  0  0  0  0  0  0  0  0  0
  154.2625  133.8620  159.2763 O   0  0  0  0  0  0  0  0  0  0  0  0
  155.1414  133.7430  160.3843 C   0  0  0  0  0  0  0  0  0  0  0  0
  155.9006  135.0712  160.5921 C   0  0  0  0  0  0  0  0  0  0  0  0
  155.4977  135.8670  161.7684 N   0  0  0  0  0  0  0  0  0  0  0  0
  155.3122  137.2253  161.5569 N   0  0  0  0  0  0  0  0  0  0  0  0
  154.9740  138.0027  162.5330 C   0  0  0  0  0  0  0  0  0  0  0  0
  154.7916  139.4671  162.3365 C   0  0  0  0  0  0  0  0  0  0  0  0
  155.2373  140.2929  163.1351 O   0  0  0  0  0  0  0  0  0  0  0  0
  154.1122  139.8139  161.2280 N   0  0  0  0  0  0  0  0  0  0  0  0
  153.8218  141.1780  160.8009 C   0  0  0  0  0  0  0  0  0  0  0  0
  153.2297  142.0052  161.9558 C   0  0  0  0  0  0  0  0  0  0  0  0
  152.7814  143.3931  161.4655 C   0  0  0  0  0  0  0  0  0  0  0  0
  151.7936  143.2588  160.3944 N   0  0  0  0  0  0  0  0  0  0  0  0
  151.3628  144.5859  159.9861 C   0  0  0  0  0  0  0  0  0  0  0  0
  150.8411  144.7488  158.5767 C   0  0  0  0  0  0  0  0  0  0  0  0
  152.1950  145.3034  158.9478 C   0  0  0  0  0  0  0  0  0  0  0  0
  152.3957  142.5817  159.2455 C   0  0  0  0  0  0  0  0  0  0  0  0
  152.8231  141.1552  159.6330 C   0  0  0  0  0  0  0  0  0  0  0  0
  154.7628  137.4698  163.8673 C   0  0  0  0  0  0  0  0  0  0  0  0
  154.9288  136.1427  164.0593 C   0  0  0  0  0  0  0  0  0  0  0  0
  155.3145  135.2423  162.9707 C   0  0  0  0  0  0  0  0  0  0  0  0
  155.4592  134.0295  163.1223 O   0  0  0  0  0  0  0  0  0  0  0  0
  154.2204  134.2831  157.2636 H   0  0  0  0  0  0  0  0  0  0  0  0
  155.6524  133.4071  157.8032 H   0  0  0  0  0  0  0  0  0  0  0  0
  155.4742  135.1345  158.1677 H   0  0  0  0  0  0  0  0  0  0  0  0
  154.6010  133.4564  161.2884 H   0  0  0  0  0  0  0  0  0  0  0  0
  155.8588  132.9458  160.1841 H   0  0  0  0  0  0  0  0  0  0  0  0
  156.9656  134.8520  160.6841 H   0  0  0  0  0  0  0  0  0  0  0  0
  155.7875  135.6739  159.6892 H   0  0  0  0  0  0  0  0  0  0  0  0
  153.7806  139.0703  160.6301 H   0  0  0  0  0  0  0  0  0  0  0  0
  154.7434  141.6514  160.4569 H   0  0  0  0  0  0  0  0  0  0  0  0
  152.3777  141.4824  162.3932 H   0  0  0  0  0  0  0  0  0  0  0  0
  153.9650  142.1195  162.7531 H   0  0  0  0  0  0  0  0  0  0  0  0
  152.3439  143.9475  162.2968 H   0  0  0  0  0  0  0  0  0  0  0  0
  153.6415  143.9666  161.1159 H   0  0  0  0  0  0  0  0  0  0  0  0
  150.8954  145.2303  160.7292 H   0  0  0  0  0  0  0  0  0  0  0  0
  150.8193  143.8697  157.9351 H   0  0  0  0  0  0  0  0  0  0  0  0
  150.0322  145.4596  158.4204 H   0  0  0  0  0  0  0  0  0  0  0  0
  152.2887  146.3834  159.0404 H   0  0  0  0  0  0  0  0  0  0  0  0
  153.0707  144.7922  158.5523 H   0  0  0  0  0  0  0  0  0  0  0  0
  151.6724  142.5347  158.4305 H   0  0  0  0  0  0  0  0  0  0  0  0
  153.2537  143.1484  158.8797 H   0  0  0  0  0  0  0  0  0  0  0  0
  153.2668  140.6564  158.7708 H   0  0  0  0  0  0  0  0  0  0  0  0
  151.9397  140.5750  159.9054 H   0  0  0  0  0  0  0  0  0  0  0  0
  154.4789  138.1112  164.6890 H   0  0  0  0  0  0  0  0  0  0  0  0
  154.7738  135.7314  165.0459 H   0  0  0  0  0  0  0  0  0  0  0  0
  1  2  1  0  0  0  0
  1 24  1  0  0  0  0
  1 25  1  0  0  0  0
  1 26  1  0  0  0  0
  2  3  1  0  0  0  0
  3  4  1  0  0  0  0
  3 27  1  0  0  0  0
  3 28  1  0  0  0  0
  4  5  1  0  0  0  0
  4 29  1  0  0  0  0
  4 30  1  0  0  0  0
  5 22  1  0  0  0  0
  5  6  1  0  0  0  0
  6  7  2  0  0  0  0
  7  8  1  0  0  0  0
  7 20  1  0  0  0  0
  8  9  2  0  0  0  0
  8 10  1  0  0  0  0
 10 11  1  0  0  0  0
 10 31  1  0  0  0  0
 11 19  1  0  0  0  0
 11 12  1  0  0  0  0
 11 32  1  0  0  0  0
 12 13  1  0  0  0  0
 12 33  1  0  0  0  0
 12 34  1  0  0  0  0
 13 14  1  0  0  0  0
 13 35  1  0  0  0  0
 13 36  1  0  0  0  0
 14 15  1  0  0  0  0
 14 18  1  0  0  0  0
 15 17  1  0  0  0  0
 15 16  1  0  0  0  0
 15 37  1  0  0  0  0
 16 17  1  0  0  0  0
 16 38  1  0  0  0  0
 16 39  1  0  0  0  0
 17 40  1  0  0  0  0
 17 41  1  0  0  0  0
 18 19  1  0  0  0  0
 18 42  1  0  0  0  0
 18 43  1  0  0  0  0
 19 44  1  0  0  0  0
 19 45  1  0  0  0  0
 20 21  2  0  0  0  0
 20 46  1  0  0  0  0
 21 22  1  0  0  0  0
 21 47  1  0  0  0  0
 22 23  2  0  0  0  0
M  END
> <s_m_source_file>
AV-unprocessed.smi

> <i_m_source_file_index>
1447

> <i_lp_mmshare_version>
43012

> <i_f3d_flags>
0

> <s_epik_input>
W0NIM11PW0NIMl1bQ0gyXW4xbmMoW2NIXVtjSF1jMT1PKUMoPU8pW05IXVtDSF0yW0NIMl1bQ0gyXU4oW0NIMl1bQ0gyXTIpW0NIXTNbQ0gyXVtDSDJdMw==

> <s_epik_cmdline>
J2VwaWtfcHl0aG9uJywgJy1waCcsICc3LjAnLCAnLXRuJywgJzgnLCAnLW1hJywgJzIwMCcsICctbWV0YWxfYmluZGluZycsICctaW1hZScsICc8aW5maWxlLm1hZT4nLCAnLW9tYWUnLCAnPG91dGZpbGUubWFlPic=

> <r_lp_tautomer_probability>
1

> <r_epik_Ionization_Penalty>
0.826878

> <r_epik_Ionization_Penalty_Charging>
6.86753e-09

> <r_epik_Ionization_Penalty_Neutral>
0.826878

> <r_epik_State_Penalty>
0.8604

> <r_epik_Charging_Adjusted_Penalty>
0.8604

> <i_epik_Tot_Q>
0

> <i_epik_Tot_abs_Q>
0

> <r_epik_Metal_State_Penalty>
0.8604

> <b_epik_Metal_Only>
0

> <s_lp_Force_Field>
OPLS_2005

> <r_lp_Energy>
44.3131

> <b_lp_Chiralities_Consistent>
1

> <s_lp_Variant>
AV-unprocessed.smi:1447-3

> <Gold.Version>
5.8.1

> <Gold.Id.Protein>
6NUR|6NUR_protein|mol2

> <Gold.PLP.Fitness>
43.8006

> <Gold.PLP.PLP>
-43.6230

> <Gold.PLP.part.hbond>
-1.0070

> <Gold.PLP.part.metal>
0.0000

> <Gold.PLP.part.buried>
-6.9406

> <Gold.PLP.part.nonpolar>
-35.5747

> <Gold.PLP.part.repulsive>
0.0681

> <Gold.PLP.ligand.clash>
0.1872

> <Gold.PLP.ligand.torsion>
1.9198

> <Gold.PLP.Chemscore.Hbond>
1.0000

> <Gold.PLP.Chemscore.CHOScore>
0.0000

> <Gold.PLP.Chemscore.Metal>
0.0000

> <Gold.Chemscore.Hbonds>
donor molecule, donor type, donor heavy atom, donor atom, acceptor molecule, acceptor atom, score
      P1  H  6896  6909       L1     2  1.00

> <Gold.PLP.Chemscore.Internal.Correction>
1.2045

> <Gold.Rescore>
     Score         DG    S(hbond)    S(metal)    S(lipo)     H(rot)  DE(clash)    DE(int)     intcor
     15.25     -18.49       0.97        0.00     120.91       1.71       0.00       3.24       ----

> <Gold.Chemscore.Fitness>
15.2522

> <Gold.Chemscore.DG>
-18.4897

> <Gold.Chemscore.ZeroCoef>
-5.4800

> <Gold.Chemscore.Hbond>
0.9737

> <Gold.Chemscore.Metal>
0.0000

> <Gold.Chemscore.Lipo>
120.9096

> <Gold.Chemscore.Internal_Hbond>
0.0000

> <Gold.Chemscore.DEClash>
0.0009

> <Gold.Chemscore.DEInternal>
3.2367

> <Gold.Chemscore.Rot>
1.7143

> <Gold.Chemscore.Internal.Correction>
   9.000000E+99

> <Gold.Chemscore.Hbonds>
donor molecule, donor type, donor heavy atom, donor atom, acceptor molecule, acceptor atom, score
      P1  H  6896  6909       L1     2  0.82

> <Gold.Chemscore.Hbond.Weighted>
-3.2520

> <Gold.Chemscore.Metal.Weighted>
-0.0000

> <Gold.Chemscore.Lipo.Weighted>
-14.1464

> <Gold.Chemscore.Internal_Hbond.Weighted>
0.0000

> <Gold.Chemscore.DEClash.Weighted>
0.0009

> <Gold.Chemscore.DEInternal.Weighted>
3.2367

> <Gold.Chemscore.Rot.Weighted>
4.3887

> <Gold.Chemscore.Internal.Correction.Weighted>
   9.000000E+99

> <Gold.Protein.RotatedTorsions>
[ 6907 6896 6895 6894 ] final -136.30 input  -60.11 | X-H torsion
[ 7974 7965 7964 7962 ] final   34.95 input  175.53 | X-H torsion
[ 8008 7997 7996 7995 ] final   53.95 input   59.86 | X-H torsion
[ 10167 10162 10161 10158 ] final  -26.63 input  -65.29 | X-H torsion
[ 10718 10713 10712 10709 ] final  -88.51 input   66.30 | X-H torsion
[ 10763 10752 10751 10750 ] final  -37.40 input  -60.55 | X-H torsion
[ 11005 11000 10999 10996 ] final   65.20 input  -57.11 | X-H torsion

> <Gold.Protein.ActiveResidues>
 VAL166  LYS551  ARG553  GLY616  TRP617  ASP618  TYR619  PRO620  LYS621  CYS622 
 ASP623  PHE694  ASN695  SER759  ASP760  ASP761  ALA762  ILE779  LEU786  VAL792 
 PHE793  MET794  SER795  GLU796  ALA797  LYS798  CYS799  TRP800  GLU811  SER814 

> <Gold.Protein.RotatedAtoms>
  151.0084  133.5989  159.2685 H   0  0  0  0  0  0  0  0  0  0  0  0  # atno 6907 bound_to 6896
  151.3149  135.0803  159.9295 H   0  0  0  0  0  0  0  0  0  0  0  0  # atno 6908 bound_to 6896
  152.5293  133.9742  159.7830 H   0  0  0  0  0  0  0  0  0  0  0  0  # atno 6909 bound_to 6896
  146.1317  139.6204  142.9222 H   0  0  0  0  0  0  0  0  0  0  0  0  # atno 7974 bound_to 7965
  155.4767  140.3467  155.4333 H   0  0  0  0  0  0  0  0  0  0  0  0  # atno 8008 bound_to 7997
  156.1065  140.1449  156.9425 H   0  0  0  0  0  0  0  0  0  0  0  0  # atno 8009 bound_to 7997
  154.4728  140.0895  156.7165 H   0  0  0  0  0  0  0  0  0  0  0  0  # atno 8010 bound_to 7997
  140.7282  143.4162  151.1025 H   0  0  0  0  0  0  0  0  0  0  0  0  # atno 10167 bound_to 10162
  155.9983  130.4838  150.5030 H   0  0  0  0  0  0  0  0  0  0  0  0  # atno 10718 bound_to 10713
  153.8956  135.6807  153.4758 H   0  0  0  0  0  0  0  0  0  0  0  0  # atno 10763 bound_to 10752
  153.1157  135.4762  154.9109 H   0  0  0  0  0  0  0  0  0  0  0  0  # atno 10764 bound_to 10752
  154.7601  135.3208  154.8349 H   0  0  0  0  0  0  0  0  0  0  0  0  # atno 10765 bound_to 10752
  139.9910  134.6592  156.0092 H   0  0  0  0  0  0  0  0  0  0  0  0  # atno 11005 bound_to 11000
  145.5245  141.0430  143.2417 LP  0  0  0  0  0  0  0  0  0  0  0  0  # atno 17320 bound_to 7965
  144.7698  139.6762  143.7199 LP  0  0  0  0  0  0  0  0  0  0  0  0  # atno 17321 bound_to 7965
  139.7802  143.8367  152.3136 LP  0  0  0  0  0  0  0  0  0  0  0  0  # atno 17342 bound_to 10162
  139.8315  144.7251  150.9444 LP  0  0  0  0  0  0  0  0  0  0  0  0  # atno 17343 bound_to 10162
  157.3012  131.0645  151.2067 LP  0  0  0  0  0  0  0  0  0  0  0  0  # atno 17370 bound_to 10713
  157.3045  130.6859  149.6182 LP  0  0  0  0  0  0  0  0  0  0  0  0  # atno 17371 bound_to 10713
  141.1565  133.6542  156.4179 LP  0  0  0  0  0  0  0  0  0  0  0  0  # atno 17394 bound_to 11000
  140.4909  134.6576  157.5210 LP  0  0  0  0  0  0  0  0  0  0  0  0  # atno 17395 bound_to 11000

$$$$
