AV-unprocessed.smi:500|AV-procd|sdf|2735|dock2
  -GOLD-   2262023183D 1   1.00000     0.00000
 Structure written by MMmdl.
 45 47  0  0  0  0  0  0  0  0  1 V2000
  147.1724  140.8190  153.2100 C   0  0  0  0  0  0  0  0  0  0  0  0
  148.3646  141.2657  154.0591 C   0  0  0  0  0  0  0  0  0  0  0  0
  149.2193  140.1515  154.2689 O   0  0  0  0  0  0  0  0  0  0  0  0
  150.2024  140.3582  155.2725 C   0  0  0  0  0  0  0  0  0  0  0  0
  149.5859  140.9519  156.5504 C   0  0  0  0  0  0  0  0  0  0  0  0
  150.4791  140.8082  157.6890 N   0  0  0  0  0  0  0  0  0  0  0  0
  150.8208  139.6759  158.3568 C   0  0  0  0  0  0  0  0  0  0  0  0
  150.2786  138.3204  157.9738 C   0  0  1  0  0  0  0  0  0  0  0  0
  151.3963  137.3489  157.5731 C   0  0  0  0  0  0  0  0  0  0  0  0
  149.5242  137.7778  159.1024 N   0  0  0  0  0  0  0  0  0  0  0  0
  149.1074  136.5068  159.2217 C   0  0  0  0  0  0  0  0  0  0  0  0
  149.3545  135.6299  158.3941 O   0  0  0  0  0  0  0  0  0  0  0  0
  148.3235  136.2007  160.4329 C   0  0  0  0  0  0  0  0  0  0  0  0
  147.8862  135.0102  160.9522 C   0  0  0  0  0  0  0  0  0  0  0  0
  147.1916  135.3210  162.1538 C   0  0  0  0  0  0  0  0  0  0  0  0
  147.2585  136.6783  162.2860 C   0  0  0  0  0  0  0  0  0  0  0  0
  147.9478  137.2278  161.2494 O   0  0  0  0  0  0  0  0  0  0  0  0
  151.6913  139.8414  159.3573 N   0  0  0  0  0  0  0  0  0  0  0  0
  151.9078  141.2044  159.3560 C   0  0  0  0  0  0  0  0  0  0  0  0
  152.7213  142.0057  160.1886 C   0  0  0  0  0  0  0  0  0  0  0  0
  152.7825  143.4015  159.9967 C   0  0  0  0  0  0  0  0  0  0  0  0
  152.0336  144.0144  158.9713 C   0  0  0  0  0  0  0  0  0  0  0  0
  151.2187  143.2335  158.1291 C   0  0  0  0  0  0  0  0  0  0  0  0
  151.1610  141.8405  158.3251 C   0  0  0  0  0  0  0  0  0  0  0  0
  146.4948  141.6520  153.0215 H   0  0  0  0  0  0  0  0  0  0  0  0
  146.6060  140.0344  153.7125 H   0  0  0  0  0  0  0  0  0  0  0  0
  147.5021  140.4308  152.2459 H   0  0  0  0  0  0  0  0  0  0  0  0
  148.9057  142.0621  153.5458 H   0  0  0  0  0  0  0  0  0  0  0  0
  148.0082  141.6681  155.0074 H   0  0  0  0  0  0  0  0  0  0  0  0
  150.6378  139.3866  155.5081 H   0  0  0  0  0  0  0  0  0  0  0  0
  151.0179  140.9761  154.8955 H   0  0  0  0  0  0  0  0  0  0  0  0
  149.3325  142.0040  156.4291 H   0  0  0  0  0  0  0  0  0  0  0  0
  148.6486  140.4438  156.7778 H   0  0  0  0  0  0  0  0  0  0  0  0
  149.5975  138.4168  157.1282 H   0  0  0  0  0  0  0  0  0  0  0  0
  151.9572  137.7315  156.7201 H   0  0  0  0  0  0  0  0  0  0  0  0
  150.9899  136.3770  157.2914 H   0  0  0  0  0  0  0  0  0  0  0  0
  152.1008  137.1926  158.3909 H   0  0  0  0  0  0  0  0  0  0  0  0
  149.2700  138.4279  159.8321 H   0  0  0  0  0  0  0  0  0  0  0  0
  148.0475  134.0324  160.5224 H   0  0  0  0  0  0  0  0  0  0  0  0
  146.7072  134.6384  162.8361 H   0  0  0  0  0  0  0  0  0  0  0  0
  146.8920  137.3803  163.0205 H   0  0  0  0  0  0  0  0  0  0  0  0
  153.2977  141.5459  160.9777 H   0  0  0  0  0  0  0  0  0  0  0  0
  153.4061  144.0048  160.6399 H   0  0  0  0  0  0  0  0  0  0  0  0
  152.0850  145.0843  158.8321 H   0  0  0  0  0  0  0  0  0  0  0  0
  150.6431  143.7002  157.3436 H   0  0  0  0  0  0  0  0  0  0  0  0
  1  2  1  0  0  0  0
  1 25  1  0  0  0  0
  1 26  1  0  0  0  0
  1 27  1  0  0  0  0
  2  3  1  0  0  0  0
  2 28  1  0  0  0  0
  2 29  1  0  0  0  0
  3  4  1  0  0  0  0
  4  5  1  0  0  0  0
  4 30  1  0  0  0  0
  4 31  1  0  0  0  0
  5  6  1  0  0  0  0
  5 32  1  0  0  0  0
  5 33  1  0  0  0  0
  6 24  1  0  0  0  0
  6  7  1  0  0  0  0
  7  8  1  0  0  0  0
  7 18  2  0  0  0  0
  8  9  1  0  0  0  0
  8 10  1  0  0  0  0
  8 34  1  0  0  0  0
  9 35  1  0  0  0  0
  9 36  1  0  0  0  0
  9 37  1  0  0  0  0
 10 11  1  0  0  0  0
 10 38  1  0  0  0  0
 11 12  2  0  0  0  0
 11 13  1  0  0  0  0
 13 17  1  0  0  0  0
 13 14  2  0  0  0  0
 14 15  1  0  0  0  0
 14 39  1  0  0  0  0
 15 16  2  0  0  0  0
 15 40  1  0  0  0  0
 16 17  1  0  0  0  0
 16 41  1  0  0  0  0
 18 19  1  0  0  0  0
 19 24  2  0  0  0  0
 19 20  1  0  0  0  0
 20 21  2  0  0  0  0
 20 42  1  0  0  0  0
 21 22  1  0  0  0  0
 21 43  1  0  0  0  0
 22 23  2  0  0  0  0
 22 44  1  0  0  0  0
 23 24  1  0  0  0  0
 23 45  1  0  0  0  0
M  END
> <s_m_source_file>
AV-unprocessed.smi

> <i_m_source_file_index>
500

> <i_lp_mmshare_version>
43012

> <i_f3d_flags>
0

> <s_epik_input>
W0NIM11bQ0gyXU9bQ0gyXVtDSDJdbihjKGMxMilbY0hdW2NIXVtjSF1bY0hdMiljKG4xKVtDQEhdKFtDSDNdKVtOSF1DKD1PKWMzW2NIXVtjSF1bY0hdbzM=

> <s_epik_cmdline>
J2VwaWtfcHl0aG9uJywgJy1waCcsICc3LjAnLCAnLXRuJywgJzgnLCAnLW1hJywgJzIwMCcsICctbWV0YWxfYmluZGluZycsICctaW1hZScsICc8aW5maWxlLm1hZT4nLCAnLW9tYWUnLCAnPG91dGZpbGUubWFlPic=

> <r_epik_Ionization_Penalty>
0.109801

> <r_epik_Ionization_Penalty_Charging>
0

> <r_epik_Ionization_Penalty_Neutral>
0.109801

> <r_epik_State_Penalty>
0.0995533

> <r_epik_Charging_Adjusted_Penalty>
0.0995533

> <i_epik_Tot_Q>
0

> <i_epik_Tot_abs_Q>
0

> <r_epik_Metal_State_Penalty>
0.0918163

> <b_epik_Metal_Only>
0

> <s_lp_Force_Field>
OPLS_2005

> <r_lp_Energy>
7.77682

> <b_lp_Chiralities_Consistent>
1

> <s_lp_Variant>
AV-unprocessed.smi:500-2

> <Gold.Version>
5.8.1

> <Gold.Id.Protein>
6NUR|6NUR_protein|mol2

> <Gold.PLP.Fitness>
54.9495

> <Gold.PLP.PLP>
-47.6847

> <Gold.PLP.part.hbond>
-2.9870

> <Gold.PLP.part.metal>
0.0000

> <Gold.PLP.part.buried>
-6.3642

> <Gold.PLP.part.nonpolar>
-40.3879

> <Gold.PLP.part.repulsive>
0.3608

> <Gold.PLP.ligand.clash>
0.0000

> <Gold.PLP.ligand.torsion>
0.4499

> <Gold.PLP.Chemscore.Hbond>
2.6880

> <Gold.PLP.Chemscore.CHOScore>
0.0000

> <Gold.PLP.Chemscore.Metal>
0.0000

> <Gold.Chemscore.Hbonds>
donor molecule, donor type, donor heavy atom, donor atom, acceptor molecule, acceptor atom, score
      P1  H  6896  6908       L1    12  0.89
      P1  H  6931  6943       L1    17  1.00
      P1  H  6934  6947       L1    17  0.70

> <Gold.PLP.Chemscore.Internal.Correction>
0.1005

> <Gold.Rescore>
     Score         DG    S(hbond)    S(metal)    S(lipo)     H(rot)  DE(clash)    DE(int)     intcor
     20.03     -22.24       2.12        0.00     124.57       1.92       0.35       1.85       ----

> <Gold.Chemscore.Fitness>
20.0330

> <Gold.Chemscore.DG>
-22.2369

> <Gold.Chemscore.ZeroCoef>
-5.4800

> <Gold.Chemscore.Hbond>
2.1217

> <Gold.Chemscore.Metal>
0.0000

> <Gold.Chemscore.Lipo>
124.5671

> <Gold.Chemscore.Internal_Hbond>
0.0000

> <Gold.Chemscore.DEClash>
0.3510

> <Gold.Chemscore.DEInternal>
1.8530

> <Gold.Chemscore.Rot>
1.9156

> <Gold.Chemscore.Internal.Correction>
   9.000000E+99

> <Gold.Chemscore.Hbonds>
donor molecule, donor type, donor heavy atom, donor atom, acceptor molecule, acceptor atom, score
      P1  H  6896  6908       L1    12  0.25
      P1  H  6931  6943       L1    17  0.56
      P1  H  6934  6947       L1    17  0.43

> <Gold.Chemscore.Hbond.Weighted>
-7.0866

> <Gold.Chemscore.Metal.Weighted>
-0.0000

> <Gold.Chemscore.Lipo.Weighted>
-14.5744

> <Gold.Chemscore.Internal_Hbond.Weighted>
0.0000

> <Gold.Chemscore.DEClash.Weighted>
0.3510

> <Gold.Chemscore.DEInternal.Weighted>
1.8530

> <Gold.Chemscore.Rot.Weighted>
4.9041

> <Gold.Chemscore.Internal.Correction.Weighted>
   9.000000E+99

> <Gold.Protein.RotatedTorsions>
[ 6907 6896 6895 6894 ] final  157.27 input  -60.11 | X-H torsion
[ 7974 7965 7964 7962 ] final  -12.71 input  175.53 | X-H torsion
[ 8008 7997 7996 7995 ] final  122.53 input   59.86 | X-H torsion
[ 10167 10162 10161 10158 ] final  -70.18 input  -65.29 | X-H torsion
[ 10718 10713 10712 10709 ] final  -63.11 input   66.30 | X-H torsion
[ 10763 10752 10751 10750 ] final   48.55 input  -60.55 | X-H torsion
[ 11005 11000 10999 10996 ] final   -9.65 input  -57.11 | X-H torsion

> <Gold.Protein.ActiveResidues>
 VAL166  LYS551  ARG553  GLY616  TRP617  ASP618  TYR619  PRO620  LYS621  CYS622 
 ASP623  PHE694  ASN695  SER759  ASP760  ASP761  ALA762  ILE779  LEU786  VAL792 
 PHE793  MET794  SER795  GLU796  ALA797  LYS798  CYS799  TRP800  GLU811  SER814 

> <Gold.Protein.RotatedAtoms>
  152.0176  133.3886  159.4244 H   0  0  0  0  0  0  0  0  0  0  0  0  # atno 6907 bound_to 6896
  150.6893  134.3661  159.4981 H   0  0  0  0  0  0  0  0  0  0  0  0  # atno 6908 bound_to 6896
  152.1431  134.9047  160.0603 H   0  0  0  0  0  0  0  0  0  0  0  0  # atno 6909 bound_to 6896
  146.2142  140.3097  142.8381 H   0  0  0  0  0  0  0  0  0  0  0  0  # atno 7974 bound_to 7965
  156.2731  140.2783  156.1482 H   0  0  0  0  0  0  0  0  0  0  0  0  # atno 8008 bound_to 7997
  155.0881  140.0388  157.2678 H   0  0  0  0  0  0  0  0  0  0  0  0  # atno 8009 bound_to 7997
  154.6911  140.2629  155.6818 H   0  0  0  0  0  0  0  0  0  0  0  0  # atno 8010 bound_to 7997
  140.5372  143.2317  151.7155 H   0  0  0  0  0  0  0  0  0  0  0  0  # atno 10167 bound_to 10162
  156.0811  130.4217  150.1231 H   0  0  0  0  0  0  0  0  0  0  0  0  # atno 10718 bound_to 10713
  152.9791  135.5940  154.3945 H   0  0  0  0  0  0  0  0  0  0  0  0  # atno 10763 bound_to 10752
  154.3597  135.2767  155.2329 H   0  0  0  0  0  0  0  0  0  0  0  0  # atno 10764 bound_to 10752
  154.4332  135.6031  153.6136 H   0  0  0  0  0  0  0  0  0  0  0  0  # atno 10765 bound_to 10752
  140.7364  133.8706  155.8933 H   0  0  0  0  0  0  0  0  0  0  0  0  # atno 11005 bound_to 11000
  144.8997  140.7628  143.5874 LP  0  0  0  0  0  0  0  0  0  0  0  0  # atno 17320 bound_to 7965
  145.3022  139.1846  143.4683 LP  0  0  0  0  0  0  0  0  0  0  0  0  # atno 17321 bound_to 7965
  139.4975  144.4024  152.0167 LP  0  0  0  0  0  0  0  0  0  0  0  0  # atno 17342 bound_to 10162
  140.3130  144.3516  150.6029 LP  0  0  0  0  0  0  0  0  0  0  0  0  # atno 17343 bound_to 10162
  156.9262  130.9699  151.3540 LP  0  0  0  0  0  0  0  0  0  0  0  0  # atno 17370 bound_to 10713
  157.5929  130.8456  149.8685 LP  0  0  0  0  0  0  0  0  0  0  0  0  # atno 17371 bound_to 10713
  140.9875  134.1323  157.4438 LP  0  0  0  0  0  0  0  0  0  0  0  0  # atno 17394 bound_to 11000
  139.8815  135.0030  156.6161 LP  0  0  0  0  0  0  0  0  0  0  0  0  # atno 17395 bound_to 11000

$$$$
