AV-unprocessed.smi:2310|AV-procd|sdf|9257|dock10
  -GOLD-   2272012483D 1   1.00000     0.00000
 Structure written by MMmdl.
 46 47  0  0  0  0  0  0  0  0  2 V2000
  145.4318  135.8848  151.4972 C   0  0  0  0  0  0  0  0  0  0  0  0
  143.9325  136.0320  151.7960 C   0  0  0  0  0  0  0  0  0  0  0  0
  143.6289  136.6700  153.1667 C   0  0  2  0  0  0  0  0  0  0  0  0
  142.1255  136.9398  153.3641 C   0  0  0  0  0  0  0  0  0  0  0  0
  141.3356  135.7242  153.6160 C   0  0  0  0  0  0  0  0  0  0  0  0
  140.7144  134.7686  153.8142 N   0  0  0  0  0  0  0  0  0  0  0  0
  144.3845  137.9114  153.3224 N   0  0  0  0  0  0  0  0  0  0  0  0
  145.4010  138.0945  154.1769 C   0  0  0  0  0  0  0  0  0  0  0  0
  145.7965  137.2282  154.9565 O   0  0  0  0  0  0  0  0  0  0  0  0
  145.9050  139.3367  154.0766 N   0  0  0  0  0  0  0  0  0  0  0  0
  146.9758  139.9203  154.8111 C   0  0  0  0  0  0  0  0  0  0  0  0
  147.9219  139.1458  155.5297 C   0  0  0  0  0  0  0  0  0  0  0  0
  148.9707  139.7838  156.2211 C   0  0  0  0  0  0  0  0  0  0  0  0
  149.0732  141.1920  156.1788 C   0  0  0  0  0  0  0  0  0  0  0  0
  150.0781  141.9232  156.8278 N   0  0  0  0  0  0  0  0  0  0  0  0
  149.6246  142.6996  157.9696 C   0  0  0  0  0  0  0  0  0  0  0  0
  150.8900  143.0546  158.7558 C   0  0  0  0  0  0  0  0  0  0  0  0
  151.9379  142.0317  158.3012 C   0  0  0  0  0  0  0  0  0  0  0  0
  151.2028  141.1345  157.3027 C   0  0  0  0  0  0  0  0  0  0  0  0
  148.1622  141.8942  155.4721 N   0  3  0  0  0  0  0  0  0  0  0  0
  147.1385  141.3296  154.7933 C   0  0  0  0  0  0  0  0  0  0  0  0
  146.2174  142.2845  154.0516 C   0  0  0  0  0  0  0  0  0  0  0  0
  145.5865  135.3846  150.5410 H   0  0  0  0  0  0  0  0  0  0  0  0
  145.9293  135.2923  152.2654 H   0  0  0  0  0  0  0  0  0  0  0  0
  145.9302  136.8529  151.4443 H   0  0  0  0  0  0  0  0  0  0  0  0
  143.4629  136.6184  151.0053 H   0  0  0  0  0  0  0  0  0  0  0  0
  143.4775  135.0425  151.7473 H   0  0  0  0  0  0  0  0  0  0  0  0
  143.9531  135.9685  153.9380 H   0  0  0  0  0  0  0  0  0  0  0  0
  141.9620  137.6096  154.2086 H   0  0  0  0  0  0  0  0  0  0  0  0
  141.7074  137.4281  152.4834 H   0  0  0  0  0  0  0  0  0  0  0  0
  144.1218  138.6791  152.7215 H   0  0  0  0  0  0  0  0  0  0  0  0
  145.4179  139.9625  153.4518 H   0  0  0  0  0  0  0  0  0  0  0  0
  147.8739  138.0682  155.5531 H   0  0  0  0  0  0  0  0  0  0  0  0
  149.6873  139.1918  156.7713 H   0  0  0  0  0  0  0  0  0  0  0  0
  149.0891  143.5933  157.6482 H   0  0  0  0  0  0  0  0  0  0  0  0
  148.9506  142.1089  158.5914 H   0  0  0  0  0  0  0  0  0  0  0  0
  151.2230  144.0632  158.5070 H   0  0  0  0  0  0  0  0  0  0  0  0
  150.7153  143.0189  159.8315 H   0  0  0  0  0  0  0  0  0  0  0  0
  152.7667  142.5438  157.8108 H   0  0  0  0  0  0  0  0  0  0  0  0
  152.3482  141.4578  159.1326 H   0  0  0  0  0  0  0  0  0  0  0  0
  150.8557  140.2282  157.8003 H   0  0  0  0  0  0  0  0  0  0  0  0
  151.8510  140.8380  156.4777 H   0  0  0  0  0  0  0  0  0  0  0  0
  145.4067  141.7793  153.5280 H   0  0  0  0  0  0  0  0  0  0  0  0
  146.7849  142.8532  153.3146 H   0  0  0  0  0  0  0  0  0  0  0  0
  145.7701  142.9904  154.7521 H   0  0  0  0  0  0  0  0  0  0  0  0
  148.2526  142.9102  155.4482 H   0  0  0  0  0  0  0  0  0  0  0  0
  1  2  1  0  0  0  0
  1 23  1  0  0  0  0
  1 24  1  0  0  0  0
  1 25  1  0  0  0  0
  2  3  1  0  0  0  0
  2 26  1  0  0  0  0
  2 27  1  0  0  0  0
  3  4  1  0  0  0  0
  3  7  1  0  0  0  0
  3 28  1  0  0  0  0
  4  5  1  0  0  0  0
  4 29  1  0  0  0  0
  4 30  1  0  0  0  0
  5  6  3  0  0  0  0
  7  8  1  0  0  0  0
  7 31  1  0  0  0  0
  8  9  2  0  0  0  0
  8 10  1  0  0  0  0
 10 11  1  0  0  0  0
 10 32  1  0  0  0  0
 11 21  1  0  0  0  0
 11 12  2  0  0  0  0
 12 13  1  0  0  0  0
 12 33  1  0  0  0  0
 13 14  2  0  0  0  0
 13 34  1  0  0  0  0
 14 15  1  0  0  0  0
 14 20  1  0  0  0  0
 15 19  1  0  0  0  0
 15 16  1  0  0  0  0
 16 17  1  0  0  0  0
 16 35  1  0  0  0  0
 16 36  1  0  0  0  0
 17 18  1  0  0  0  0
 17 37  1  0  0  0  0
 17 38  1  0  0  0  0
 18 19  1  0  0  0  0
 18 39  1  0  0  0  0
 18 40  1  0  0  0  0
 19 41  1  0  0  0  0
 19 42  1  0  0  0  0
 20 21  2  0  0  0  0
 20 46  1  0  0  0  0
 21 22  1  0  0  0  0
 22 43  1  0  0  0  0
 22 44  1  0  0  0  0
 22 45  1  0  0  0  0
M  CHG  1  20   1
M  END
> <s_m_source_file>
AV-unprocessed.smi

> <i_m_source_file_index>
2310

> <i_lp_mmshare_version>
43012

> <i_f3d_flags>
0

> <s_epik_input>
TiNDW0NIMl1bQ0BASF0oW0NIMl1bQ0gzXSlbTkhdQyg9TylbTkhdYzFbY0hdW2NIXWMobmMxW0NIM10pTjJbQ0gyXVtDSDJdW0NIMl1bQ0gyXTI=

> <s_epik_cmdline>
J2VwaWtfcHl0aG9uJywgJy1waCcsICc3LjAnLCAnLXRuJywgJzgnLCAnLW1hJywgJzIwMCcsICctbWV0YWxfYmluZGluZycsICctaW1hZScsICc8aW5maWxlLm1hZT4nLCAnLW9tYWUnLCAnPG91dGZpbGUubWFlPic=

> <r_lp_tautomer_probability>
0.999994

> <r_epik_Ionization_Penalty>
0.577302

> <r_epik_Ionization_Penalty_Charging>
0.577278

> <r_epik_Ionization_Penalty_Neutral>
2.39253e-05

> <r_epik_State_Penalty>
0.589738

> <r_epik_Charging_Adjusted_Penalty>
1.16702

> <i_epik_Tot_Q>
1

> <i_epik_Tot_abs_Q>
1

> <r_epik_Metal_State_Penalty>
0.784556

> <b_epik_Metal_Only>
0

> <s_lp_Force_Field>
OPLS_2005

> <r_lp_Energy>
39.7138

> <b_lp_Chiralities_Consistent>
1

> <s_lp_Variant>
AV-unprocessed.smi:2310-3

> <Gold.Version>
5.8.1

> <Gold.Id.Protein>
6NUR|6NUR_protein|mol2

> <Gold.PLP.Fitness>
45.6021

> <Gold.PLP.PLP>
-31.7163

> <Gold.PLP.part.hbond>
-5.0000

> <Gold.PLP.part.metal>
0.0000

> <Gold.PLP.part.buried>
-6.3468

> <Gold.PLP.part.nonpolar>
-21.7539

> <Gold.PLP.part.repulsive>
0.4579

> <Gold.PLP.ligand.clash>
0.0000

> <Gold.PLP.ligand.torsion>
0.5215

> <Gold.PLP.Chemscore.Hbond>
4.9675

> <Gold.PLP.Chemscore.CHOScore>
0.0000

> <Gold.PLP.Chemscore.Metal>
0.0000

> <Gold.Chemscore.Hbonds>
donor molecule, donor type, donor heavy atom, donor atom, acceptor molecule, acceptor atom, score
      L1  H     7    31       P1 10175  1.00
      L1  H    10    32       P1 10175  0.90
      L1  H    20    46       P1  8028  2.00
      P1  H 11000 11005       L1     6  1.00

> <Gold.PLP.Chemscore.Internal.Correction>
0.0264

> <Gold.Rescore>
     Score         DG    S(hbond)    S(metal)    S(lipo)     H(rot)  DE(clash)    DE(int)     intcor
     19.74     -21.49       3.83        0.00      64.20       1.68       0.09       1.65       ----

> <Gold.Chemscore.Fitness>
19.7384

> <Gold.Chemscore.DG>
-21.4858

> <Gold.Chemscore.ZeroCoef>
-5.4800

> <Gold.Chemscore.Hbond>
3.8321

> <Gold.Chemscore.Metal>
0.0000

> <Gold.Chemscore.Lipo>
64.1965

> <Gold.Chemscore.Internal_Hbond>
0.0000

> <Gold.Chemscore.DEClash>
0.0938

> <Gold.Chemscore.DEInternal>
1.6536

> <Gold.Chemscore.Rot>
1.6815

> <Gold.Chemscore.Internal.Correction>
   9.000000E+99

> <Gold.Chemscore.Hbonds>
donor molecule, donor type, donor heavy atom, donor atom, acceptor molecule, acceptor atom, score
      L1  H     7    31       P1 10175  0.96
      L1  H    10    32       P1 10175  0.83
      L1  H    20    46       P1  8028  0.97
      P1  H 11000 11005       L1     6  0.93

> <Gold.Chemscore.Hbond.Weighted>
-12.7993

> <Gold.Chemscore.Metal.Weighted>
-0.0000

> <Gold.Chemscore.Lipo.Weighted>
-7.5110

> <Gold.Chemscore.Internal_Hbond.Weighted>
0.0000

> <Gold.Chemscore.DEClash.Weighted>
0.0938

> <Gold.Chemscore.DEInternal.Weighted>
1.6536

> <Gold.Chemscore.Rot.Weighted>
4.3045

> <Gold.Chemscore.Internal.Correction.Weighted>
   9.000000E+99

> <Gold.Protein.RotatedTorsions>
[ 6907 6896 6895 6894 ] final  -27.48 input  -60.11 | X-H torsion
[ 7974 7965 7964 7962 ] final  114.88 input  175.53 | X-H torsion
[ 8008 7997 7996 7995 ] final   94.16 input   59.86 | X-H torsion
[ 10167 10162 10161 10158 ] final  -76.36 input  -65.29 | X-H torsion
[ 10718 10713 10712 10709 ] final -122.06 input   66.30 | X-H torsion
[ 10763 10752 10751 10750 ] final  167.18 input  -60.55 | X-H torsion
[ 11005 11000 10999 10996 ] final   30.25 input  -57.11 | X-H torsion

> <Gold.Protein.ActiveResidues>
 VAL166  LYS551  ARG553  GLY616  TRP617  ASP618  TYR619  PRO620  LYS621  CYS622 
 ASP623  PHE694  ASN695  SER759  ASP760  ASP761  ALA762  ILE779  LEU786  VAL792 
 PHE793  MET794  SER795  GLU796  ALA797  LYS798  CYS799  TRP800  GLU811  SER814 

> <Gold.Protein.RotatedAtoms>
  151.1463  135.0205  159.8647 H   0  0  0  0  0  0  0  0  0  0  0  0  # atno 6907 bound_to 6896
  152.5453  134.1440  159.8501 H   0  0  0  0  0  0  0  0  0  0  0  0  # atno 6908 bound_to 6896
  151.1521  133.4855  159.2628 H   0  0  0  0  0  0  0  0  0  0  0  0  # atno 6909 bound_to 6896
  145.1989  139.2962  143.4329 H   0  0  0  0  0  0  0  0  0  0  0  0  # atno 7974 bound_to 7965
  156.0549  140.3303  155.7393 H   0  0  0  0  0  0  0  0  0  0  0  0  # atno 8008 bound_to 7997
  155.5545  140.0613  157.2860 H   0  0  0  0  0  0  0  0  0  0  0  0  # atno 8009 bound_to 7997
  154.4453  140.1888  156.0708 H   0  0  0  0  0  0  0  0  0  0  0  0  # atno 8010 bound_to 7997
  140.4863  143.2390  151.7978 H   0  0  0  0  0  0  0  0  0  0  0  0  # atno 10167 bound_to 10162
  156.1388  130.6450  150.9738 H   0  0  0  0  0  0  0  0  0  0  0  0  # atno 10718 bound_to 10713
  154.3500  135.2753  155.2377 H   0  0  0  0  0  0  0  0  0  0  0  0  # atno 10763 bound_to 10752
  154.4611  135.5907  153.6259 H   0  0  0  0  0  0  0  0  0  0  0  0  # atno 10764 bound_to 10752
  152.9850  135.6065  154.3709 H   0  0  0  0  0  0  0  0  0  0  0  0  # atno 10765 bound_to 10752
  140.2964  134.2806  155.7764 H   0  0  0  0  0  0  0  0  0  0  0  0  # atno 11005 bound_to 11000
  146.3421  140.2227  142.8591 LP  0  0  0  0  0  0  0  0  0  0  0  0  # atno 17320 bound_to 7965
  144.9967  140.8596  143.5306 LP  0  0  0  0  0  0  0  0  0  0  0  0  # atno 17321 bound_to 7965
  139.4842  144.4707  151.9429 LP  0  0  0  0  0  0  0  0  0  0  0  0  # atno 17342 bound_to 10162
  140.3793  144.2756  150.5910 LP  0  0  0  0  0  0  0  0  0  0  0  0  # atno 17343 bound_to 10162
  157.6556  131.0890  150.7954 LP  0  0  0  0  0  0  0  0  0  0  0  0  # atno 17370 bound_to 10713
  156.8031  130.4927  149.5367 LP  0  0  0  0  0  0  0  0  0  0  0  0  # atno 17371 bound_to 10713
  141.2136  133.7618  156.9701 LP  0  0  0  0  0  0  0  0  0  0  0  0  # atno 17394 bound_to 11000
  140.1149  134.9453  157.2119 LP  0  0  0  0  0  0  0  0  0  0  0  0  # atno 17395 bound_to 11000

$$$$
