#       Name:                AV-unprocessed.smi:2302
#       Creating user name   scv26
#       Creation time:       Fri Mar 27 12:45:45 2020


#       File generated by GOLD software.
#

@<TRIPOS>MOLECULE
AV-unprocessed.smi:2302
    45    46     1
SMALL
NO_CHARGES


@<TRIPOS>ATOM
      1 ****        -3.6831   4.2072   1.7128 C.3            1 S1                 0.0000
      2 ****        -3.9975   2.7347   1.5514 C.ar           1 S1                 0.0000
      3 ****        -5.3295   2.2784   1.5122 C.ar           1 S1                 0.0000
      4 ****        -5.5533   0.8979   1.3632 C.ar           1 S1                 0.0000
      5 ****        -4.4438   0.0365   1.2612 C.ar           1 S1                 0.0000
      6 ****        -3.1385   0.5755   1.3114 C.ar           1 S1                 0.0000
      7 ****        -2.0886  -0.3752   1.2022 N.am           1 S1                 0.0000
      8 ****        -0.7624  -0.1534   1.2246 C.2            1 S1                 0.0000
      9 ****        -0.2257   0.9485   1.3433 O.2            1 S1                 0.0000
     10 ****        -0.0750  -1.2981   1.0997 N.am           1 S1                 0.0000
     11 ****         1.3806  -1.4060   1.1015 C.3            1 S1                 0.0000
     12 ****         1.9691  -1.2882  -0.3160 C.3            1 S1                 0.0000
     13 ****         3.4891  -1.5630  -0.3234 C.3            1 S1                 0.0000
     14 ****         4.0786  -1.3539  -1.6679 N.4            1 S1                 1.0000
     15 ****         3.8380  -2.4737  -2.6069 C.3            1 S1                 0.0000
     16 ****         3.7096  -0.0271  -2.2155 C.3            1 S1                 0.0000
     17 ****         2.1896   0.2061  -2.1411 C.3            1 S1                 0.0000
     18 ****         1.7497   0.0335  -0.8005 O.3            1 S1                 0.0000
     19 ****        -2.9335   1.9086   1.4549 N.ar           1 S1                 0.0000
     20 ****        -4.5643   4.8210   1.5241 H              1 S1                 0.0000
     21 ****        -2.9029   4.5121   1.0146 H              1 S1                 0.0000
     22 ****        -3.3357   4.4088   2.7263 H              1 S1                 0.0000
     23 ****        -6.1588   2.9654   1.5943 H              1 S1                 0.0000
     24 ****        -6.5588   0.5053   1.3284 H              1 S1                 0.0000
     25 ****        -4.5990  -1.0265   1.1468 H              1 S1                 0.0000
     26 ****        -2.3828  -1.3351   1.1008 H              1 S1                 0.0000
     27 ****        -0.5959  -2.1582   1.0087 H              1 S1                 0.0000
     28 ****         1.8246  -0.6637   1.7672 H              1 S1                 0.0000
     29 ****         1.6320  -2.3804   1.5211 H              1 S1                 0.0000
     30 ****         1.4586  -2.0023  -0.9644 H              1 S1                 0.0000
     31 ****         3.9837  -0.8833   0.3719 H              1 S1                 0.0000
     32 ****         3.7041  -2.5731   0.0277 H              1 S1                 0.0000
     33 ****         2.7798  -2.5894  -2.8412 H              1 S1                 0.0000
     34 ****         4.1963  -3.4121  -2.1824 H              1 S1                 0.0000
     35 ****         4.3757  -2.3090  -3.5411 H              1 S1                 0.0000
     36 ****         4.2189   0.7381  -1.6284 H              1 S1                 0.0000
     37 ****         4.0702   0.0773  -3.2396 H              1 S1                 0.0000
     38 ****         1.9518   1.2208  -2.4603 H              1 S1                 0.0000
     39 ****         1.6490  -0.4680  -2.8067 H              1 S1                 0.0000
     40 ****         5.0801  -1.3349  -1.5362 H              1 S1                 0.0000
     41 ****        -0.7872   1.7711   1.4331 LP             1 S1                 0.0000
     42 ****         0.7717   1.0207   1.3499 LP             1 S1                 0.0000
     43 ****         2.2460   0.6751  -0.2157 LP             1 S1                 0.0000
     44 ****         0.7705   0.2318  -0.7570 LP             1 S1                 0.0000
     45 ****        -2.0040   2.2759   1.4889 LP             1 S1                 0.0000
@<TRIPOS>BOND
    1    1    2 1     
    2    1   20 1     
    3    1   21 1     
    4    1   22 1     
    5    2   19 ar    
    6    2    3 ar    
    7    3    4 ar    
    8    3   23 1     
    9    4    5 ar    
   10    4   24 1     
   11    5    6 ar    
   12    5   25 1     
   13    6    7 1     
   14    6   19 ar    
   15    7    8 am    
   16    7   26 1     
   17    8    9 2     
   18    8   10 am    
   19   10   11 1     
   20   10   27 1     
   21   11   12 1     
   22   11   28 1     
   23   11   29 1     
   24   12   18 1     
   25   12   13 1     
   26   12   30 1     
   27   13   14 1     
   28   13   31 1     
   29   13   32 1     
   30   14   15 1     
   31   14   16 1     
   32   14   40 1     
   33   15   33 1     
   34   15   34 1     
   35   15   35 1     
   36   16   17 1     
   37   16   36 1     
   38   16   37 1     
   39   17   18 1     
   40   17   38 1     
   41   17   39 1     
   42    9   41 1     
   43    9   42 1     
   44   18   43 1     
   45   18   44 1     
   46   19   45 1     
@<TRIPOS>SUBSTRUCTURE
      1 S1             1
@<TRIPOS>SET
LONE_PAIRS      STATIC     ATOMS    <user>   **** ""
5 41 42 43 44 45
DONOR_HYDROGENS      STATIC     ATOMS    <user>   **** ""
3 26 27 40
ATOM$BLUE        STATIC     ATOMS    COLORGROUP SYSTEM
5 41 42 43 44 45
ATOM$RED        STATIC     ATOMS    COLORGROUP SYSTEM
3 26 27 40
