AV-unprocessed.smi:1839|AV-procd|sdf|7487|dock7
  -GOLD-   22720 9183D 1   1.00000     0.00000
 Structure written by MMmdl.
 47 48  0  0  0  0  0  0  0  0  2 V2000
  144.1220  133.0317  149.2327 C   0  0  0  0  0  0  0  0  0  0  0  0
  145.2048  132.6990  150.1587 N   0  0  0  0  0  0  0  0  0  0  0  0
  146.1912  131.7574  149.6151 C   0  0  0  0  0  0  0  0  0  0  0  0
  145.4042  133.4439  151.2747 C   0  0  0  0  0  0  0  0  0  0  0  0
  144.9659  134.5911  151.3809 O   0  0  0  0  0  0  0  0  0  0  0  0
  146.1455  132.8685  152.2511 N   0  0  0  0  0  0  0  0  0  0  0  0
  146.0061  131.4544  152.6282 C   0  0  0  0  0  0  0  0  0  0  0  0
  147.3971  130.8505  152.8879 C   0  0  0  0  0  0  0  0  0  0  0  0
  148.1555  131.6610  153.9530 C   0  0  0  0  0  0  0  0  0  0  0  0
  148.1730  133.1667  153.6077 C   0  0  2  0  0  0  0  0  0  0  0  0
  148.8284  133.9879  154.7254 C   0  0  0  0  0  0  0  0  0  0  0  0
  149.0258  133.4861  155.8325 O   0  0  0  0  0  0  0  0  0  0  0  0
  149.1541  135.2550  154.4260 N   0  0  0  0  0  0  0  0  0  0  0  0
  149.7656  136.2009  155.3514 C   0  0  0  0  0  0  0  0  0  0  0  0
  150.6910  137.1905  154.6226 C   0  0  0  0  0  0  0  0  0  0  0  0
  150.0555  138.5574  154.4635 C   0  0  0  0  0  0  0  0  0  0  0  0
  150.4793  139.6731  155.2173 C   0  0  0  0  0  0  0  0  0  0  0  0
  149.8529  140.9205  155.0131 C   0  0  0  0  0  0  0  0  0  0  0  0
  148.8181  141.0256  154.0603 C   0  0  0  0  0  0  0  0  0  0  0  0
  148.4361  139.8790  153.3342 C   0  0  0  0  0  0  0  0  0  0  0  0
  149.0609  138.7019  153.5581 N   0  3  0  0  0  0  0  0  0  0  0  0
  146.7383  133.6678  153.3294 C   0  0  0  0  0  0  0  0  0  0  0  0
  143.2157  133.3264  149.7647 H   0  0  0  0  0  0  0  0  0  0  0  0
  143.8621  132.1769  148.6069 H   0  0  0  0  0  0  0  0  0  0  0  0
  144.4186  133.8538  148.5801 H   0  0  0  0  0  0  0  0  0  0  0  0
  147.2065  131.9876  149.9417 H   0  0  0  0  0  0  0  0  0  0  0  0
  146.2028  131.7847  148.5247 H   0  0  0  0  0  0  0  0  0  0  0  0
  145.9546  130.7371  149.9162 H   0  0  0  0  0  0  0  0  0  0  0  0
  145.3981  131.3874  153.5316 H   0  0  0  0  0  0  0  0  0  0  0  0
  145.4779  130.8689  151.8751 H   0  0  0  0  0  0  0  0  0  0  0  0
  147.3012  129.8126  153.2078 H   0  0  0  0  0  0  0  0  0  0  0  0
  147.9719  130.8362  151.9615 H   0  0  0  0  0  0  0  0  0  0  0  0
  147.6743  131.5050  154.9199 H   0  0  0  0  0  0  0  0  0  0  0  0
  149.1733  131.2815  154.0500 H   0  0  0  0  0  0  0  0  0  0  0  0
  148.7590  133.2963  152.6955 H   0  0  0  0  0  0  0  0  0  0  0  0
  148.9602  135.5868  153.4920 H   0  0  0  0  0  0  0  0  0  0  0  0
  148.9894  136.7363  155.9010 H   0  0  0  0  0  0  0  0  0  0  0  0
  150.3327  135.6327  156.0894 H   0  0  0  0  0  0  0  0  0  0  0  0
  151.6297  137.2966  155.1683 H   0  0  0  0  0  0  0  0  0  0  0  0
  150.9533  136.8090  153.6348 H   0  0  0  0  0  0  0  0  0  0  0  0
  151.2758  139.5764  155.9409 H   0  0  0  0  0  0  0  0  0  0  0  0
  150.1634  141.7862  155.5798 H   0  0  0  0  0  0  0  0  0  0  0  0
  148.3257  141.9718  153.8886 H   0  0  0  0  0  0  0  0  0  0  0  0
  147.6562  139.8680  152.5869 H   0  0  0  0  0  0  0  0  0  0  0  0
  146.7746  134.7267  153.0645 H   0  0  0  0  0  0  0  0  0  0  0  0
  146.1138  133.5917  154.2214 H   0  0  0  0  0  0  0  0  0  0  0  0
  148.7691  137.8848  153.0210 H   0  0  0  0  0  0  0  0  0  0  0  0
  1  2  1  0  0  0  0
  1 23  1  0  0  0  0
  1 24  1  0  0  0  0
  1 25  1  0  0  0  0
  2  3  1  0  0  0  0
  2  4  1  0  0  0  0
  3 26  1  0  0  0  0
  3 27  1  0  0  0  0
  3 28  1  0  0  0  0
  4  5  2  0  0  0  0
  4  6  1  0  0  0  0
  6 22  1  0  0  0  0
  6  7  1  0  0  0  0
  7  8  1  0  0  0  0
  7 29  1  0  0  0  0
  7 30  1  0  0  0  0
  8  9  1  0  0  0  0
  8 31  1  0  0  0  0
  8 32  1  0  0  0  0
  9 10  1  0  0  0  0
  9 33  1  0  0  0  0
  9 34  1  0  0  0  0
 10 11  1  0  0  0  0
 10 22  1  0  0  0  0
 10 35  1  0  0  0  0
 11 12  2  0  0  0  0
 11 13  1  0  0  0  0
 13 14  1  0  0  0  0
 13 36  1  0  0  0  0
 14 15  1  0  0  0  0
 14 37  1  0  0  0  0
 14 38  1  0  0  0  0
 15 16  1  0  0  0  0
 15 39  1  0  0  0  0
 15 40  1  0  0  0  0
 16 21  1  0  0  0  0
 16 17  2  0  0  0  0
 17 18  1  0  0  0  0
 17 41  1  0  0  0  0
 18 19  2  0  0  0  0
 18 42  1  0  0  0  0
 19 20  1  0  0  0  0
 19 43  1  0  0  0  0
 20 21  2  0  0  0  0
 20 44  1  0  0  0  0
 21 47  1  0  0  0  0
 22 45  1  0  0  0  0
 22 46  1  0  0  0  0
M  CHG  1  21   1
M  END
> <s_m_source_file>
AV-unprocessed.smi

> <i_m_source_file_index>
1839

> <i_lp_mmshare_version>
43012

> <i_f3d_flags>
0

> <s_epik_input>
W0NIM11OKFtDSDNdKUMoPU8pTjFbQ0gyXVtDSDJdW0NIMl1bQ0BIXShbQ0gyXTEpQyg9TylbTkhdW0NIMl1bQ0gyXWMyW2NIXVtjSF1bY0hdW2NIXW4y

> <s_epik_cmdline>
J2VwaWtfcHl0aG9uJywgJy1waCcsICc3LjAnLCAnLXRuJywgJzgnLCAnLW1hJywgJzIwMCcsICctbWV0YWxfYmluZGluZycsICctaW1hZScsICc8aW5maWxlLm1hZT4nLCAnLW9tYWUnLCAnPG91dGZpbGUubWFlPic=

> <r_epik_Ionization_Penalty>
1.8476

> <r_epik_Ionization_Penalty_Charging>
1.84754

> <r_epik_Ionization_Penalty_Neutral>
5.83857e-05

> <r_epik_State_Penalty>
1.96477

> <r_epik_Charging_Adjusted_Penalty>
3.81231

> <i_epik_Tot_Q>
1

> <i_epik_Tot_abs_Q>
1

> <r_epik_Metal_State_Penalty>
1.99061

> <b_epik_Metal_Only>
0

> <s_lp_Force_Field>
OPLS_2005

> <r_lp_Energy>
52.6854

> <b_lp_Chiralities_Consistent>
1

> <s_lp_Variant>
AV-unprocessed.smi:1839-4

> <Gold.Version>
5.8.1

> <Gold.Id.Protein>
6NUR|6NUR_protein|mol2

> <Gold.PLP.Fitness>
46.6126

> <Gold.PLP.PLP>
-39.4746

> <Gold.PLP.part.hbond>
-3.0000

> <Gold.PLP.part.metal>
0.0000

> <Gold.PLP.part.buried>
2.6973

> <Gold.PLP.part.nonpolar>
-39.7152

> <Gold.PLP.part.repulsive>
0.2322

> <Gold.PLP.ligand.clash>
0.0000

> <Gold.PLP.ligand.torsion>
1.6018

> <Gold.PLP.Chemscore.Hbond>
3.0000

> <Gold.PLP.Chemscore.CHOScore>
0.0000

> <Gold.PLP.Chemscore.Metal>
0.0000

> <Gold.Chemscore.Hbonds>
donor molecule, donor type, donor heavy atom, donor atom, acceptor molecule, acceptor atom, score
      L1  H    13    36       P1  7948  1.00
      L1  H    21    47       P1  7948  2.00

> <Gold.PLP.Chemscore.Internal.Correction>
1.3416

> <Gold.Rescore>
     Score         DG    S(hbond)    S(metal)    S(lipo)     H(rot)  DE(clash)    DE(int)     intcor
     15.81     -18.73       1.89        0.00      94.45       1.60       1.37       1.56       ----

> <Gold.Chemscore.Fitness>
15.8058

> <Gold.Chemscore.DG>
-18.7290

> <Gold.Chemscore.ZeroCoef>
-5.4800

> <Gold.Chemscore.Hbond>
1.8884

> <Gold.Chemscore.Metal>
0.0000

> <Gold.Chemscore.Lipo>
94.4486

> <Gold.Chemscore.Internal_Hbond>
0.0000

> <Gold.Chemscore.DEClash>
1.3673

> <Gold.Chemscore.DEInternal>
1.5558

> <Gold.Chemscore.Rot>
1.6049

> <Gold.Chemscore.Internal.Correction>
   9.000000E+99

> <Gold.Chemscore.Hbonds>
donor molecule, donor type, donor heavy atom, donor atom, acceptor molecule, acceptor atom, score
      L1  H    13    36       P1  7948  0.82
      L1  H    21    47       P1  7948  0.95

> <Gold.Chemscore.Hbond.Weighted>
-6.3072

> <Gold.Chemscore.Metal.Weighted>
-0.0000

> <Gold.Chemscore.Lipo.Weighted>
-11.0505

> <Gold.Chemscore.Internal_Hbond.Weighted>
0.0000

> <Gold.Chemscore.DEClash.Weighted>
1.3673

> <Gold.Chemscore.DEInternal.Weighted>
1.5558

> <Gold.Chemscore.Rot.Weighted>
4.1087

> <Gold.Chemscore.Internal.Correction.Weighted>
   9.000000E+99

> <Gold.Protein.RotatedTorsions>
[ 6907 6896 6895 6894 ] final  -26.83 input  -60.11 | X-H torsion
[ 7974 7965 7964 7962 ] final  150.77 input  175.53 | X-H torsion
[ 8008 7997 7996 7995 ] final -162.68 input   59.86 | X-H torsion
[ 10167 10162 10161 10158 ] final   86.93 input  -65.29 | X-H torsion
[ 10718 10713 10712 10709 ] final   -4.89 input   66.30 | X-H torsion
[ 10763 10752 10751 10750 ] final    9.63 input  -60.55 | X-H torsion
[ 11005 11000 10999 10996 ] final -129.50 input  -57.11 | X-H torsion

> <Gold.Protein.ActiveResidues>
 VAL166  LYS551  ARG553  GLY616  TRP617  ASP618  TYR619  PRO620  LYS621  CYS622 
 ASP623  PHE694  ASN695  SER759  ASP760  ASP761  ALA762  ILE779  LEU786  VAL792 
 PHE793  MET794  SER795  GLU796  ALA797  LYS798  CYS799  TRP800  GLU811  SER814 

> <Gold.Protein.RotatedAtoms>
  151.1554  135.0248  159.8686 H   0  0  0  0  0  0  0  0  0  0  0  0  # atno 6907 bound_to 6896
  152.5452  134.1340  159.8461 H   0  0  0  0  0  0  0  0  0  0  0  0  # atno 6908 bound_to 6896
  151.1430  133.4913  159.2629 H   0  0  0  0  0  0  0  0  0  0  0  0  # atno 6909 bound_to 6896
  144.8340  139.6452  143.6046 H   0  0  0  0  0  0  0  0  0  0  0  0  # atno 7974 bound_to 7965
  155.8104  140.0905  157.1907 H   0  0  0  0  0  0  0  0  0  0  0  0  # atno 8008 bound_to 7997
  154.3980  140.1455  156.3439 H   0  0  0  0  0  0  0  0  0  0  0  0  # atno 8009 bound_to 7997
  155.8371  140.3440  155.5611 H   0  0  0  0  0  0  0  0  0  0  0  0  # atno 8010 bound_to 7997
  139.8825  144.6432  150.8827 H   0  0  0  0  0  0  0  0  0  0  0  0  # atno 10167 bound_to 10162
  156.7546  130.5250  149.5797 H   0  0  0  0  0  0  0  0  0  0  0  0  # atno 10718 bound_to 10713
  153.2119  135.6870  153.8103 H   0  0  0  0  0  0  0  0  0  0  0  0  # atno 10763 bound_to 10752
  153.7333  135.3249  155.3291 H   0  0  0  0  0  0  0  0  0  0  0  0  # atno 10764 bound_to 10752
  154.8226  135.4641  154.0930 H   0  0  0  0  0  0  0  0  0  0  0  0  # atno 10765 bound_to 10752
  140.9426  134.1172  157.4136 H   0  0  0  0  0  0  0  0  0  0  0  0  # atno 11005 bound_to 11000
  146.2640  139.6477  142.9342 LP  0  0  0  0  0  0  0  0  0  0  0  0  # atno 17320 bound_to 7965
  145.4835  141.0438  143.2633 LP  0  0  0  0  0  0  0  0  0  0  0  0  # atno 17321 bound_to 7965
  140.7742  143.3574  151.1895 LP  0  0  0  0  0  0  0  0  0  0  0  0  # atno 17342 bound_to 10162
  139.7183  143.9265  152.2975 LP  0  0  0  0  0  0  0  0  0  0  0  0  # atno 17343 bound_to 10162
  156.1379  130.6224  151.0426 LP  0  0  0  0  0  0  0  0  0  0  0  0  # atno 17370 bound_to 10713
  157.6762  131.0850  150.7488 LP  0  0  0  0  0  0  0  0  0  0  0  0  # atno 17371 bound_to 10713
  139.8824  135.0041  156.6230 LP  0  0  0  0  0  0  0  0  0  0  0  0  # atno 17394 bound_to 11000
  140.7713  133.8736  155.8494 LP  0  0  0  0  0  0  0  0  0  0  0  0  # atno 17395 bound_to 11000

$$$$
