#       Name:                AV-unprocessed.smi:229
#       Creating user name   scv26
#       Creation time:       Thu Mar 26 20:27:06 2020


#       File generated by GOLD software.
#

@<TRIPOS>MOLECULE
AV-unprocessed.smi:229
    70    74     1
SMALL
NO_CHARGES


@<TRIPOS>ATOM
      1 ****        -3.6199  -1.9665  -3.5878 C.3            1 S1                 0.0000
      2 ****        -4.2528  -0.7556  -2.8897 C.3            1 S1                 0.0000
      3 ****        -3.5246  -0.3330  -1.6031 C.3            1 S1                 0.0000
      4 ****        -2.1201   0.2386  -1.8716 C.3            1 S1                 0.0000
      5 ****        -1.5450   0.7570  -0.6372 N.3            1 S1                 0.0000
      6 ****        -0.2080   0.9824  -0.6835 C.ar           1 S1                 0.0000
      7 ****         0.2758   2.2460  -0.5437 N.ar           1 S1                 0.0000
      8 ****         1.5914   2.4747  -0.5951 C.ar           1 S1                 0.0000
      9 ****         2.5841   1.6010  -0.7711 N.ar           1 S1                 0.0000
     10 ****         2.1059   0.3307  -0.9019 C.ar           1 S1                 0.0000
     11 ****         0.7387  -0.0636  -0.8714 C.ar           1 S1                 0.0000
     12 ****         0.6409  -1.4423  -1.0223 N.2            1 S1                 0.0000
     13 ****         1.8792  -1.8402  -1.1313 C.2            1 S1                 0.0000
     14 ****         2.8232  -0.8415  -1.0644 N.pl3          1 S1                 0.0000
     15 ****         4.2639  -1.0047  -1.1359 C.3            1 S1                 0.0000
     16 ****         4.8923  -1.4139   0.2134 C.3            1 S1                 0.0000
     17 ****         6.2844  -1.5468   0.0050 O.3            1 S1                 0.0000
     18 ****         4.6446  -0.4085   1.3603 C.3            1 S1                 0.0000
     19 ****         5.3915  -0.7165   2.6591 C.3            1 S1                 0.0000
     20 ****         4.5796   0.0181   3.7135 C.3            1 S1                 0.0000
     21 ****         3.2196   0.2344   3.0450 C.3            1 S1                 0.0000
     22 ****         3.2989  -0.4640   1.8108 O.3            1 S1                 0.0000
     23 ****        -2.3889   1.7612   0.0016 C.3            1 S1                 0.0000
     24 ****        -3.8054   1.2033   0.2505 C.3            1 S1                 0.0000
     25 ****        -3.8975   0.2160   1.4101 C.3            1 S1                 0.0000
     26 ****        -5.3657   0.3148   1.7943 C.3            1 S1                 0.0000
     27 ****        -5.6559   1.6993   1.6756 O.3            1 S1                 0.0000
     28 ****        -4.7904   2.2909   0.7085 C.3            1 S1                 0.0000
     29 ****        -4.3281   0.6648  -0.9704 O.3            1 S1                 0.0000
     30 ****        -4.2067  -2.2595  -4.4585 H              1 S1                 0.0000
     31 ****        -3.5697  -2.8252  -2.9180 H              1 S1                 0.0000
     32 ****        -2.6091  -1.7487  -3.9324 H              1 S1                 0.0000
     33 ****        -4.2998   0.0856  -3.5821 H              1 S1                 0.0000
     34 ****        -5.2861  -1.0030  -2.6438 H              1 S1                 0.0000
     35 ****        -3.4457  -1.2052  -0.9552 H              1 S1                 0.0000
     36 ****        -1.4845  -0.5313  -2.3067 H              1 S1                 0.0000
     37 ****        -2.1773   1.0491  -2.5996 H              1 S1                 0.0000
     38 ****         1.8917   3.5054  -0.4772 H              1 S1                 0.0000
     39 ****         2.1406  -2.8810  -1.2549 H              1 S1                 0.0000
     40 ****         4.4814  -1.7560  -1.8965 H              1 S1                 0.0000
     41 ****         4.7011  -0.0703  -1.4904 H              1 S1                 0.0000
     42 ****         4.5122  -2.3928   0.5085 H              1 S1                 0.0000
     43 ****         6.4280  -2.1991  -0.6631 H              1 S1                 0.0000
     44 ****         4.8759   0.6074   1.0336 H              1 S1                 0.0000
     45 ****         5.3682  -1.7886   2.8597 H              1 S1                 0.0000
     46 ****         6.4347  -0.4004   2.6335 H              1 S1                 0.0000
     47 ****         4.4991  -0.5655   4.6310 H              1 S1                 0.0000
     48 ****         5.0358   0.9769   3.9626 H              1 S1                 0.0000
     49 ****         2.3915  -0.1387   3.6480 H              1 S1                 0.0000
     50 ****         3.0490   1.2939   2.8495 H              1 S1                 0.0000
     51 ****        -1.9447   2.0896   0.9424 H              1 S1                 0.0000
     52 ****        -2.4475   2.6356  -0.6485 H              1 S1                 0.0000
     53 ****        -3.5857  -0.8008   1.1776 H              1 S1                 0.0000
     54 ****        -3.2848   0.5600   2.2445 H              1 S1                 0.0000
     55 ****        -5.9857  -0.2454   1.0931 H              1 S1                 0.0000
     56 ****        -5.5656  -0.0532   2.8007 H              1 S1                 0.0000
     57 ****        -4.2676   3.1148   1.1956 H              1 S1                 0.0000
     58 ****        -5.3589   2.7105  -0.1223 H              1 S1                 0.0000
     59 ****        -1.5636   0.0099   0.0272 LP             1 S1                 0.0000
     60 ****        -0.3563   3.0078  -0.4017 LP             1 S1                 0.0000
     61 ****         3.5531   1.8459  -0.8029 LP             1 S1                 0.0000
     62 ****        -0.1882  -2.0010  -1.0426 LP             1 S1                 0.0000
     63 ****         6.7266  -1.8323   0.8553 LP             1 S1                 0.0000
     64 ****         6.6658  -0.6712  -0.2914 LP             1 S1                 0.0000
     65 ****         3.0239  -1.4165   1.9417 LP             1 S1                 0.0000
     66 ****         2.6977  -0.0330   1.1379 LP             1 S1                 0.0000
     67 ****        -5.5193   2.1446   2.5605 LP             1 S1                 0.0000
     68 ****        -6.6062   1.8162   1.3869 LP             1 S1                 0.0000
     69 ****        -5.2199   0.2592  -0.7700 LP             1 S1                 0.0000
     70 ****        -4.4430   1.4207  -1.6150 LP             1 S1                 0.0000
@<TRIPOS>BOND
    1    1    2 1     
    2    1   30 1     
    3    1   31 1     
    4    1   32 1     
    5    2    3 1     
    6    2   33 1     
    7    2   34 1     
    8    3   29 1     
    9    3    4 1     
   10    3   35 1     
   11    4    5 1     
   12    4   36 1     
   13    4   37 1     
   14    5    6 1     
   15    5   23 1     
   16    6   11 ar    
   17    6    7 ar    
   18    7    8 ar    
   19    8    9 ar    
   20    8   38 1     
   21    9   10 ar    
   22   10   14 1     
   23   10   11 ar    
   24   11   12 1     
   25   12   13 2     
   26   13   14 1     
   27   13   39 1     
   28   14   15 1     
   29   15   16 1     
   30   15   40 1     
   31   15   41 1     
   32   16   17 1     
   33   16   18 1     
   34   16   42 1     
   35   17   43 1     
   36   18   22 1     
   37   18   19 1     
   38   18   44 1     
   39   19   20 1     
   40   19   45 1     
   41   19   46 1     
   42   20   21 1     
   43   20   47 1     
   44   20   48 1     
   45   21   22 1     
   46   21   49 1     
   47   21   50 1     
   48   23   24 1     
   49   23   51 1     
   50   23   52 1     
   51   24   28 1     
   52   24   25 1     
   53   24   29 1     
   54   25   26 1     
   55   25   53 1     
   56   25   54 1     
   57   26   27 1     
   58   26   55 1     
   59   26   56 1     
   60   27   28 1     
   61   28   57 1     
   62   28   58 1     
   63    5   59 1     
   64    7   60 1     
   65    9   61 1     
   66   12   62 1     
   67   17   63 1     
   68   17   64 1     
   69   22   65 1     
   70   22   66 1     
   71   27   67 1     
   72   27   68 1     
   73   29   69 1     
   74   29   70 1     
@<TRIPOS>SUBSTRUCTURE
      1 S1             1
@<TRIPOS>SET
LONE_PAIRS      STATIC     ATOMS    <user>   **** ""
12 59 60 61 62 63 64 65 66 67 68 69 70
DONOR_HYDROGENS      STATIC     ATOMS    <user>   **** ""
1 43
ATOM$BLUE        STATIC     ATOMS    COLORGROUP SYSTEM
12 59 60 61 62 63 64 65 66 67 68 69 70
ATOM$RED        STATIC     ATOMS    COLORGROUP SYSTEM
1 43
