AV-unprocessed.smi:72|AV-procd|sdf|682|dock3
  -GOLD-   2262016593D 1   1.00000     0.00000
 Structure written by MMmdl.
 29 30  0  0  0  0  0  0  0  0  1 V2000
  152.9638  139.7608  156.9764 N   0  0  0  0  0  0  0  0  0  0  0  0
  151.8894  139.8174  156.2744 C   0  0  0  0  0  0  0  0  0  0  0  0
  151.7662  139.3924  154.9430 N   0  0  0  0  0  0  0  0  0  0  0  0
  150.6135  139.5101  154.3588 C   0  0  0  0  0  0  0  0  0  0  0  0
  149.4546  140.0727  155.0346 N   0  0  0  0  0  0  0  0  0  0  0  0
  148.1209  140.1911  154.3267 C   0  0  1  0  0  0  0  0  0  0  0  0
  147.1183  139.6999  155.1663 O   0  0  0  0  0  0  0  0  0  0  0  0
  145.9722  140.5367  155.0702 C   0  0  1  0  0  0  0  0  0  0  0  0
  145.0505  140.3511  156.2887 C   0  0  0  0  0  0  0  0  0  0  0  0
  143.9003  141.1600  156.1614 O   0  0  0  0  0  0  0  0  0  0  0  0
  146.5543  141.9397  154.8412 C   0  0  1  0  0  0  0  0  0  0  0  0
  146.9187  142.5503  156.0677 O   0  0  0  0  0  0  0  0  0  0  0  0
  147.7572  141.6442  153.9489 C   0  0  1  0  0  0  0  0  0  0  0  0
  148.8011  142.5961  154.0715 O   0  0  0  0  0  0  0  0  0  0  0  0
  149.5604  140.4969  156.3821 C   0  0  0  0  0  0  0  0  0  0  0  0
  148.6082  140.9592  157.0101 O   0  0  0  0  0  0  0  0  0  0  0  0
  150.7814  140.3551  156.9417 N   0  0  0  0  0  0  0  0  0  0  0  0
  148.1712  139.5378  153.4548 H   0  0  0  0  0  0  0  0  0  0  0  0
  145.4349  140.2326  154.1696 H   0  0  0  0  0  0  0  0  0  0  0  0
  145.8379  142.5932  154.3419 H   0  0  0  0  0  0  0  0  0  0  0  0
  147.4294  141.6290  152.9086 H   0  0  0  0  0  0  0  0  0  0  0  0
  152.7924  140.1272  157.9019 H   0  0  0  0  0  0  0  0  0  0  0  0
  150.4393  139.1958  153.3292 H   0  0  0  0  0  0  0  0  0  0  0  0
  144.7320  139.3106  156.3569 H   0  0  0  0  0  0  0  0  0  0  0  0
  145.5648  140.5851  157.2211 H   0  0  0  0  0  0  0  0  0  0  0  0
  143.4778  140.9544  155.3414 H   0  0  0  0  0  0  0  0  0  0  0  0
  147.5768  143.2051  155.8907 H   0  0  0  0  0  0  0  0  0  0  0  0
  148.5538  143.2293  154.7278 H   0  0  0  0  0  0  0  0  0  0  0  0
  150.8938  140.6474  157.9015 H   0  0  0  0  0  0  0  0  0  0  0  0
  1  2  2  0  0  0  0
  1 22  1  0  0  0  0
  2 17  1  0  0  0  0
  2  3  1  0  0  0  0
  3  4  2  0  0  0  0
  4  5  1  0  0  0  0
  4 23  1  0  0  0  0
  5  6  1  0  0  0  0
  5 15  1  0  0  0  0
  6 18  1  0  0  0  0
  6 13  1  0  0  0  0
  6  7  1  0  0  0  0
  7  8  1  0  0  0  0
  8 19  1  0  0  0  0
  8  9  1  0  0  0  0
  8 11  1  0  0  0  0
  9 10  1  0  0  0  0
  9 24  1  0  0  0  0
  9 25  1  0  0  0  0
 10 26  1  0  0  0  0
 11 20  1  0  0  0  0
 11 12  1  0  0  0  0
 11 13  1  0  0  0  0
 12 27  1  0  0  0  0
 13 21  1  0  0  0  0
 13 14  1  0  0  0  0
 14 28  1  0  0  0  0
 15 16  2  0  0  0  0
 15 17  1  0  0  0  0
 17 29  1  0  0  0  0
M  END
> <s_m_source_file>
AV-unprocessed.smi

> <i_m_source_file_index>
72

> <i_lp_mmshare_version>
43012

> <i_f3d_flags>
0

> <s_epik_input>
W05IMl1jMW5bY0hdbihjKD1PKW4xKVtDQEBIXTJPW0NASF0oW0NIMl1bT0hdKVtDQEBIXShbT0hdKVtDQEhdMltPSF0=

> <s_epik_cmdline>
J2VwaWtfcHl0aG9uJywgJy1waCcsICc3LjAnLCAnLXRuJywgJzgnLCAnLW1hJywgJzIwMCcsICctbWV0YWxfYmluZGluZycsICctaW1hZScsICc8aW5maWxlLm1hZT4nLCAnLW9tYWUnLCAnPG91dGZpbGUubWFlPic=

> <r_lp_tautomer_probability>
7.17554e-07

> <r_epik_Ionization_Penalty>
0.0066451

> <r_epik_Ionization_Penalty_Charging>
0.00663793

> <r_epik_Ionization_Penalty_Neutral>
7.17052e-06

> <r_epik_State_Penalty>
0.419231

> <r_epik_Charging_Adjusted_Penalty>
0.425868

> <i_epik_Tot_Q>
0

> <i_epik_Tot_abs_Q>
0

> <r_epik_Metal_State_Penalty>
1.44144

> <b_epik_Metal_Only>
0

> <s_epik_Chemistry_Notes>
This compound contains an acetal/aminal-like group ( X-CH(R)-Y where X, Y are N, S, or O) that may be acid/base labile, releasing an aldehyde.

> <s_lp_Force_Field>
OPLS_2005

> <r_lp_Energy>
48.5612

> <b_lp_Chiralities_Consistent>
1

> <s_lp_Variant>
AV-unprocessed.smi:72-20

> <Gold.Version>
5.8.1

> <Gold.Id.Protein>
6NUR|6NUR_protein|mol2

> <Gold.PLP.Fitness>
32.1744

> <Gold.PLP.PLP>
-20.5038

> <Gold.PLP.part.hbond>
-4.2468

> <Gold.PLP.part.metal>
0.0000

> <Gold.PLP.part.buried>
-2.0920

> <Gold.PLP.part.nonpolar>
-14.1311

> <Gold.PLP.part.repulsive>
0.1671

> <Gold.PLP.ligand.clash>
0.0000

> <Gold.PLP.ligand.torsion>
0.3065

> <Gold.PLP.Chemscore.Hbond>
3.0940

> <Gold.PLP.Chemscore.CHOScore>
1.0000

> <Gold.PLP.Chemscore.Metal>
0.0000

> <Gold.Chemscore.Hbonds>
donor molecule, donor type, donor heavy atom, donor atom, acceptor molecule, acceptor atom, score
      L1  H    12    27       P1  8028  0.80
      L1  H    14    28       P1  8028  1.00
      P1  H  7997  8009       L1     1  0.93
      P1  H  8011  8017       L1    14  0.08
      L1  C     4    23       P1  7957  1.00

> <Gold.PLP.Chemscore.Internal.Correction>
0.0015

> <Gold.Rescore>
     Score         DG    S(hbond)    S(metal)    S(lipo)     H(rot)  DE(clash)    DE(int)     intcor
      0.36      -4.27       2.22        0.00      15.26       4.06       0.07       3.84       ----

> <Gold.Chemscore.Fitness>
0.3621

> <Gold.Chemscore.DG>
-4.2723

> <Gold.Chemscore.ZeroCoef>
-5.4800

> <Gold.Chemscore.Hbond>
2.2159

> <Gold.Chemscore.Metal>
0.0000

> <Gold.Chemscore.Lipo>
15.2550

> <Gold.Chemscore.Internal_Hbond>
0.0000

> <Gold.Chemscore.DEClash>
0.0718

> <Gold.Chemscore.DEInternal>
3.8385

> <Gold.Chemscore.Rot>
4.0600

> <Gold.Chemscore.Internal.Correction>
   9.000000E+99

> <Gold.Chemscore.Hbonds>
donor molecule, donor type, donor heavy atom, donor atom, acceptor molecule, acceptor atom, score
      L1  H    12    27       P1  8028  0.11
      L1  H    14    28       P1  8028  0.95
      P1  H  7997  8009       L1     1  0.69
      P1  H  8011  8017       L1    14  0.05

> <Gold.Chemscore.Hbond.Weighted>
-7.4011

> <Gold.Chemscore.Metal.Weighted>
-0.0000

> <Gold.Chemscore.Lipo.Weighted>
-1.7848

> <Gold.Chemscore.Internal_Hbond.Weighted>
0.0000

> <Gold.Chemscore.DEClash.Weighted>
0.0718

> <Gold.Chemscore.DEInternal.Weighted>
3.8385

> <Gold.Chemscore.Rot.Weighted>
10.3936

> <Gold.Chemscore.Internal.Correction.Weighted>
   9.000000E+99

> <Gold.Protein.RotatedTorsions>
[ 6907 6896 6895 6894 ] final  136.72 input  -60.11 | X-H torsion
[ 7974 7965 7964 7962 ] final   27.79 input  175.53 | X-H torsion
[ 8008 7997 7996 7995 ] final -170.57 input   59.86 | X-H torsion
[ 10167 10162 10161 10158 ] final  108.85 input  -65.29 | X-H torsion
[ 10718 10713 10712 10709 ] final   71.35 input   66.30 | X-H torsion
[ 10763 10752 10751 10750 ] final  112.31 input  -60.55 | X-H torsion
[ 11005 11000 10999 10996 ] final -167.20 input  -57.11 | X-H torsion

> <Gold.Protein.ActiveResidues>
 VAL166  LYS551  ARG553  GLY616  TRP617  ASP618  TYR619  PRO620  LYS621  CYS622 
 ASP623  PHE694  ASN695  SER759  ASP760  ASP761  ALA762  ILE779  LEU786  VAL792 
 PHE793  MET794  SER795  GLU796  ALA797  LYS798  CYS799  TRP800  GLU811  SER814 

> <Gold.Protein.RotatedAtoms>
  152.2862  133.5517  159.5528 H   0  0  0  0  0  0  0  0  0  0  0  0  # atno 6907 bound_to 6896
  150.7216  134.0494  159.3802 H   0  0  0  0  0  0  0  0  0  0  0  0  # atno 6908 bound_to 6896
  151.8402  135.0593  160.0498 H   0  0  0  0  0  0  0  0  0  0  0  0  # atno 6909 bound_to 6896
  146.1765  139.7144  142.8931 H   0  0  0  0  0  0  0  0  0  0  0  0  # atno 7974 bound_to 7965
  155.9201  140.1072  157.1213 H   0  0  0  0  0  0  0  0  0  0  0  0  # atno 8008 bound_to 7997
  154.4053  140.1257  156.4733 H   0  0  0  0  0  0  0  0  0  0  0  0  # atno 8009 bound_to 7997
  155.7206  140.3470  155.5017 H   0  0  0  0  0  0  0  0  0  0  0  0  # atno 8010 bound_to 7997
  139.6813  144.7118  151.1510 H   0  0  0  0  0  0  0  0  0  0  0  0  # atno 10167 bound_to 10162
  157.6447  130.9524  150.0777 H   0  0  0  0  0  0  0  0  0  0  0  0  # atno 10718 bound_to 10713
  153.4760  135.3690  155.2416 H   0  0  0  0  0  0  0  0  0  0  0  0  # atno 10763 bound_to 10752
  154.8756  135.3943  154.3756 H   0  0  0  0  0  0  0  0  0  0  0  0  # atno 10764 bound_to 10752
  153.4352  135.7083  153.6269 H   0  0  0  0  0  0  0  0  0  0  0  0  # atno 10765 bound_to 10752
  140.5559  134.5382  157.5133 H   0  0  0  0  0  0  0  0  0  0  0  0  # atno 11005 bound_to 11000
  145.4197  141.0405  143.2971 LP  0  0  0  0  0  0  0  0  0  0  0  0  # atno 17320 bound_to 7965
  144.8245  139.5734  143.6972 LP  0  0  0  0  0  0  0  0  0  0  0  0  # atno 17321 bound_to 7965
  140.7653  143.5695  150.9011 LP  0  0  0  0  0  0  0  0  0  0  0  0  # atno 17342 bound_to 10162
  139.9367  143.6430  152.3063 LP  0  0  0  0  0  0  0  0  0  0  0  0  # atno 17343 bound_to 10162
  156.1763  130.3648  149.9096 LP  0  0  0  0  0  0  0  0  0  0  0  0  # atno 17370 bound_to 10713
  156.7060  130.8951  151.3604 LP  0  0  0  0  0  0  0  0  0  0  0  0  # atno 17371 bound_to 10713
  139.9432  134.7750  156.0627 LP  0  0  0  0  0  0  0  0  0  0  0  0  # atno 17394 bound_to 11000
  141.1144  133.6632  156.3057 LP  0  0  0  0  0  0  0  0  0  0  0  0  # atno 17395 bound_to 11000

$$$$
