AV-unprocessed.smi:1406|AV-procd|sdf|5718|dock9
  -GOLD-   22720 5353D 1   1.00000     0.00000
 Structure written by MMmdl.
 41 43  0  0  0  0  0  0  0  0  2 V2000
  149.9673  137.1576  157.9739 C   0  0  0  0  0  0  0  0  0  0  0  0
  150.9634  136.4973  156.9991 C   0  0  1  0  0  0  0  0  0  0  0  0
  150.4697  135.1419  156.4690 C   0  0  0  0  0  0  0  0  0  0  0  0
  151.0440  134.0965  156.7750 O   0  0  0  0  0  0  0  0  0  0  0  0
  149.3908  135.1750  155.6710 N   0  0  0  0  0  0  0  0  0  0  0  0
  148.7367  134.0015  155.0984 C   0  0  2  0  0  0  0  0  0  0  0  0
  149.6017  133.2310  154.0785 C   0  0  0  0  0  0  0  0  0  0  0  0
  148.6375  132.8706  152.9438 C   0  0  0  0  0  0  0  0  0  0  0  0
  147.7040  134.0029  152.9345 N   0  3  1  0  0  0  0  0  0  0  0  0
  146.4715  133.8966  152.1275 C   0  0  0  0  0  0  0  0  0  0  0  0
  145.7584  135.2663  152.1435 C   0  0  0  0  0  0  0  0  0  0  0  0
  145.5388  135.7970  153.5792 C   0  0  0  0  0  0  0  0  0  0  0  0
  146.8407  135.7632  154.4092 C   0  0  0  0  0  0  0  0  0  0  0  0
  147.4355  134.3455  154.3416 C   0  0  2  0  0  0  0  0  0  0  0  0
  151.3097  137.3745  155.8874 N   0  0  0  0  0  0  0  0  0  0  0  0
  151.6133  138.6744  155.8823 C   0  0  0  0  0  0  0  0  0  0  0  0
  151.9329  139.1486  154.6865 N   0  0  0  0  0  0  0  0  0  0  0  0
  151.8051  138.0072  153.9470 C   0  0  0  0  0  0  0  0  0  0  0  0
  151.4455  136.9137  154.6187 N   0  0  0  0  0  0  0  0  0  0  0  0
  149.7573  136.5062  158.8231 H   0  0  0  0  0  0  0  0  0  0  0  0
  149.0161  137.3911  157.4939 H   0  0  0  0  0  0  0  0  0  0  0  0
  150.3728  138.0885  158.3710 H   0  0  0  0  0  0  0  0  0  0  0  0
  151.8824  136.3103  157.5572 H   0  0  0  0  0  0  0  0  0  0  0  0
  148.9788  136.0744  155.4691 H   0  0  0  0  0  0  0  0  0  0  0  0
  148.4761  133.3320  155.9208 H   0  0  0  0  0  0  0  0  0  0  0  0
  150.3907  133.8757  153.6875 H   0  0  0  0  0  0  0  0  0  0  0  0
  150.0805  132.3530  154.5133 H   0  0  0  0  0  0  0  0  0  0  0  0
  149.1414  132.7481  151.9847 H   0  0  0  0  0  0  0  0  0  0  0  0
  148.0993  131.9498  153.1747 H   0  0  0  0  0  0  0  0  0  0  0  0
  146.7235  133.6151  151.1045 H   0  0  0  0  0  0  0  0  0  0  0  0
  145.8242  133.1153  152.5289 H   0  0  0  0  0  0  0  0  0  0  0  0
  146.3594  135.9868  151.5873 H   0  0  0  0  0  0  0  0  0  0  0  0
  144.8043  135.1968  151.6201 H   0  0  0  0  0  0  0  0  0  0  0  0
  145.1415  136.8120  153.5469 H   0  0  0  0  0  0  0  0  0  0  0  0
  144.7811  135.1876  154.0737 H   0  0  0  0  0  0  0  0  0  0  0  0
  147.5497  136.4946  154.0185 H   0  0  0  0  0  0  0  0  0  0  0  0
  146.6317  136.0416  155.4428 H   0  0  0  0  0  0  0  0  0  0  0  0
  146.6776  133.6489  154.7069 H   0  0  0  0  0  0  0  0  0  0  0  0
  151.6072  139.2859  156.7725 H   0  0  0  0  0  0  0  0  0  0  0  0
  151.9904  137.9792  152.8831 H   0  0  0  0  0  0  0  0  0  0  0  0
  148.2288  134.7777  152.5542 H   0  0  0  0  0  0  0  0  0  0  0  0
  1  2  1  0  0  0  0
  1 20  1  0  0  0  0
  1 21  1  0  0  0  0
  1 22  1  0  0  0  0
  2  3  1  0  0  0  0
  2 15  1  0  0  0  0
  2 23  1  0  0  0  0
  3  4  2  0  0  0  0
  3  5  1  0  0  0  0
  5  6  1  0  0  0  0
  5 24  1  0  0  0  0
  6 14  1  0  0  0  0
  6  7  1  0  0  0  0
  6 25  1  0  0  0  0
  7  8  1  0  0  0  0
  7 26  1  0  0  0  0
  7 27  1  0  0  0  0
  8  9  1  0  0  0  0
  8 28  1  0  0  0  0
  8 29  1  0  0  0  0
  9 14  1  0  0  0  0
  9 10  1  0  0  0  0
  9 41  1  0  0  0  0
 10 11  1  0  0  0  0
 10 30  1  0  0  0  0
 10 31  1  0  0  0  0
 11 12  1  0  0  0  0
 11 32  1  0  0  0  0
 11 33  1  0  0  0  0
 12 13  1  0  0  0  0
 12 34  1  0  0  0  0
 12 35  1  0  0  0  0
 13 14  1  0  0  0  0
 13 36  1  0  0  0  0
 13 37  1  0  0  0  0
 14 38  1  0  0  0  0
 15 19  1  0  0  0  0
 15 16  1  0  0  0  0
 16 17  2  0  0  0  0
 16 39  1  0  0  0  0
 17 18  1  0  0  0  0
 18 19  2  0  0  0  0
 18 40  1  0  0  0  0
M  CHG  1   9   1
M  END
> <s_m_source_file>
AV-unprocessed.smi

> <i_m_source_file_index>
1406

> <i_lp_mmshare_version>
43012

> <i_f3d_flags>
0

> <s_epik_input>
bjFbY0hdbltjSF1uMVtDQEhdKFtDSDNdKUMoPU8pW05IXVtDQEhdKFtDSDJdW0NIMl0yKVtDQEBIXShOMjMpW0NIMl1bQ0gyXVtDSDJdW0NIMl0z

> <s_epik_cmdline>
J2VwaWtfcHl0aG9uJywgJy1waCcsICc3LjAnLCAnLXRuJywgJzgnLCAnLW1hJywgJzIwMCcsICctbWV0YWxfYmluZGluZycsICctaW1hZScsICc8aW5maWxlLm1hZT4nLCAnLW9tYWUnLCAnPG91dGZpbGUubWFlPic=

> <r_lp_tautomer_probability>
1

> <r_epik_Ionization_Penalty>
0.00197066

> <r_epik_Ionization_Penalty_Charging>
0.00196223

> <r_epik_Ionization_Penalty_Neutral>
8.43107e-06

> <r_epik_State_Penalty>
0.00133866

> <r_epik_Charging_Adjusted_Penalty>
0.00330089

> <i_epik_Tot_Q>
1

> <i_epik_Tot_abs_Q>
1

> <r_epik_Metal_State_Penalty>
-0

> <b_epik_Metal_Only>
0

> <s_lp_Force_Field>
OPLS_2005

> <r_lp_Energy>
46.7011

> <b_lp_Chiralities_Consistent>
1

> <s_lp_Variant>
AV-unprocessed.smi:1406-10

> <Gold.Version>
5.8.1

> <Gold.Id.Protein>
6NUR|6NUR_protein|mol2

> <Gold.PLP.Fitness>
37.4574

> <Gold.PLP.PLP>
-24.0812

> <Gold.PLP.part.hbond>
-3.6362

> <Gold.PLP.part.metal>
0.0000

> <Gold.PLP.part.buried>
-4.9920

> <Gold.PLP.part.nonpolar>
-16.0514

> <Gold.PLP.part.repulsive>
0.2449

> <Gold.PLP.ligand.clash>
0.0000

> <Gold.PLP.ligand.torsion>
0.4476

> <Gold.PLP.Chemscore.Hbond>
3.9746

> <Gold.PLP.Chemscore.CHOScore>
0.7494

> <Gold.PLP.Chemscore.Metal>
0.0000

> <Gold.Chemscore.Hbonds>
donor molecule, donor type, donor heavy atom, donor atom, acceptor molecule, acceptor atom, score
      L1  H     9    41       P1  7948  2.00
      P1  H  7989  7998       L1    17  0.80
      P1  H 10752 10763       L1    19  1.00
      L1  C    18    40       P1  7949  0.77

> <Gold.PLP.Chemscore.Internal.Correction>
0.0996

> <Gold.Rescore>
     Score         DG    S(hbond)    S(metal)    S(lipo)     H(rot)  DE(clash)    DE(int)     intcor
     12.48     -14.04       2.71        0.00      36.98       1.89       0.82       0.75       ----

> <Gold.Chemscore.Fitness>
12.4799

> <Gold.Chemscore.DG>
-14.0445

> <Gold.Chemscore.ZeroCoef>
-5.4800

> <Gold.Chemscore.Hbond>
2.7146

> <Gold.Chemscore.Metal>
0.0000

> <Gold.Chemscore.Lipo>
36.9843

> <Gold.Chemscore.Internal_Hbond>
0.0000

> <Gold.Chemscore.DEClash>
0.8184

> <Gold.Chemscore.DEInternal>
0.7462

> <Gold.Chemscore.Rot>
1.8865

> <Gold.Chemscore.Internal.Correction>
   9.000000E+99

> <Gold.Chemscore.Hbonds>
donor molecule, donor type, donor heavy atom, donor atom, acceptor molecule, acceptor atom, score
      L1  H     9    41       P1  7948  0.50
      P1  H  7989  7998       L1    17  0.59
      P1  H 10752 10763       L1    19  0.44

> <Gold.Chemscore.Hbond.Weighted>
-9.0669

> <Gold.Chemscore.Metal.Weighted>
-0.0000

> <Gold.Chemscore.Lipo.Weighted>
-4.3272

> <Gold.Chemscore.Internal_Hbond.Weighted>
0.0000

> <Gold.Chemscore.DEClash.Weighted>
0.8184

> <Gold.Chemscore.DEInternal.Weighted>
0.7462

> <Gold.Chemscore.Rot.Weighted>
4.8295

> <Gold.Chemscore.Internal.Correction.Weighted>
   9.000000E+99

> <Gold.Protein.RotatedTorsions>
[ 6907 6896 6895 6894 ] final   63.88 input  -60.11 | X-H torsion
[ 7974 7965 7964 7962 ] final -114.36 input  175.53 | X-H torsion
[ 8008 7997 7996 7995 ] final -147.76 input   59.86 | X-H torsion
[ 10167 10162 10161 10158 ] final  -56.63 input  -65.29 | X-H torsion
[ 10718 10713 10712 10709 ] final   54.05 input   66.30 | X-H torsion
[ 10763 10752 10751 10750 ] final   45.49 input  -60.55 | X-H torsion
[ 11005 11000 10999 10996 ] final   93.09 input  -57.11 | X-H torsion

> <Gold.Protein.ActiveResidues>
 VAL166  LYS551  ARG553  GLY616  TRP617  ASP618  TYR619  PRO620  LYS621  CYS622 
 ASP623  PHE694  ASN695  SER759  ASP760  ASP761  ALA762  ILE779  LEU786  VAL792 
 PHE793  MET794  SER795  GLU796  ALA797  LYS798  CYS799  TRP800  GLU811  SER814 

> <Gold.Protein.RotatedAtoms>
  152.4288  134.5818  159.9949 H   0  0  0  0  0  0  0  0  0  0  0  0  # atno 6907 bound_to 6896
  151.5947  133.3357  159.3043 H   0  0  0  0  0  0  0  0  0  0  0  0  # atno 6908 bound_to 6896
  150.8179  134.7407  159.6811 H   0  0  0  0  0  0  0  0  0  0  0  0  # atno 6909 bound_to 6896
  145.1211  140.8669  143.3813 H   0  0  0  0  0  0  0  0  0  0  0  0  # atno 7974 bound_to 7965
  155.5807  140.0643  157.2784 H   0  0  0  0  0  0  0  0  0  0  0  0  # atno 8008 bound_to 7997
  154.4333  140.1852  156.1020 H   0  0  0  0  0  0  0  0  0  0  0  0  # atno 8009 bound_to 7997
  156.0307  140.3306  155.7140 H   0  0  0  0  0  0  0  0  0  0  0  0  # atno 8010 bound_to 7997
  140.6305  143.2457  151.5252 H   0  0  0  0  0  0  0  0  0  0  0  0  # atno 10167 bound_to 10162
  157.5222  130.8572  149.8573 H   0  0  0  0  0  0  0  0  0  0  0  0  # atno 10718 bound_to 10713
  152.9824  135.6038  154.3445 H   0  0  0  0  0  0  0  0  0  0  0  0  # atno 10763 bound_to 10752
  154.3139  135.2770  155.2554 H   0  0  0  0  0  0  0  0  0  0  0  0  # atno 10764 bound_to 10752
  154.4751  135.5931  153.6405 H   0  0  0  0  0  0  0  0  0  0  0  0  # atno 10765 bound_to 10752
  139.8814  134.8770  156.3667 H   0  0  0  0  0  0  0  0  0  0  0  0  # atno 11005 bound_to 11000
  145.0739  139.3010  143.5818 LP  0  0  0  0  0  0  0  0  0  0  0  0  # atno 17320 bound_to 7965
  146.3521  140.0223  142.8657 LP  0  0  0  0  0  0  0  0  0  0  0  0  # atno 17321 bound_to 7965
  139.5520  144.2371  152.1547 LP  0  0  0  0  0  0  0  0  0  0  0  0  # atno 17342 bound_to 10162
  140.1613  144.5023  150.6631 LP  0  0  0  0  0  0  0  0  0  0  0  0  # atno 17343 bound_to 10162
  156.0361  130.3751  150.1556 LP  0  0  0  0  0  0  0  0  0  0  0  0  # atno 17370 bound_to 10713
  156.9744  130.9844  151.3451 LP  0  0  0  0  0  0  0  0  0  0  0  0  # atno 17371 bound_to 10713
  140.9492  133.7462  156.0249 LP  0  0  0  0  0  0  0  0  0  0  0  0  # atno 17394 bound_to 11000
  140.8126  134.3382  157.5407 LP  0  0  0  0  0  0  0  0  0  0  0  0  # atno 17395 bound_to 11000

$$$$
