AV-unprocessed.smi:1911|AV-procd|sdf|7745|dock3
  -GOLD-   22720 9483D 1   1.00000     0.00000
 Structure written by MMmdl.
 51 53  0  0  0  0  0  0  0  0  3 V2000
  142.8424  132.2151  149.6670 N   0  5  0  0  0  0  0  0  0  0  0  0
  144.1069  132.5762  149.9638 C   0  0  0  0  0  0  0  0  0  0  0  0
  145.1504  132.1181  149.5047 O   0  0  0  0  0  0  0  0  0  0  0  0
  144.1654  133.6977  151.0074 C   0  0  0  0  0  0  0  0  0  0  0  0
  145.0373  133.3207  152.1501 N   0  3  2  0  0  0  0  0  0  0  0  0
  144.8897  134.2486  153.2999 C   0  0  0  0  0  0  0  0  0  0  0  0
  145.6900  133.7595  154.5206 C   0  0  0  0  0  0  0  0  0  0  0  0
  147.1771  133.5343  154.1852 C   0  0  2  0  0  0  0  0  0  0  0  0
  147.8775  134.7976  153.9552 N   0  0  0  0  0  0  0  0  0  0  0  0
  148.2309  135.6743  154.9059 C   0  0  0  0  0  0  0  0  0  0  0  0
  147.9770  135.5202  156.1001 O   0  0  0  0  0  0  0  0  0  0  0  0
  148.8664  136.7334  154.3759 N   0  0  0  0  0  0  0  0  0  0  0  0
  149.4597  137.8344  155.0498 C   0  0  0  0  0  0  0  0  0  0  0  0
  149.3006  137.9223  156.4462 C   0  0  0  0  0  0  0  0  0  0  0  0
  149.8550  139.0168  157.1362 C   0  0  0  0  0  0  0  0  0  0  0  0
  150.5532  140.0073  156.4054 C   0  0  0  0  0  0  0  0  0  0  0  0
  151.1175  141.1263  157.0497 N   0  0  0  0  0  0  0  0  0  0  0  0
  151.0078  142.4721  156.5109 C   0  0  0  0  0  0  0  0  0  0  0  0
  151.6357  143.3705  157.5764 C   0  0  0  0  0  0  0  0  0  0  0  0
  151.3298  142.6335  158.8804 C   0  0  0  0  0  0  0  0  0  0  0  0
  151.3588  141.1527  158.4868 C   0  0  0  0  0  0  0  0  0  0  0  0
  150.6922  139.9319  155.0606 N   0  0  0  0  0  0  0  0  0  0  0  0
  150.1613  138.8794  154.4034 C   0  0  0  0  0  0  0  0  0  0  0  0
  147.2975  132.6216  152.9530 C   0  0  0  0  0  0  0  0  0  0  0  0
  146.4634  133.1393  151.7673 C   0  0  0  0  0  0  0  0  0  0  0  0
  142.1354  132.9514  149.5513 H   0  0  0  0  0  0  0  0  0  0  0  0
  144.5149  134.6268  150.5541 H   0  0  0  0  0  0  0  0  0  0  0  0
  143.1473  133.8839  151.3534 H   0  0  0  0  0  0  0  0  0  0  0  0
  145.2153  135.2480  153.0069 H   0  0  0  0  0  0  0  0  0  0  0  0
  143.8368  134.3273  153.5740 H   0  0  0  0  0  0  0  0  0  0  0  0
  145.5849  134.4656  155.3451 H   0  0  0  0  0  0  0  0  0  0  0  0
  145.2592  132.8212  154.8726 H   0  0  0  0  0  0  0  0  0  0  0  0
  147.6549  133.0284  155.0261 H   0  0  0  0  0  0  0  0  0  0  0  0
  148.1270  135.0114  153.0009 H   0  0  0  0  0  0  0  0  0  0  0  0
  148.9095  136.7693  153.3682 H   0  0  0  0  0  0  0  0  0  0  0  0
  148.7610  137.1590  156.9879 H   0  0  0  0  0  0  0  0  0  0  0  0
  149.7334  139.0803  158.2070 H   0  0  0  0  0  0  0  0  0  0  0  0
  151.5215  142.5688  155.5538 H   0  0  0  0  0  0  0  0  0  0  0  0
  149.9553  142.7204  156.3684 H   0  0  0  0  0  0  0  0  0  0  0  0
  152.7153  143.4209  157.4274 H   0  0  0  0  0  0  0  0  0  0  0  0
  151.2443  144.3879  157.5580 H   0  0  0  0  0  0  0  0  0  0  0  0
  152.0310  142.8723  159.6804 H   0  0  0  0  0  0  0  0  0  0  0  0
  150.3286  142.8997  159.2223 H   0  0  0  0  0  0  0  0  0  0  0  0
  150.6127  140.5862  159.0453 H   0  0  0  0  0  0  0  0  0  0  0  0
  152.3386  140.7175  158.6859 H   0  0  0  0  0  0  0  0  0  0  0  0
  150.2909  138.9051  153.3328 H   0  0  0  0  0  0  0  0  0  0  0  0
  148.3431  132.5180  152.6596 H   0  0  0  0  0  0  0  0  0  0  0  0
  146.9566  131.6190  153.2149 H   0  0  0  0  0  0  0  0  0  0  0  0
  146.5455  132.4299  150.9437 H   0  0  0  0  0  0  0  0  0  0  0  0
  146.8663  134.0863  151.4049 H   0  0  0  0  0  0  0  0  0  0  0  0
  144.6963  132.4209  152.4597 H   0  0  0  0  0  0  0  0  0  0  0  0
  1  2  1  0  0  0  0
  1 26  1  0  0  0  0
  2  3  2  0  0  0  0
  2  4  1  0  0  0  0
  4  5  1  0  0  0  0
  4 27  1  0  0  0  0
  4 28  1  0  0  0  0
  5 25  1  0  0  0  0
  5  6  1  0  0  0  0
  5 51  1  0  0  0  0
  6  7  1  0  0  0  0
  6 29  1  0  0  0  0
  6 30  1  0  0  0  0
  7  8  1  0  0  0  0
  7 31  1  0  0  0  0
  7 32  1  0  0  0  0
  8  9  1  0  0  0  0
  8 24  1  0  0  0  0
  8 33  1  0  0  0  0
  9 10  1  0  0  0  0
  9 34  1  0  0  0  0
 10 11  2  0  0  0  0
 10 12  1  0  0  0  0
 12 13  1  0  0  0  0
 12 35  1  0  0  0  0
 13 23  1  0  0  0  0
 13 14  2  0  0  0  0
 14 15  1  0  0  0  0
 14 36  1  0  0  0  0
 15 16  2  0  0  0  0
 15 37  1  0  0  0  0
 16 17  1  0  0  0  0
 16 22  1  0  0  0  0
 17 21  1  0  0  0  0
 17 18  1  0  0  0  0
 18 19  1  0  0  0  0
 18 38  1  0  0  0  0
 18 39  1  0  0  0  0
 19 20  1  0  0  0  0
 19 40  1  0  0  0  0
 19 41  1  0  0  0  0
 20 21  1  0  0  0  0
 20 42  1  0  0  0  0
 20 43  1  0  0  0  0
 21 44  1  0  0  0  0
 21 45  1  0  0  0  0
 22 23  2  0  0  0  0
 23 46  1  0  0  0  0
 24 25  1  0  0  0  0
 24 47  1  0  0  0  0
 24 48  1  0  0  0  0
 25 49  1  0  0  0  0
 25 50  1  0  0  0  0
M  CHG  1   1  -1
M  CHG  1   5   1
M  END
> <s_m_source_file>
AV-unprocessed.smi

> <i_m_source_file_index>
1911

> <i_lp_mmshare_version>
43012

> <i_f3d_flags>
0

> <s_epik_input>
W05IMl1DKD1PKVtDSDJdTjFbQ0gyXVtDSDJdW0NIXShbQ0gyXVtDSDJdMSlbTkhdQyg9TylbTkhdYzJbY0hdW2NIXWMobltjSF0yKU4zW0NIMl1bQ0gyXVtDSDJdW0NIMl0z

> <s_epik_cmdline>
J2VwaWtfcHl0aG9uJywgJy1waCcsICc3LjAnLCAnLXRuJywgJzgnLCAnLW1hJywgJzIwMCcsICctbWV0YWxfYmluZGluZycsICctaW1hZScsICc8aW5maWxlLm1hZT4nLCAnLW9tYWUnLCAnPG91dGZpbGUubWFlPic=

> <r_lp_tautomer_probability>
1

> <r_epik_Ionization_Penalty>
5.80652

> <r_epik_Ionization_Penalty_Charging>
5.7288

> <r_epik_Ionization_Penalty_Neutral>
0.0777157

> <r_epik_State_Penalty>
6.60246

> <r_epik_Charging_Adjusted_Penalty>
12.3313

> <i_epik_Tot_Q>
0

> <i_epik_Tot_abs_Q>
2

> <r_epik_Metal_State_Penalty>
2.64988

> <b_epik_Metal_Only>
1

> <s_lp_Force_Field>
OPLS_2005

> <r_lp_Energy>
33.5084

> <b_lp_Chiralities_Consistent>
1

> <s_lp_Variant>
AV-unprocessed.smi:1911-8

> <Gold.Version>
5.8.1

> <Gold.Id.Protein>
6NUR|6NUR_protein|mol2

> <Gold.PLP.Fitness>
52.4015

> <Gold.PLP.PLP>
-36.8872

> <Gold.PLP.part.hbond>
-5.4471

> <Gold.PLP.part.metal>
0.0000

> <Gold.PLP.part.buried>
-6.8771

> <Gold.PLP.part.nonpolar>
-25.1394

> <Gold.PLP.part.repulsive>
0.2395

> <Gold.PLP.ligand.clash>
0.0000

> <Gold.PLP.ligand.torsion>
0.6952

> <Gold.PLP.Chemscore.Hbond>
4.5680

> <Gold.PLP.Chemscore.CHOScore>
1.0000

> <Gold.PLP.Chemscore.Metal>
0.0000

> <Gold.Chemscore.Hbonds>
donor molecule, donor type, donor heavy atom, donor atom, acceptor molecule, acceptor atom, score
      L1  H     1    26       P1 10186  1.00
      L1  H     9    34       P1  7948  0.94
      L1  H    12    35       P1  7948  1.00
      P1  H  7989  7998       L1    22  0.96
      P1  H 10785 10796       L1     1  0.32
      L1  C    23    46       P1  7957  1.00

> <Gold.PLP.Chemscore.Internal.Correction>
0.2007

> <Gold.Rescore>
     Score         DG    S(hbond)    S(metal)    S(lipo)     H(rot)  DE(clash)    DE(int)     intcor
     16.91     -20.68       3.30        0.00      76.95       1.88       0.29       3.48       ----

> <Gold.Chemscore.Fitness>
16.9145

> <Gold.Chemscore.DG>
-20.6831

> <Gold.Chemscore.ZeroCoef>
-5.4800

> <Gold.Chemscore.Hbond>
3.2967

> <Gold.Chemscore.Metal>
0.0000

> <Gold.Chemscore.Lipo>
76.9504

> <Gold.Chemscore.Internal_Hbond>
0.0000

> <Gold.Chemscore.DEClash>
0.2877

> <Gold.Chemscore.DEInternal>
3.4809

> <Gold.Chemscore.Rot>
1.8793

> <Gold.Chemscore.Internal.Correction>
   9.000000E+99

> <Gold.Chemscore.Hbonds>
donor molecule, donor type, donor heavy atom, donor atom, acceptor molecule, acceptor atom, score
      L1  H     1    26       P1 10186  1.00
      L1  H     9    34       P1  7948  0.86
      L1  H    12    35       P1  7948  0.97
      P1  H  7989  7998       L1    22  0.23
      P1  H 10785 10796       L1     1  0.10

> <Gold.Chemscore.Hbond.Weighted>
-11.0108

> <Gold.Chemscore.Metal.Weighted>
-0.0000

> <Gold.Chemscore.Lipo.Weighted>
-9.0032

> <Gold.Chemscore.Internal_Hbond.Weighted>
0.0000

> <Gold.Chemscore.DEClash.Weighted>
0.2877

> <Gold.Chemscore.DEInternal.Weighted>
3.4809

> <Gold.Chemscore.Rot.Weighted>
4.8109

> <Gold.Chemscore.Internal.Correction.Weighted>
   9.000000E+99

> <Gold.Protein.RotatedTorsions>
[ 6907 6896 6895 6894 ] final  141.28 input  -60.11 | X-H torsion
[ 7974 7965 7964 7962 ] final   -1.50 input  175.53 | X-H torsion
[ 8008 7997 7996 7995 ] final    5.13 input   59.86 | X-H torsion
[ 10167 10162 10161 10158 ] final -119.37 input  -65.29 | X-H torsion
[ 10718 10713 10712 10709 ] final  -68.54 input   66.30 | X-H torsion
[ 10763 10752 10751 10750 ] final  178.02 input  -60.55 | X-H torsion
[ 11005 11000 10999 10996 ] final  159.32 input  -57.11 | X-H torsion

> <Gold.Protein.ActiveResidues>
 VAL166  LYS551  ARG553  GLY616  TRP617  ASP618  TYR619  PRO620  LYS621  CYS622 
 ASP623  PHE694  ASN695  SER759  ASP760  ASP761  ALA762  ILE779  LEU786  VAL792 
 PHE793  MET794  SER795  GLU796  ALA797  LYS798  CYS799  TRP800  GLU811  SER814 

> <Gold.Protein.RotatedAtoms>
  152.2329  133.5072  159.5225 H   0  0  0  0  0  0  0  0  0  0  0  0  # atno 6907 bound_to 6896
  150.7042  134.1193  159.4038 H   0  0  0  0  0  0  0  0  0  0  0  0  # atno 6908 bound_to 6896
  151.9114  135.0337  160.0565 H   0  0  0  0  0  0  0  0  0  0  0  0  # atno 6909 bound_to 6896
  146.2416  140.1429  142.8335 H   0  0  0  0  0  0  0  0  0  0  0  0  # atno 7974 bound_to 7965
  154.7245  140.2718  155.6511 H   0  0  0  0  0  0  0  0  0  0  0  0  # atno 8008 bound_to 7997
  156.2833  140.2728  156.1852 H   0  0  0  0  0  0  0  0  0  0  0  0  # atno 8009 bound_to 7997
  155.0463  140.0371  157.2517 H   0  0  0  0  0  0  0  0  0  0  0  0  # atno 8010 bound_to 7997
  140.0474  143.5093  152.2099 H   0  0  0  0  0  0  0  0  0  0  0  0  # atno 10167 bound_to 10162
  156.0500  130.4296  150.2016 H   0  0  0  0  0  0  0  0  0  0  0  0  # atno 10718 bound_to 10713
  154.5022  135.2784  155.1412 H   0  0  0  0  0  0  0  0  0  0  0  0  # atno 10763 bound_to 10752
  154.3040  135.6242  153.5441 H   0  0  0  0  0  0  0  0  0  0  0  0  # atno 10764 bound_to 10752
  152.9904  135.5704  154.5467 H   0  0  0  0  0  0  0  0  0  0  0  0  # atno 10765 bound_to 10752
  140.1950  134.8379  157.2954 H   0  0  0  0  0  0  0  0  0  0  0  0  # atno 11005 bound_to 11000
  145.0231  140.8810  143.5154 LP  0  0  0  0  0  0  0  0  0  0  0  0  # atno 17320 bound_to 7965
  145.1481  139.2531  143.5455 LP  0  0  0  0  0  0  0  0  0  0  0  0  # atno 17321 bound_to 7965
  139.5975  144.7571  151.3252 LP  0  0  0  0  0  0  0  0  0  0  0  0  # atno 17342 bound_to 10162
  140.7232  143.7077  150.7794 LP  0  0  0  0  0  0  0  0  0  0  0  0  # atno 17343 bound_to 10162
  157.0101  130.9948  151.3368 LP  0  0  0  0  0  0  0  0  0  0  0  0  # atno 17370 bound_to 10713
  157.5416  130.8123  149.8036 LP  0  0  0  0  0  0  0  0  0  0  0  0  # atno 17371 bound_to 10713
  140.2117  134.4130  155.7609 LP  0  0  0  0  0  0  0  0  0  0  0  0  # atno 17394 bound_to 11000
  141.2227  133.7122  156.8349 LP  0  0  0  0  0  0  0  0  0  0  0  0  # atno 17395 bound_to 11000

$$$$
