AV-unprocessed.smi:894|AV-procd|sdf|4072|dock1
  -GOLD-   22720 1553D 1   1.00000     0.00000
 Structure written by MMmdl.
 30 31  0  0  0  0  0  0  0  0  1 V2000
  146.5281  139.1004  152.2579 C   0  0  0  0  0  0  0  0  0  0  0  0
  147.7564  138.5195  152.7778 N   0  0  0  0  0  0  0  0  0  0  0  0
  148.4524  139.0229  153.8082 C   0  0  0  0  0  0  0  0  0  0  0  0
  148.1110  140.0315  154.4258 O   0  0  0  0  0  0  0  0  0  0  0  0
  149.7238  138.2725  154.2103 C   0  0  0  0  0  0  0  0  0  0  0  0
  150.4738  139.0242  155.2634 C   0  0  0  0  0  0  0  0  0  0  0  0
  151.5307  139.7689  154.9585 N   0  0  0  0  0  0  0  0  0  0  0  0
  151.9368  140.2796  156.1995 O   0  0  0  0  0  0  0  0  0  0  0  0
  151.0611  139.7856  157.1071 C   0  0  0  0  0  0  0  0  0  0  0  0
  151.2600  140.1095  158.5504 C   0  0  0  0  0  0  0  0  0  0  0  0
  152.2340  141.2643  158.7604 C   0  0  0  0  0  0  0  0  0  0  0  0
  152.5756  141.7257  160.1867 C   0  0  0  0  0  0  0  0  0  0  0  0
  152.6630  143.1577  159.6537 C   0  0  0  0  0  0  0  0  0  0  0  0
  151.7737  142.7054  158.4926 C   0  0  0  0  0  0  0  0  0  0  0  0
  150.1400  138.9805  156.5834 N   0  0  0  0  0  0  0  0  0  0  0  0
  146.1702  138.5168  151.4100 H   0  0  0  0  0  0  0  0  0  0  0  0
  146.6951  140.1242  151.9208 H   0  0  0  0  0  0  0  0  0  0  0  0
  145.7489  139.1077  153.0214 H   0  0  0  0  0  0  0  0  0  0  0  0
  148.1042  137.6881  152.3220 H   0  0  0  0  0  0  0  0  0  0  0  0
  149.4637  137.2818  154.5856 H   0  0  0  0  0  0  0  0  0  0  0  0
  150.3594  138.1224  153.3363 H   0  0  0  0  0  0  0  0  0  0  0  0
  150.2906  140.3464  158.9897 H   0  0  0  0  0  0  0  0  0  0  0  0
  151.6153  139.2124  159.0589 H   0  0  0  0  0  0  0  0  0  0  0  0
  153.1666  141.0860  158.2204 H   0  0  0  0  0  0  0  0  0  0  0  0
  151.7503  141.5868  160.8872 H   0  0  0  0  0  0  0  0  0  0  0  0
  153.5096  141.3269  160.5837 H   0  0  0  0  0  0  0  0  0  0  0  0
  152.2212  143.9157  160.3010 H   0  0  0  0  0  0  0  0  0  0  0  0
  153.6707  143.4300  159.3355 H   0  0  0  0  0  0  0  0  0  0  0  0
  152.0589  143.1019  157.5177 H   0  0  0  0  0  0  0  0  0  0  0  0
  150.7116  142.8572  158.6929 H   0  0  0  0  0  0  0  0  0  0  0  0
  1  2  1  0  0  0  0
  1 16  1  0  0  0  0
  1 17  1  0  0  0  0
  1 18  1  0  0  0  0
  2  3  1  0  0  0  0
  2 19  1  0  0  0  0
  3  4  2  0  0  0  0
  3  5  1  0  0  0  0
  5  6  1  0  0  0  0
  5 20  1  0  0  0  0
  5 21  1  0  0  0  0
  6 15  1  0  0  0  0
  6  7  2  0  0  0  0
  7  8  1  0  0  0  0
  8  9  1  0  0  0  0
  9 10  1  0  0  0  0
  9 15  2  0  0  0  0
 10 11  1  0  0  0  0
 10 22  1  0  0  0  0
 10 23  1  0  0  0  0
 11 14  1  0  0  0  0
 11 12  1  0  0  0  0
 11 24  1  0  0  0  0
 12 13  1  0  0  0  0
 12 25  1  0  0  0  0
 12 26  1  0  0  0  0
 13 14  1  0  0  0  0
 13 27  1  0  0  0  0
 13 28  1  0  0  0  0
 14 29  1  0  0  0  0
 14 30  1  0  0  0  0
M  END
> <s_m_source_file>
AV-unprocessed.smi

> <i_m_source_file_index>
894

> <i_lp_mmshare_version>
43012

> <i_f3d_flags>
0

> <s_epik_input>
W0NIM11bTkhdQyg9TylbQ0gyXWMxbm9jKG4xKVtDSDJdW0NIXTJbQ0gyXVtDSDJdW0NIMl0y

> <s_epik_cmdline>
J2VwaWtfcHl0aG9uJywgJy1waCcsICc3LjAnLCAnLXRuJywgJzgnLCAnLW1hJywgJzIwMCcsICctbWV0YWxfYmluZGluZycsICctaW1hZScsICc8aW5maWxlLm1hZT4nLCAnLW9tYWUnLCAnPG91dGZpbGUubWFlPic=

> <r_lp_tautomer_probability>
1

> <r_epik_Ionization_Penalty>
1.02915e-07

> <r_epik_Ionization_Penalty_Charging>
0

> <r_epik_Ionization_Penalty_Neutral>
1.02915e-07

> <r_epik_State_Penalty>
-0

> <r_epik_Charging_Adjusted_Penalty>
0

> <i_epik_Tot_Q>
0

> <i_epik_Tot_abs_Q>
0

> <r_epik_Metal_State_Penalty>
-0

> <b_epik_Metal_Only>
0

> <s_lp_Force_Field>
OPLS_2005

> <r_lp_Energy>
11.0858

> <b_lp_Chiralities_Consistent>
1

> <s_lp_Variant>
AV-unprocessed.smi:894-1

> <Gold.Version>
5.8.1

> <Gold.Id.Protein>
6NUR|6NUR_protein|mol2

> <Gold.PLP.Fitness>
36.4464

> <Gold.PLP.PLP>
-28.5574

> <Gold.PLP.part.hbond>
-4.0000

> <Gold.PLP.part.metal>
0.0000

> <Gold.PLP.part.buried>
-2.2419

> <Gold.PLP.part.nonpolar>
-22.9188

> <Gold.PLP.part.repulsive>
0.1642

> <Gold.PLP.ligand.clash>
0.0000

> <Gold.PLP.ligand.torsion>
0.5369

> <Gold.PLP.Chemscore.Hbond>
2.9600

> <Gold.PLP.Chemscore.CHOScore>
0.0000

> <Gold.PLP.Chemscore.Metal>
0.0000

> <Gold.Chemscore.Hbonds>
donor molecule, donor type, donor heavy atom, donor atom, acceptor molecule, acceptor atom, score
      L1  H     2    19       P1  7948  1.00
      P1  H  7989  7998       L1     7  1.00
      P1  H  7997  8010       L1     8  0.06

> <Gold.PLP.Chemscore.Internal.Correction>
0.0828

> <Gold.Rescore>
     Score         DG    S(hbond)    S(metal)    S(lipo)     H(rot)  DE(clash)    DE(int)     intcor
     16.48     -17.32       2.81        0.00      62.36       1.90       0.04       0.80       ----

> <Gold.Chemscore.Fitness>
16.4827

> <Gold.Chemscore.DG>
-17.3220

> <Gold.Chemscore.ZeroCoef>
-5.4800

> <Gold.Chemscore.Hbond>
2.8145

> <Gold.Chemscore.Metal>
0.0000

> <Gold.Chemscore.Lipo>
62.3600

> <Gold.Chemscore.Internal_Hbond>
0.0000

> <Gold.Chemscore.DEClash>
0.0427

> <Gold.Chemscore.DEInternal>
0.7966

> <Gold.Chemscore.Rot>
1.8963

> <Gold.Chemscore.Internal.Correction>
   9.000000E+99

> <Gold.Chemscore.Hbonds>
donor molecule, donor type, donor heavy atom, donor atom, acceptor molecule, acceptor atom, score
      L1  H     2    19       P1  7948  1.00
      P1  H  7989  7998       L1     7  0.95
      P1  H  7997  8010       L1     8  0.07

> <Gold.Chemscore.Hbond.Weighted>
-9.4005

> <Gold.Chemscore.Metal.Weighted>
-0.0000

> <Gold.Chemscore.Lipo.Weighted>
-7.2961

> <Gold.Chemscore.Internal_Hbond.Weighted>
0.0000

> <Gold.Chemscore.DEClash.Weighted>
0.0427

> <Gold.Chemscore.DEInternal.Weighted>
0.7966

> <Gold.Chemscore.Rot.Weighted>
4.8546

> <Gold.Chemscore.Internal.Correction.Weighted>
   9.000000E+99

> <Gold.Protein.RotatedTorsions>
[ 6907 6896 6895 6894 ] final   14.43 input  -60.11 | X-H torsion
[ 7974 7965 7964 7962 ] final  124.51 input  175.53 | X-H torsion
[ 8008 7997 7996 7995 ] final   77.92 input   59.86 | X-H torsion
[ 10167 10162 10161 10158 ] final  108.36 input  -65.29 | X-H torsion
[ 10718 10713 10712 10709 ] final  -75.35 input   66.30 | X-H torsion
[ 10763 10752 10751 10750 ] final  141.71 input  -60.55 | X-H torsion
[ 11005 11000 10999 10996 ] final  -85.79 input  -57.11 | X-H torsion

> <Gold.Protein.ActiveResidues>
 VAL166  LYS551  ARG553  GLY616  TRP617  ASP618  TYR619  PRO620  LYS621  CYS622 
 ASP623  PHE694  ASN695  SER759  ASP760  ASP761  ALA762  ILE779  LEU786  VAL792 
 PHE793  MET794  SER795  GLU796  ALA797  LYS798  CYS799  TRP800  GLU811  SER814 

> <Gold.Protein.RotatedAtoms>
  151.8021  135.0706  160.0401 H   0  0  0  0  0  0  0  0  0  0  0  0  # atno 6907 bound_to 6896
  152.3082  133.5720  159.5671 H   0  0  0  0  0  0  0  0  0  0  0  0  # atno 6908 bound_to 6896
  150.7306  134.0108  159.3711 H   0  0  0  0  0  0  0  0  0  0  0  0  # atno 6909 bound_to 6896
  145.0836  139.3638  143.4896 H   0  0  0  0  0  0  0  0  0  0  0  0  # atno 7974 bound_to 7965
  155.8484  140.3459  155.5677 H   0  0  0  0  0  0  0  0  0  0  0  0  # atno 8008 bound_to 7997
  155.8065  140.0892  157.1948 H   0  0  0  0  0  0  0  0  0  0  0  0  # atno 8009 bound_to 7997
  154.4007  140.1456  156.3323 H   0  0  0  0  0  0  0  0  0  0  0  0  # atno 8010 bound_to 7997
  139.6853  144.7114  151.1444 H   0  0  0  0  0  0  0  0  0  0  0  0  # atno 10167 bound_to 10162
  156.0210  130.4439  150.3030 H   0  0  0  0  0  0  0  0  0  0  0  0  # atno 10718 bound_to 10713
  153.9437  135.2977  155.3441 H   0  0  0  0  0  0  0  0  0  0  0  0  # atno 10763 bound_to 10752
  154.7463  135.5001  153.9214 H   0  0  0  0  0  0  0  0  0  0  0  0  # atno 10764 bound_to 10752
  153.1029  135.6739  153.9746 H   0  0  0  0  0  0  0  0  0  0  0  0  # atno 10765 bound_to 10752
  141.1637  133.7418  156.9066 H   0  0  0  0  0  0  0  0  0  0  0  0  # atno 11005 bound_to 11000
  146.3531  140.0638  142.8627 LP  0  0  0  0  0  0  0  0  0  0  0  0  # atno 17320 bound_to 7965
  145.1149  140.9427  143.4635 LP  0  0  0  0  0  0  0  0  0  0  0  0  # atno 17321 bound_to 7965
  140.7665  143.5639  150.9069 LP  0  0  0  0  0  0  0  0  0  0  0  0  # atno 17342 bound_to 10162
  139.9313  143.6489  152.3075 LP  0  0  0  0  0  0  0  0  0  0  0  0  # atno 17343 bound_to 10162
  157.1133  131.0227  151.3039 LP  0  0  0  0  0  0  0  0  0  0  0  0  # atno 17370 bound_to 10713
  157.4687  130.7696  149.7303 LP  0  0  0  0  0  0  0  0  0  0  0  0  # atno 17371 bound_to 10713
  140.1546  134.9207  157.2636 LP  0  0  0  0  0  0  0  0  0  0  0  0  # atno 17394 bound_to 11000
  140.2683  134.3490  155.7382 LP  0  0  0  0  0  0  0  0  0  0  0  0  # atno 17395 bound_to 11000

$$$$
