AV-unprocessed.smi:2978|AV-procd|sdf|11368|dock9
  -GOLD-   2272016283D 1   1.00000     0.00000
 Structure written by MMmdl.
 32 33  0  0  0  0  0  0  0  0  1 V2000
  151.8214  136.4766  155.1814 O   0  0  0  0  0  0  0  0  0  0  0  0
  150.9303  137.1750  154.6957 C   0  0  0  0  0  0  0  0  0  0  0  0
  151.2341  138.5893  154.1800 C   0  0  0  0  0  0  0  0  0  0  0  0
  151.0677  139.6312  155.2042 N   0  0  0  0  0  0  0  0  0  0  0  0
  150.1056  140.5771  154.8957 N   0  0  0  0  0  0  0  0  0  0  0  0
  149.8611  141.5282  155.7299 C   0  0  0  0  0  0  0  0  0  0  0  0
  150.5639  141.6493  156.9881 C   0  0  0  0  0  0  0  0  0  0  0  0
  150.1916  142.9467  158.0675 Cl  0  0  0  0  0  0  0  0  0  0  0  0
  151.5105  140.7213  157.2773 C   0  0  0  0  0  0  0  0  0  0  0  0
  152.3959  140.8019  158.7618 Cl  0  0  0  0  0  0  0  0  0  0  0  0
  151.8165  139.6231  156.3500 C   0  0  0  0  0  0  0  0  0  0  0  0
  152.6697  138.7633  156.5743 O   0  0  0  0  0  0  0  0  0  0  0  0
  149.6522  136.7777  154.6020 N   0  0  0  0  0  0  0  0  0  0  0  0
  149.1322  135.4849  155.0354 C   0  0  0  0  0  0  0  0  0  0  0  0
  149.6227  134.3399  154.1331 C   0  0  2  0  0  0  0  0  0  0  0  0
  148.5635  133.7459  153.2031 C   0  0  0  0  0  0  0  0  0  0  0  0
  149.1094  132.3568  152.9672 C   0  0  0  0  0  0  0  0  0  0  0  0
  149.6741  132.0088  154.3412 C   0  0  0  0  0  0  0  0  0  0  0  0
  150.0703  133.2457  154.9293 O   0  0  0  0  0  0  0  0  0  0  0  0
  152.2479  138.6229  153.7763 H   0  0  0  0  0  0  0  0  0  0  0  0
  150.5759  138.7854  153.3319 H   0  0  0  0  0  0  0  0  0  0  0  0
  149.1110  142.2937  155.5308 H   0  0  0  0  0  0  0  0  0  0  0  0
  148.9871  137.4197  154.1956 H   0  0  0  0  0  0  0  0  0  0  0  0
  149.4792  135.3155  156.0550 H   0  0  0  0  0  0  0  0  0  0  0  0
  148.0420  135.4939  155.0845 H   0  0  0  0  0  0  0  0  0  0  0  0
  150.4738  134.6752  153.5377 H   0  0  0  0  0  0  0  0  0  0  0  0
  147.5980  133.6840  153.7072 H   0  0  0  0  0  0  0  0  0  0  0  0
  148.4340  134.3169  152.2833 H   0  0  0  0  0  0  0  0  0  0  0  0
  148.3533  131.6495  152.6252 H   0  0  0  0  0  0  0  0  0  0  0  0
  149.9100  132.3896  152.2269 H   0  0  0  0  0  0  0  0  0  0  0  0
  148.9017  131.5611  154.9676 H   0  0  0  0  0  0  0  0  0  0  0  0
  150.5089  131.3101  154.2821 H   0  0  0  0  0  0  0  0  0  0  0  0
  1  2  2  0  0  0  0
  2  3  1  0  0  0  0
  2 13  1  0  0  0  0
  3  4  1  0  0  0  0
  3 20  1  0  0  0  0
  3 21  1  0  0  0  0
  4 11  1  0  0  0  0
  4  5  1  0  0  0  0
  5  6  2  0  0  0  0
  6  7  1  0  0  0  0
  6 22  1  0  0  0  0
  7  8  1  0  0  0  0
  7  9  2  0  0  0  0
  9 10  1  0  0  0  0
  9 11  1  0  0  0  0
 11 12  2  0  0  0  0
 13 14  1  0  0  0  0
 13 23  1  0  0  0  0
 14 15  1  0  0  0  0
 14 24  1  0  0  0  0
 14 25  1  0  0  0  0
 15 19  1  0  0  0  0
 15 16  1  0  0  0  0
 15 26  1  0  0  0  0
 16 17  1  0  0  0  0
 16 27  1  0  0  0  0
 16 28  1  0  0  0  0
 17 18  1  0  0  0  0
 17 29  1  0  0  0  0
 17 30  1  0  0  0  0
 18 19  1  0  0  0  0
 18 31  1  0  0  0  0
 18 32  1  0  0  0  0
M  END
> <s_m_source_file>
AV-unprocessed.smi

> <i_m_source_file_index>
2978

> <i_lp_mmshare_version>
43012

> <i_f3d_flags>
0

> <s_epik_input>
TzFbQ0gyXVtDSDJdW0NIMl1bQ0BIXTFbQ0gyXVtOSF1DKD1PKVtDSDJdbjJuW2NIXWMoQ2wpYyhDbCljMj1P

> <s_epik_cmdline>
J2VwaWtfcHl0aG9uJywgJy1waCcsICc3LjAnLCAnLXRuJywgJzgnLCAnLW1hJywgJzIwMCcsICctbWV0YWxfYmluZGluZycsICctaW1hZScsICc8aW5maWxlLm1hZT4nLCAnLW9tYWUnLCAnPG91dGZpbGUubWFlPic=

> <r_lp_tautomer_probability>
1

> <r_epik_Ionization_Penalty>
2.68881e-08

> <r_epik_Ionization_Penalty_Charging>
2.90862e-11

> <r_epik_Ionization_Penalty_Neutral>
2.6859e-08

> <r_epik_State_Penalty>
-0

> <r_epik_Charging_Adjusted_Penalty>
2.90862e-11

> <i_epik_Tot_Q>
0

> <i_epik_Tot_abs_Q>
0

> <r_epik_Metal_State_Penalty>
-0

> <b_epik_Metal_Only>
0

> <s_lp_Force_Field>
OPLS_2005

> <r_lp_Energy>
31.3125

> <b_lp_Chiralities_Consistent>
1

> <s_lp_Variant>
AV-unprocessed.smi:2978-1

> <Gold.Version>
5.8.1

> <Gold.Id.Protein>
6NUR|6NUR_protein|mol2

> <Gold.PLP.Fitness>
41.2842

> <Gold.PLP.PLP>
-34.4457

> <Gold.PLP.part.hbond>
-3.3701

> <Gold.PLP.part.metal>
0.0000

> <Gold.PLP.part.buried>
-4.3153

> <Gold.PLP.part.nonpolar>
-27.9032

> <Gold.PLP.part.repulsive>
0.2215

> <Gold.PLP.ligand.clash>
0.0000

> <Gold.PLP.ligand.torsion>
1.0846

> <Gold.PLP.Chemscore.Hbond>
2.0000

> <Gold.PLP.Chemscore.CHOScore>
1.0000

> <Gold.PLP.Chemscore.Metal>
0.0000

> <Gold.Chemscore.Hbonds>
donor molecule, donor type, donor heavy atom, donor atom, acceptor molecule, acceptor atom, score
      P1  H  7997  8009       L1    12  0.59
      P1  H 10752 10765       L1     1  1.00
      L1  C     6    22       P1  8028  1.00

> <Gold.PLP.Chemscore.Internal.Correction>
0.0076

> <Gold.Rescore>
     Score         DG    S(hbond)    S(metal)    S(lipo)     H(rot)  DE(clash)    DE(int)     intcor
     12.96     -15.24       1.96        0.00      67.66       1.83       0.06       2.22       ----

> <Gold.Chemscore.Fitness>
12.9599

> <Gold.Chemscore.DG>
-15.2444

> <Gold.Chemscore.ZeroCoef>
-5.4800

> <Gold.Chemscore.Hbond>
1.9574

> <Gold.Chemscore.Metal>
0.0000

> <Gold.Chemscore.Lipo>
67.6630

> <Gold.Chemscore.Internal_Hbond>
0.0000

> <Gold.Chemscore.DEClash>
0.0614

> <Gold.Chemscore.DEInternal>
2.2231

> <Gold.Chemscore.Rot>
1.8320

> <Gold.Chemscore.Internal.Correction>
   9.000000E+99

> <Gold.Chemscore.Hbonds>
donor molecule, donor type, donor heavy atom, donor atom, acceptor molecule, acceptor atom, score
      P1  H  7997  8009       L1    12  0.09
      P1  H 10752 10765       L1     1  0.94

> <Gold.Chemscore.Hbond.Weighted>
-6.5378

> <Gold.Chemscore.Metal.Weighted>
-0.0000

> <Gold.Chemscore.Lipo.Weighted>
-7.9166

> <Gold.Chemscore.Internal_Hbond.Weighted>
0.0000

> <Gold.Chemscore.DEClash.Weighted>
0.0614

> <Gold.Chemscore.DEInternal.Weighted>
2.2231

> <Gold.Chemscore.Rot.Weighted>
4.6900

> <Gold.Chemscore.Internal.Correction.Weighted>
   9.000000E+99

> <Gold.Protein.RotatedTorsions>
[ 6907 6896 6895 6894 ] final  135.81 input  -60.11 | X-H torsion
[ 7974 7965 7964 7962 ] final  137.07 input  175.53 | X-H torsion
[ 8008 7997 7996 7995 ] final -170.29 input   59.86 | X-H torsion
[ 10167 10162 10161 10158 ] final -152.39 input  -65.29 | X-H torsion
[ 10718 10713 10712 10709 ] final   12.70 input   66.30 | X-H torsion
[ 10763 10752 10751 10750 ] final  178.05 input  -60.55 | X-H torsion
[ 11005 11000 10999 10996 ] final  133.18 input  -57.11 | X-H torsion

> <Gold.Protein.ActiveResidues>
 VAL166  LYS551  ARG553  GLY616  TRP617  ASP618  TYR619  PRO620  LYS621  CYS622 
 ASP623  PHE694  ASN695  SER759  ASP760  ASP761  ALA762  ILE779  LEU786  VAL792 
 PHE793  MET794  SER795  GLU796  ALA797  LYS798  CYS799  TRP800  GLU811  SER814 

> <Gold.Protein.RotatedAtoms>
  152.2963  133.5610  159.5589 H   0  0  0  0  0  0  0  0  0  0  0  0  # atno 6907 bound_to 6896
  150.7257  134.0356  159.3757 H   0  0  0  0  0  0  0  0  0  0  0  0  # atno 6908 bound_to 6896
  151.8259  135.0637  160.0482 H   0  0  0  0  0  0  0  0  0  0  0  0  # atno 6909 bound_to 6896
  144.9504  139.4826  143.5529 H   0  0  0  0  0  0  0  0  0  0  0  0  # atno 7974 bound_to 7965
  155.9163  140.1066  157.1241 H   0  0  0  0  0  0  0  0  0  0  0  0  # atno 8008 bound_to 7997
  154.4047  140.1264  156.4687 H   0  0  0  0  0  0  0  0  0  0  0  0  # atno 8009 bound_to 7997
  155.7250  140.3469  155.5035 H   0  0  0  0  0  0  0  0  0  0  0  0  # atno 8010 bound_to 7997
  139.7186  143.8993  152.2495 H   0  0  0  0  0  0  0  0  0  0  0  0  # atno 10167 bound_to 10162
  157.0139  130.6128  149.5712 H   0  0  0  0  0  0  0  0  0  0  0  0  # atno 10718 bound_to 10713
  154.5025  135.2784  155.1409 H   0  0  0  0  0  0  0  0  0  0  0  0  # atno 10763 bound_to 10752
  154.3037  135.6243  153.5439 H   0  0  0  0  0  0  0  0  0  0  0  0  # atno 10764 bound_to 10752
  152.9905  135.5703  154.5471 H   0  0  0  0  0  0  0  0  0  0  0  0  # atno 10765 bound_to 10752
  139.9835  134.9540  156.9687 H   0  0  0  0  0  0  0  0  0  0  0  0  # atno 11005 bound_to 11000
  146.3319  139.8585  142.8860 LP  0  0  0  0  0  0  0  0  0  0  0  0  # atno 17320 bound_to 7965
  145.2853  141.0151  143.3694 LP  0  0  0  0  0  0  0  0  0  0  0  0  # atno 17321 bound_to 7965
  139.8883  144.6980  150.8799 LP  0  0  0  0  0  0  0  0  0  0  0  0  # atno 17342 bound_to 10162
  140.7749  143.3606  151.1835 LP  0  0  0  0  0  0  0  0  0  0  0  0  # atno 17343 bound_to 10162
  156.0126  130.5219  150.8036 LP  0  0  0  0  0  0  0  0  0  0  0  0  # atno 17370 bound_to 10713
  157.5300  131.0936  150.9967 LP  0  0  0  0  0  0  0  0  0  0  0  0  # atno 17371 bound_to 10713
  140.5048  134.1061  155.7258 LP  0  0  0  0  0  0  0  0  0  0  0  0  # atno 17394 bound_to 11000
  141.1504  133.8979  157.2112 LP  0  0  0  0  0  0  0  0  0  0  0  0  # atno 17395 bound_to 11000

$$$$
