AV-unprocessed.smi:1754|AV-procd|sdf|7069|dock3
  -GOLD-   22720 8283D 1   1.00000     0.00000
 Structure written by MMmdl.
 44 45  0  0  0  0  0  0  0  0  3 V2000
  151.1879  145.1590  158.9976 C   0  0  0  0  0  0  0  0  0  0  0  0
  151.9428  144.1699  158.1003 C   0  0  0  0  0  0  0  0  0  0  0  0
  151.9689  142.8234  158.6652 N   0  0  0  0  0  0  0  0  0  0  0  0
  151.2990  141.7401  157.9476 C   0  0  0  0  0  0  0  0  0  0  0  0
  150.9246  142.1384  156.5137 C   0  0  0  0  0  0  0  0  0  0  0  0
  152.5859  142.5810  159.9144 C   0  0  0  0  0  0  0  0  0  0  0  0
  152.2592  143.2911  161.0963 C   0  0  0  0  0  0  0  0  0  0  0  0
  152.9179  142.9861  162.3049 C   0  0  0  0  0  0  0  0  0  0  0  0
  153.9072  141.9827  162.3306 C   0  0  0  0  0  0  0  0  0  0  0  0
  154.5250  141.6921  163.5765 N   0  0  0  0  0  0  0  0  0  0  0  0
  154.6889  142.4870  164.6627 C   0  0  0  0  0  0  0  0  0  0  0  0
  154.1939  143.6127  164.6581 O   0  0  0  0  0  0  0  0  0  0  0  0
  155.3731  142.0179  165.7500 N   0  5  0  0  0  0  0  0  0  0  0  0
  155.8819  142.7538  166.9211 C   0  0  1  0  0  0  0  0  0  0  0  0
  154.7670  142.8500  167.9856 C   0  0  0  0  0  0  0  0  0  0  0  0
  154.6857  141.5308  168.7658 C   0  0  0  0  0  0  0  0  0  0  0  0
  156.4097  140.9269  168.8748 S   0  0  0  0  0  0  0  0  0  0  0  0
  156.9911  141.3536  170.1572 O   0  0  0  0  0  0  0  0  0  0  0  0
  156.4590  139.5162  168.4603 O   0  0  0  0  0  0  0  0  0  0  0  0
  157.0761  141.9991  167.5392 C   0  0  0  0  0  0  0  0  0  0  0  0
  154.1912  141.2926  161.1295 C   0  0  0  0  0  0  0  0  0  0  0  0
  153.5357  141.6170  159.9947 N   0  3  0  0  0  0  0  0  0  0  0  0
  151.1951  146.1579  158.5613 H   0  0  0  0  0  0  0  0  0  0  0  0
  151.6458  145.2264  159.9850 H   0  0  0  0  0  0  0  0  0  0  0  0
  150.1471  144.8629  159.1311 H   0  0  0  0  0  0  0  0  0  0  0  0
  151.5227  144.1614  157.0949 H   0  0  0  0  0  0  0  0  0  0  0  0
  152.9703  144.5147  157.9813 H   0  0  0  0  0  0  0  0  0  0  0  0
  151.9693  140.8805  157.9152 H   0  0  0  0  0  0  0  0  0  0  0  0
  150.4170  141.4024  158.4924 H   0  0  0  0  0  0  0  0  0  0  0  0
  150.4417  141.3088  155.9972 H   0  0  0  0  0  0  0  0  0  0  0  0
  151.8063  142.4191  155.9369 H   0  0  0  0  0  0  0  0  0  0  0  0
  150.2342  142.9822  156.5026 H   0  0  0  0  0  0  0  0  0  0  0  0
  151.5159  144.0734  161.0991 H   0  0  0  0  0  0  0  0  0  0  0  0
  152.6661  143.5263  163.2058 H   0  0  0  0  0  0  0  0  0  0  0  0
  154.8624  140.7466  163.6828 H   0  0  0  0  0  0  0  0  0  0  0  0
  156.1958  143.7622  166.6471 H   0  0  0  0  0  0  0  0  0  0  0  0
  155.0296  143.6443  168.6850 H   0  0  0  0  0  0  0  0  0  0  0  0
  153.8033  143.1249  167.5550 H   0  0  0  0  0  0  0  0  0  0  0  0
  154.2617  141.6478  169.7629 H   0  0  0  0  0  0  0  0  0  0  0  0
  154.0979  140.7887  168.2227 H   0  0  0  0  0  0  0  0  0  0  0  0
  157.6350  141.3975  166.8216 H   0  0  0  0  0  0  0  0  0  0  0  0
  157.7696  142.7022  168.0001 H   0  0  0  0  0  0  0  0  0  0  0  0
  154.9020  140.4861  161.0300 H   0  0  0  0  0  0  0  0  0  0  0  0
  153.7668  141.0983  159.1474 H   0  0  0  0  0  0  0  0  0  0  0  0
  1  2  1  0  0  0  0
  1 23  1  0  0  0  0
  1 24  1  0  0  0  0
  1 25  1  0  0  0  0
  2  3  1  0  0  0  0
  2 26  1  0  0  0  0
  2 27  1  0  0  0  0
  3  4  1  0  0  0  0
  3  6  1  0  0  0  0
  4  5  1  0  0  0  0
  4 28  1  0  0  0  0
  4 29  1  0  0  0  0
  5 30  1  0  0  0  0
  5 31  1  0  0  0  0
  5 32  1  0  0  0  0
  6 22  1  0  0  0  0
  6  7  2  0  0  0  0
  7  8  1  0  0  0  0
  7 33  1  0  0  0  0
  8  9  2  0  0  0  0
  8 34  1  0  0  0  0
  9 10  1  0  0  0  0
  9 21  1  0  0  0  0
 10 11  1  0  0  0  0
 10 35  1  0  0  0  0
 11 12  2  0  0  0  0
 11 13  1  0  0  0  0
 13 14  1  0  0  0  0
 14 20  1  0  0  0  0
 14 15  1  0  0  0  0
 14 36  1  0  0  0  0
 15 16  1  0  0  0  0
 15 37  1  0  0  0  0
 15 38  1  0  0  0  0
 16 17  1  0  0  0  0
 16 39  1  0  0  0  0
 16 40  1  0  0  0  0
 17 18  2  0  0  0  0
 17 19  2  0  0  0  0
 17 20  1  0  0  0  0
 20 41  1  0  0  0  0
 20 42  1  0  0  0  0
 21 22  2  0  0  0  0
 21 43  1  0  0  0  0
 22 44  1  0  0  0  0
M  CHG  1  13  -1
M  CHG  1  22   1
M  END
> <s_m_source_file>
AV-unprocessed.smi

> <i_m_source_file_index>
1754

> <i_lp_mmshare_version>
43012

> <i_f3d_flags>
0

> <s_epik_input>
W0NIM11bQ0gyXU4oW0NIMl1bQ0gzXSljMVtjSF1bY0hdYyhbY0hdbjEpW05IXUMoPU8pW05IXVtDQEBIXShbQ0gyXTIpW0NIMl1bQ0gyXVMyKD1PKT1P

> <s_epik_cmdline>
J2VwaWtfcHl0aG9uJywgJy1waCcsICc3LjAnLCAnLXRuJywgJzgnLCAnLW1hJywgJzIwMCcsICctbWV0YWxfYmluZGluZycsICctaW1hZScsICc8aW5maWxlLm1hZT4nLCAnLW9tYWUnLCAnPG91dGZpbGUubWFlPic=

> <r_lp_tautomer_probability>
0.999994

> <r_epik_Ionization_Penalty>
7.1175

> <r_epik_Ionization_Penalty_Charging>
7.11749

> <r_epik_Ionization_Penalty_Neutral>
3.13064e-06

> <r_epik_State_Penalty>
6.65299

> <r_epik_Charging_Adjusted_Penalty>
13.7705

> <i_epik_Tot_Q>
0

> <i_epik_Tot_abs_Q>
2

> <r_epik_Metal_State_Penalty>
2.60496

> <b_epik_Metal_Only>
1

> <s_lp_Force_Field>
OPLS_2005

> <r_lp_Energy>
22.4709

> <b_lp_Chiralities_Consistent>
1

> <s_lp_Variant>
AV-unprocessed.smi:1754-6

> <Gold.Version>
5.8.1

> <Gold.Id.Protein>
6NUR|6NUR_protein|mol2

> <Gold.PLP.Fitness>
44.0771

> <Gold.PLP.PLP>
-47.2339

> <Gold.PLP.part.hbond>
-2.0000

> <Gold.PLP.part.metal>
0.0000

> <Gold.PLP.part.buried>
-4.4072

> <Gold.PLP.part.nonpolar>
-39.8528

> <Gold.PLP.part.repulsive>
0.2423

> <Gold.PLP.ligand.clash>
0.0243

> <Gold.PLP.ligand.torsion>
1.6716

> <Gold.PLP.Chemscore.Hbond>
0.0000

> <Gold.PLP.Chemscore.CHOScore>
0.0000

> <Gold.PLP.Chemscore.Metal>
0.0000

> <Gold.PLP.Chemscore.Internal.Correction>
0.2107

> <Gold.Rescore>
     Score         DG    S(hbond)    S(metal)    S(lipo)     H(rot)  DE(clash)    DE(int)     intcor
      9.81     -13.61       0.00        0.00      99.81       1.39       0.64       3.15       ----

> <Gold.Chemscore.Fitness>
9.8094

> <Gold.Chemscore.DG>
-13.6052

> <Gold.Chemscore.ZeroCoef>
-5.4800

> <Gold.Chemscore.Hbond>
0.0000

> <Gold.Chemscore.Metal>
0.0000

> <Gold.Chemscore.Lipo>
99.8079

> <Gold.Chemscore.Internal_Hbond>
0.0000

> <Gold.Chemscore.DEClash>
0.6446

> <Gold.Chemscore.DEInternal>
3.1512

> <Gold.Chemscore.Rot>
1.3876

> <Gold.Chemscore.Internal.Correction>
   9.000000E+99

> <Gold.Chemscore.Hbond.Weighted>
-0.0000

> <Gold.Chemscore.Metal.Weighted>
-0.0000

> <Gold.Chemscore.Lipo.Weighted>
-11.6775

> <Gold.Chemscore.Internal_Hbond.Weighted>
0.0000

> <Gold.Chemscore.DEClash.Weighted>
0.6446

> <Gold.Chemscore.DEInternal.Weighted>
3.1512

> <Gold.Chemscore.Rot.Weighted>
3.5524

> <Gold.Chemscore.Internal.Correction.Weighted>
   9.000000E+99

> <Gold.Protein.RotatedTorsions>
[ 6907 6896 6895 6894 ] final  -32.71 input  -60.11 | X-H torsion
[ 7974 7965 7964 7962 ] final  -54.80 input  175.53 | X-H torsion
[ 8008 7997 7996 7995 ] final   82.28 input   59.86 | X-H torsion
[ 10167 10162 10161 10158 ] final   89.03 input  -65.29 | X-H torsion
[ 10718 10713 10712 10709 ] final  -69.38 input   66.30 | X-H torsion
[ 10763 10752 10751 10750 ] final -117.80 input  -60.55 | X-H torsion
[ 11005 11000 10999 10996 ] final -110.93 input  -57.11 | X-H torsion

> <Gold.Protein.ActiveResidues>
 VAL166  LYS551  ARG553  GLY616  TRP617  ASP618  TYR619  PRO620  LYS621  CYS622 
 ASP623  PHE694  ASN695  SER759  ASP760  ASP761  ALA762  ILE779  LEU786  VAL792 
 PHE793  MET794  SER795  GLU796  ALA797  LYS798  CYS799  TRP800  GLU811  SER814 

> <Gold.Protein.RotatedAtoms>
  151.0751  134.9823  159.8327 H   0  0  0  0  0  0  0  0  0  0  0  0  # atno 6907 bound_to 6896
  152.5413  134.2251  159.8813 H   0  0  0  0  0  0  0  0  0  0  0  0  # atno 6908 bound_to 6896
  151.2278  133.4423  159.2636 H   0  0  0  0  0  0  0  0  0  0  0  0  # atno 6909 bound_to 6896
  145.8815  140.8141  142.9837 H   0  0  0  0  0  0  0  0  0  0  0  0  # atno 7974 bound_to 7965
  155.9085  140.3429  155.6080 H   0  0  0  0  0  0  0  0  0  0  0  0  # atno 8008 bound_to 7997
  155.7416  140.0808  157.2262 H   0  0  0  0  0  0  0  0  0  0  0  0  # atno 8009 bound_to 7997
  154.4052  140.1569  156.2609 H   0  0  0  0  0  0  0  0  0  0  0  0  # atno 8010 bound_to 7997
  139.8613  144.6542  150.9055 H   0  0  0  0  0  0  0  0  0  0  0  0  # atno 10167 bound_to 10162
  156.0458  130.4311  150.2139 H   0  0  0  0  0  0  0  0  0  0  0  0  # atno 10718 bound_to 10713
  154.8567  135.4297  154.2037 H   0  0  0  0  0  0  0  0  0  0  0  0  # atno 10763 bound_to 10752
  153.3078  135.6973  153.7149 H   0  0  0  0  0  0  0  0  0  0  0  0  # atno 10764 bound_to 10752
  153.6254  135.3494  155.2998 H   0  0  0  0  0  0  0  0  0  0  0  0  # atno 10765 bound_to 10752
  141.0763  133.9295  157.2382 H   0  0  0  0  0  0  0  0  0  0  0  0  # atno 11005 bound_to 11000
  144.6727  140.1390  143.7438 LP  0  0  0  0  0  0  0  0  0  0  0  0  # atno 17320 bound_to 7965
  145.9018  139.2435  143.1489 LP  0  0  0  0  0  0  0  0  0  0  0  0  # atno 17321 bound_to 7965
  140.7774  143.3742  151.1594 LP  0  0  0  0  0  0  0  0  0  0  0  0  # atno 17342 bound_to 10162
  139.7371  143.8982  152.3038 LP  0  0  0  0  0  0  0  0  0  0  0  0  # atno 17343 bound_to 10162
  157.0229  130.9984  151.3334 LP  0  0  0  0  0  0  0  0  0  0  0  0  # atno 17370 bound_to 10713
  157.5332  130.8072  149.7941 LP  0  0  0  0  0  0  0  0  0  0  0  0  # atno 17371 bound_to 10713
  139.9576  135.0162  156.9171 LP  0  0  0  0  0  0  0  0  0  0  0  0  # atno 17394 bound_to 11000
  140.5565  134.0576  155.7385 LP  0  0  0  0  0  0  0  0  0  0  0  0  # atno 17395 bound_to 11000

$$$$
