AV-unprocessed.smi:597|AV-procd|sdf|3020|dock7
  -GOLD-   2262023533D 1   1.00000     0.00000
 Structure written by MMmdl.
 37 38  0  0  0  0  0  0  0  0  3 V2000
  150.0322  141.7366  158.4135 O   0  0  0  0  0  0  0  0  0  0  0  0
  150.6773  142.0978  157.4282 C   0  0  0  0  0  0  0  0  0  0  0  0
  150.2453  141.6955  156.0107 C   0  0  0  0  0  0  0  0  0  0  0  0
  150.5753  140.3004  155.6728 N   0  0  0  0  0  0  0  0  0  0  0  0
  151.6534  139.7126  156.3639 C   0  0  0  0  0  0  0  0  0  0  0  0
  152.0479  138.4454  156.1306 C   0  0  0  0  0  0  0  0  0  0  0  0
  153.1604  137.8598  156.8460 N   0  3  0  0  0  0  0  0  0  0  0  0
  153.7469  138.5407  157.6812 O   0  0  0  0  0  0  0  0  0  0  0  0
  153.4858  136.7027  156.5968 O   0  5  0  0  0  0  0  0  0  0  0  0
  151.3198  137.6858  155.1328 C   0  0  0  0  0  0  0  0  0  0  0  0
  150.2907  138.2438  154.4653 C   0  0  0  0  0  0  0  0  0  0  0  0
  149.8664  139.6249  154.7171 C   0  0  0  0  0  0  0  0  0  0  0  0
  148.9311  140.1424  154.1062 O   0  0  0  0  0  0  0  0  0  0  0  0
  151.7723  142.8687  157.5095 N   0  0  0  0  0  0  0  0  0  0  0  0
  152.3612  143.3717  158.7471 C   0  0  0  0  0  0  0  0  0  0  0  0
  152.5311  142.2325  159.7745 C   0  0  0  0  0  0  0  0  0  0  0  0
  153.0777  142.7578  161.1120 C   0  0  0  0  0  0  0  0  0  0  0  0
  152.1927  143.8808  161.6751 C   0  0  0  0  0  0  0  0  0  0  0  0
  152.0269  145.0192  160.6561 C   0  0  0  0  0  0  0  0  0  0  0  0
  151.4761  144.4949  159.3202 C   0  0  0  0  0  0  0  0  0  0  0  0
  149.1713  141.8651  155.9218 H   0  0  0  0  0  0  0  0  0  0  0  0
  150.7008  142.3766  155.2892 H   0  0  0  0  0  0  0  0  0  0  0  0
  152.1333  140.3629  157.0811 H   0  0  0  0  0  0  0  0  0  0  0  0
  151.5944  136.6645  154.9128 H   0  0  0  0  0  0  0  0  0  0  0  0
  149.7628  137.6603  153.7255 H   0  0  0  0  0  0  0  0  0  0  0  0
  152.2372  143.1226  156.6498 H   0  0  0  0  0  0  0  0  0  0  0  0
  153.3425  143.7954  158.5242 H   0  0  0  0  0  0  0  0  0  0  0  0
  151.5713  141.7424  159.9445 H   0  0  0  0  0  0  0  0  0  0  0  0
  153.2031  141.4675  159.3836 H   0  0  0  0  0  0  0  0  0  0  0  0
  153.1452  141.9415  161.8318 H   0  0  0  0  0  0  0  0  0  0  0  0
  154.0935  143.1293  160.9697 H   0  0  0  0  0  0  0  0  0  0  0  0
  151.2133  143.4782  161.9363 H   0  0  0  0  0  0  0  0  0  0  0  0
  152.6245  144.2678  162.5984 H   0  0  0  0  0  0  0  0  0  0  0  0
  151.3616  145.7838  161.0577 H   0  0  0  0  0  0  0  0  0  0  0  0
  152.9897  145.5037  160.4889 H   0  0  0  0  0  0  0  0  0  0  0  0
  151.4042  145.3166  158.6064 H   0  0  0  0  0  0  0  0  0  0  0  0
  150.4603  144.1260  159.4700 H   0  0  0  0  0  0  0  0  0  0  0  0
  1  2  2  0  0  0  0
  2  3  1  0  0  0  0
  2 14  1  0  0  0  0
  3  4  1  0  0  0  0
  3 21  1  0  0  0  0
  3 22  1  0  0  0  0
  4 12  1  0  0  0  0
  4  5  1  0  0  0  0
  5  6  2  0  0  0  0
  5 23  1  0  0  0  0
  6  7  1  0  0  0  0
  6 10  1  0  0  0  0
  7  8  2  0  0  0  0
  7  9  1  0  0  0  0
 10 11  2  0  0  0  0
 10 24  1  0  0  0  0
 11 12  1  0  0  0  0
 11 25  1  0  0  0  0
 12 13  2  0  0  0  0
 14 15  1  0  0  0  0
 14 26  1  0  0  0  0
 15 20  1  0  0  0  0
 15 16  1  0  0  0  0
 15 27  1  0  0  0  0
 16 17  1  0  0  0  0
 16 28  1  0  0  0  0
 16 29  1  0  0  0  0
 17 18  1  0  0  0  0
 17 30  1  0  0  0  0
 17 31  1  0  0  0  0
 18 19  1  0  0  0  0
 18 32  1  0  0  0  0
 18 33  1  0  0  0  0
 19 20  1  0  0  0  0
 19 34  1  0  0  0  0
 19 35  1  0  0  0  0
 20 36  1  0  0  0  0
 20 37  1  0  0  0  0
M  CHG  1   7   1
M  CHG  1   9  -1
M  END
> <s_m_source_file>
AV-unprocessed.smi

> <i_m_source_file_index>
597

> <i_lp_mmshare_version>
43012

> <i_f3d_flags>
0

> <s_epik_input>
W0NIMl0xW0NIMl1bQ0gyXVtDSDJdW0NIMl1bQ0hdMVtOSF1DKD1PKVtDSDJdbjJbY0hdYyhbTitdKD1PKVtPLV0pW2NIXVtjSF1jMj1P

> <s_epik_cmdline>
J2VwaWtfcHl0aG9uJywgJy1waCcsICc3LjAnLCAnLXRuJywgJzgnLCAnLW1hJywgJzIwMCcsICctbWV0YWxfYmluZGluZycsICctaW1hZScsICc8aW5maWxlLm1hZT4nLCAnLW9tYWUnLCAnPG91dGZpbGUubWFlPic=

> <r_lp_tautomer_probability>
1

> <r_epik_Ionization_Penalty>
1.91289e-08

> <r_epik_Ionization_Penalty_Charging>
8.20451e-11

> <r_epik_Ionization_Penalty_Neutral>
1.90469e-08

> <r_epik_State_Penalty>
-0

> <r_epik_Charging_Adjusted_Penalty>
8.20451e-11

> <i_epik_Tot_Q>
0

> <i_epik_Tot_abs_Q>
2

> <r_epik_Metal_State_Penalty>
-0

> <b_epik_Metal_Only>
0

> <s_lp_Force_Field>
OPLS_2005

> <r_lp_Energy>
19.9817

> <b_lp_Chiralities_Consistent>
1

> <s_lp_Variant>
AV-unprocessed.smi:597-1

> <Gold.Version>
5.8.1

> <Gold.Id.Protein>
6NUR|6NUR_protein|mol2

> <Gold.PLP.Fitness>
47.8756

> <Gold.PLP.PLP>
-44.0461

> <Gold.PLP.part.hbond>
-2.0000

> <Gold.PLP.part.metal>
0.0000

> <Gold.PLP.part.buried>
-4.0187

> <Gold.PLP.part.nonpolar>
-40.3477

> <Gold.PLP.part.repulsive>
1.4124

> <Gold.PLP.ligand.clash>
0.0000

> <Gold.PLP.ligand.torsion>
0.6957

> <Gold.PLP.Chemscore.Hbond>
1.7360

> <Gold.PLP.Chemscore.CHOScore>
0.0000

> <Gold.PLP.Chemscore.Metal>
0.0000

> <Gold.Chemscore.Hbonds>
donor molecule, donor type, donor heavy atom, donor atom, acceptor molecule, acceptor atom, score
      P1  H  7997  8008       L1     8  1.00
      P1  H 10752 10763       L1     9  0.83

> <Gold.PLP.Chemscore.Internal.Correction>
0.0129

> <Gold.Rescore>
     Score         DG    S(hbond)    S(metal)    S(lipo)     H(rot)  DE(clash)    DE(int)     intcor
     17.58     -19.40       1.89        0.00      99.15       1.56       0.10       1.72       ----

> <Gold.Chemscore.Fitness>
17.5765

> <Gold.Chemscore.DG>
-19.3997

> <Gold.Chemscore.ZeroCoef>
-5.4800

> <Gold.Chemscore.Hbond>
1.8936

> <Gold.Chemscore.Metal>
0.0000

> <Gold.Chemscore.Lipo>
99.1495

> <Gold.Chemscore.Internal_Hbond>
0.0000

> <Gold.Chemscore.DEClash>
0.1007

> <Gold.Chemscore.DEInternal>
1.7225

> <Gold.Chemscore.Rot>
1.5646

> <Gold.Chemscore.Internal.Correction>
   9.000000E+99

> <Gold.Chemscore.Hbonds>
donor molecule, donor type, donor heavy atom, donor atom, acceptor molecule, acceptor atom, score
      P1  H  7997  8008       L1     8  0.90
      P1  H 10752 10763       L1     9  0.81

> <Gold.Chemscore.Hbond.Weighted>
-6.3245

> <Gold.Chemscore.Metal.Weighted>
-0.0000

> <Gold.Chemscore.Lipo.Weighted>
-11.6005

> <Gold.Chemscore.Internal_Hbond.Weighted>
0.0000

> <Gold.Chemscore.DEClash.Weighted>
0.1007

> <Gold.Chemscore.DEInternal.Weighted>
1.7225

> <Gold.Chemscore.Rot.Weighted>
4.0053

> <Gold.Chemscore.Internal.Correction.Weighted>
   9.000000E+99

> <Gold.Protein.RotatedTorsions>
[ 6907 6896 6895 6894 ] final  -59.69 input  -60.11 | X-H torsion
[ 7974 7965 7964 7962 ] final  160.88 input  175.53 | X-H torsion
[ 8008 7997 7996 7995 ] final  -88.71 input   59.86 | X-H torsion
[ 10167 10162 10161 10158 ] final  131.97 input  -65.29 | X-H torsion
[ 10718 10713 10712 10709 ] final  -69.10 input   66.30 | X-H torsion
[ 10763 10752 10751 10750 ] final  131.68 input  -60.55 | X-H torsion
[ 11005 11000 10999 10996 ] final  -45.06 input  -57.11 | X-H torsion

> <Gold.Protein.ActiveResidues>
 VAL166  LYS551  ARG553  GLY616  TRP617  ASP618  TYR619  PRO620  LYS621  CYS622 
 ASP623  PHE694  ASN695  SER759  ASP760  ASP761  ALA762  ILE779  LEU786  VAL792 
 PHE793  MET794  SER795  GLU796  ALA797  LYS798  CYS799  TRP800  GLU811  SER814 

> <Gold.Protein.RotatedAtoms>
  150.7911  134.6935  159.6509 H   0  0  0  0  0  0  0  0  0  0  0  0  # atno 6907 bound_to 6896
  152.4017  134.6272  160.0076 H   0  0  0  0  0  0  0  0  0  0  0  0  # atno 6908 bound_to 6896
  151.6542  133.3283  159.3195 H   0  0  0  0  0  0  0  0  0  0  0  0  # atno 6909 bound_to 6896
  144.7714  139.7819  143.6295 H   0  0  0  0  0  0  0  0  0  0  0  0  # atno 7974 bound_to 7965
  154.6780  140.0550  157.0236 H   0  0  0  0  0  0  0  0  0  0  0  0  # atno 8008 bound_to 7997
  155.0993  140.3227  155.4533 H   0  0  0  0  0  0  0  0  0  0  0  0  # atno 8009 bound_to 7997
  156.2683  140.2034  156.6119 H   0  0  0  0  0  0  0  0  0  0  0  0  # atno 8010 bound_to 7997
  139.5360  144.6683  151.4784 H   0  0  0  0  0  0  0  0  0  0  0  0  # atno 10167 bound_to 10162
  156.0472  130.4306  150.2099 H   0  0  0  0  0  0  0  0  0  0  0  0  # atno 10718 bound_to 10713
  153.7783  135.3172  155.3362 H   0  0  0  0  0  0  0  0  0  0  0  0  # atno 10763 bound_to 10752
  154.8171  135.4629  154.0676 H   0  0  0  0  0  0  0  0  0  0  0  0  # atno 10764 bound_to 10752
  153.1957  135.6915  153.8380 H   0  0  0  0  0  0  0  0  0  0  0  0  # atno 10765 bound_to 10752
  141.0491  133.6750  156.2959 H   0  0  0  0  0  0  0  0  0  0  0  0  # atno 11005 bound_to 11000
  146.1863  139.5081  142.9834 LP  0  0  0  0  0  0  0  0  0  0  0  0  # atno 17320 bound_to 7965
  145.6312  141.0303  143.1862 LP  0  0  0  0  0  0  0  0  0  0  0  0  # atno 17321 bound_to 7965
  140.6566  143.8585  150.6842 LP  0  0  0  0  0  0  0  0  0  0  0  0  # atno 17342 bound_to 10162
  140.1967  143.3992  152.1823 LP  0  0  0  0  0  0  0  0  0  0  0  0  # atno 17343 bound_to 10162
  157.0187  130.9973  151.3346 LP  0  0  0  0  0  0  0  0  0  0  0  0  # atno 17370 bound_to 10713
  157.5360  130.8089  149.7972 LP  0  0  0  0  0  0  0  0  0  0  0  0  # atno 17371 bound_to 10713
  140.6090  134.5477  157.5530 LP  0  0  0  0  0  0  0  0  0  0  0  0  # atno 17394 bound_to 11000
  139.9335  134.7918  156.0865 LP  0  0  0  0  0  0  0  0  0  0  0  0  # atno 17395 bound_to 11000

$$$$
