AV-unprocessed.smi:1947|AV-procd|sdf|7866|dock5
  -GOLD-   2272010 13D 1   1.00000     0.00000
 Structure written by MMmdl.
 39 40  0  0  0  0  0  0  0  0  1 V2000
  148.7179  140.6834  154.3894 C   0  0  0  0  0  0  0  0  0  0  0  0
  150.0095  140.7320  155.2213 C   0  0  1  0  0  0  0  0  0  0  0  0
  149.7179  140.9375  156.7211 C   0  0  0  0  0  0  0  0  0  0  0  0
  151.0158  141.0180  157.5403 C   0  0  0  0  0  0  0  0  0  0  0  0
  151.8903  139.7738  157.3232 C   0  0  0  0  0  0  0  0  0  0  0  0
  152.1864  139.5519  155.8304 C   0  0  0  0  0  0  0  0  0  0  0  0
  150.8961  139.4875  154.9921 C   0  0  1  0  0  0  0  0  0  0  0  0
  150.1702  138.3252  155.3732 O   0  0  0  0  0  0  0  0  0  0  0  0
  150.8377  137.1040  155.0983 C   0  0  0  0  0  0  0  0  0  0  0  0
  150.2351  136.0016  155.9817 C   0  0  0  0  0  0  0  0  0  0  0  0
  149.7309  136.5391  157.2412 N   0  0  0  0  0  0  0  0  0  0  0  0
  149.2196  135.8102  158.2430 C   0  0  0  0  0  0  0  0  0  0  0  0
  149.1677  134.5806  158.2291 O   0  0  0  0  0  0  0  0  0  0  0  0
  148.7737  136.5964  159.2358 N   0  0  0  0  0  0  0  0  0  0  0  0
  148.1229  136.2046  160.4320 C   0  0  0  0  0  0  0  0  0  0  0  0
  147.7358  137.1645  161.2804 N   0  0  0  0  0  0  0  0  0  0  0  0
  147.1109  136.6430  162.4067 N   0  0  0  0  0  0  0  0  0  0  0  0
  147.0495  135.3088  162.3626 C   0  0  0  0  0  0  0  0  0  0  0  0
  147.7484  134.5550  160.9404 S   0  0  0  0  0  0  0  0  0  0  0  0
  148.0693  139.8666  154.7059 H   0  0  0  0  0  0  0  0  0  0  0  0
  148.9372  140.5424  153.3308 H   0  0  0  0  0  0  0  0  0  0  0  0
  148.1526  141.6103  154.4886 H   0  0  0  0  0  0  0  0  0  0  0  0
  150.5749  141.5993  154.8771 H   0  0  0  0  0  0  0  0  0  0  0  0
  149.1379  141.8493  156.8667 H   0  0  0  0  0  0  0  0  0  0  0  0
  149.1012  140.1188  157.0949 H   0  0  0  0  0  0  0  0  0  0  0  0
  151.5737  141.9109  157.2549 H   0  0  0  0  0  0  0  0  0  0  0  0
  150.7804  141.1262  158.5995 H   0  0  0  0  0  0  0  0  0  0  0  0
  152.8247  139.8756  157.8757 H   0  0  0  0  0  0  0  0  0  0  0  0
  151.3854  138.8974  157.7314 H   0  0  0  0  0  0  0  0  0  0  0  0
  152.8131  140.3661  155.4641 H   0  0  0  0  0  0  0  0  0  0  0  0
  152.7644  138.6369  155.6971 H   0  0  0  0  0  0  0  0  0  0  0  0
  151.1734  139.4488  153.9366 H   0  0  0  0  0  0  0  0  0  0  0  0
  150.7325  136.8423  154.0441 H   0  0  0  0  0  0  0  0  0  0  0  0
  151.9035  137.2121  155.3034 H   0  0  0  0  0  0  0  0  0  0  0  0
  149.4348  135.4846  155.4503 H   0  0  0  0  0  0  0  0  0  0  0  0
  150.9947  135.2529  156.2083 H   0  0  0  0  0  0  0  0  0  0  0  0
  149.7327  137.5441  157.3362 H   0  0  0  0  0  0  0  0  0  0  0  0
  148.8940  137.5911  159.1132 H   0  0  0  0  0  0  0  0  0  0  0  0
  146.5885  134.7646  163.1734 H   0  0  0  0  0  0  0  0  0  0  0  0
  1  2  1  0  0  0  0
  1 20  1  0  0  0  0
  1 21  1  0  0  0  0
  1 22  1  0  0  0  0
  2  7  1  0  0  0  0
  2  3  1  0  0  0  0
  2 23  1  0  0  0  0
  3  4  1  0  0  0  0
  3 24  1  0  0  0  0
  3 25  1  0  0  0  0
  4  5  1  0  0  0  0
  4 26  1  0  0  0  0
  4 27  1  0  0  0  0
  5  6  1  0  0  0  0
  5 28  1  0  0  0  0
  5 29  1  0  0  0  0
  6  7  1  0  0  0  0
  6 30  1  0  0  0  0
  6 31  1  0  0  0  0
  7  8  1  0  0  0  0
  7 32  1  0  0  0  0
  8  9  1  0  0  0  0
  9 10  1  0  0  0  0
  9 33  1  0  0  0  0
  9 34  1  0  0  0  0
 10 11  1  0  0  0  0
 10 35  1  0  0  0  0
 10 36  1  0  0  0  0
 11 12  1  0  0  0  0
 11 37  1  0  0  0  0
 12 13  2  0  0  0  0
 12 14  1  0  0  0  0
 14 15  1  0  0  0  0
 14 38  1  0  0  0  0
 15 19  1  0  0  0  0
 15 16  2  0  0  0  0
 16 17  1  0  0  0  0
 17 18  2  0  0  0  0
 18 19  1  0  0  0  0
 18 39  1  0  0  0  0
M  END
> <s_m_source_file>
AV-unprocessed.smi

> <i_m_source_file_index>
1947

> <i_lp_mmshare_version>
43012

> <i_f3d_flags>
0

> <s_epik_input>
W0NIM11bQ0BASF0xW0NIMl1bQ0gyXVtDSDJdW0NIMl1bQ0BIXTFPW0NIMl1bQ0gyXVtOSF1DKD1PKVtOSF1jMm5uW2NIXXMy

> <s_epik_cmdline>
J2VwaWtfcHl0aG9uJywgJy1waCcsICc3LjAnLCAnLXRuJywgJzgnLCAnLW1hJywgJzIwMCcsICctbWV0YWxfYmluZGluZycsICctaW1hZScsICc8aW5maWxlLm1hZT4nLCAnLW9tYWUnLCAnPG91dGZpbGUubWFlPic=

> <r_lp_tautomer_probability>
1

> <r_epik_Ionization_Penalty>
0.00220897

> <r_epik_Ionization_Penalty_Charging>
0

> <r_epik_Ionization_Penalty_Neutral>
0.00220897

> <r_epik_State_Penalty>
-0

> <r_epik_Charging_Adjusted_Penalty>
0

> <i_epik_Tot_Q>
0

> <i_epik_Tot_abs_Q>
0

> <r_epik_Metal_State_Penalty>
0.345002

> <b_epik_Metal_Only>
0

> <s_lp_Force_Field>
OPLS_2005

> <r_lp_Energy>
8.88806

> <b_lp_Chiralities_Consistent>
1

> <s_lp_Variant>
AV-unprocessed.smi:1947-2

> <Gold.Version>
5.8.1

> <Gold.Id.Protein>
6NUR|6NUR_protein|mol2

> <Gold.PLP.Fitness>
39.0841

> <Gold.PLP.PLP>
-31.2005

> <Gold.PLP.part.hbond>
-3.0000

> <Gold.PLP.part.metal>
0.0000

> <Gold.PLP.part.buried>
-3.1366

> <Gold.PLP.part.nonpolar>
-25.4413

> <Gold.PLP.part.repulsive>
0.3022

> <Gold.PLP.ligand.clash>
0.0000

> <Gold.PLP.ligand.torsion>
0.3070

> <Gold.PLP.Chemscore.Hbond>
2.8240

> <Gold.PLP.Chemscore.CHOScore>
0.0000

> <Gold.PLP.Chemscore.Metal>
0.0000

> <Gold.Chemscore.Hbonds>
donor molecule, donor type, donor heavy atom, donor atom, acceptor molecule, acceptor atom, score
      P1  H  6896  6909       L1    13  1.00
      P1  H  6931  6943       L1    16  0.99
      P1  H  6934  6947       L1    16  0.82

> <Gold.PLP.Chemscore.Internal.Correction>
0.0256

> <Gold.Rescore>
     Score         DG    S(hbond)    S(metal)    S(lipo)     H(rot)  DE(clash)    DE(int)     intcor
     14.62     -15.70       2.19        0.00      67.22       1.94       0.01       1.08       ----

> <Gold.Chemscore.Fitness>
14.6198

> <Gold.Chemscore.DG>
-15.7017

> <Gold.Chemscore.ZeroCoef>
-5.4800

> <Gold.Chemscore.Hbond>
2.1915

> <Gold.Chemscore.Metal>
0.0000

> <Gold.Chemscore.Lipo>
67.2203

> <Gold.Chemscore.Internal_Hbond>
0.0000

> <Gold.Chemscore.DEClash>
0.0061

> <Gold.Chemscore.DEInternal>
1.0758

> <Gold.Chemscore.Rot>
1.9385

> <Gold.Chemscore.Internal.Correction>
   9.000000E+99

> <Gold.Chemscore.Hbonds>
donor molecule, donor type, donor heavy atom, donor atom, acceptor molecule, acceptor atom, score
      P1  H  6896  6909       L1    13  0.51
      P1  H  6931  6943       L1    16  0.49
      P1  H  6934  6947       L1    16  0.66

> <Gold.Chemscore.Hbond.Weighted>
-7.3195

> <Gold.Chemscore.Metal.Weighted>
-0.0000

> <Gold.Chemscore.Lipo.Weighted>
-7.8648

> <Gold.Chemscore.Internal_Hbond.Weighted>
0.0000

> <Gold.Chemscore.DEClash.Weighted>
0.0061

> <Gold.Chemscore.DEInternal.Weighted>
1.0758

> <Gold.Chemscore.Rot.Weighted>
4.9625

> <Gold.Chemscore.Internal.Correction.Weighted>
   9.000000E+99

> <Gold.Protein.RotatedTorsions>
[ 6907 6896 6895 6894 ] final    8.65 input  -60.11 | X-H torsion
[ 7974 7965 7964 7962 ] final   84.21 input  175.53 | X-H torsion
[ 8008 7997 7996 7995 ] final   -8.26 input   59.86 | X-H torsion
[ 10167 10162 10161 10158 ] final   22.83 input  -65.29 | X-H torsion
[ 10718 10713 10712 10709 ] final  -34.38 input   66.30 | X-H torsion
[ 10763 10752 10751 10750 ] final -125.12 input  -60.55 | X-H torsion
[ 11005 11000 10999 10996 ] final  126.77 input  -57.11 | X-H torsion

> <Gold.Protein.ActiveResidues>
 VAL166  LYS551  ARG553  GLY616  TRP617  ASP618  TYR619  PRO620  LYS621  CYS622 
 ASP623  PHE694  ASN695  SER759  ASP760  ASP761  ALA762  ILE779  LEU786  VAL792 
 PHE793  MET794  SER795  GLU796  ALA797  LYS798  CYS799  TRP800  GLU811  SER814 

> <Gold.Protein.RotatedAtoms>
  151.7094  135.0915  160.0264 H   0  0  0  0  0  0  0  0  0  0  0  0  # atno 6907 bound_to 6896
  152.3671  133.6366  159.6067 H   0  0  0  0  0  0  0  0  0  0  0  0  # atno 6908 bound_to 6896
  150.7646  133.9247  159.3450 H   0  0  0  0  0  0  0  0  0  0  0  0  # atno 6909 bound_to 6896
  145.6017  139.2353  143.2242 H   0  0  0  0  0  0  0  0  0  0  0  0  # atno 7974 bound_to 7965
  154.5758  140.2386  155.8124 H   0  0  0  0  0  0  0  0  0  0  0  0  # atno 8008 bound_to 7997
  156.2142  140.3017  155.9759 H   0  0  0  0  0  0  0  0  0  0  0  0  # atno 8009 bound_to 7997
  155.2629  140.0415  157.2989 H   0  0  0  0  0  0  0  0  0  0  0  0  # atno 8010 bound_to 7997
  140.5317  143.9830  150.6469 H   0  0  0  0  0  0  0  0  0  0  0  0  # atno 10167 bound_to 10162
  156.3512  130.4308  149.7703 H   0  0  0  0  0  0  0  0  0  0  0  0  # atno 10718 bound_to 10713
  154.8732  135.4040  154.3216 H   0  0  0  0  0  0  0  0  0  0  0  0  # atno 10763 bound_to 10752
  153.4044  135.7019  153.6409 H   0  0  0  0  0  0  0  0  0  0  0  0  # atno 10764 bound_to 10752
  153.5138  135.3701  155.2570 H   0  0  0  0  0  0  0  0  0  0  0  0  # atno 10765 bound_to 10752
  139.9473  134.9627  156.8756 H   0  0  0  0  0  0  0  0  0  0  0  0  # atno 11005 bound_to 11000
  146.1571  140.6842  142.9295 LP  0  0  0  0  0  0  0  0  0  0  0  0  # atno 17320 bound_to 7965
  144.7307  140.4662  143.6940 LP  0  0  0  0  0  0  0  0  0  0  0  0  # atno 17321 bound_to 7965
  140.3206  143.3139  152.0787 LP  0  0  0  0  0  0  0  0  0  0  0  0  # atno 17342 bound_to 10162
  139.4956  144.6576  151.6538 LP  0  0  0  0  0  0  0  0  0  0  0  0  # atno 17343 bound_to 10162
  156.4902  130.8081  151.3091 LP  0  0  0  0  0  0  0  0  0  0  0  0  # atno 17370 bound_to 10713
  157.7461  130.9978  150.2828 LP  0  0  0  0  0  0  0  0  0  0  0  0  # atno 17371 bound_to 10713
  140.5804  134.0358  155.7462 LP  0  0  0  0  0  0  0  0  0  0  0  0  # atno 17394 bound_to 11000
  141.1127  133.9591  157.2880 LP  0  0  0  0  0  0  0  0  0  0  0  0  # atno 17395 bound_to 11000

$$$$
