AV-unprocessed.smi:334|AV-procd|sdf|2367|dock5
  -GOLD-   2262022283D 1   1.00000     0.00000
 Structure written by MMmdl.
 44 46  0  0  0  0  0  0  0  0  3 V2000
  154.5897  141.7960  160.0180 C   0  0  0  0  0  0  0  0  0  0  0  0
  153.3439  141.3004  159.2655 C   0  0  1  0  0  0  0  0  0  0  0  0
  153.1079  139.8936  159.5720 N   0  0  0  0  0  0  0  0  0  0  0  0
  152.9335  138.9048  158.6788 C   0  0  0  0  0  0  0  0  0  0  0  0
  153.0283  139.0766  157.4643 O   0  0  0  0  0  0  0  0  0  0  0  0
  152.5833  137.5047  159.2125 C   0  0  0  0  0  0  0  0  0  0  0  0
  151.3043  136.9579  158.7211 N   0  0  0  0  0  0  0  0  0  0  0  0
  150.1821  137.1040  159.5602 C   0  0  0  0  0  0  0  0  0  0  0  0
  148.9610  136.6574  159.2070 C   0  0  0  0  0  0  0  0  0  0  0  0
  147.8185  136.8225  160.0784 N   0  3  0  0  0  0  0  0  0  0  0  0
  146.6964  136.6392  159.6181 O   0  0  0  0  0  0  0  0  0  0  0  0
  148.0038  137.1409  161.2492 O   0  5  0  0  0  0  0  0  0  0  0  0
  148.8272  136.0089  157.9169 C   0  0  0  0  0  0  0  0  0  0  0  0
  149.8959  135.8684  157.1084 C   0  0  0  0  0  0  0  0  0  0  0  0
  151.2231  136.3584  157.4933 C   0  0  0  0  0  0  0  0  0  0  0  0
  152.2001  136.2469  156.7530 O   0  0  0  0  0  0  0  0  0  0  0  0
  152.0741  142.1052  159.6283 C   0  0  2  0  0  0  0  0  0  0  0  0
  150.8806  141.9059  158.6649 C   0  0  0  0  0  0  0  0  0  0  0  0
  150.4372  143.3490  158.3612 C   0  0  2  0  0  0  0  0  0  0  0  0
  151.4576  143.9960  157.4074 C   0  0  0  0  0  0  0  0  0  0  0  0
  152.6739  144.2285  158.3222 C   0  0  0  0  0  0  0  0  0  0  0  0
  152.2047  143.6478  159.6726 C   0  0  1  0  0  0  0  0  0  0  0  0
  150.7365  144.0633  159.6744 C   0  0  0  0  0  0  0  0  0  0  0  0
  154.8190  142.8310  159.7641 H   0  0  0  0  0  0  0  0  0  0  0  0
  155.4669  141.1999  159.7649 H   0  0  0  0  0  0  0  0  0  0  0  0
  154.4499  141.7405  161.0979 H   0  0  0  0  0  0  0  0  0  0  0  0
  153.5251  141.3865  158.1939 H   0  0  0  0  0  0  0  0  0  0  0  0
  153.0207  139.6590  160.5500 H   0  0  0  0  0  0  0  0  0  0  0  0
  153.4005  136.8256  158.9630 H   0  0  0  0  0  0  0  0  0  0  0  0
  152.5821  137.5515  160.3024 H   0  0  0  0  0  0  0  0  0  0  0  0
  150.3842  137.6061  160.4954 H   0  0  0  0  0  0  0  0  0  0  0  0
  147.8694  135.6326  157.5893 H   0  0  0  0  0  0  0  0  0  0  0  0
  149.7736  135.3830  156.1512 H   0  0  0  0  0  0  0  0  0  0  0  0
  151.7548  141.7801  160.6206 H   0  0  0  0  0  0  0  0  0  0  0  0
  151.1493  141.3682  157.7545 H   0  0  0  0  0  0  0  0  0  0  0  0
  150.0844  141.3436  159.1545 H   0  0  0  0  0  0  0  0  0  0  0  0
  149.4057  143.4266  158.0164 H   0  0  0  0  0  0  0  0  0  0  0  0
  151.6934  143.3560  156.5564 H   0  0  0  0  0  0  0  0  0  0  0  0
  151.0825  144.9439  157.0195 H   0  0  0  0  0  0  0  0  0  0  0  0
  153.5848  143.7688  157.9417 H   0  0  0  0  0  0  0  0  0  0  0  0
  152.8713  145.2969  158.4189 H   0  0  0  0  0  0  0  0  0  0  0  0
  152.7756  144.0140  160.5264 H   0  0  0  0  0  0  0  0  0  0  0  0
  150.5906  145.1438  159.6219 H   0  0  0  0  0  0  0  0  0  0  0  0
  150.1723  143.6678  160.5211 H   0  0  0  0  0  0  0  0  0  0  0  0
  1  2  1  0  0  0  0
  1 24  1  0  0  0  0
  1 25  1  0  0  0  0
  1 26  1  0  0  0  0
  2  3  1  0  0  0  0
  2 17  1  0  0  0  0
  2 27  1  0  0  0  0
  3  4  1  0  0  0  0
  3 28  1  0  0  0  0
  4  5  2  0  0  0  0
  4  6  1  0  0  0  0
  6  7  1  0  0  0  0
  6 29  1  0  0  0  0
  6 30  1  0  0  0  0
  7 15  1  0  0  0  0
  7  8  1  0  0  0  0
  8  9  2  0  0  0  0
  8 31  1  0  0  0  0
  9 10  1  0  0  0  0
  9 13  1  0  0  0  0
 10 11  2  0  0  0  0
 10 12  1  0  0  0  0
 13 14  2  0  0  0  0
 13 32  1  0  0  0  0
 14 15  1  0  0  0  0
 14 33  1  0  0  0  0
 15 16  2  0  0  0  0
 17 22  1  0  0  0  0
 17 18  1  0  0  0  0
 17 34  1  0  0  0  0
 18 19  1  0  0  0  0
 18 35  1  0  0  0  0
 18 36  1  0  0  0  0
 19 23  1  0  0  0  0
 19 20  1  0  0  0  0
 19 37  1  0  0  0  0
 20 21  1  0  0  0  0
 20 38  1  0  0  0  0
 20 39  1  0  0  0  0
 21 22  1  0  0  0  0
 21 40  1  0  0  0  0
 21 41  1  0  0  0  0
 22 23  1  0  0  0  0
 22 42  1  0  0  0  0
 23 43  1  0  0  0  0
 23 44  1  0  0  0  0
M  CHG  1  10   1
M  CHG  1  12  -1
M  END
> <s_m_source_file>
AV-unprocessed.smi

> <i_m_source_file_index>
334

> <i_lp_mmshare_version>
43012

> <i_f3d_flags>
0

> <s_epik_input>
W0NIMl0xW0NIMl1bQ0BIXShbQ0gyXTIpW0NAQEhdKFtDSDJdW0NAQEhdMTIpW0NASF0oW0NIM10pW05IXUMoPU8pW0NIMl1uM1tjSF1jKFtOK10oPU8pW08tXSlbY0hdW2NIXWMzPU8=

> <s_epik_cmdline>
J2VwaWtfcHl0aG9uJywgJy1waCcsICc3LjAnLCAnLXRuJywgJzgnLCAnLW1hJywgJzIwMCcsICctbWV0YWxfYmluZGluZycsICctaW1hZScsICc8aW5maWxlLm1hZT4nLCAnLW9tYWUnLCAnPG91dGZpbGUubWFlPic=

> <r_lp_tautomer_probability>
1

> <r_epik_Ionization_Penalty>
2.17081e-08

> <r_epik_Ionization_Penalty_Charging>
8.1195e-11

> <r_epik_Ionization_Penalty_Neutral>
2.16269e-08

> <r_epik_State_Penalty>
-0

> <r_epik_Charging_Adjusted_Penalty>
8.1195e-11

> <i_epik_Tot_Q>
0

> <i_epik_Tot_abs_Q>
2

> <r_epik_Metal_State_Penalty>
-0

> <b_epik_Metal_Only>
0

> <s_lp_Force_Field>
OPLS_2005

> <r_lp_Energy>
62.3621

> <b_lp_Chiralities_Consistent>
1

> <s_lp_Variant>
AV-unprocessed.smi:334-6

> <Gold.Version>
5.8.1

> <Gold.Id.Protein>
6NUR|6NUR_protein|mol2

> <Gold.PLP.Fitness>
49.0064

> <Gold.PLP.PLP>
-39.2314

> <Gold.PLP.part.hbond>
-4.0000

> <Gold.PLP.part.metal>
0.0000

> <Gold.PLP.part.buried>
-5.4096

> <Gold.PLP.part.nonpolar>
-29.6948

> <Gold.PLP.part.repulsive>
0.0997

> <Gold.PLP.ligand.clash>
0.0000

> <Gold.PLP.ligand.torsion>
0.6768

> <Gold.PLP.Chemscore.Hbond>
3.6960

> <Gold.PLP.Chemscore.CHOScore>
0.0000

> <Gold.PLP.Chemscore.Metal>
0.0000

> <Gold.Chemscore.Hbonds>
donor molecule, donor type, donor heavy atom, donor atom, acceptor molecule, acceptor atom, score
      P1  H  6931  6943       L1    12  1.00
      P1  H  6934  6947       L1    12  0.38
      P1  H  7997  8010       L1     5  1.00
      P1  H 10752 10765       L1    16  0.91

> <Gold.PLP.Chemscore.Internal.Correction>
0.0406

> <Gold.Rescore>
     Score         DG    S(hbond)    S(metal)    S(lipo)     H(rot)  DE(clash)    DE(int)     intcor
     24.56     -25.21       3.37        0.00     110.54       1.75       0.09       0.56       ----

> <Gold.Chemscore.Fitness>
24.5608

> <Gold.Chemscore.DG>
-25.2111

> <Gold.Chemscore.ZeroCoef>
-5.4800

> <Gold.Chemscore.Hbond>
3.3746

> <Gold.Chemscore.Metal>
0.0000

> <Gold.Chemscore.Lipo>
110.5395

> <Gold.Chemscore.Internal_Hbond>
0.0000

> <Gold.Chemscore.DEClash>
0.0865

> <Gold.Chemscore.DEInternal>
0.5638

> <Gold.Chemscore.Rot>
1.7474

> <Gold.Chemscore.Internal.Correction>
   9.000000E+99

> <Gold.Chemscore.Hbonds>
donor molecule, donor type, donor heavy atom, donor atom, acceptor molecule, acceptor atom, score
      P1  H  6931  6943       L1    12  0.97
      P1  H  6934  6947       L1    12  0.03
      P1  H  7997  8010       L1     5  0.98
      P1  H 10752 10765       L1    16  0.87

> <Gold.Chemscore.Hbond.Weighted>
-11.2713

> <Gold.Chemscore.Metal.Weighted>
-0.0000

> <Gold.Chemscore.Lipo.Weighted>
-12.9331

> <Gold.Chemscore.Internal_Hbond.Weighted>
0.0000

> <Gold.Chemscore.DEClash.Weighted>
0.0865

> <Gold.Chemscore.DEInternal.Weighted>
0.5638

> <Gold.Chemscore.Rot.Weighted>
4.4733

> <Gold.Chemscore.Internal.Correction.Weighted>
   9.000000E+99

> <Gold.Protein.RotatedTorsions>
[ 6907 6896 6895 6894 ] final  -54.09 input  -60.11 | X-H torsion
[ 7974 7965 7964 7962 ] final   73.11 input  175.53 | X-H torsion
[ 8008 7997 7996 7995 ] final   51.49 input   59.86 | X-H torsion
[ 10167 10162 10161 10158 ] final   77.67 input  -65.29 | X-H torsion
[ 10718 10713 10712 10709 ] final  139.98 input   66.30 | X-H torsion
[ 10763 10752 10751 10750 ] final -135.11 input  -60.55 | X-H torsion
[ 11005 11000 10999 10996 ] final  -49.54 input  -57.11 | X-H torsion

> <Gold.Protein.ActiveResidues>
 VAL166  LYS551  ARG553  GLY616  TRP617  ASP618  TYR619  PRO620  LYS621  CYS622 
 ASP623  PHE694  ASN695  SER759  ASP760  ASP761  ALA762  ILE779  LEU786  VAL792 
 PHE793  MET794  SER795  GLU796  ALA797  LYS798  CYS799  TRP800  GLU811  SER814 

> <Gold.Protein.RotatedAtoms>
  150.8369  134.7645  159.6899 H   0  0  0  0  0  0  0  0  0  0  0  0  # atno 6907 bound_to 6896
  152.4464  134.5483  159.9869 H   0  0  0  0  0  0  0  0  0  0  0  0  # atno 6908 bound_to 6896
  151.5631  133.3362  159.3011 H   0  0  0  0  0  0  0  0  0  0  0  0  # atno 6909 bound_to 6896
  145.7450  139.2736  143.1464 H   0  0  0  0  0  0  0  0  0  0  0  0  # atno 7974 bound_to 7965
  155.4361  140.3452  155.4285 H   0  0  0  0  0  0  0  0  0  0  0  0  # atno 8008 bound_to 7997
  156.1307  140.1513  156.9100 H   0  0  0  0  0  0  0  0  0  0  0  0  # atno 8009 bound_to 7997
  154.4892  140.0846  156.7536 H   0  0  0  0  0  0  0  0  0  0  0  0  # atno 8010 bound_to 7997
  139.9791  144.5839  150.7917 H   0  0  0  0  0  0  0  0  0  0  0  0  # atno 10167 bound_to 10162
  157.4084  131.1025  151.0479 H   0  0  0  0  0  0  0  0  0  0  0  0  # atno 10718 bound_to 10713
  154.8708  135.3713  154.4845 H   0  0  0  0  0  0  0  0  0  0  0  0  # atno 10763 bound_to 10752
  153.5496  135.7025  153.5602 H   0  0  0  0  0  0  0  0  0  0  0  0  # atno 10764 bound_to 10752
  153.3727  135.4017  155.1764 H   0  0  0  0  0  0  0  0  0  0  0  0  # atno 10765 bound_to 10752
  141.0765  133.6664  156.3601 H   0  0  0  0  0  0  0  0  0  0  0  0  # atno 11005 bound_to 11000
  146.0412  140.8163  142.9828 LP  0  0  0  0  0  0  0  0  0  0  0  0  # atno 17320 bound_to 7965
  144.6862  140.2912  143.7277 LP  0  0  0  0  0  0  0  0  0  0  0  0  # atno 17321 bound_to 7965
  140.7495  143.2940  151.3253 LP  0  0  0  0  0  0  0  0  0  0  0  0  # atno 17342 bound_to 10162
  139.6423  144.0516  152.2564 LP  0  0  0  0  0  0  0  0  0  0  0  0  # atno 17343 bound_to 10162
  157.1453  130.6160  149.5566 LP  0  0  0  0  0  0  0  0  0  0  0  0  # atno 17370 bound_to 10713
  155.9843  130.4867  150.6977 LP  0  0  0  0  0  0  0  0  0  0  0  0  # atno 17371 bound_to 10713
  140.5562  134.5979  157.5421 LP  0  0  0  0  0  0  0  0  0  0  0  0  # atno 17394 bound_to 11000
  139.9577  134.7505  156.0304 LP  0  0  0  0  0  0  0  0  0  0  0  0  # atno 17395 bound_to 11000

$$$$
