#       Name:                AV-unprocessed.smi:1355
#       Creating user name   scv26
#       Creation time:       Fri Mar 27 05:12:59 2020


#       File generated by GOLD software.
#

@<TRIPOS>MOLECULE
AV-unprocessed.smi:1355
    37    38     1
SMALL
NO_CHARGES


@<TRIPOS>ATOM
      1 ****        -2.3525   2.6267  -1.0656 C.3            1 S1                 0.0000
      2 ****        -1.9156   1.2904  -0.8936 O.3            1 S1                 0.0000
      3 ****        -2.1935   0.7885   0.4024 C.3            1 S1                 0.0000
      4 ****        -1.6558  -0.6428   0.5399 C.3            1 S1                 0.0000
      5 ****        -0.2108  -0.7111   0.3594 N.pl3          1 S1                 0.0000
      6 ****         0.5101  -0.9200  -0.7759 C.2            1 S1                 0.0000
      7 ****        -0.1117  -1.1205  -2.1321 C.3            1 S1                 0.0000
      8 ****         0.2691  -0.0043  -3.1161 C.3            1 S1                 0.0000
      9 ****         0.2574  -2.3606  -2.6981 O.3            1 S1                 0.0000
     10 ****         1.8352  -0.9603  -0.6151 N.2            1 S1                 0.0000
     11 ****         1.9903  -0.7299   0.7363 C.ar           1 S1                 0.0000
     12 ****         3.1605  -0.6401   1.5238 C.ar           1 S1                 0.0000
     13 ****         3.0711  -0.3905   2.9088 C.ar           1 S1                 0.0000
     14 ****         1.8131  -0.2286   3.5245 C.ar           1 S1                 0.0000
     15 ****         0.6352  -0.3173   2.7580 C.ar           1 S1                 0.0000
     16 ****         0.7298  -0.5661   1.3752 C.ar           1 S1                 0.0000
     17 ****        -2.1252   2.9587  -2.0782 H              1 S1                 0.0000
     18 ****        -1.8470   3.2980  -0.3705 H              1 S1                 0.0000
     19 ****        -3.4294   2.7132  -0.9163 H              1 S1                 0.0000
     20 ****        -1.7356   1.4291   1.1580 H              1 S1                 0.0000
     21 ****        -3.2700   0.7961   0.5792 H              1 S1                 0.0000
     22 ****        -1.8939  -1.0233   1.5335 H              1 S1                 0.0000
     23 ****        -2.1530  -1.3191  -0.1537 H              1 S1                 0.0000
     24 ****        -1.1959  -1.1295  -2.0529 H              1 S1                 0.0000
     25 ****        -0.0303   0.9734  -2.7390 H              1 S1                 0.0000
     26 ****        -0.2190  -0.1478  -4.0805 H              1 S1                 0.0000
     27 ****         1.3453   0.0253  -3.2906 H              1 S1                 0.0000
     28 ****         1.1973  -2.3711  -2.7967 H              1 S1                 0.0000
     29 ****         4.1284  -0.7623   1.0608 H              1 S1                 0.0000
     30 ****         3.9717  -0.3226   3.5013 H              1 S1                 0.0000
     31 ****         1.7529  -0.0366   4.5857 H              1 S1                 0.0000
     32 ****        -0.3290  -0.1939   3.2282 H              1 S1                 0.0000
     33 ****        -0.9279   1.2542  -1.0460 LP             1 S1                 0.0000
     34 ****        -2.3781   0.7131  -1.5666 LP             1 S1                 0.0000
     35 ****        -0.1782  -2.4682  -3.5918 LP             1 S1                 0.0000
     36 ****        -0.0284  -3.1062  -2.0961 LP             1 S1                 0.0000
     37 ****         2.5417  -1.1187  -1.3049 LP             1 S1                 0.0000
@<TRIPOS>BOND
    1    1    2 1     
    2    1   17 1     
    3    1   18 1     
    4    1   19 1     
    5    2    3 1     
    6    3    4 1     
    7    3   20 1     
    8    3   21 1     
    9    4    5 1     
   10    4   22 1     
   11    4   23 1     
   12    5   16 1     
   13    5    6 1     
   14    6    7 1     
   15    6   10 2     
   16    7    8 1     
   17    7    9 1     
   18    7   24 1     
   19    8   25 1     
   20    8   26 1     
   21    8   27 1     
   22    9   28 1     
   23   10   11 1     
   24   11   16 ar    
   25   11   12 ar    
   26   12   13 ar    
   27   12   29 1     
   28   13   14 ar    
   29   13   30 1     
   30   14   15 ar    
   31   14   31 1     
   32   15   16 ar    
   33   15   32 1     
   34    2   33 1     
   35    2   34 1     
   36    9   35 1     
   37    9   36 1     
   38   10   37 1     
@<TRIPOS>SUBSTRUCTURE
      1 S1             1
@<TRIPOS>SET
LONE_PAIRS      STATIC     ATOMS    <user>   **** ""
5 33 34 35 36 37
DONOR_HYDROGENS      STATIC     ATOMS    <user>   **** ""
1 28
ATOM$BLUE        STATIC     ATOMS    COLORGROUP SYSTEM
5 33 34 35 36 37
ATOM$RED        STATIC     ATOMS    COLORGROUP SYSTEM
1 28
