AV-unprocessed.smi:158|AV-procd|sdf|1326|dock6
  -GOLD-   2262019 23D 1   1.00000     0.00000
 Structure written by MMmdl.
 31 33  0  0  0  0  0  0  0  0  1 V2000
  145.5393  135.2755  150.3228 N   0  0  0  0  0  0  0  0  0  0  0  0
  145.4608  135.9117  151.4997 C   0  0  0  0  0  0  0  0  0  0  0  0
  144.7732  135.3233  152.5064 N   0  0  0  0  0  0  0  0  0  0  0  0
  144.6709  135.9249  153.6982 C   0  0  0  0  0  0  0  0  0  0  0  0
  143.7695  135.0850  154.9045 Cl  0  0  0  0  0  0  0  0  0  0  0  0
  145.1873  137.1051  154.0589 N   0  0  0  0  0  0  0  0  0  0  0  0
  145.8787  137.7003  153.0443 C   0  0  0  0  0  0  0  0  0  0  0  0
  146.0623  137.1710  151.7400 C   0  0  0  0  0  0  0  0  0  0  0  0
  146.8196  138.0486  150.9763 N   0  0  0  0  0  0  0  0  0  0  0  0
  147.0661  139.0405  151.7903 C   0  0  0  0  0  0  0  0  0  0  0  0
  146.5288  138.9143  153.0552 N   0  0  0  0  0  0  0  0  0  0  0  0
  146.6116  139.8448  154.2245 C   0  0  1  0  0  0  0  0  0  0  0  0
  147.1158  139.1248  155.3114 O   0  0  0  0  0  0  0  0  0  0  0  0
  148.4191  139.5812  155.6779 C   0  0  1  0  0  0  0  0  0  0  0  0
  149.3333  138.4110  156.0828 C   0  0  0  0  0  0  0  0  0  0  0  0
  149.5296  137.5483  154.9833 O   0  0  0  0  0  0  0  0  0  0  0  0
  148.9072  140.4277  154.4921 C   0  0  1  0  0  0  0  0  0  0  0  0
  149.6119  139.6729  153.5227 O   0  0  0  0  0  0  0  0  0  0  0  0
  147.6091  140.9678  153.9220 C   0  0  2  0  0  0  0  0  0  0  0  0
  147.2363  142.0615  154.5881 F   0  0  0  0  0  0  0  0  0  0  0  0
  145.5852  140.1775  154.3839 H   0  0  0  0  0  0  0  0  0  0  0  0
  148.2933  140.2574  156.5257 H   0  0  0  0  0  0  0  0  0  0  0  0
  149.5662  141.2316  154.8219 H   0  0  0  0  0  0  0  0  0  0  0  0
  147.6477  141.2253  152.8625 H   0  0  0  0  0  0  0  0  0  0  0  0
  146.0465  135.6960  149.5572 H   0  0  0  0  0  0  0  0  0  0  0  0
  145.0897  134.3796  150.2022 H   0  0  0  0  0  0  0  0  0  0  0  0
  147.6486  139.8952  151.4813 H   0  0  0  0  0  0  0  0  0  0  0  0
  150.2921  138.7615  156.4642 H   0  0  0  0  0  0  0  0  0  0  0  0
  148.8642  137.8240  156.8728 H   0  0  0  0  0  0  0  0  0  0  0  0
  150.4194  137.6447  154.6798 H   0  0  0  0  0  0  0  0  0  0  0  0
  149.5981  140.1451  152.7042 H   0  0  0  0  0  0  0  0  0  0  0  0
  1  2  1  0  0  0  0
  1 25  1  0  0  0  0
  1 26  1  0  0  0  0
  2  8  1  0  0  0  0
  2  3  2  0  0  0  0
  3  4  1  0  0  0  0
  4  5  1  0  0  0  0
  4  6  2  0  0  0  0
  6  7  1  0  0  0  0
  7 11  1  0  0  0  0
  7  8  2  0  0  0  0
  8  9  1  0  0  0  0
  9 10  2  0  0  0  0
 10 11  1  0  0  0  0
 10 27  1  0  0  0  0
 11 12  1  0  0  0  0
 12 21  1  0  0  0  0
 12 19  1  0  0  0  0
 12 13  1  0  0  0  0
 13 14  1  0  0  0  0
 14 22  1  0  0  0  0
 14 15  1  0  0  0  0
 14 17  1  0  0  0  0
 15 16  1  0  0  0  0
 15 28  1  0  0  0  0
 15 29  1  0  0  0  0
 16 30  1  0  0  0  0
 17 23  1  0  0  0  0
 17 18  1  0  0  0  0
 17 19  1  0  0  0  0
 18 31  1  0  0  0  0
 19 24  1  0  0  0  0
 19 20  1  0  0  0  0
M  END
> <s_m_source_file>
AV-unprocessed.smi

> <i_m_source_file_index>
158

> <i_lp_mmshare_version>
43012

> <i_f3d_flags>
0

> <s_epik_input>
Q2xjKG4xKW5jKFtOSDJdKWMoYzEyKW5bY0hdbjJbQ0BASF0zT1tDQEhdKFtDSDJdW09IXSlbQ0BASF0oW09IXSlbQ0BASF0zRg==

> <s_epik_cmdline>
J2VwaWtfcHl0aG9uJywgJy1waCcsICc3LjAnLCAnLXRuJywgJzgnLCAnLW1hJywgJzIwMCcsICctbWV0YWxfYmluZGluZycsICctaW1hZScsICc8aW5maWxlLm1hZT4nLCAnLW9tYWUnLCAnPG91dGZpbGUubWFlPic=

> <r_lp_tautomer_probability>
1

> <r_epik_Ionization_Penalty>
6.51543e-05

> <r_epik_Ionization_Penalty_Charging>
0

> <r_epik_Ionization_Penalty_Neutral>
6.51543e-05

> <r_epik_State_Penalty>
-0

> <r_epik_Charging_Adjusted_Penalty>
0

> <i_epik_Tot_Q>
0

> <i_epik_Tot_abs_Q>
0

> <r_epik_Metal_State_Penalty>
-0

> <b_epik_Metal_Only>
0

> <s_epik_Chemistry_Notes>
This compound contains an acetal/aminal-like group ( X-CH(R)-Y where X, Y are N, S, or O) that may be acid/base labile, releasing an aldehyde.

> <s_lp_Force_Field>
OPLS_2005

> <r_lp_Energy>
31.9678

> <b_lp_Chiralities_Consistent>
1

> <s_lp_Variant>
AV-unprocessed.smi:158-4

> <Gold.Version>
5.8.1

> <Gold.Id.Protein>
6NUR|6NUR_protein|mol2

> <Gold.PLP.Fitness>
33.5909

> <Gold.PLP.PLP>
-23.7378

> <Gold.PLP.part.hbond>
-2.8191

> <Gold.PLP.part.metal>
0.0000

> <Gold.PLP.part.buried>
-1.4674

> <Gold.PLP.part.nonpolar>
-22.8533

> <Gold.PLP.part.repulsive>
1.7293

> <Gold.PLP.ligand.clash>
0.0000

> <Gold.PLP.ligand.torsion>
0.1152

> <Gold.PLP.Chemscore.Hbond>
2.3569

> <Gold.PLP.Chemscore.CHOScore>
0.9997

> <Gold.PLP.Chemscore.Metal>
0.0000

> <Gold.Chemscore.Hbonds>
donor molecule, donor type, donor heavy atom, donor atom, acceptor molecule, acceptor atom, score
      L1  H     1    25       P1  7921  0.40
      L1  H    18    31       P1  7957  0.93
      P1  H  7954  7966       L1     9  1.00
      L1  C    10    27       P1  7957  0.79

> <Gold.PLP.Chemscore.Internal.Correction>
0.0136

> <Gold.Rescore>
     Score         DG    S(hbond)    S(metal)    S(lipo)     H(rot)  DE(clash)    DE(int)     intcor
      4.09      -6.32       1.76        0.00      25.28       3.12       1.50       0.72       ----

> <Gold.Chemscore.Fitness>
4.0921

> <Gold.Chemscore.DG>
-6.3169

> <Gold.Chemscore.ZeroCoef>
-5.4800

> <Gold.Chemscore.Hbond>
1.7588

> <Gold.Chemscore.Metal>
0.0000

> <Gold.Chemscore.Lipo>
25.2780

> <Gold.Chemscore.Internal_Hbond>
0.0000

> <Gold.Chemscore.DEClash>
1.5002

> <Gold.Chemscore.DEInternal>
0.7246

> <Gold.Chemscore.Rot>
3.1230

> <Gold.Chemscore.Internal.Correction>
   9.000000E+99

> <Gold.Chemscore.Hbonds>
donor molecule, donor type, donor heavy atom, donor atom, acceptor molecule, acceptor atom, score
      L1  H     1    25       P1  7921  0.36
      L1  H    18    31       P1  7957  0.85
      P1  H  7954  7966       L1     9  0.70

> <Gold.Chemscore.Hbond.Weighted>
-5.8744

> <Gold.Chemscore.Metal.Weighted>
-0.0000

> <Gold.Chemscore.Lipo.Weighted>
-2.9575

> <Gold.Chemscore.Internal_Hbond.Weighted>
0.0000

> <Gold.Chemscore.DEClash.Weighted>
1.5002

> <Gold.Chemscore.DEInternal.Weighted>
0.7246

> <Gold.Chemscore.Rot.Weighted>
7.9950

> <Gold.Chemscore.Internal.Correction.Weighted>
   9.000000E+99

> <Gold.Protein.RotatedTorsions>
[ 6907 6896 6895 6894 ] final  128.23 input  -60.11 | X-H torsion
[ 7974 7965 7964 7962 ] final    3.23 input  175.53 | X-H torsion
[ 8008 7997 7996 7995 ] final  -46.68 input   59.86 | X-H torsion
[ 10167 10162 10161 10158 ] final   13.24 input  -65.29 | X-H torsion
[ 10718 10713 10712 10709 ] final   67.83 input   66.30 | X-H torsion
[ 10763 10752 10751 10750 ] final  172.77 input  -60.55 | X-H torsion
[ 11005 11000 10999 10996 ] final  -41.32 input  -57.11 | X-H torsion

> <Gold.Protein.ActiveResidues>
 VAL166  LYS551  ARG553  GLY616  TRP617  ASP618  TYR619  PRO620  LYS621  CYS622 
 ASP623  PHE694  ASN695  SER759  ASP760  ASP761  ALA762  ILE779  LEU786  VAL792 
 PHE793  MET794  SER795  GLU796  ALA797  LYS798  CYS799  TRP800  GLU811  SER814 

> <Gold.Protein.RotatedAtoms>
  152.3738  133.6454  159.6107 H   0  0  0  0  0  0  0  0  0  0  0  0  # atno 6907 bound_to 6896
  150.7689  133.9226  159.3411 H   0  0  0  0  0  0  0  0  0  0  0  0  # atno 6908 bound_to 6896
  151.7044  135.0925  160.0308 H   0  0  0  0  0  0  0  0  0  0  0  0  # atno 6909 bound_to 6896
  146.2445  140.0717  142.8362 H   0  0  0  0  0  0  0  0  0  0  0  0  # atno 7974 bound_to 7965
  154.4009  140.1365  156.4051 H   0  0  0  0  0  0  0  0  0  0  0  0  # atno 8008 bound_to 7997
  155.7787  140.3482  155.5265 H   0  0  0  0  0  0  0  0  0  0  0  0  # atno 8009 bound_to 7997
  155.8695  140.0969  157.1550 H   0  0  0  0  0  0  0  0  0  0  0  0  # atno 8010 bound_to 7997
  140.6015  143.8594  150.6970 H   0  0  0  0  0  0  0  0  0  0  0  0  # atno 10167 bound_to 10162
  157.6253  130.9341  150.0295 H   0  0  0  0  0  0  0  0  0  0  0  0  # atno 10718 bound_to 10713
  154.4308  135.2760  155.1914 H   0  0  0  0  0  0  0  0  0  0  0  0  # atno 10763 bound_to 10752
  154.3820  135.6085  153.5800 H   0  0  0  0  0  0  0  0  0  0  0  0  # atno 10764 bound_to 10752
  152.9836  135.5883  154.4619 H   0  0  0  0  0  0  0  0  0  0  0  0  # atno 10765 bound_to 10752
  141.0237  133.6851  156.2441 H   0  0  0  0  0  0  0  0  0  0  0  0  # atno 11005 bound_to 11000
  145.0810  140.9221  143.4825 LP  0  0  0  0  0  0  0  0  0  0  0  0  # atno 17320 bound_to 7965
  145.0870  139.2918  143.5754 LP  0  0  0  0  0  0  0  0  0  0  0  0  # atno 17321 bound_to 7965
  140.2141  143.3860  152.1695 LP  0  0  0  0  0  0  0  0  0  0  0  0  # atno 17342 bound_to 10162
  139.5295  144.7142  151.5108 LP  0  0  0  0  0  0  0  0  0  0  0  0  # atno 17343 bound_to 10162
  156.1422  130.3642  149.9565 LP  0  0  0  0  0  0  0  0  0  0  0  0  # atno 17370 bound_to 10713
  156.7603  130.9148  151.3641 LP  0  0  0  0  0  0  0  0  0  0  0  0  # atno 17371 bound_to 10713
  140.6528  134.5049  157.5578 LP  0  0  0  0  0  0  0  0  0  0  0  0  # atno 17394 bound_to 11000
  139.9162  134.8241  156.1358 LP  0  0  0  0  0  0  0  0  0  0  0  0  # atno 17395 bound_to 11000

$$$$
