AV-unprocessed.smi:2548|AV-procd|sdf|10008|dock10
  -GOLD-   2272014 53D 1   1.00000     0.00000
 Structure written by MMmdl.
 44 45  0  0  0  0  0  0  0  0  1 V2000
  147.8562  139.3894  153.6357 C   0  0  0  0  0  0  0  0  0  0  0  0
  147.8738  140.2615  154.8563 C   0  0  0  0  0  0  0  0  0  0  0  0
  146.8390  141.1107  155.3469 C   0  0  0  0  0  0  0  0  0  0  0  0
  147.3669  141.6680  156.4781 C   0  0  0  0  0  0  0  0  0  0  0  0
  146.7963  142.6443  157.4595 C   0  0  0  0  0  0  0  0  0  0  0  0
  147.7425  142.9236  158.6333 C   0  0  0  0  0  0  0  0  0  0  0  0
  147.4048  142.6790  159.7926 O   0  0  0  0  0  0  0  0  0  0  0  0
  148.9430  143.4287  158.3082 N   0  0  0  0  0  0  0  0  0  0  0  0
  150.0082  143.7784  159.2484 C   0  0  0  0  0  0  0  0  0  0  0  0
  151.4466  143.5828  158.6779 C   0  0  0  0  0  0  0  0  0  0  0  0
  151.5609  144.3771  157.3550 C   0  0  0  0  0  0  0  0  0  0  0  0
  152.5100  144.1779  159.6462 C   0  0  0  0  0  0  0  0  0  0  0  0
  152.5476  143.6160  161.0829 C   0  0  0  0  0  0  0  0  0  0  0  0
  153.3947  142.3491  161.2893 C   0  0  0  0  0  0  0  0  0  0  0  0
  153.2635  141.2444  160.2277 C   0  0  0  0  0  0  0  0  0  0  0  0
  151.8922  141.1354  159.5426 C   0  0  0  0  0  0  0  0  0  0  0  0
  151.7476  142.0967  158.3474 C   0  0  0  0  0  0  0  0  0  0  0  0
  148.6374  141.1520  156.6016 N   0  0  0  0  0  0  0  0  0  0  0  0
  148.9574  140.2918  155.6175 N   0  0  0  0  0  0  0  0  0  0  0  0
  149.2854  141.3710  157.3449 H   0  0  0  0  0  0  0  0  0  0  0  0
  146.9154  139.4891  153.0940 H   0  0  0  0  0  0  0  0  0  0  0  0
  147.9757  138.3388  153.9020 H   0  0  0  0  0  0  0  0  0  0  0  0
  148.6625  139.6552  152.9514 H   0  0  0  0  0  0  0  0  0  0  0  0
  145.8563  141.2814  154.9327 H   0  0  0  0  0  0  0  0  0  0  0  0
  145.8506  142.2604  157.8443 H   0  0  0  0  0  0  0  0  0  0  0  0
  146.5708  143.5879  156.9615 H   0  0  0  0  0  0  0  0  0  0  0  0
  149.1354  143.5902  157.3302 H   0  0  0  0  0  0  0  0  0  0  0  0
  149.8646  144.8264  159.5137 H   0  0  0  0  0  0  0  0  0  0  0  0
  149.8616  143.2239  160.1739 H   0  0  0  0  0  0  0  0  0  0  0  0
  152.5765  144.3453  156.9583 H   0  0  0  0  0  0  0  0  0  0  0  0
  151.3014  145.4268  157.4960 H   0  0  0  0  0  0  0  0  0  0  0  0
  150.9054  143.9797  156.5794 H   0  0  0  0  0  0  0  0  0  0  0  0
  153.5057  144.0986  159.2073 H   0  0  0  0  0  0  0  0  0  0  0  0
  152.3213  145.2493  159.7276 H   0  0  0  0  0  0  0  0  0  0  0  0
  152.9629  144.3853  161.7348 H   0  0  0  0  0  0  0  0  0  0  0  0
  151.5453  143.4505  161.4708 H   0  0  0  0  0  0  0  0  0  0  0  0
  154.4466  142.6283  161.3614 H   0  0  0  0  0  0  0  0  0  0  0  0
  153.1395  141.9330  162.2646 H   0  0  0  0  0  0  0  0  0  0  0  0
  154.0355  141.3790  159.4693 H   0  0  0  0  0  0  0  0  0  0  0  0
  153.4985  140.2918  160.7041 H   0  0  0  0  0  0  0  0  0  0  0  0
  151.8014  140.1208  159.1532 H   0  0  0  0  0  0  0  0  0  0  0  0
  151.0783  141.2445  160.2592 H   0  0  0  0  0  0  0  0  0  0  0  0
  150.9691  141.7096  157.6908 H   0  0  0  0  0  0  0  0  0  0  0  0
  152.6567  142.0372  157.7474 H   0  0  0  0  0  0  0  0  0  0  0  0
  1 21  1  0  0  0  0
  1 22  1  0  0  0  0
  1 23  1  0  0  0  0
  1  2  1  0  0  0  0
  2 19  2  0  0  0  0
  2  3  1  0  0  0  0
  3  4  2  0  0  0  0
  3 24  1  0  0  0  0
  4 18  1  0  0  0  0
  4  5  1  0  0  0  0
  5  6  1  0  0  0  0
  5 25  1  0  0  0  0
  5 26  1  0  0  0  0
  6  7  2  0  0  0  0
  6  8  1  0  0  0  0
  8  9  1  0  0  0  0
  8 27  1  0  0  0  0
  9 10  1  0  0  0  0
  9 28  1  0  0  0  0
  9 29  1  0  0  0  0
 10 17  1  0  0  0  0
 10 11  1  0  0  0  0
 10 12  1  0  0  0  0
 11 30  1  0  0  0  0
 11 31  1  0  0  0  0
 11 32  1  0  0  0  0
 12 13  1  0  0  0  0
 12 33  1  0  0  0  0
 12 34  1  0  0  0  0
 13 14  1  0  0  0  0
 13 35  1  0  0  0  0
 13 36  1  0  0  0  0
 14 15  1  0  0  0  0
 14 37  1  0  0  0  0
 14 38  1  0  0  0  0
 15 16  1  0  0  0  0
 15 39  1  0  0  0  0
 15 40  1  0  0  0  0
 16 17  1  0  0  0  0
 16 41  1  0  0  0  0
 16 42  1  0  0  0  0
 17 43  1  0  0  0  0
 17 44  1  0  0  0  0
 18 19  1  0  0  0  0
 18 20  1  0  0  0  0
M  END
> <s_m_source_file>
AV-unprocessed.smi

> <i_m_source_file_index>
2548

> <i_lp_mmshare_version>
43012

> <i_f3d_flags>
0

> <s_epik_input>
W0NIM11jMVtjSF1jKG5bbkhdMSlbQ0gyXUMoPU8pW05IXVtDSDJdQzIoW0NIM10pW0NIMl1bQ0gyXVtDSDJdW0NIMl1bQ0gyXVtDSDJdMg==

> <s_epik_cmdline>
J2VwaWtfcHl0aG9uJywgJy1waCcsICc3LjAnLCAnLXRuJywgJzgnLCAnLW1hJywgJzIwMCcsICctbWV0YWxfYmluZGluZycsICctaW1hZScsICc8aW5maWxlLm1hZT4nLCAnLW9tYWUnLCAnPG91dGZpbGUubWFlPic=

> <r_lp_tautomer_probability>
0.5

> <r_epik_Ionization_Penalty>
0.000120089

> <r_epik_Ionization_Penalty_Charging>
0

> <r_epik_Ionization_Penalty_Neutral>
0.000120089

> <r_epik_State_Penalty>
0.41068

> <r_epik_Charging_Adjusted_Penalty>
0.41068

> <i_epik_Tot_Q>
0

> <i_epik_Tot_abs_Q>
0

> <r_epik_Metal_State_Penalty>
0.410662

> <b_epik_Metal_Only>
0

> <s_lp_Force_Field>
OPLS_2005

> <r_lp_Energy>
21.4694

> <b_lp_Chiralities_Consistent>
1

> <s_lp_Variant>
AV-unprocessed.smi:2548-2

> <Gold.Version>
5.8.1

> <Gold.Id.Protein>
6NUR|6NUR_protein|mol2

> <Gold.PLP.Fitness>
41.3786

> <Gold.PLP.PLP>
-35.1190

> <Gold.PLP.part.hbond>
-4.0000

> <Gold.PLP.part.metal>
0.0000

> <Gold.PLP.part.buried>
-1.3638

> <Gold.PLP.part.nonpolar>
-29.6709

> <Gold.PLP.part.repulsive>
0.2008

> <Gold.PLP.ligand.clash>
0.0000

> <Gold.PLP.ligand.torsion>
0.2270

> <Gold.PLP.Chemscore.Hbond>
2.2343

> <Gold.PLP.Chemscore.CHOScore>
0.0000

> <Gold.PLP.Chemscore.Metal>
0.0000

> <Gold.Chemscore.Hbonds>
donor molecule, donor type, donor heavy atom, donor atom, acceptor molecule, acceptor atom, score
      L1  H     8    27       P1  8028  0.96
      P1  H  6933  6944       L1     7  0.69
      P1  H  6934  6946       L1     7  0.56

> <Gold.PLP.Chemscore.Internal.Correction>
0.0107

> <Gold.Rescore>
     Score         DG    S(hbond)    S(metal)    S(lipo)     H(rot)  DE(clash)    DE(int)     intcor
     19.25     -19.68       1.59        0.00     109.96       1.55       0.03       0.40       ----

> <Gold.Chemscore.Fitness>
19.2503

> <Gold.Chemscore.DG>
-19.6771

> <Gold.Chemscore.ZeroCoef>
-5.4800

> <Gold.Chemscore.Hbond>
1.5858

> <Gold.Chemscore.Metal>
0.0000

> <Gold.Chemscore.Lipo>
109.9640

> <Gold.Chemscore.Internal_Hbond>
0.0000

> <Gold.Chemscore.DEClash>
0.0260

> <Gold.Chemscore.DEInternal>
0.4008

> <Gold.Chemscore.Rot>
1.5489

> <Gold.Chemscore.Internal.Correction>
   9.000000E+99

> <Gold.Chemscore.Hbonds>
donor molecule, donor type, donor heavy atom, donor atom, acceptor molecule, acceptor atom, score
      L1  H     8    27       P1  8028  0.39
      P1  H  6933  6944       L1     7  0.68
      P1  H  6934  6946       L1     7  0.55

> <Gold.Chemscore.Hbond.Weighted>
-5.2965

> <Gold.Chemscore.Metal.Weighted>
-0.0000

> <Gold.Chemscore.Lipo.Weighted>
-12.8658

> <Gold.Chemscore.Internal_Hbond.Weighted>
0.0000

> <Gold.Chemscore.DEClash.Weighted>
0.0260

> <Gold.Chemscore.DEInternal.Weighted>
0.4008

> <Gold.Chemscore.Rot.Weighted>
3.9652

> <Gold.Chemscore.Internal.Correction.Weighted>
   9.000000E+99

> <Gold.Protein.RotatedTorsions>
[ 6907 6896 6895 6894 ] final  154.41 input  -60.11 | X-H torsion
[ 7974 7965 7964 7962 ] final  -13.99 input  175.53 | X-H torsion
[ 8008 7997 7996 7995 ] final  156.24 input   59.86 | X-H torsion
[ 10167 10162 10161 10158 ] final   41.58 input  -65.29 | X-H torsion
[ 10718 10713 10712 10709 ] final   84.20 input   66.30 | X-H torsion
[ 10763 10752 10751 10750 ] final -176.51 input  -60.55 | X-H torsion
[ 11005 11000 10999 10996 ] final -152.39 input  -57.11 | X-H torsion

> <Gold.Protein.ActiveResidues>
 VAL166  LYS551  ARG553  GLY616  TRP617  ASP618  TYR619  PRO620  LYS621  CYS622 
 ASP623  PHE694  ASN695  SER759  ASP760  ASP761  ALA762  ILE779  LEU786  VAL792 
 PHE793  MET794  SER795  GLU796  ALA797  LYS798  CYS799  TRP800  GLU811  SER814 

> <Gold.Protein.RotatedAtoms>
  152.0589  133.4053  159.4408 H   0  0  0  0  0  0  0  0  0  0  0  0  # atno 6907 bound_to 6896
  150.6867  134.3223  159.4801 H   0  0  0  0  0  0  0  0  0  0  0  0  # atno 6908 bound_to 6896
  152.1042  134.9320  160.0619 H   0  0  0  0  0  0  0  0  0  0  0  0  # atno 6909 bound_to 6896
  146.2092  140.3283  142.8396 H   0  0  0  0  0  0  0  0  0  0  0  0  # atno 7974 bound_to 7965
  156.2433  140.1918  156.6925 H   0  0  0  0  0  0  0  0  0  0  0  0  # atno 8008 bound_to 7997
  154.6241  140.0604  156.9678 H   0  0  0  0  0  0  0  0  0  0  0  0  # atno 8009 bound_to 7997
  155.1815  140.3277  155.4377 H   0  0  0  0  0  0  0  0  0  0  0  0  # atno 8010 bound_to 7997
  140.3629  144.2205  150.6137 H   0  0  0  0  0  0  0  0  0  0  0  0  # atno 10167 bound_to 10162
  157.6893  131.0123  150.2636 H   0  0  0  0  0  0  0  0  0  0  0  0  # atno 10718 bound_to 10713
  154.5715  135.2828  155.0823 H   0  0  0  0  0  0  0  0  0  0  0  0  # atno 10763 bound_to 10752
  154.2194  135.6394  153.5143 H   0  0  0  0  0  0  0  0  0  0  0  0  # atno 10764 bound_to 10752
  153.0059  135.5510  154.6339 H   0  0  0  0  0  0  0  0  0  0  0  0  # atno 10765 bound_to 10752
  140.7193  134.3745  157.5186 H   0  0  0  0  0  0  0  0  0  0  0  0  # atno 11005 bound_to 11000
  144.8870  140.7475  143.5950 LP  0  0  0  0  0  0  0  0  0  0  0  0  # atno 17320 bound_to 7965
  145.3205  139.1790  143.4590 LP  0  0  0  0  0  0  0  0  0  0  0  0  # atno 17321 bound_to 7965
  140.5110  143.2291  151.8536 LP  0  0  0  0  0  0  0  0  0  0  0  0  # atno 17342 bound_to 10162
  139.4812  144.4950  151.9135 LP  0  0  0  0  0  0  0  0  0  0  0  0  # atno 17343 bound_to 10162
  156.3211  130.3786  149.7574 LP  0  0  0  0  0  0  0  0  0  0  0  0  # atno 17370 bound_to 10713
  156.5144  130.8186  151.3180 LP  0  0  0  0  0  0  0  0  0  0  0  0  # atno 17371 bound_to 10713
  139.8852  134.8944  156.2658 LP  0  0  0  0  0  0  0  0  0  0  0  0  # atno 17394 bound_to 11000
  141.0017  133.7147  156.0970 LP  0  0  0  0  0  0  0  0  0  0  0  0  # atno 17395 bound_to 11000

$$$$
