AV-unprocessed.smi:2786|AV-procd|sdf|10749|dock7
  -GOLD-   2272015183D 1   1.00000     0.00000
 Structure written by MMmdl.
 27 28  0  0  0  0  0  0  0  0  2 V2000
  152.0030  144.9402  159.0392 C   0  0  0  0  0  0  0  0  0  0  0  0
  152.2036  143.5564  159.4233 N   0  0  0  0  0  0  0  0  0  0  0  0
  153.1533  143.0929  160.3242 C   0  0  0  0  0  0  0  0  0  0  0  0
  153.0047  141.7288  160.3872 C   0  0  0  0  0  0  0  0  0  0  0  0
  151.9755  141.3382  159.5375 N   0  0  0  0  0  0  0  0  0  0  0  0
  151.5295  142.4701  158.9971 C   0  0  0  0  0  0  0  0  0  0  0  0
  150.4153  142.5377  157.9927 C   0  0  1  0  0  0  0  0  0  0  0  0
  150.8203  141.8734  156.6581 C   0  0  0  0  0  0  0  0  0  0  0  0
  149.7265  141.9899  155.6714 N   0  3  0  0  0  0  0  0  0  0  0  0
  148.4653  141.4365  156.2042 C   0  0  0  0  0  0  0  0  0  0  0  0
  148.1168  142.1168  157.5407 C   0  0  0  0  0  0  0  0  0  0  0  0
  149.1982  141.9006  158.4969 N   0  0  0  0  0  0  0  0  0  0  0  0
  152.7703  145.5705  159.4900 H   0  0  0  0  0  0  0  0  0  0  0  0
  151.0243  145.2791  159.3794 H   0  0  0  0  0  0  0  0  0  0  0  0
  152.0623  145.0367  157.9546 H   0  0  0  0  0  0  0  0  0  0  0  0
  153.8400  143.7541  160.8322 H   0  0  0  0  0  0  0  0  0  0  0  0
  153.5537  141.0050  160.9713 H   0  0  0  0  0  0  0  0  0  0  0  0
  150.1841  143.5885  157.8142 H   0  0  0  0  0  0  0  0  0  0  0  0
  151.7107  142.3524  156.2496 H   0  0  0  0  0  0  0  0  0  0  0  0
  151.0645  140.8202  156.8075 H   0  0  0  0  0  0  0  0  0  0  0  0
  149.5855  142.9672  155.4598 H   0  0  0  0  0  0  0  0  0  0  0  0
  147.6696  141.5976  155.4767 H   0  0  0  0  0  0  0  0  0  0  0  0
  148.5662  140.3580  156.3356 H   0  0  0  0  0  0  0  0  0  0  0  0
  147.9411  143.1852  157.4057 H   0  0  0  0  0  0  0  0  0  0  0  0
  147.1992  141.6909  157.9471 H   0  0  0  0  0  0  0  0  0  0  0  0
  149.3637  140.9061  158.5664 H   0  0  0  0  0  0  0  0  0  0  0  0
  149.9802  141.5006  154.8251 H   0  0  0  0  0  0  0  0  0  0  0  0
  1  2  1  0  0  0  0
  1 13  1  0  0  0  0
  1 14  1  0  0  0  0
  1 15  1  0  0  0  0
  2  6  1  0  0  0  0
  2  3  1  0  0  0  0
  3  4  2  0  0  0  0
  3 16  1  0  0  0  0
  4  5  1  0  0  0  0
  4 17  1  0  0  0  0
  5  6  2  0  0  0  0
  6  7  1  0  0  0  0
  7 12  1  0  0  0  0
  7  8  1  0  0  0  0
  7 18  1  0  0  0  0
  8  9  1  0  0  0  0
  8 19  1  0  0  0  0
  8 20  1  0  0  0  0
  9 10  1  0  0  0  0
  9 21  1  0  0  0  0
  9 27  1  0  0  0  0
 10 11  1  0  0  0  0
 10 22  1  0  0  0  0
 10 23  1  0  0  0  0
 11 12  1  0  0  0  0
 11 24  1  0  0  0  0
 11 25  1  0  0  0  0
 12 26  1  0  0  0  0
M  CHG  1   9   1
M  END
> <s_m_source_file>
AV-unprocessed.smi

> <i_m_source_file_index>
2786

> <i_lp_mmshare_version>
43012

> <i_f3d_flags>
0

> <s_epik_input>
W0NIM11uMVtjSF1bY0hdbmMxW0NAQEhdMltDSDJdW05IXVtDSDJdW0NIMl1bTkhdMg==

> <s_epik_cmdline>
J2VwaWtfcHl0aG9uJywgJy1waCcsICc3LjAnLCAnLXRuJywgJzgnLCAnLW1hJywgJzIwMCcsICctbWV0YWxfYmluZGluZycsICctaW1hZScsICc8aW5maWxlLm1hZT4nLCAnLW9tYWUnLCAnPG91dGZpbGUubWFlPic=

> <r_lp_tautomer_probability>
1

> <r_epik_Ionization_Penalty>
0.130484

> <r_epik_Ionization_Penalty_Charging>
0.130409

> <r_epik_Ionization_Penalty_Neutral>
7.57914e-05

> <r_epik_State_Penalty>
0.270147

> <r_epik_Charging_Adjusted_Penalty>
0.400555

> <i_epik_Tot_Q>
1

> <i_epik_Tot_abs_Q>
1

> <r_epik_Metal_State_Penalty>
0.136376

> <b_epik_Metal_Only>
0

> <s_lp_Force_Field>
OPLS_2005

> <r_lp_Energy>
9.37099

> <b_lp_Chiralities_Consistent>
1

> <s_lp_Variant>
AV-unprocessed.smi:2786-2

> <Gold.Version>
5.8.1

> <Gold.Id.Protein>
6NUR|6NUR_protein|mol2

> <Gold.PLP.Fitness>
33.3975

> <Gold.PLP.PLP>
-27.5512

> <Gold.PLP.part.hbond>
-1.0000

> <Gold.PLP.part.metal>
0.0000

> <Gold.PLP.part.buried>
-4.3610

> <Gold.PLP.part.nonpolar>
-22.5105

> <Gold.PLP.part.repulsive>
0.1623

> <Gold.PLP.ligand.clash>
0.0000

> <Gold.PLP.ligand.torsion>
0.0806

> <Gold.PLP.Chemscore.Hbond>
2.0000

> <Gold.PLP.Chemscore.CHOScore>
0.0000

> <Gold.PLP.Chemscore.Metal>
0.0000

> <Gold.Chemscore.Hbonds>
donor molecule, donor type, donor heavy atom, donor atom, acceptor molecule, acceptor atom, score
      L1  H     9    21       P1  8028  2.00

> <Gold.PLP.Chemscore.Internal.Correction>
0.0076

> <Gold.Rescore>
     Score         DG    S(hbond)    S(metal)    S(lipo)     H(rot)  DE(clash)    DE(int)     intcor
     13.29     -13.35       0.99        0.00      61.00       1.00       0.03       0.03       ----

> <Gold.Chemscore.Fitness>
13.2914

> <Gold.Chemscore.DG>
-13.3530

> <Gold.Chemscore.ZeroCoef>
-5.4800

> <Gold.Chemscore.Hbond>
0.9869

> <Gold.Chemscore.Metal>
0.0000

> <Gold.Chemscore.Lipo>
60.9986

> <Gold.Chemscore.Internal_Hbond>
0.0000

> <Gold.Chemscore.DEClash>
0.0338

> <Gold.Chemscore.DEInternal>
0.0278

> <Gold.Chemscore.Rot>
1.0000

> <Gold.Chemscore.Internal.Correction>
   9.000000E+99

> <Gold.Chemscore.Hbonds>
donor molecule, donor type, donor heavy atom, donor atom, acceptor molecule, acceptor atom, score
      L1  H     9    21       P1  8028  0.99

> <Gold.Chemscore.Hbond.Weighted>
-3.2962

> <Gold.Chemscore.Metal.Weighted>
-0.0000

> <Gold.Chemscore.Lipo.Weighted>
-7.1368

> <Gold.Chemscore.Internal_Hbond.Weighted>
0.0000

> <Gold.Chemscore.DEClash.Weighted>
0.0338

> <Gold.Chemscore.DEInternal.Weighted>
0.0278

> <Gold.Chemscore.Rot.Weighted>
2.5600

> <Gold.Chemscore.Internal.Correction.Weighted>
   9.000000E+99

> <Gold.Protein.RotatedTorsions>
[ 6907 6896 6895 6894 ] final  168.71 input  -60.11 | X-H torsion
[ 7974 7965 7964 7962 ] final  129.40 input  175.53 | X-H torsion
[ 8008 7997 7996 7995 ] final -168.33 input   59.86 | X-H torsion
[ 10167 10162 10161 10158 ] final  -99.42 input  -65.29 | X-H torsion
[ 10718 10713 10712 10709 ] final  -42.13 input   66.30 | X-H torsion
[ 10763 10752 10751 10750 ] final   59.37 input  -60.55 | X-H torsion
[ 11005 11000 10999 10996 ] final  -60.63 input  -57.11 | X-H torsion

> <Gold.Protein.ActiveResidues>
 VAL166  LYS551  ARG553  GLY616  TRP617  ASP618  TYR619  PRO620  LYS621  CYS622 
 ASP623  PHE694  ASN695  SER759  ASP760  ASP761  ALA762  ILE779  LEU786  VAL792 
 PHE793  MET794  SER795  GLU796  ALA797  LYS798  CYS799  TRP800  GLU811  SER814 

> <Gold.Protein.RotatedAtoms>
  151.8434  133.3427  159.3650 H   0  0  0  0  0  0  0  0  0  0  0  0  # atno 6907 bound_to 6896
  150.7228  134.5369  159.5737 H   0  0  0  0  0  0  0  0  0  0  0  0  # atno 6908 bound_to 6896
  152.2847  134.7789  160.0441 H   0  0  0  0  0  0  0  0  0  0  0  0  # atno 6909 bound_to 6896
  145.0291  139.4062  143.5159 H   0  0  0  0  0  0  0  0  0  0  0  0  # atno 7974 bound_to 7965
  155.8900  140.1023  157.1425 H   0  0  0  0  0  0  0  0  0  0  0  0  # atno 8008 bound_to 7997
  154.4014  140.1312  156.4367 H   0  0  0  0  0  0  0  0  0  0  0  0  # atno 8009 bound_to 7997
  155.7545  140.3464  155.5169 H   0  0  0  0  0  0  0  0  0  0  0  0  # atno 8010 bound_to 7997
  140.2626  143.3397  152.0611 H   0  0  0  0  0  0  0  0  0  0  0  0  # atno 10167 bound_to 10162
  156.2629  130.4199  149.8522 H   0  0  0  0  0  0  0  0  0  0  0  0  # atno 10718 bound_to 10713
  152.9893  135.5574  154.5702 H   0  0  0  0  0  0  0  0  0  0  0  0  # atno 10763 bound_to 10752
  154.5104  135.2802  155.1350 H   0  0  0  0  0  0  0  0  0  0  0  0  # atno 10764 bound_to 10752
  154.2744  135.6357  153.5375 H   0  0  0  0  0  0  0  0  0  0  0  0  # atno 10765 bound_to 10752
  141.1294  133.6623  156.5252 H   0  0  0  0  0  0  0  0  0  0  0  0  # atno 11005 bound_to 11000
  146.3496  139.9831  142.8693 LP  0  0  0  0  0  0  0  0  0  0  0  0  # atno 17320 bound_to 7965
  145.1794  140.9760  143.4275 LP  0  0  0  0  0  0  0  0  0  0  0  0  # atno 17321 bound_to 7965
  139.5012  144.6708  151.6246 LP  0  0  0  0  0  0  0  0  0  0  0  0  # atno 17342 bound_to 10162
  140.5953  143.9706  150.6351 LP  0  0  0  0  0  0  0  0  0  0  0  0  # atno 17343 bound_to 10162
  156.6031  130.8555  151.3436 LP  0  0  0  0  0  0  0  0  0  0  0  0  # atno 17370 bound_to 10713
  157.7257  130.9619  150.1625 LP  0  0  0  0  0  0  0  0  0  0  0  0  # atno 17371 bound_to 10713
  140.4260  134.7145  157.4916 LP  0  0  0  0  0  0  0  0  0  0  0  0  # atno 17394 bound_to 11000
  140.0327  134.6383  155.9085 LP  0  0  0  0  0  0  0  0  0  0  0  0  # atno 17395 bound_to 11000

$$$$
