AV-unprocessed.smi:3308|AV-procd|sdf|12711|dock2
  -GOLD-   2272019 43D 1   1.00000     0.00000
 Structure written by MMmdl.
 41 42  0  0  0  0  0  0  0  0  2 V2000
  148.1147  142.2800  154.8259 C   0  0  0  0  0  0  0  0  0  0  0  0
  149.2688  141.2983  154.5426 C   0  0  1  0  0  0  0  0  0  0  0  0
  150.3090  141.3859  155.5948 N   0  3  0  0  0  0  0  0  0  0  0  0
  149.8781  141.0030  156.9571 C   0  0  0  0  0  0  0  0  0  0  0  0
  150.8997  140.0948  157.6559 C   0  0  0  0  0  0  0  0  0  0  0  0
  150.8989  138.8847  157.4248 O   0  0  0  0  0  0  0  0  0  0  0  0
  151.7735  140.6612  158.5137 N   0  0  0  0  0  0  0  0  0  0  0  0
  152.7953  139.9096  159.2402 C   0  0  0  0  0  0  0  0  0  0  0  0
  153.7092  140.9586  159.8740 C   0  0  0  0  0  0  0  0  0  0  0  0
  152.8231  142.1886  160.0149 C   0  0  0  0  0  0  0  0  0  0  0  0
  151.8453  142.0846  158.8439 C   0  0  0  0  0  0  0  0  0  0  0  0
  148.7650  139.8402  154.3772 C   0  0  1  0  0  0  0  0  0  0  0  0
  147.5883  139.7160  153.3908 C   0  0  0  0  0  0  0  0  0  0  0  0
  149.8347  138.8960  154.0668 N   0  0  0  0  0  0  0  0  0  0  0  0
  149.7436  137.7050  153.3749 C   0  0  0  0  0  0  0  0  0  0  0  0
  150.9916  137.1523  153.3429 C   0  0  0  0  0  0  0  0  0  0  0  0
  151.7937  138.0870  154.0542 C   0  0  0  0  0  0  0  0  0  0  0  0
  151.0990  139.1252  154.4901 N   0  0  0  0  0  0  0  0  0  0  0  0
  147.3207  142.1707  154.0865 H   0  0  0  0  0  0  0  0  0  0  0  0
  148.4465  143.3171  154.7839 H   0  0  0  0  0  0  0  0  0  0  0  0
  147.6757  142.1132  155.8101 H   0  0  0  0  0  0  0  0  0  0  0  0
  149.7313  141.5859  153.5972 H   0  0  0  0  0  0  0  0  0  0  0  0
  151.0982  140.8165  155.3229 H   0  0  0  0  0  0  0  0  0  0  0  0
  149.7327  141.9058  157.5516 H   0  0  0  0  0  0  0  0  0  0  0  0
  148.9241  140.4788  156.9060 H   0  0  0  0  0  0  0  0  0  0  0  0
  152.3119  139.3074  160.0108 H   0  0  0  0  0  0  0  0  0  0  0  0
  153.3560  139.2385  158.5875 H   0  0  0  0  0  0  0  0  0  0  0  0
  154.1336  140.6316  160.8237 H   0  0  0  0  0  0  0  0  0  0  0  0
  154.5361  141.1798  159.1977 H   0  0  0  0  0  0  0  0  0  0  0  0
  152.2735  142.1348  160.9557 H   0  0  0  0  0  0  0  0  0  0  0  0
  153.3894  143.1205  160.0121 H   0  0  0  0  0  0  0  0  0  0  0  0
  152.2265  142.6324  157.9808 H   0  0  0  0  0  0  0  0  0  0  0  0
  150.8732  142.5007  159.1114 H   0  0  0  0  0  0  0  0  0  0  0  0
  148.3707  139.5372  155.3486 H   0  0  0  0  0  0  0  0  0  0  0  0
  146.7602  140.3603  153.6870 H   0  0  0  0  0  0  0  0  0  0  0  0
  147.2115  138.6930  153.3616 H   0  0  0  0  0  0  0  0  0  0  0  0
  147.8732  139.9903  152.3748 H   0  0  0  0  0  0  0  0  0  0  0  0
  148.8078  137.3520  152.9670 H   0  0  0  0  0  0  0  0  0  0  0  0
  151.2871  136.2214  152.8816 H   0  0  0  0  0  0  0  0  0  0  0  0
  152.8515  138.0411  154.2676 H   0  0  0  0  0  0  0  0  0  0  0  0
  150.6196  142.3461  155.6396 H   0  0  0  0  0  0  0  0  0  0  0  0
  1  2  1  0  0  0  0
  1 19  1  0  0  0  0
  1 20  1  0  0  0  0
  1 21  1  0  0  0  0
  2  3  1  0  0  0  0
  2 12  1  0  0  0  0
  2 22  1  0  0  0  0
  3  4  1  0  0  0  0
  3 23  1  0  0  0  0
  3 41  1  0  0  0  0
  4  5  1  0  0  0  0
  4 24  1  0  0  0  0
  4 25  1  0  0  0  0
  5  6  2  0  0  0  0
  5  7  1  0  0  0  0
  7 11  1  0  0  0  0
  7  8  1  0  0  0  0
  8  9  1  0  0  0  0
  8 26  1  0  0  0  0
  8 27  1  0  0  0  0
  9 10  1  0  0  0  0
  9 28  1  0  0  0  0
  9 29  1  0  0  0  0
 10 11  1  0  0  0  0
 10 30  1  0  0  0  0
 10 31  1  0  0  0  0
 11 32  1  0  0  0  0
 11 33  1  0  0  0  0
 12 13  1  0  0  0  0
 12 14  1  0  0  0  0
 12 34  1  0  0  0  0
 13 35  1  0  0  0  0
 13 36  1  0  0  0  0
 13 37  1  0  0  0  0
 14 18  1  0  0  0  0
 14 15  1  0  0  0  0
 15 16  2  0  0  0  0
 15 38  1  0  0  0  0
 16 17  1  0  0  0  0
 16 39  1  0  0  0  0
 17 18  2  0  0  0  0
 17 40  1  0  0  0  0
M  CHG  1   3   1
M  END
> <s_m_source_file>
AV-unprocessed.smi

> <i_m_source_file_index>
3308

> <i_lp_mmshare_version>
43012

> <i_f3d_flags>
0

> <s_epik_input>
bjFbY0hdW2NIXVtjSF1uMVtDQEBIXShbQ0gzXSlbQ0BIXShbQ0gzXSlbTkhdW0NIMl1DKD1PKU4yW0NIMl1bQ0gyXVtDSDJdW0NIMl0y

> <s_epik_cmdline>
J2VwaWtfcHl0aG9uJywgJy1waCcsICc3LjAnLCAnLXRuJywgJzgnLCAnLW1hJywgJzIwMCcsICctbWV0YWxfYmluZGluZycsICctaW1hZScsICc8aW5maWxlLm1hZT4nLCAnLW9tYWUnLCAnPG91dGZpbGUubWFlPic=

> <r_lp_tautomer_probability>
1

> <r_epik_Ionization_Penalty>
0.141739

> <r_epik_Ionization_Penalty_Charging>
0.141731

> <r_epik_Ionization_Penalty_Neutral>
8.82171e-06

> <r_epik_State_Penalty>
0.131043

> <r_epik_Charging_Adjusted_Penalty>
0.272773

> <i_epik_Tot_Q>
1

> <i_epik_Tot_abs_Q>
1

> <r_epik_Metal_State_Penalty>
0.131385

> <b_epik_Metal_Only>
0

> <s_lp_Force_Field>
OPLS_2005

> <r_lp_Energy>
32.7398

> <b_lp_Chiralities_Consistent>
1

> <s_lp_Variant>
AV-unprocessed.smi:3308-4

> <Gold.Version>
5.8.1

> <Gold.Id.Protein>
6NUR|6NUR_protein|mol2

> <Gold.PLP.Fitness>
50.2824

> <Gold.PLP.PLP>
-41.6613

> <Gold.PLP.part.hbond>
-2.0000

> <Gold.PLP.part.metal>
0.0000

> <Gold.PLP.part.buried>
-2.5278

> <Gold.PLP.part.nonpolar>
-38.0044

> <Gold.PLP.part.repulsive>
0.2231

> <Gold.PLP.ligand.clash>
0.0000

> <Gold.PLP.ligand.torsion>
1.3762

> <Gold.PLP.Chemscore.Hbond>
2.7080

> <Gold.PLP.Chemscore.CHOScore>
1.0000

> <Gold.PLP.Chemscore.Metal>
0.0000

> <Gold.Chemscore.Hbonds>
donor molecule, donor type, donor heavy atom, donor atom, acceptor molecule, acceptor atom, score
      P1  H  7989  7998       L1    18  0.91

> <Gold.PLP.Chemscore.Internal.Correction>
0.2494

> <Gold.Rescore>
     Score         DG    S(hbond)    S(metal)    S(lipo)     H(rot)  DE(clash)    DE(int)     intcor
     13.12     -15.66       0.94        0.00      99.13       1.78       0.21       2.33       ----

> <Gold.Chemscore.Fitness>
13.1228

> <Gold.Chemscore.DG>
-15.6645

> <Gold.Chemscore.ZeroCoef>
-5.4800

> <Gold.Chemscore.Hbond>
0.9438

> <Gold.Chemscore.Metal>
0.0000

> <Gold.Chemscore.Lipo>
99.1289

> <Gold.Chemscore.Internal_Hbond>
0.0000

> <Gold.Chemscore.DEClash>
0.2068

> <Gold.Chemscore.DEInternal>
2.3349

> <Gold.Chemscore.Rot>
1.7836

> <Gold.Chemscore.Internal.Correction>
   9.000000E+99

> <Gold.Chemscore.Hbonds>
donor molecule, donor type, donor heavy atom, donor atom, acceptor molecule, acceptor atom, score
      P1  H  7989  7998       L1    18  0.31

> <Gold.Chemscore.Hbond.Weighted>
-3.1524

> <Gold.Chemscore.Metal.Weighted>
-0.0000

> <Gold.Chemscore.Lipo.Weighted>
-11.5981

> <Gold.Chemscore.Internal_Hbond.Weighted>
0.0000

> <Gold.Chemscore.DEClash.Weighted>
0.2068

> <Gold.Chemscore.DEInternal.Weighted>
2.3349

> <Gold.Chemscore.Rot.Weighted>
4.5660

> <Gold.Chemscore.Internal.Correction.Weighted>
   9.000000E+99

> <Gold.Protein.RotatedTorsions>
[ 6907 6896 6895 6894 ] final  160.85 input  -60.11 | X-H torsion
[ 7974 7965 7964 7962 ] final   68.23 input  175.53 | X-H torsion
[ 8008 7997 7996 7995 ] final -162.96 input   59.86 | X-H torsion
[ 10167 10162 10161 10158 ] final -159.26 input  -65.29 | X-H torsion
[ 10718 10713 10712 10709 ] final   -9.59 input   66.30 | X-H torsion
[ 10763 10752 10751 10750 ] final  -46.91 input  -60.55 | X-H torsion
[ 11005 11000 10999 10996 ] final -117.77 input  -57.11 | X-H torsion

> <Gold.Protein.ActiveResidues>
 VAL166  LYS551  ARG553  GLY616  TRP617  ASP618  TYR619  PRO620  LYS621  CYS622 
 ASP623  PHE694  ASN695  SER759  ASP760  ASP761  ALA762  ILE779  LEU786  VAL792 
 PHE793  MET794  SER795  GLU796  ALA797  LYS798  CYS799  TRP800  GLU811  SER814 

> <Gold.Protein.RotatedAtoms>
  151.9645  133.3706  159.4047 H   0  0  0  0  0  0  0  0  0  0  0  0  # atno 6907 bound_to 6896
  150.6959  134.4205  159.5212 H   0  0  0  0  0  0  0  0  0  0  0  0  # atno 6908 bound_to 6896
  152.1899  134.8681  160.0569 H   0  0  0  0  0  0  0  0  0  0  0  0  # atno 6909 bound_to 6896
  145.8051  139.3002  143.1132 H   0  0  0  0  0  0  0  0  0  0  0  0  # atno 7974 bound_to 7965
  155.8144  140.0910  157.1885 H   0  0  0  0  0  0  0  0  0  0  0  0  # atno 8008 bound_to 7997
  154.3979  140.1448  156.3485 H   0  0  0  0  0  0  0  0  0  0  0  0  # atno 8009 bound_to 7997
  155.8332  140.3442  155.5587 H   0  0  0  0  0  0  0  0  0  0  0  0  # atno 8010 bound_to 7997
  139.6629  143.9881  152.2236 H   0  0  0  0  0  0  0  0  0  0  0  0  # atno 10167 bound_to 10162
  156.6857  130.5050  149.5958 H   0  0  0  0  0  0  0  0  0  0  0  0  # atno 10718 bound_to 10713
  154.0527  135.6629  153.4802 H   0  0  0  0  0  0  0  0  0  0  0  0  # atno 10763 bound_to 10752
  153.0457  135.5116  154.7735 H   0  0  0  0  0  0  0  0  0  0  0  0  # atno 10764 bound_to 10752
  154.6747  135.3035  154.9661 H   0  0  0  0  0  0  0  0  0  0  0  0  # atno 10765 bound_to 10752
  141.0332  133.9949  157.3111 H   0  0  0  0  0  0  0  0  0  0  0  0  # atno 11005 bound_to 11000
  145.9837  140.8661  143.0101 LP  0  0  0  0  0  0  0  0  0  0  0  0  # atno 17320 bound_to 7965
  144.6764  140.2116  143.7376 LP  0  0  0  0  0  0  0  0  0  0  0  0  # atno 17321 bound_to 7965
  139.9625  144.6548  150.8066 LP  0  0  0  0  0  0  0  0  0  0  0  0  # atno 17342 bound_to 10162
  140.7587  143.3113  151.2837 LP  0  0  0  0  0  0  0  0  0  0  0  0  # atno 17343 bound_to 10162
  156.1834  130.6513  151.0978 LP  0  0  0  0  0  0  0  0  0  0  0  0  # atno 17370 bound_to 10713
  157.7027  131.0769  150.6768 LP  0  0  0  0  0  0  0  0  0  0  0  0  # atno 17371 bound_to 10713
  139.9222  135.0201  156.8107 LP  0  0  0  0  0  0  0  0  0  0  0  0  # atno 17394 bound_to 11000
  140.6369  133.9854  155.7688 LP  0  0  0  0  0  0  0  0  0  0  0  0  # atno 17395 bound_to 11000

$$$$
