AV-unprocessed.smi:1389|AV-procd|sdf|5654|dock4
  -GOLD-   22720 5273D 1   1.00000     0.00000
 Structure written by MMmdl.
 52 54  0  0  0  0  0  0  0  0  4 V2000
  156.1999  133.2447  160.4786 C   0  0  0  0  0  0  0  0  0  0  0  0
  154.9228  134.0997  160.6513 C   0  0  2  0  0  0  0  0  0  0  0  0
  155.0124  135.4903  159.9386 C   0  0  0  0  0  0  0  0  0  0  0  0
  153.7508  136.2225  160.0647 N   0  5  0  0  0  0  0  0  0  0  0  0
  153.6446  137.5185  160.4623 C   0  0  0  0  0  0  0  0  0  0  0  0
  153.8268  137.9790  161.5955 O   0  0  0  0  0  0  0  0  0  0  0  0
  153.3100  138.3327  159.4470 N   0  0  0  0  0  0  0  0  0  0  0  0
  153.2009  139.7507  159.4536 C   0  0  0  0  0  0  0  0  0  0  0  0
  153.7278  140.5162  160.5242 C   0  0  0  0  0  0  0  0  0  0  0  0
  153.5446  141.9115  160.5463 C   0  0  0  0  0  0  0  0  0  0  0  0
  152.8198  142.5182  159.5061 C   0  0  0  0  0  0  0  0  0  0  0  0
  152.3173  141.7599  158.5097 N   0  3  0  0  0  0  0  0  0  0  0  0
  152.4735  140.4147  158.4243 C   0  0  0  0  0  0  0  0  0  0  0  0
  151.8991  139.7518  157.3157 N   0  0  0  0  0  0  0  0  0  0  0  0
  150.9842  140.4556  156.4250 C   0  0  0  0  0  0  0  0  0  0  0  0
  150.8612  139.5592  155.1957 C   0  0  0  0  0  0  0  0  0  0  0  0
  152.2611  138.9627  155.0832 C   0  0  0  0  0  0  0  0  0  0  0  0
  152.7144  138.8215  156.5401 C   0  0  0  0  0  0  0  0  0  0  0  0
  154.5197  134.1297  162.0988 N   0  3  0  0  0  0  0  0  0  0  0  0
  154.6430  132.8685  162.8823 C   0  0  0  0  0  0  0  0  0  0  0  0
  153.9416  133.0269  164.2412 C   0  0  0  0  0  0  0  0  0  0  0  0
  154.4953  134.1354  164.9408 O   0  0  0  0  0  0  0  0  0  0  0  0
  154.3090  135.3595  164.2397 C   0  0  0  0  0  0  0  0  0  0  0  0
  155.0214  135.2922  162.8791 C   0  0  0  0  0  0  0  0  0  0  0  0
  156.4102  133.0284  159.4294 H   0  0  0  0  0  0  0  0  0  0  0  0
  156.0871  132.2816  160.9772 H   0  0  0  0  0  0  0  0  0  0  0  0
  157.0873  133.7227  160.8963 H   0  0  0  0  0  0  0  0  0  0  0  0
  154.1297  133.5361  160.1572 H   0  0  0  0  0  0  0  0  0  0  0  0
  155.8430  136.0575  160.3596 H   0  0  0  0  0  0  0  0  0  0  0  0
  155.2794  135.3360  158.8931 H   0  0  0  0  0  0  0  0  0  0  0  0
  153.2691  137.8940  158.5385 H   0  0  0  0  0  0  0  0  0  0  0  0
  154.2535  140.0461  161.3418 H   0  0  0  0  0  0  0  0  0  0  0  0
  153.9435  142.5038  161.3567 H   0  0  0  0  0  0  0  0  0  0  0  0
  152.6230  143.5784  159.4430 H   0  0  0  0  0  0  0  0  0  0  0  0
  150.0175  140.6262  156.9002 H   0  0  0  0  0  0  0  0  0  0  0  0
  151.4018  141.4208  156.1350 H   0  0  0  0  0  0  0  0  0  0  0  0
  150.1337  138.7676  155.3817 H   0  0  0  0  0  0  0  0  0  0  0  0
  150.5534  140.1020  154.3016 H   0  0  0  0  0  0  0  0  0  0  0  0
  152.2801  138.0173  154.5404 H   0  0  0  0  0  0  0  0  0  0  0  0
  152.9156  139.6624  154.5617 H   0  0  0  0  0  0  0  0  0  0  0  0
  153.7819  139.0215  156.6446 H   0  0  0  0  0  0  0  0  0  0  0  0
  152.5232  137.8075  156.8936 H   0  0  0  0  0  0  0  0  0  0  0  0
  154.1978  132.0342  162.3413 H   0  0  0  0  0  0  0  0  0  0  0  0
  155.6924  132.6215  163.0492 H   0  0  0  0  0  0  0  0  0  0  0  0
  152.8667  133.1629  164.1116 H   0  0  0  0  0  0  0  0  0  0  0  0
  154.0783  132.1271  164.8411 H   0  0  0  0  0  0  0  0  0  0  0  0
  153.2441  135.5607  164.1125 H   0  0  0  0  0  0  0  0  0  0  0  0
  154.7173  136.1751  164.8368 H   0  0  0  0  0  0  0  0  0  0  0  0
  156.0976  135.2101  163.0352 H   0  0  0  0  0  0  0  0  0  0  0  0
  154.8464  136.2177  162.3296 H   0  0  0  0  0  0  0  0  0  0  0  0
  153.5241  134.2910  162.0497 H   0  0  0  0  0  0  0  0  0  0  0  0
  151.7939  142.2287  157.7704 H   0  0  0  0  0  0  0  0  0  0  0  0
  1  2  1  0  0  0  0
  1 25  1  0  0  0  0
  1 26  1  0  0  0  0
  1 27  1  0  0  0  0
  2  3  1  0  0  0  0
  2 19  1  0  0  0  0
  2 28  1  0  0  0  0
  3  4  1  0  0  0  0
  3 29  1  0  0  0  0
  3 30  1  0  0  0  0
  4  5  1  0  0  0  0
  5  6  2  0  0  0  0
  5  7  1  0  0  0  0
  7  8  1  0  0  0  0
  7 31  1  0  0  0  0
  8 13  1  0  0  0  0
  8  9  2  0  0  0  0
  9 10  1  0  0  0  0
  9 32  1  0  0  0  0
 10 11  2  0  0  0  0
 10 33  1  0  0  0  0
 11 12  1  0  0  0  0
 11 34  1  0  0  0  0
 12 13  2  0  0  0  0
 12 52  1  0  0  0  0
 13 14  1  0  0  0  0
 14 18  1  0  0  0  0
 14 15  1  0  0  0  0
 15 16  1  0  0  0  0
 15 35  1  0  0  0  0
 15 36  1  0  0  0  0
 16 17  1  0  0  0  0
 16 37  1  0  0  0  0
 16 38  1  0  0  0  0
 17 18  1  0  0  0  0
 17 39  1  0  0  0  0
 17 40  1  0  0  0  0
 18 41  1  0  0  0  0
 18 42  1  0  0  0  0
 19 24  1  0  0  0  0
 19 20  1  0  0  0  0
 19 51  1  0  0  0  0
 20 21  1  0  0  0  0
 20 43  1  0  0  0  0
 20 44  1  0  0  0  0
 21 22  1  0  0  0  0
 21 45  1  0  0  0  0
 21 46  1  0  0  0  0
 22 23  1  0  0  0  0
 23 24  1  0  0  0  0
 23 47  1  0  0  0  0
 23 48  1  0  0  0  0
 24 49  1  0  0  0  0
 24 50  1  0  0  0  0
M  CHG  1   4  -1
M  CHG  1  12   1
M  CHG  1  19   1
M  END
> <s_m_source_file>
AV-unprocessed.smi

> <i_m_source_file_index>
1389

> <i_lp_mmshare_version>
43012

> <i_f3d_flags>
0

> <s_epik_input>
W0NIMl0xW0NIMl1PW0NIMl1bQ0gyXU4xW0NASF0oW0NIM10pW0NIMl1bTkhdQyg9TylbTkhdYzJbY0hdW2NIXVtjSF1uYzJOM1tDSDJdW0NIMl1bQ0gyXVtDSDJdMw==

> <s_epik_cmdline>
J2VwaWtfcHl0aG9uJywgJy1waCcsICc3LjAnLCAnLXRuJywgJzgnLCAnLW1hJywgJzIwMCcsICctbWV0YWxfYmluZGluZycsICctaW1hZScsICc8aW5maWxlLm1hZT4nLCAnLW9tYWUnLCAnPG91dGZpbGUubWFlPic=

> <r_lp_tautomer_probability>
0.999994

> <r_epik_Ionization_Penalty>
8.58362

> <r_epik_Ionization_Penalty_Charging>
8.58361

> <r_epik_Ionization_Penalty_Neutral>
3.55275e-06

> <r_epik_State_Penalty>
8.57766

> <r_epik_Charging_Adjusted_Penalty>
17.1613

> <i_epik_Tot_Q>
1

> <i_epik_Tot_abs_Q>
3

> <r_epik_Metal_State_Penalty>
4.57399

> <b_epik_Metal_Only>
1

> <s_lp_Force_Field>
OPLS_2005

> <r_lp_Energy>
52.6414

> <b_lp_Chiralities_Consistent>
1

> <s_lp_Variant>
AV-unprocessed.smi:1389-9

> <Gold.Version>
5.8.1

> <Gold.Id.Protein>
6NUR|6NUR_protein|mol2

> <Gold.PLP.Fitness>
41.0246

> <Gold.PLP.PLP>
-37.2062

> <Gold.PLP.part.hbond>
-1.0000

> <Gold.PLP.part.metal>
0.0000

> <Gold.PLP.part.buried>
-4.1492

> <Gold.PLP.part.nonpolar>
-32.7684

> <Gold.PLP.part.repulsive>
0.3288

> <Gold.PLP.ligand.clash>
0.0000

> <Gold.PLP.ligand.torsion>
1.4837

> <Gold.PLP.Chemscore.Hbond>
2.0000

> <Gold.PLP.Chemscore.CHOScore>
0.0000

> <Gold.PLP.Chemscore.Metal>
0.0000

> <Gold.Chemscore.Hbonds>
donor molecule, donor type, donor heavy atom, donor atom, acceptor molecule, acceptor atom, score
      P1  H  6896  6908       L1     4  2.00

> <Gold.PLP.Chemscore.Internal.Correction>
0.7858

> <Gold.Rescore>
     Score         DG    S(hbond)    S(metal)    S(lipo)     H(rot)  DE(clash)    DE(int)     intcor
     11.92     -14.97       0.88        0.00      91.76       1.63       0.00       3.04       ----

> <Gold.Chemscore.Fitness>
11.9243

> <Gold.Chemscore.DG>
-14.9719

> <Gold.Chemscore.ZeroCoef>
-5.4800

> <Gold.Chemscore.Hbond>
0.8776

> <Gold.Chemscore.Metal>
0.0000

> <Gold.Chemscore.Lipo>
91.7553

> <Gold.Chemscore.Internal_Hbond>
0.0000

> <Gold.Chemscore.DEClash>
0.0029

> <Gold.Chemscore.DEInternal>
3.0447

> <Gold.Chemscore.Rot>
1.6307

> <Gold.Chemscore.Internal.Correction>
   9.000000E+99

> <Gold.Chemscore.Hbonds>
donor molecule, donor type, donor heavy atom, donor atom, acceptor molecule, acceptor atom, score
      P1  H  6896  6908       L1     4  0.29

> <Gold.Chemscore.Hbond.Weighted>
-2.9311

> <Gold.Chemscore.Metal.Weighted>
-0.0000

> <Gold.Chemscore.Lipo.Weighted>
-10.7354

> <Gold.Chemscore.Internal_Hbond.Weighted>
0.0000

> <Gold.Chemscore.DEClash.Weighted>
0.0029

> <Gold.Chemscore.DEInternal.Weighted>
3.0447

> <Gold.Chemscore.Rot.Weighted>
4.1746

> <Gold.Chemscore.Internal.Correction.Weighted>
   9.000000E+99

> <Gold.Protein.RotatedTorsions>
[ 6907 6896 6895 6894 ] final  -61.54 input  -60.11 | X-H torsion
[ 7974 7965 7964 7962 ] final -125.45 input  175.53 | X-H torsion
[ 8008 7997 7996 7995 ] final  116.01 input   59.86 | X-H torsion
[ 10167 10162 10161 10158 ] final  171.57 input  -65.29 | X-H torsion
[ 10718 10713 10712 10709 ] final  -72.39 input   66.30 | X-H torsion
[ 10763 10752 10751 10750 ] final   70.36 input  -60.55 | X-H torsion
[ 11005 11000 10999 10996 ] final  -97.63 input  -57.11 | X-H torsion

> <Gold.Protein.ActiveResidues>
 VAL166  LYS551  ARG553  GLY616  TRP617  ASP618  TYR619  PRO620  LYS621  CYS622 
 ASP623  PHE694  ASN695  SER759  ASP760  ASP761  ALA762  ILE779  LEU786  VAL792 
 PHE793  MET794  SER795  GLU796  ALA797  LYS798  CYS799  TRP800  GLU811  SER814 

> <Gold.Protein.RotatedAtoms>
  150.7777  134.6690  159.6380 H   0  0  0  0  0  0  0  0  0  0  0  0  # atno 6907 bound_to 6896
  152.3852  134.6525  160.0137 H   0  0  0  0  0  0  0  0  0  0  0  0  # atno 6908 bound_to 6896
  151.6842  133.3275  159.3263 H   0  0  0  0  0  0  0  0  0  0  0  0  # atno 6909 bound_to 6896
  144.9975  140.7789  143.4517 H   0  0  0  0  0  0  0  0  0  0  0  0  # atno 7974 bound_to 7965
  156.2415  140.2926  156.0457 H   0  0  0  0  0  0  0  0  0  0  0  0  # atno 8008 bound_to 7997
  155.1937  140.0407  157.2922 H   0  0  0  0  0  0  0  0  0  0  0  0  # atno 8009 bound_to 7997
  154.6177  140.2468  155.7595 H   0  0  0  0  0  0  0  0  0  0  0  0  # atno 8010 bound_to 7997
  139.5050  144.3471  151.9960 H   0  0  0  0  0  0  0  0  0  0  0  0  # atno 10167 bound_to 10162
  156.0322  130.4371  150.2585 H   0  0  0  0  0  0  0  0  0  0  0  0  # atno 10718 bound_to 10713
  153.0337  135.5176  154.7429 H   0  0  0  0  0  0  0  0  0  0  0  0  # atno 10763 bound_to 10752
  154.6423  135.2914  155.0091 H   0  0  0  0  0  0  0  0  0  0  0  0  # atno 10764 bound_to 10752
  154.1004  135.6637  153.4920 H   0  0  0  0  0  0  0  0  0  0  0  0  # atno 10765 bound_to 10752
  141.1372  133.8185  157.0732 H   0  0  0  0  0  0  0  0  0  0  0  0  # atno 11005 bound_to 11000
  145.2200  139.2164  143.5098 LP  0  0  0  0  0  0  0  0  0  0  0  0  # atno 17320 bound_to 7965
  146.3445  140.2056  142.8589 LP  0  0  0  0  0  0  0  0  0  0  0  0  # atno 17321 bound_to 7965
  140.2908  144.3756  150.6089 LP  0  0  0  0  0  0  0  0  0  0  0  0  # atno 17342 bound_to 10162
  140.5948  143.2167  151.7185 LP  0  0  0  0  0  0  0  0  0  0  0  0  # atno 17343 bound_to 10162
  157.0687  131.0110  151.3198 LP  0  0  0  0  0  0  0  0  0  0  0  0  # atno 17370 bound_to 10713
  157.5016  130.7883  149.7610 LP  0  0  0  0  0  0  0  0  0  0  0  0  # atno 17371 bound_to 10713
  140.0498  134.9811  157.1116 LP  0  0  0  0  0  0  0  0  0  0  0  0  # atno 17394 bound_to 11000
  140.4007  134.2086  155.7163 LP  0  0  0  0  0  0  0  0  0  0  0  0  # atno 17395 bound_to 11000

$$$$
