AV-unprocessed.smi:623|AV-procd|sdf|3096|dock5
  -GOLD-   22720 0 13D 1   1.00000     0.00000
 Structure written by MMmdl.
 44 46  0  0  0  0  0  0  0  0  2 V2000
  144.5170  135.1399  162.2960 C   0  0  0  0  0  0  0  0  0  0  0  0
  145.8756  135.7480  161.8468 C   0  0  0  0  0  0  0  0  0  0  0  0
  145.5886  137.2594  161.6218 C   0  0  0  0  0  0  0  0  0  0  0  0
  147.0478  135.4614  162.8068 C   0  0  1  0  0  0  0  0  0  0  0  0
  147.1825  133.9223  162.7629 C   0  0  0  0  0  0  0  0  0  0  0  0
  146.8444  133.5978  161.2926 C   0  0  0  0  0  0  0  0  0  0  0  0
  146.5859  135.0002  160.6832 C   0  0  1  0  0  0  0  0  0  0  0  0
  145.8107  134.9330  159.3518 C   0  0  0  0  0  0  0  0  0  0  0  0
  147.9948  135.6634  160.5958 C   0  0  1  0  0  0  0  0  0  0  0  0
  148.0219  136.8070  159.6922 N   0  0  0  0  0  0  0  0  0  0  0  0
  149.0529  137.2092  158.9338 C   0  0  0  0  0  0  0  0  0  0  0  0
  150.1307  136.6164  158.9004 O   0  0  0  0  0  0  0  0  0  0  0  0
  148.8604  138.4851  158.0945 C   0  0  0  0  0  0  0  0  0  0  0  0
  149.9456  138.7412  157.1280 N   0  0  0  0  0  0  0  0  0  0  0  0
  151.2533  138.8387  157.6355 C   0  0  0  0  0  0  0  0  0  0  0  0
  152.3045  139.1217  156.8432 C   0  0  0  0  0  0  0  0  0  0  0  0
  152.0604  139.3282  155.4211 C   0  0  0  0  0  0  0  0  0  0  0  0
  153.0074  139.5914  154.6829 O   0  0  0  0  0  0  0  0  0  0  0  0
  150.7747  139.2193  154.9755 N   0  5  0  0  0  0  0  0  0  0  0  0
  149.7146  138.9358  155.7941 C   0  0  0  0  0  0  0  0  0  0  0  0
  148.5594  138.8635  155.3748 O   0  0  0  0  0  0  0  0  0  0  0  0
  148.2788  136.0367  162.0694 C   0  0  0  0  0  0  0  0  0  0  0  0
  144.1678  135.6159  163.2128 H   0  0  0  0  0  0  0  0  0  0  0  0
  144.5301  134.0706  162.4928 H   0  0  0  0  0  0  0  0  0  0  0  0
  143.7507  135.3058  161.5381 H   0  0  0  0  0  0  0  0  0  0  0  0
  146.4570  137.8689  161.3890 H   0  0  0  0  0  0  0  0  0  0  0  0
  145.1473  137.7025  162.5149 H   0  0  0  0  0  0  0  0  0  0  0  0
  144.8770  137.4037  160.8085 H   0  0  0  0  0  0  0  0  0  0  0  0
  146.9250  135.8569  163.8155 H   0  0  0  0  0  0  0  0  0  0  0  0
  148.1833  133.5870  163.0376 H   0  0  0  0  0  0  0  0  0  0  0  0
  146.4844  133.4383  163.4463 H   0  0  0  0  0  0  0  0  0  0  0  0
  147.6542  133.0642  160.7934 H   0  0  0  0  0  0  0  0  0  0  0  0
  145.9655  132.9562  161.2244 H   0  0  0  0  0  0  0  0  0  0  0  0
  146.3934  134.4180  158.5876 H   0  0  0  0  0  0  0  0  0  0  0  0
  145.5697  135.9251  158.9693 H   0  0  0  0  0  0  0  0  0  0  0  0
  144.8709  134.3936  159.4677 H   0  0  0  0  0  0  0  0  0  0  0  0
  148.7335  134.9458  160.2336 H   0  0  0  0  0  0  0  0  0  0  0  0
  147.1749  137.3553  159.6427 H   0  0  0  0  0  0  0  0  0  0  0  0
  147.9082  138.4065  157.5681 H   0  0  0  0  0  0  0  0  0  0  0  0
  148.7404  139.3323  158.7716 H   0  0  0  0  0  0  0  0  0  0  0  0
  151.3449  138.6830  158.7004 H   0  0  0  0  0  0  0  0  0  0  0  0
  153.3017  139.1999  157.2504 H   0  0  0  0  0  0  0  0  0  0  0  0
  148.3627  137.1138  162.2158 H   0  0  0  0  0  0  0  0  0  0  0  0
  149.2135  135.6010  162.4243 H   0  0  0  0  0  0  0  0  0  0  0  0
  1  2  1  0  0  0  0
  1 23  1  0  0  0  0
  1 24  1  0  0  0  0
  1 25  1  0  0  0  0
  2  7  1  0  0  0  0
  2  3  1  0  0  0  0
  2  4  1  0  0  0  0
  3 26  1  0  0  0  0
  3 27  1  0  0  0  0
  3 28  1  0  0  0  0
  4 22  1  0  0  0  0
  4  5  1  0  0  0  0
  4 29  1  0  0  0  0
  5  6  1  0  0  0  0
  5 30  1  0  0  0  0
  5 31  1  0  0  0  0
  6  7  1  0  0  0  0
  6 32  1  0  0  0  0
  6 33  1  0  0  0  0
  7  8  1  0  0  0  0
  7  9  1  0  0  0  0
  8 34  1  0  0  0  0
  8 35  1  0  0  0  0
  8 36  1  0  0  0  0
  9 10  1  0  0  0  0
  9 22  1  0  0  0  0
  9 37  1  0  0  0  0
 10 11  1  0  0  0  0
 10 38  1  0  0  0  0
 11 12  2  0  0  0  0
 11 13  1  0  0  0  0
 13 14  1  0  0  0  0
 13 39  1  0  0  0  0
 13 40  1  0  0  0  0
 14 20  1  0  0  0  0
 14 15  1  0  0  0  0
 15 16  2  0  0  0  0
 15 41  1  0  0  0  0
 16 17  1  0  0  0  0
 16 42  1  0  0  0  0
 17 18  2  0  0  0  0
 17 19  1  0  0  0  0
 19 20  1  0  0  0  0
 20 21  2  0  0  0  0
 22 43  1  0  0  0  0
 22 44  1  0  0  0  0
M  CHG  1  19  -1
M  END
> <s_m_source_file>
AV-unprocessed.smi

> <i_m_source_file_index>
623

> <i_lp_mmshare_version>
43012

> <i_f3d_flags>
0

> <s_epik_input>
W0NIM11bQ0BdMTJDKFtDSDNdKShbQ0gzXSlbQ0BIXShbQ0gyXVtDSDJdMSlbQ0gyXVtDQEBIXTJbTkhdQyg9TylbQ0gyXW4zW2NIXVtjSF1jKD1PKVtuSF1jMz1P

> <s_epik_cmdline>
J2VwaWtfcHl0aG9uJywgJy1waCcsICc3LjAnLCAnLXRuJywgJzgnLCAnLW1hJywgJzIwMCcsICctbWV0YWxfYmluZGluZycsICctaW1hZScsICc8aW5maWxlLm1hZT4nLCAnLW9tYWUnLCAnPG91dGZpbGUubWFlPic=

> <r_lp_tautomer_probability>
0.999537

> <r_epik_Ionization_Penalty>
3.12624

> <r_epik_Ionization_Penalty_Charging>
3.01273e-08

> <r_epik_Ionization_Penalty_Neutral>
3.12624

> <r_epik_State_Penalty>
3.12534

> <r_epik_Charging_Adjusted_Penalty>
3.12534

> <i_epik_Tot_Q>
-1

> <i_epik_Tot_abs_Q>
1

> <r_epik_Metal_State_Penalty>
0.46406

> <b_epik_Metal_Only>
1

> <s_lp_Force_Field>
OPLS_2005

> <r_lp_Energy>
63.0449

> <b_lp_Chiralities_Consistent>
1

> <s_lp_Variant>
AV-unprocessed.smi:623-6

> <Gold.Version>
5.8.1

> <Gold.Id.Protein>
6NUR|6NUR_protein|mol2

> <Gold.PLP.Fitness>
36.7030

> <Gold.PLP.PLP>
-31.2783

> <Gold.PLP.part.hbond>
-3.0000

> <Gold.PLP.part.metal>
0.0000

> <Gold.PLP.part.buried>
-5.3942

> <Gold.PLP.part.nonpolar>
-24.5313

> <Gold.PLP.part.repulsive>
0.3384

> <Gold.PLP.ligand.clash>
0.0000

> <Gold.PLP.ligand.torsion>
0.4628

> <Gold.PLP.Chemscore.Hbond>
2.1123

> <Gold.PLP.Chemscore.CHOScore>
0.0000

> <Gold.PLP.Chemscore.Metal>
0.0000

> <Gold.Chemscore.Hbonds>
donor molecule, donor type, donor heavy atom, donor atom, acceptor molecule, acceptor atom, score
      P1  H  6896  6907       L1    12  0.99
      P1  H  7989  7998       L1    18  0.12
      P1  H  7997  8009       L1    18  1.00

> <Gold.PLP.Chemscore.Internal.Correction>
0.0134

> <Gold.Rescore>
     Score         DG    S(hbond)    S(metal)    S(lipo)     H(rot)  DE(clash)    DE(int)     intcor
     14.87     -16.68       1.96        0.00      75.39       1.63       0.03       1.78       ----

> <Gold.Chemscore.Fitness>
14.8718

> <Gold.Chemscore.DG>
-16.6837

> <Gold.Chemscore.ZeroCoef>
-5.4800

> <Gold.Chemscore.Hbond>
1.9645

> <Gold.Chemscore.Metal>
0.0000

> <Gold.Chemscore.Lipo>
75.3905

> <Gold.Chemscore.Internal_Hbond>
0.0000

> <Gold.Chemscore.DEClash>
0.0308

> <Gold.Chemscore.DEInternal>
1.7812

> <Gold.Chemscore.Rot>
1.6322

> <Gold.Chemscore.Internal.Correction>
   9.000000E+99

> <Gold.Chemscore.Hbonds>
donor molecule, donor type, donor heavy atom, donor atom, acceptor molecule, acceptor atom, score
      P1  H  6896  6907       L1    12  0.92
      P1  H  7989  7998       L1    18  0.01
      P1  H  7997  8009       L1    18  0.44

> <Gold.Chemscore.Hbond.Weighted>
-6.5613

> <Gold.Chemscore.Metal.Weighted>
-0.0000

> <Gold.Chemscore.Lipo.Weighted>
-8.8207

> <Gold.Chemscore.Internal_Hbond.Weighted>
0.0000

> <Gold.Chemscore.DEClash.Weighted>
0.0308

> <Gold.Chemscore.DEInternal.Weighted>
1.7812

> <Gold.Chemscore.Rot.Weighted>
4.1783

> <Gold.Chemscore.Internal.Correction.Weighted>
   9.000000E+99

> <Gold.Protein.RotatedTorsions>
[ 6907 6896 6895 6894 ] final  -46.81 input  -60.11 | X-H torsion
[ 7974 7965 7964 7962 ] final   63.96 input  175.53 | X-H torsion
[ 8008 7997 7996 7995 ] final -138.06 input   59.86 | X-H torsion
[ 10167 10162 10161 10158 ] final  -23.82 input  -65.29 | X-H torsion
[ 10718 10713 10712 10709 ] final  152.38 input   66.30 | X-H torsion
[ 10763 10752 10751 10750 ] final  -96.17 input  -60.55 | X-H torsion
[ 11005 11000 10999 10996 ] final -113.23 input  -57.11 | X-H torsion

> <Gold.Protein.ActiveResidues>
 VAL166  LYS551  ARG553  GLY616  TRP617  ASP618  TYR619  PRO620  LYS621  CYS622 
 ASP623  PHE694  ASN695  SER759  ASP760  ASP761  ALA762  ILE779  LEU786  VAL792 
 PHE793  MET794  SER795  GLU796  ALA797  LYS798  CYS799  TRP800  GLU811  SER814 

> <Gold.Protein.RotatedAtoms>
  150.9074  134.8489  159.7401 H   0  0  0  0  0  0  0  0  0  0  0  0  # atno 6907 bound_to 6896
  152.4925  134.4411  159.9554 H   0  0  0  0  0  0  0  0  0  0  0  0  # atno 6908 bound_to 6896
  151.4457  133.3592  159.2823 H   0  0  0  0  0  0  0  0  0  0  0  0  # atno 6909 bound_to 6896
  145.8558  139.3283  143.0848 H   0  0  0  0  0  0  0  0  0  0  0  0  # atno 7974 bound_to 7965
  155.4220  140.0519  157.3025 H   0  0  0  0  0  0  0  0  0  0  0  0  # atno 8008 bound_to 7997
  154.4898  140.2115  155.9533 H   0  0  0  0  0  0  0  0  0  0  0  0  # atno 8009 bound_to 7997
  156.1326  140.3169  155.8377 H   0  0  0  0  0  0  0  0  0  0  0  0  # atno 8010 bound_to 7997
  140.7288  143.4408  151.0659 H   0  0  0  0  0  0  0  0  0  0  0  0  # atno 10167 bound_to 10162
  157.2585  131.0793  151.1682 H   0  0  0  0  0  0  0  0  0  0  0  0  # atno 10718 bound_to 10713
  154.7215  135.5093  153.8819 H   0  0  0  0  0  0  0  0  0  0  0  0  # atno 10763 bound_to 10752
  153.0866  135.6647  153.9945 H   0  0  0  0  0  0  0  0  0  0  0  0  # atno 10764 bound_to 10752
  153.9766  135.3033  155.3403 H   0  0  0  0  0  0  0  0  0  0  0  0  # atno 10765 bound_to 10752
  141.0627  133.9509  157.2637 H   0  0  0  0  0  0  0  0  0  0  0  0  # atno 11005 bound_to 11000
  145.9306  140.9051  143.0358 LP  0  0  0  0  0  0  0  0  0  0  0  0  # atno 17320 bound_to 7965
  144.6728  140.1412  143.7437 LP  0  0  0  0  0  0  0  0  0  0  0  0  # atno 17321 bound_to 7965
  139.8075  143.7997  152.3168 LP  0  0  0  0  0  0  0  0  0  0  0  0  # atno 17342 bound_to 10162
  139.8035  144.7364  150.9793 LP  0  0  0  0  0  0  0  0  0  0  0  0  # atno 17343 bound_to 10162
  157.3201  130.6933  149.6264 LP  0  0  0  0  0  0  0  0  0  0  0  0  # atno 17370 bound_to 10713
  155.9664  130.4338  150.5021 LP  0  0  0  0  0  0  0  0  0  0  0  0  # atno 17371 bound_to 10713
  139.9447  135.0186  156.8817 LP  0  0  0  0  0  0  0  0  0  0  0  0  # atno 17394 bound_to 11000
  140.5836  134.0329  155.7473 LP  0  0  0  0  0  0  0  0  0  0  0  0  # atno 17395 bound_to 11000

$$$$
