AV-unprocessed.smi:1283|AV-procd|sdf|5361|dock9
  -GOLD-   22720 4503D 1   1.00000     0.00000
 Structure written by MMmdl.
 30 31  0  0  0  0  0  0  0  0  1 V2000
  147.7478  139.2239  153.5559 C   0  0  0  0  0  0  0  0  0  0  0  0
  148.8148  139.8422  154.3417 N   0  0  0  0  0  0  0  0  0  0  0  0
  148.5037  141.0839  154.8545 N   0  0  0  0  0  0  0  0  0  0  0  0
  149.3770  141.7133  155.5626 C   0  0  0  0  0  0  0  0  0  0  0  0
  150.6986  141.1741  155.8479 C   0  0  0  0  0  0  0  0  0  0  0  0
  151.6423  141.8512  156.6107 N   0  0  0  0  0  0  0  0  0  0  0  0
  151.5349  143.1540  157.2502 C   0  0  0  0  0  0  0  0  0  0  0  0
  151.7244  143.0422  158.7683 C   0  0  2  0  0  0  0  0  0  0  0  0
  151.7838  144.3918  159.4817 C   0  0  0  0  0  0  0  0  0  0  0  0
  152.6022  144.1025  160.7314 C   0  0  0  0  0  0  0  0  0  0  0  0
  153.2346  142.7353  160.4559 C   0  0  0  0  0  0  0  0  0  0  0  0
  152.9936  142.4893  159.0781 O   0  0  0  0  0  0  0  0  0  0  0  0
  150.9731  139.9434  155.3364 C   0  0  0  0  0  0  0  0  0  0  0  0
  152.5131  139.2022  155.6196 Cl  0  0  0  0  0  0  0  0  0  0  0  0
  150.0009  139.1948  154.5263 C   0  0  0  0  0  0  0  0  0  0  0  0
  150.2234  138.0811  154.0495 O   0  0  0  0  0  0  0  0  0  0  0  0
  147.4341  138.2822  154.0086 H   0  0  0  0  0  0  0  0  0  0  0  0
  148.0874  139.0189  152.5398 H   0  0  0  0  0  0  0  0  0  0  0  0
  146.8669  139.8641  153.4842 H   0  0  0  0  0  0  0  0  0  0  0  0
  149.1521  142.6902  155.9881 H   0  0  0  0  0  0  0  0  0  0  0  0
  152.5838  141.4864  156.5745 H   0  0  0  0  0  0  0  0  0  0  0  0
  152.2628  143.8579  156.8486 H   0  0  0  0  0  0  0  0  0  0  0  0
  150.5459  143.5559  157.0287 H   0  0  0  0  0  0  0  0  0  0  0  0
  150.9407  142.4244  159.2116 H   0  0  0  0  0  0  0  0  0  0  0  0
  152.3092  145.1220  158.8646 H   0  0  0  0  0  0  0  0  0  0  0  0
  150.7945  144.7919  159.7049 H   0  0  0  0  0  0  0  0  0  0  0  0
  153.3594  144.8721  160.8847 H   0  0  0  0  0  0  0  0  0  0  0  0
  151.9759  144.0653  161.6233 H   0  0  0  0  0  0  0  0  0  0  0  0
  154.3012  142.7128  160.6796 H   0  0  0  0  0  0  0  0  0  0  0  0
  152.7462  141.9603  161.0485 H   0  0  0  0  0  0  0  0  0  0  0  0
  1  2  1  0  0  0  0
  1 17  1  0  0  0  0
  1 18  1  0  0  0  0
  1 19  1  0  0  0  0
  2 15  1  0  0  0  0
  2  3  1  0  0  0  0
  3  4  2  0  0  0  0
  4  5  1  0  0  0  0
  4 20  1  0  0  0  0
  5  6  1  0  0  0  0
  5 13  2  0  0  0  0
  6  7  1  0  0  0  0
  6 21  1  0  0  0  0
  7  8  1  0  0  0  0
  7 22  1  0  0  0  0
  7 23  1  0  0  0  0
  8 12  1  0  0  0  0
  8  9  1  0  0  0  0
  8 24  1  0  0  0  0
  9 10  1  0  0  0  0
  9 25  1  0  0  0  0
  9 26  1  0  0  0  0
 10 11  1  0  0  0  0
 10 27  1  0  0  0  0
 10 28  1  0  0  0  0
 11 12  1  0  0  0  0
 11 29  1  0  0  0  0
 11 30  1  0  0  0  0
 13 14  1  0  0  0  0
 13 15  1  0  0  0  0
 15 16  2  0  0  0  0
M  END
> <s_m_source_file>
AV-unprocessed.smi

> <i_m_source_file_index>
1283

> <i_lp_mmshare_version>
43012

> <i_f3d_flags>
0

> <s_epik_input>
W0NIM11uMW5bY0hdYyhjKENsKWMxPU8pW05IXVtDSDJdW0NAQEhdMltDSDJdW0NIMl1bQ0gyXU8y

> <s_epik_cmdline>
J2VwaWtfcHl0aG9uJywgJy1waCcsICc3LjAnLCAnLXRuJywgJzgnLCAnLW1hJywgJzIwMCcsICctbWV0YWxfYmluZGluZycsICctaW1hZScsICc8aW5maWxlLm1hZT4nLCAnLW9tYWUnLCAnPG91dGZpbGUubWFlPic=

> <r_lp_tautomer_probability>
1

> <r_epik_Ionization_Penalty>
2.40876e-05

> <r_epik_Ionization_Penalty_Charging>
4.17655e-09

> <r_epik_Ionization_Penalty_Neutral>
2.40834e-05

> <r_epik_State_Penalty>
-0

> <r_epik_Charging_Adjusted_Penalty>
4.17655e-09

> <i_epik_Tot_Q>
0

> <i_epik_Tot_abs_Q>
0

> <r_epik_Metal_State_Penalty>
-0

> <b_epik_Metal_Only>
0

> <s_lp_Force_Field>
OPLS_2005

> <r_lp_Energy>
38.2243

> <b_lp_Chiralities_Consistent>
1

> <s_lp_Variant>
AV-unprocessed.smi:1283-1

> <Gold.Version>
5.8.1

> <Gold.Id.Protein>
6NUR|6NUR_protein|mol2

> <Gold.PLP.Fitness>
34.2656

> <Gold.PLP.PLP>
-31.2801

> <Gold.PLP.part.hbond>
0.0000

> <Gold.PLP.part.metal>
0.0000

> <Gold.PLP.part.buried>
-0.5007

> <Gold.PLP.part.nonpolar>
-31.1858

> <Gold.PLP.part.repulsive>
0.6095

> <Gold.PLP.ligand.clash>
0.0000

> <Gold.PLP.ligand.torsion>
0.0116

> <Gold.PLP.Chemscore.Hbond>
0.0000

> <Gold.PLP.Chemscore.CHOScore>
1.0000

> <Gold.PLP.Chemscore.Metal>
0.0000

> <Gold.Chemscore.Hbonds>
donor molecule, donor type, donor heavy atom, donor atom, acceptor molecule, acceptor atom, score
      L1  C     4    20       P1  8028  1.00

> <Gold.PLP.Chemscore.Internal.Correction>
0.0088

> <Gold.Rescore>
     Score         DG    S(hbond)    S(metal)    S(lipo)     H(rot)  DE(clash)    DE(int)     intcor
     12.74     -12.91       0.00        0.00      90.25       1.22       0.13       0.05       ----

> <Gold.Chemscore.Fitness>
12.7389

> <Gold.Chemscore.DG>
-12.9134

> <Gold.Chemscore.ZeroCoef>
-5.4800

> <Gold.Chemscore.Hbond>
0.0000

> <Gold.Chemscore.Metal>
0.0000

> <Gold.Chemscore.Lipo>
90.2454

> <Gold.Chemscore.Internal_Hbond>
0.0000

> <Gold.Chemscore.DEClash>
0.1277

> <Gold.Chemscore.DEInternal>
0.0469

> <Gold.Chemscore.Rot>
1.2208

> <Gold.Chemscore.Internal.Correction>
   9.000000E+99

> <Gold.Chemscore.Hbond.Weighted>
-0.0000

> <Gold.Chemscore.Metal.Weighted>
-0.0000

> <Gold.Chemscore.Lipo.Weighted>
-10.5587

> <Gold.Chemscore.Internal_Hbond.Weighted>
0.0000

> <Gold.Chemscore.DEClash.Weighted>
0.1277

> <Gold.Chemscore.DEInternal.Weighted>
0.0469

> <Gold.Chemscore.Rot.Weighted>
3.1253

> <Gold.Chemscore.Internal.Correction.Weighted>
   9.000000E+99

> <Gold.Protein.RotatedTorsions>
[ 6907 6896 6895 6894 ] final   60.71 input  -60.11 | X-H torsion
[ 7974 7965 7964 7962 ] final   69.52 input  175.53 | X-H torsion
[ 8008 7997 7996 7995 ] final  -76.72 input   59.86 | X-H torsion
[ 10167 10162 10161 10158 ] final  -23.13 input  -65.29 | X-H torsion
[ 10718 10713 10712 10709 ] final   15.62 input   66.30 | X-H torsion
[ 10763 10752 10751 10750 ] final   20.77 input  -60.55 | X-H torsion
[ 11005 11000 10999 10996 ] final -137.85 input  -57.11 | X-H torsion

> <Gold.Protein.ActiveResidues>
 VAL166  LYS551  ARG553  GLY616  TRP617  ASP618  TYR619  PRO620  LYS621  CYS622 
 ASP623  PHE694  ASN695  SER759  ASP760  ASP761  ALA762  ILE779  LEU786  VAL792 
 PHE793  MET794  SER795  GLU796  ALA797  LYS798  CYS799  TRP800  GLU811  SER814 

> <Gold.Protein.RotatedAtoms>
  152.4026  134.6260  160.0063 H   0  0  0  0  0  0  0  0  0  0  0  0  # atno 6907 bound_to 6896
  151.6461  133.3318  159.3149 H   0  0  0  0  0  0  0  0  0  0  0  0  # atno 6908 bound_to 6896
  150.7925  134.7001  159.6590 H   0  0  0  0  0  0  0  0  0  0  0  0  # atno 6909 bound_to 6896
  145.7894  139.2926  143.1219 H   0  0  0  0  0  0  0  0  0  0  0  0  # atno 7974 bound_to 7965
  154.5530  140.0722  156.8699 H   0  0  0  0  0  0  0  0  0  0  0  0  # atno 8008 bound_to 7997
  155.2956  140.3381  155.4232 H   0  0  0  0  0  0  0  0  0  0  0  0  # atno 8009 bound_to 7997
  156.1978  140.1710  156.7948 H   0  0  0  0  0  0  0  0  0  0  0  0  # atno 8010 bound_to 7997
  140.7287  143.4472  151.0570 H   0  0  0  0  0  0  0  0  0  0  0  0  # atno 10167 bound_to 10162
  157.0562  130.6290  149.5777 H   0  0  0  0  0  0  0  0  0  0  0  0  # atno 10718 bound_to 10713
  153.1049  135.6682  153.9604 H   0  0  0  0  0  0  0  0  0  0  0  0  # atno 10763 bound_to 10752
  153.9164  135.3019  155.3449 H   0  0  0  0  0  0  0  0  0  0  0  0  # atno 10764 bound_to 10752
  154.7471  135.5052  153.9298 H   0  0  0  0  0  0  0  0  0  0  0  0  # atno 10765 bound_to 10752
  140.8672  134.2096  157.4673 H   0  0  0  0  0  0  0  0  0  0  0  0  # atno 11005 bound_to 11000
  145.9993  140.8535  143.0027 LP  0  0  0  0  0  0  0  0  0  0  0  0  # atno 17320 bound_to 7965
  144.6784  140.2328  143.7353 LP  0  0  0  0  0  0  0  0  0  0  0  0  # atno 17321 bound_to 7965
  139.8144  143.7906  152.3173 LP  0  0  0  0  0  0  0  0  0  0  0  0  # atno 17342 bound_to 10162
  139.7967  144.7390  150.9881 LP  0  0  0  0  0  0  0  0  0  0  0  0  # atno 17343 bound_to 10162
  155.9992  130.5068  150.7599 LP  0  0  0  0  0  0  0  0  0  0  0  0  # atno 17370 bound_to 10713
  157.4991  131.0917  151.0336 LP  0  0  0  0  0  0  0  0  0  0  0  0  # atno 17371 bound_to 10713
  139.8710  134.9757  156.4894 LP  0  0  0  0  0  0  0  0  0  0  0  0  # atno 17394 bound_to 11000
  140.8615  133.8056  155.9270 LP  0  0  0  0  0  0  0  0  0  0  0  0  # atno 17395 bound_to 11000

$$$$
