AV-unprocessed.smi:72|AV-procd|sdf|675|dock5
  -GOLD-   2262016583D 1   1.00000     0.00000
 Structure written by MMmdl.
 29 30  0  0  0  0  0  0  0  0  1 V2000
  153.7196  138.6460  157.4658 N   0  0  0  0  0  0  0  0  0  0  0  0
  152.5011  138.9937  157.2502 C   0  0  0  0  0  0  0  0  0  0  0  0
  151.5468  139.2612  158.2435 N   0  0  0  0  0  0  0  0  0  0  0  0
  150.3499  139.6052  157.8798 C   0  0  0  0  0  0  0  0  0  0  0  0
  149.9678  139.7215  156.4811 N   0  0  0  0  0  0  0  0  0  0  0  0
  148.5608  140.1199  156.0871 C   0  0  2  0  0  0  0  0  0  0  0  0
  148.1029  139.2440  155.1009 O   0  0  0  0  0  0  0  0  0  0  0  0
  147.3467  139.9703  154.1380 C   0  0  2  0  0  0  0  0  0  0  0  0
  147.2475  139.2007  152.8087 C   0  0  0  0  0  0  0  0  0  0  0  0
  146.8463  137.8683  153.0468 O   0  0  0  0  0  0  0  0  0  0  0  0
  148.0733  141.3212  154.0683 C   0  0  2  0  0  0  0  0  0  0  0  0
  149.1983  141.2486  153.2077 O   0  0  0  0  0  0  0  0  0  0  0  0
  148.4656  141.5546  155.5245 C   0  0  2  0  0  0  0  0  0  0  0  0
  149.6254  142.3570  155.6720 O   0  0  0  0  0  0  0  0  0  0  0  0
  150.9150  139.4431  155.4655 C   0  0  0  0  0  0  0  0  0  0  0  0
  150.6407  139.5018  154.2672 O   0  0  0  0  0  0  0  0  0  0  0  0
  152.1475  139.0981  155.8978 N   0  0  0  0  0  0  0  0  0  0  0  0
  147.9371  139.9791  156.9712 H   0  0  0  0  0  0  0  0  0  0  0  0
  146.3486  140.1440  154.5454 H   0  0  0  0  0  0  0  0  0  0  0  0
  147.4173  142.1099  153.6984 H   0  0  0  0  0  0  0  0  0  0  0  0
  147.6401  142.0460  156.0411 H   0  0  0  0  0  0  0  0  0  0  0  0
  153.9033  138.5909  158.4569 H   0  0  0  0  0  0  0  0  0  0  0  0
  149.5563  139.8256  158.5949 H   0  0  0  0  0  0  0  0  0  0  0  0
  146.4931  139.6569  152.1670 H   0  0  0  0  0  0  0  0  0  0  0  0
  148.1929  139.2200  152.2652 H   0  0  0  0  0  0  0  0  0  0  0  0
  147.5700  137.2958  152.8427 H   0  0  0  0  0  0  0  0  0  0  0  0
  149.0299  140.5884  152.5528 H   0  0  0  0  0  0  0  0  0  0  0  0
  149.3986  143.2487  155.4560 H   0  0  0  0  0  0  0  0  0  0  0  0
  152.8459  138.8973  155.1973 H   0  0  0  0  0  0  0  0  0  0  0  0
  1  2  2  0  0  0  0
  1 22  1  0  0  0  0
  2 17  1  0  0  0  0
  2  3  1  0  0  0  0
  3  4  2  0  0  0  0
  4  5  1  0  0  0  0
  4 23  1  0  0  0  0
  5  6  1  0  0  0  0
  5 15  1  0  0  0  0
  6 18  1  0  0  0  0
  6 13  1  0  0  0  0
  6  7  1  0  0  0  0
  7  8  1  0  0  0  0
  8 19  1  0  0  0  0
  8  9  1  0  0  0  0
  8 11  1  0  0  0  0
  9 10  1  0  0  0  0
  9 24  1  0  0  0  0
  9 25  1  0  0  0  0
 10 26  1  0  0  0  0
 11 20  1  0  0  0  0
 11 12  1  0  0  0  0
 11 13  1  0  0  0  0
 12 27  1  0  0  0  0
 13 21  1  0  0  0  0
 13 14  1  0  0  0  0
 14 28  1  0  0  0  0
 15 16  2  0  0  0  0
 15 17  1  0  0  0  0
 17 29  1  0  0  0  0
M  END
> <s_m_source_file>
AV-unprocessed.smi

> <i_m_source_file_index>
72

> <i_lp_mmshare_version>
43012

> <i_f3d_flags>
0

> <s_epik_input>
W05IMl1jMW5bY0hdbihjKD1PKW4xKVtDQEBIXTJPW0NASF0oW0NIMl1bT0hdKVtDQEBIXShbT0hdKVtDQEhdMltPSF0=

> <s_epik_cmdline>
J2VwaWtfcHl0aG9uJywgJy1waCcsICc3LjAnLCAnLXRuJywgJzgnLCAnLW1hJywgJzIwMCcsICctbWV0YWxfYmluZGluZycsICctaW1hZScsICc8aW5maWxlLm1hZT4nLCAnLW9tYWUnLCAnPG91dGZpbGUubWFlPic=

> <r_lp_tautomer_probability>
7.17554e-07

> <r_epik_Ionization_Penalty>
0.0066451

> <r_epik_Ionization_Penalty_Charging>
0.00663793

> <r_epik_Ionization_Penalty_Neutral>
7.17052e-06

> <r_epik_State_Penalty>
0.419231

> <r_epik_Charging_Adjusted_Penalty>
0.425868

> <i_epik_Tot_Q>
0

> <i_epik_Tot_abs_Q>
0

> <r_epik_Metal_State_Penalty>
1.44144

> <b_epik_Metal_Only>
0

> <s_epik_Chemistry_Notes>
This compound contains an acetal/aminal-like group ( X-CH(R)-Y where X, Y are N, S, or O) that may be acid/base labile, releasing an aldehyde.

> <s_lp_Force_Field>
OPLS_2005

> <r_lp_Energy>
49.9877

> <b_lp_Chiralities_Consistent>
1

> <s_lp_Variant>
AV-unprocessed.smi:72-13

> <Gold.Version>
5.8.1

> <Gold.Id.Protein>
6NUR|6NUR_protein|mol2

> <Gold.PLP.Fitness>
38.0758

> <Gold.PLP.PLP>
-21.3529

> <Gold.PLP.part.hbond>
-6.3832

> <Gold.PLP.part.metal>
0.0000

> <Gold.PLP.part.buried>
-2.3132

> <Gold.PLP.part.nonpolar>
-12.7962

> <Gold.PLP.part.repulsive>
0.3793

> <Gold.PLP.ligand.clash>
0.0000

> <Gold.PLP.ligand.torsion>
0.3658

> <Gold.PLP.Chemscore.Hbond>
5.8160

> <Gold.PLP.Chemscore.CHOScore>
0.0000

> <Gold.PLP.Chemscore.Metal>
0.0000

> <Gold.Chemscore.Hbonds>
donor molecule, donor type, donor heavy atom, donor atom, acceptor molecule, acceptor atom, score
      L1  H    10    26       P1  7948  1.00
      L1  H    12    27       P1  7957  0.82
      L1  H    14    28       P1  8028  1.00
      P1  H  7989  7998       L1    16  1.00
      P1  H  7997  8008       L1     1  1.00
      P1  H  8011  8017       L1    12  1.00

> <Gold.PLP.Chemscore.Internal.Correction>
0.0065

> <Gold.Rescore>
     Score         DG    S(hbond)    S(metal)    S(lipo)     H(rot)  DE(clash)    DE(int)     intcor
     10.54     -14.25       4.86        0.00      25.14       4.06       0.05       3.65       ----

> <Gold.Chemscore.Fitness>
10.5413

> <Gold.Chemscore.DG>
-14.2469

> <Gold.Chemscore.ZeroCoef>
-5.4800

> <Gold.Chemscore.Hbond>
4.8562

> <Gold.Chemscore.Metal>
0.0000

> <Gold.Chemscore.Lipo>
25.1361

> <Gold.Chemscore.Internal_Hbond>
0.0000

> <Gold.Chemscore.DEClash>
0.0515

> <Gold.Chemscore.DEInternal>
3.6541

> <Gold.Chemscore.Rot>
4.0600

> <Gold.Chemscore.Internal.Correction>
   9.000000E+99

> <Gold.Chemscore.Hbonds>
donor molecule, donor type, donor heavy atom, donor atom, acceptor molecule, acceptor atom, score
      L1  H    10    26       P1  7948  0.97
      L1  H    12    27       P1  7957  0.80
      L1  H    14    28       P1  8028  0.96
      P1  H  7989  7998       L1    16  0.70
      P1  H  7997  8008       L1     1  0.15
      P1  H  8011  8017       L1    12  0.29

> <Gold.Chemscore.Hbond.Weighted>
-16.2196

> <Gold.Chemscore.Metal.Weighted>
-0.0000

> <Gold.Chemscore.Lipo.Weighted>
-2.9409

> <Gold.Chemscore.Internal_Hbond.Weighted>
0.0000

> <Gold.Chemscore.DEClash.Weighted>
0.0515

> <Gold.Chemscore.DEInternal.Weighted>
3.6541

> <Gold.Chemscore.Rot.Weighted>
10.3936

> <Gold.Chemscore.Internal.Correction.Weighted>
   9.000000E+99

> <Gold.Protein.RotatedTorsions>
[ 6907 6896 6895 6894 ] final  -99.96 input  -60.11 | X-H torsion
[ 7974 7965 7964 7962 ] final -131.35 input  175.53 | X-H torsion
[ 8008 7997 7996 7995 ] final  -82.59 input   59.86 | X-H torsion
[ 10167 10162 10161 10158 ] final -121.66 input  -65.29 | X-H torsion
[ 10718 10713 10712 10709 ] final   51.90 input   66.30 | X-H torsion
[ 10763 10752 10751 10750 ] final -119.22 input  -60.55 | X-H torsion
[ 11005 11000 10999 10996 ] final   13.90 input  -57.11 | X-H torsion

> <Gold.Protein.ActiveResidues>
 VAL166  LYS551  ARG553  GLY616  TRP617  ASP618  TYR619  PRO620  LYS621  CYS622 
 ASP623  PHE694  ASN695  SER759  ASP760  ASP761  ALA762  ILE779  LEU786  VAL792 
 PHE793  MET794  SER795  GLU796  ALA797  LYS798  CYS799  TRP800  GLU811  SER814 

> <Gold.Protein.RotatedAtoms>
  150.7098  134.0960  159.3948 H   0  0  0  0  0  0  0  0  0  0  0  0  # atno 6907 bound_to 6896
  151.8946  135.0400  160.0510 H   0  0  0  0  0  0  0  0  0  0  0  0  # atno 6908 bound_to 6896
  152.2464  133.5142  159.5336 H   0  0  0  0  0  0  0  0  0  0  0  0  # atno 6909 bound_to 6896
  144.9387  140.7214  143.4860 H   0  0  0  0  0  0  0  0  0  0  0  0  # atno 7974 bound_to 7965
  154.6102  140.0631  156.9484 H   0  0  0  0  0  0  0  0  0  0  0  0  # atno 8008 bound_to 7997
  155.1985  140.3313  155.4328 H   0  0  0  0  0  0  0  0  0  0  0  0  # atno 8009 bound_to 7997
  156.2372  140.1868  156.7070 H   0  0  0  0  0  0  0  0  0  0  0  0  # atno 8010 bound_to 7997
  140.0226  143.5329  152.2213 H   0  0  0  0  0  0  0  0  0  0  0  0  # atno 10167 bound_to 10162
  157.5024  130.8447  149.8333 H   0  0  0  0  0  0  0  0  0  0  0  0  # atno 10718 bound_to 10713
  154.8611  135.4246  154.2264 H   0  0  0  0  0  0  0  0  0  0  0  0  # atno 10763 bound_to 10752
  153.3258  135.6985  153.6996 H   0  0  0  0  0  0  0  0  0  0  0  0  # atno 10764 bound_to 10752
  153.6033  135.3533  155.2926 H   0  0  0  0  0  0  0  0  0  0  0  0  # atno 10765 bound_to 10752
  140.4755  134.0987  155.7741 H   0  0  0  0  0  0  0  0  0  0  0  0  # atno 11005 bound_to 11000
  145.3025  139.1845  143.4682 LP  0  0  0  0  0  0  0  0  0  0  0  0  # atno 17320 bound_to 7965
  146.3277  140.3018  142.8621 LP  0  0  0  0  0  0  0  0  0  0  0  0  # atno 17321 bound_to 7965
  139.6129  144.7613  151.2911 LP  0  0  0  0  0  0  0  0  0  0  0  0  # atno 17342 bound_to 10162
  140.7336  143.6790  150.8017 LP  0  0  0  0  0  0  0  0  0  0  0  0  # atno 17343 bound_to 10162
  156.0237  130.3786  150.1885 LP  0  0  0  0  0  0  0  0  0  0  0  0  # atno 17370 bound_to 10713
  157.0074  130.9941  151.3375 LP  0  0  0  0  0  0  0  0  0  0  0  0  # atno 17371 bound_to 10713
  141.1556  133.8888  157.1985 LP  0  0  0  0  0  0  0  0  0  0  0  0  # atno 17394 bound_to 11000
  139.9858  135.0082  156.9859 LP  0  0  0  0  0  0  0  0  0  0  0  0  # atno 17395 bound_to 11000

$$$$
