AV-unprocessed.smi:3116|AV-procd|sdf|11867|dock7
  -GOLD-   2272017253D 1   1.00000     0.00000
 Structure written by MMmdl.
 34 34  0  0  0  0  0  0  0  0  2 V2000
  149.4691  141.7339  154.8637 C   0  0  0  0  0  0  0  0  0  0  0  0
  150.1315  141.4357  156.2166 C   0  0  1  0  0  0  0  0  0  0  0  0
  150.6864  142.6861  156.7874 N   0  3  0  0  0  0  0  0  0  0  0  0
  150.8961  142.6930  158.2568 C   0  0  2  0  0  0  0  0  0  0  0  0
  149.7991  143.5569  158.9020 C   0  0  0  0  0  0  0  0  0  0  0  0
  152.3260  143.1935  158.6002 C   0  0  1  0  0  0  0  0  0  0  0  0
  152.5368  144.6887  158.2924 C   0  0  0  0  0  0  0  0  0  0  0  0
  152.6737  142.9208  159.9904 N   0  0  0  0  0  0  0  0  0  0  0  0
  152.2320  143.5734  161.1233 C   0  0  0  0  0  0  0  0  0  0  0  0
  152.8334  142.9820  162.1968 C   0  0  0  0  0  0  0  0  0  0  0  0
  153.6330  141.9592  161.6157 C   0  0  0  0  0  0  0  0  0  0  0  0
  153.5368  141.9257  160.2965 N   0  0  0  0  0  0  0  0  0  0  0  0
  149.1213  140.7792  157.1679 C   0  0  0  0  0  0  0  0  0  0  0  0
  148.0147  141.4706  157.4520 N   0  0  0  0  0  0  0  0  0  0  0  0
  149.3411  139.6697  157.6504 O   0  0  0  0  0  0  0  0  0  0  0  0
  149.0725  140.8261  154.4072 H   0  0  0  0  0  0  0  0  0  0  0  0
  150.1890  142.1608  154.1643 H   0  0  0  0  0  0  0  0  0  0  0  0
  148.6459  142.4424  154.9662 H   0  0  0  0  0  0  0  0  0  0  0  0
  150.9509  140.7393  156.0365 H   0  0  0  0  0  0  0  0  0  0  0  0
  151.5810  142.8602  156.3530 H   0  0  0  0  0  0  0  0  0  0  0  0
  150.7772  141.6795  158.6439 H   0  0  0  0  0  0  0  0  0  0  0  0
  149.8292  143.5018  159.9898 H   0  0  0  0  0  0  0  0  0  0  0  0
  148.8067  143.2222  158.5979 H   0  0  0  0  0  0  0  0  0  0  0  0
  149.8971  144.6043  158.6150 H   0  0  0  0  0  0  0  0  0  0  0  0
  153.0339  142.6347  157.9857 H   0  0  0  0  0  0  0  0  0  0  0  0
  152.4701  144.8936  157.2244 H   0  0  0  0  0  0  0  0  0  0  0  0
  153.5246  145.0184  158.6162 H   0  0  0  0  0  0  0  0  0  0  0  0
  151.7977  145.3107  158.7984 H   0  0  0  0  0  0  0  0  0  0  0  0
  151.5347  144.3968  161.0732 H   0  0  0  0  0  0  0  0  0  0  0  0
  152.7172  143.2384  163.2396 H   0  0  0  0  0  0  0  0  0  0  0  0
  154.2769  141.2460  162.1092 H   0  0  0  0  0  0  0  0  0  0  0  0
  147.3165  141.0832  158.0703 H   0  0  0  0  0  0  0  0  0  0  0  0
  147.8776  142.3838  157.0424 H   0  0  0  0  0  0  0  0  0  0  0  0
  150.0608  143.4411  156.5445 H   0  0  0  0  0  0  0  0  0  0  0  0
  1  2  1  0  0  0  0
  1 16  1  0  0  0  0
  1 17  1  0  0  0  0
  1 18  1  0  0  0  0
  2  3  1  0  0  0  0
  2 13  1  0  0  0  0
  2 19  1  0  0  0  0
  3  4  1  0  0  0  0
  3 20  1  0  0  0  0
  3 34  1  0  0  0  0
  4  5  1  0  0  0  0
  4  6  1  0  0  0  0
  4 21  1  0  0  0  0
  5 22  1  0  0  0  0
  5 23  1  0  0  0  0
  5 24  1  0  0  0  0
  6  7  1  0  0  0  0
  6  8  1  0  0  0  0
  6 25  1  0  0  0  0
  7 26  1  0  0  0  0
  7 27  1  0  0  0  0
  7 28  1  0  0  0  0
  8 12  1  0  0  0  0
  8  9  1  0  0  0  0
  9 10  2  0  0  0  0
  9 29  1  0  0  0  0
 10 11  1  0  0  0  0
 10 30  1  0  0  0  0
 11 12  2  0  0  0  0
 11 31  1  0  0  0  0
 13 14  1  0  0  0  0
 13 15  2  0  0  0  0
 14 32  1  0  0  0  0
 14 33  1  0  0  0  0
M  CHG  1   3   1
M  END
> <s_m_source_file>
AV-unprocessed.smi

> <i_m_source_file_index>
3116

> <i_lp_mmshare_version>
43012

> <i_f3d_flags>
0

> <s_epik_input>
W05IMl1DKD1PKVtDQEhdKFtDSDNdKVtOSF1bQ0BIXShbQ0gzXSlbQ0BIXShbQ0gzXSluMVtjSF1bY0hdW2NIXW4x

> <s_epik_cmdline>
J2VwaWtfcHl0aG9uJywgJy1waCcsICc3LjAnLCAnLXRuJywgJzgnLCAnLW1hJywgJzIwMCcsICctbWV0YWxfYmluZGluZycsICctaW1hZScsICc8aW5maWxlLm1hZT4nLCAnLW9tYWUnLCAnPG91dGZpbGUubWFlPic=

> <r_lp_tautomer_probability>
1

> <r_epik_Ionization_Penalty>
0.15658

> <r_epik_Ionization_Penalty_Charging>
0.156568

> <r_epik_Ionization_Penalty_Neutral>
1.19778e-05

> <r_epik_State_Penalty>
0.145866

> <r_epik_Charging_Adjusted_Penalty>
0.302434

> <i_epik_Tot_Q>
1

> <i_epik_Tot_abs_Q>
1

> <r_epik_Metal_State_Penalty>
0.146064

> <b_epik_Metal_Only>
0

> <s_lp_Force_Field>
OPLS_2005

> <r_lp_Energy>
9.77371

> <b_lp_Chiralities_Consistent>
1

> <s_lp_Variant>
AV-unprocessed.smi:3116-6

> <Gold.Version>
5.8.1

> <Gold.Id.Protein>
6NUR|6NUR_protein|mol2

> <Gold.PLP.Fitness>
40.8082

> <Gold.PLP.PLP>
-37.3047

> <Gold.PLP.part.hbond>
-1.0000

> <Gold.PLP.part.metal>
0.0000

> <Gold.PLP.part.buried>
-3.9984

> <Gold.PLP.part.nonpolar>
-31.5329

> <Gold.PLP.part.repulsive>
0.1336

> <Gold.PLP.ligand.clash>
0.0000

> <Gold.PLP.ligand.torsion>
1.2879

> <Gold.PLP.Chemscore.Hbond>
2.0000

> <Gold.PLP.Chemscore.CHOScore>
0.0000

> <Gold.PLP.Chemscore.Metal>
0.0000

> <Gold.Chemscore.Hbonds>
donor molecule, donor type, donor heavy atom, donor atom, acceptor molecule, acceptor atom, score
      L1  H     3    34       P1  8028  2.00

> <Gold.PLP.Chemscore.Internal.Correction>
0.0792

> <Gold.Rescore>
     Score         DG    S(hbond)    S(metal)    S(lipo)     H(rot)  DE(clash)    DE(int)     intcor
     12.35     -13.25       1.00        0.00      91.35       2.45       0.00       0.89       ----

> <Gold.Chemscore.Fitness>
12.3527

> <Gold.Chemscore.DG>
-13.2497

> <Gold.Chemscore.ZeroCoef>
-5.4800

> <Gold.Chemscore.Hbond>
1.0015

> <Gold.Chemscore.Metal>
0.0000

> <Gold.Chemscore.Lipo>
91.3487

> <Gold.Chemscore.Internal_Hbond>
0.0000

> <Gold.Chemscore.DEClash>
0.0029

> <Gold.Chemscore.DEInternal>
0.8940

> <Gold.Chemscore.Rot>
2.4465

> <Gold.Chemscore.Internal.Correction>
   9.000000E+99

> <Gold.Chemscore.Hbonds>
donor molecule, donor type, donor heavy atom, donor atom, acceptor molecule, acceptor atom, score
      L1  H     3    34       P1  8028  0.99

> <Gold.Chemscore.Hbond.Weighted>
-3.3450

> <Gold.Chemscore.Metal.Weighted>
-0.0000

> <Gold.Chemscore.Lipo.Weighted>
-10.6878

> <Gold.Chemscore.Internal_Hbond.Weighted>
0.0000

> <Gold.Chemscore.DEClash.Weighted>
0.0029

> <Gold.Chemscore.DEInternal.Weighted>
0.8940

> <Gold.Chemscore.Rot.Weighted>
6.2631

> <Gold.Chemscore.Internal.Correction.Weighted>
   9.000000E+99

> <Gold.Protein.RotatedTorsions>
[ 6907 6896 6895 6894 ] final  -52.61 input  -60.11 | X-H torsion
[ 7974 7965 7964 7962 ] final   14.72 input  175.53 | X-H torsion
[ 8008 7997 7996 7995 ] final -107.63 input   59.86 | X-H torsion
[ 10167 10162 10161 10158 ] final  159.62 input  -65.29 | X-H torsion
[ 10718 10713 10712 10709 ] final    4.63 input   66.30 | X-H torsion
[ 10763 10752 10751 10750 ] final   71.83 input  -60.55 | X-H torsion
[ 11005 11000 10999 10996 ] final -171.75 input  -57.11 | X-H torsion

> <Gold.Protein.ActiveResidues>
 VAL166  LYS551  ARG553  GLY616  TRP617  ASP618  TYR619  PRO620  LYS621  CYS622 
 ASP623  PHE694  ASN695  SER759  ASP760  ASP761  ALA762  ILE779  LEU786  VAL792 
 PHE793  MET794  SER795  GLU796  ALA797  LYS798  CYS799  TRP800  GLU811  SER814 

> <Gold.Protein.RotatedAtoms>
  150.8502  134.7824  159.7002 H   0  0  0  0  0  0  0  0  0  0  0  0  # atno 6907 bound_to 6896
  152.4568  134.5269  159.9809 H   0  0  0  0  0  0  0  0  0  0  0  0  # atno 6908 bound_to 6896
  151.5392  133.3397  159.2968 H   0  0  0  0  0  0  0  0  0  0  0  0  # atno 6909 bound_to 6896
  146.2297  139.9000  142.8541 H   0  0  0  0  0  0  0  0  0  0  0  0  # atno 7974 bound_to 7965
  154.9322  140.0404  157.2054 H   0  0  0  0  0  0  0  0  0  0  0  0  # atno 8008 bound_to 7997
  154.8149  140.2874  155.5805 H   0  0  0  0  0  0  0  0  0  0  0  0  # atno 8009 bound_to 7997
  156.2975  140.2530  156.3045 H   0  0  0  0  0  0  0  0  0  0  0  0  # atno 8010 bound_to 7997
  139.4833  144.4713  151.8572 H   0  0  0  0  0  0  0  0  0  0  0  0  # atno 10167 bound_to 10162
  156.8955  130.5703  149.5649 H   0  0  0  0  0  0  0  0  0  0  0  0  # atno 10718 bound_to 10713
  153.0422  135.5122  154.7653 H   0  0  0  0  0  0  0  0  0  0  0  0  # atno 10763 bound_to 10752
  154.6581  135.2934  154.9904 H   0  0  0  0  0  0  0  0  0  0  0  0  # atno 10764 bound_to 10752
  154.0764  135.6670  153.4884 H   0  0  0  0  0  0  0  0  0  0  0  0  # atno 10765 bound_to 10752
  140.5047  134.5859  157.4999 H   0  0  0  0  0  0  0  0  0  0  0  0  # atno 11005 bound_to 11000
  145.2333  140.9981  143.3978 LP  0  0  0  0  0  0  0  0  0  0  0  0  # atno 17320 bound_to 7965
  144.9512  139.4081  143.6401 LP  0  0  0  0  0  0  0  0  0  0  0  0  # atno 17321 bound_to 7965
  140.4182  144.2279  150.5887 LP  0  0  0  0  0  0  0  0  0  0  0  0  # atno 17342 bound_to 10162
  140.4900  143.2350  151.8832 LP  0  0  0  0  0  0  0  0  0  0  0  0  # atno 17343 bound_to 10162
  156.0608  130.5661  150.9188 LP  0  0  0  0  0  0  0  0  0  0  0  0  # atno 17370 bound_to 10713
  157.6058  131.0939  150.8882 LP  0  0  0  0  0  0  0  0  0  0  0  0  # atno 17371 bound_to 10713
  139.9693  134.7320  156.0074 LP  0  0  0  0  0  0  0  0  0  0  0  0  # atno 17394 bound_to 11000
  141.1417  133.6563  156.3749 LP  0  0  0  0  0  0  0  0  0  0  0  0  # atno 17395 bound_to 11000

$$$$
