AV-unprocessed.smi:1911|AV-procd|sdf|7740|dock1
  -GOLD-   22720 9483D 1   1.00000     0.00000
 Structure written by MMmdl.
 52 54  0  0  0  0  0  0  0  0  2 V2000
  142.7460  132.4611  150.1609 N   0  0  0  0  0  0  0  0  0  0  0  0
  143.9122  132.2767  150.7835 C   0  0  0  0  0  0  0  0  0  0  0  0
  144.4737  131.1833  150.8133 O   0  0  0  0  0  0  0  0  0  0  0  0
  144.5432  133.5034  151.4499 C   0  0  0  0  0  0  0  0  0  0  0  0
  145.5767  133.1477  152.4563 N   0  3  2  0  0  0  0  0  0  0  0  0
  145.5377  134.0150  153.6639 C   0  0  0  0  0  0  0  0  0  0  0  0
  146.5221  133.5169  154.7366 C   0  0  0  0  0  0  0  0  0  0  0  0
  147.9601  133.3985  154.1937 C   0  0  2  0  0  0  0  0  0  0  0  0
  148.5671  134.7092  153.9618 N   0  0  0  0  0  0  0  0  0  0  0  0
  148.8675  135.6029  154.9156 C   0  0  0  0  0  0  0  0  0  0  0  0
  148.6200  135.4284  156.1081 O   0  0  0  0  0  0  0  0  0  0  0  0
  149.4452  136.6971  154.3907 N   0  0  0  0  0  0  0  0  0  0  0  0
  149.9728  137.8328  155.0633 C   0  0  0  0  0  0  0  0  0  0  0  0
  150.1018  137.7696  156.4644 C   0  0  0  0  0  0  0  0  0  0  0  0
  150.5956  138.8870  157.1637 C   0  0  0  0  0  0  0  0  0  0  0  0
  150.9451  140.0508  156.4391 C   0  0  0  0  0  0  0  0  0  0  0  0
  151.4310  141.1993  157.0942 N   0  0  0  0  0  0  0  0  0  0  0  0
  150.9842  142.5426  156.7663 C   0  0  0  0  0  0  0  0  0  0  0  0
  151.7239  143.4464  157.7525 C   0  0  0  0  0  0  0  0  0  0  0  0
  151.8768  142.5633  158.9913 C   0  0  0  0  0  0  0  0  0  0  0  0
  152.0259  141.1477  158.4229 C   0  0  0  0  0  0  0  0  0  0  0  0
  150.8100  140.1175  155.0936 N   0  0  0  0  0  0  0  0  0  0  0  0
  150.3373  139.0435  154.4270 C   0  0  0  0  0  0  0  0  0  0  0  0
  147.9629  132.5664  152.8997 C   0  0  0  0  0  0  0  0  0  0  0  0
  146.9406  133.0865  151.8726 C   0  0  0  0  0  0  0  0  0  0  0  0
  142.2946  131.6822  149.7021 H   0  0  0  0  0  0  0  0  0  0  0  0
  142.3176  133.3756  150.1425 H   0  0  0  0  0  0  0  0  0  0  0  0
  144.9955  134.0914  150.6501 H   0  0  0  0  0  0  0  0  0  0  0  0
  143.7763  134.1321  151.9053 H   0  0  0  0  0  0  0  0  0  0  0  0
  145.7729  135.0432  153.3845 H   0  0  0  0  0  0  0  0  0  0  0  0
  144.5317  134.0275  154.0838 H   0  0  0  0  0  0  0  0  0  0  0  0
  146.4915  134.1736  155.6068 H   0  0  0  0  0  0  0  0  0  0  0  0
  146.1941  132.5380  155.0891 H   0  0  0  0  0  0  0  0  0  0  0  0
  148.5702  132.8728  154.9307 H   0  0  0  0  0  0  0  0  0  0  0  0
  148.8055  134.9399  153.0084 H   0  0  0  0  0  0  0  0  0  0  0  0
  149.4999  136.7312  153.3835 H   0  0  0  0  0  0  0  0  0  0  0  0
  149.8255  136.8747  157.0026 H   0  0  0  0  0  0  0  0  0  0  0  0
  150.6942  138.8356  158.2375 H   0  0  0  0  0  0  0  0  0  0  0  0
  151.2136  142.8062  155.7337 H   0  0  0  0  0  0  0  0  0  0  0  0
  149.9056  142.6109  156.9129 H   0  0  0  0  0  0  0  0  0  0  0  0
  152.7095  143.6949  157.3564 H   0  0  0  0  0  0  0  0  0  0  0  0
  151.1959  144.3787  157.9529 H   0  0  0  0  0  0  0  0  0  0  0  0
  152.7158  142.8559  159.6229 H   0  0  0  0  0  0  0  0  0  0  0  0
  150.9687  142.6219  159.5923 H   0  0  0  0  0  0  0  0  0  0  0  0
  151.5394  140.4135  159.0659 H   0  0  0  0  0  0  0  0  0  0  0  0
  153.0777  140.8763  158.3277 H   0  0  0  0  0  0  0  0  0  0  0  0
  150.2346  139.1874  153.3632 H   0  0  0  0  0  0  0  0  0  0  0  0
  148.9616  132.5512  152.4613 H   0  0  0  0  0  0  0  0  0  0  0  0
  147.7243  131.5299  153.1424 H   0  0  0  0  0  0  0  0  0  0  0  0
  146.9405  132.4238  151.0064 H   0  0  0  0  0  0  0  0  0  0  0  0
  147.2291  134.0756  151.5135 H   0  0  0  0  0  0  0  0  0  0  0  0
  145.3563  132.2094  152.7603 H   0  0  0  0  0  0  0  0  0  0  0  0
  1  2  1  0  0  0  0
  1 26  1  0  0  0  0
  1 27  1  0  0  0  0
  2  3  2  0  0  0  0
  2  4  1  0  0  0  0
  4  5  1  0  0  0  0
  4 28  1  0  0  0  0
  4 29  1  0  0  0  0
  5 25  1  0  0  0  0
  5  6  1  0  0  0  0
  5 52  1  0  0  0  0
  6  7  1  0  0  0  0
  6 30  1  0  0  0  0
  6 31  1  0  0  0  0
  7  8  1  0  0  0  0
  7 32  1  0  0  0  0
  7 33  1  0  0  0  0
  8  9  1  0  0  0  0
  8 24  1  0  0  0  0
  8 34  1  0  0  0  0
  9 10  1  0  0  0  0
  9 35  1  0  0  0  0
 10 11  2  0  0  0  0
 10 12  1  0  0  0  0
 12 13  1  0  0  0  0
 12 36  1  0  0  0  0
 13 23  1  0  0  0  0
 13 14  2  0  0  0  0
 14 15  1  0  0  0  0
 14 37  1  0  0  0  0
 15 16  2  0  0  0  0
 15 38  1  0  0  0  0
 16 17  1  0  0  0  0
 16 22  1  0  0  0  0
 17 21  1  0  0  0  0
 17 18  1  0  0  0  0
 18 19  1  0  0  0  0
 18 39  1  0  0  0  0
 18 40  1  0  0  0  0
 19 20  1  0  0  0  0
 19 41  1  0  0  0  0
 19 42  1  0  0  0  0
 20 21  1  0  0  0  0
 20 43  1  0  0  0  0
 20 44  1  0  0  0  0
 21 45  1  0  0  0  0
 21 46  1  0  0  0  0
 22 23  2  0  0  0  0
 23 47  1  0  0  0  0
 24 25  1  0  0  0  0
 24 48  1  0  0  0  0
 24 49  1  0  0  0  0
 25 50  1  0  0  0  0
 25 51  1  0  0  0  0
M  CHG  1   5   1
M  END
> <s_m_source_file>
AV-unprocessed.smi

> <i_m_source_file_index>
1911

> <i_lp_mmshare_version>
43012

> <i_f3d_flags>
0

> <s_epik_input>
W05IMl1DKD1PKVtDSDJdTjFbQ0gyXVtDSDJdW0NIXShbQ0gyXVtDSDJdMSlbTkhdQyg9TylbTkhdYzJbY0hdW2NIXWMobltjSF0yKU4zW0NIMl1bQ0gyXVtDSDJdW0NIMl0z

> <s_epik_cmdline>
J2VwaWtfcHl0aG9uJywgJy1waCcsICc3LjAnLCAnLXRuJywgJzgnLCAnLW1hJywgJzIwMCcsICctbWV0YWxfYmluZGluZycsICctaW1hZScsICc8aW5maWxlLm1hZT4nLCAnLW9tYWUnLCAnPG91dGZpbGUubWFlPic=

> <r_lp_tautomer_probability>
1

> <r_epik_Ionization_Penalty>
0.91661

> <r_epik_Ionization_Penalty_Charging>
0.838844

> <r_epik_Ionization_Penalty_Neutral>
0.0777665

> <r_epik_State_Penalty>
0.927046

> <r_epik_Charging_Adjusted_Penalty>
1.76589

> <i_epik_Tot_Q>
1

> <i_epik_Tot_abs_Q>
1

> <r_epik_Metal_State_Penalty>
0.950553

> <b_epik_Metal_Only>
0

> <s_lp_Force_Field>
OPLS_2005

> <r_lp_Energy>
39.2928

> <b_lp_Chiralities_Consistent>
1

> <s_lp_Variant>
AV-unprocessed.smi:1911-3

> <Gold.Version>
5.8.1

> <Gold.Id.Protein>
6NUR|6NUR_protein|mol2

> <Gold.PLP.Fitness>
52.3351

> <Gold.PLP.PLP>
-37.8309

> <Gold.PLP.part.hbond>
-5.1906

> <Gold.PLP.part.metal>
0.0000

> <Gold.PLP.part.buried>
-5.9715

> <Gold.PLP.part.nonpolar>
-27.3051

> <Gold.PLP.part.repulsive>
0.3351

> <Gold.PLP.ligand.clash>
0.0000

> <Gold.PLP.ligand.torsion>
1.2630

> <Gold.PLP.Chemscore.Hbond>
4.5880

> <Gold.PLP.Chemscore.CHOScore>
1.0000

> <Gold.PLP.Chemscore.Metal>
0.0000

> <Gold.Chemscore.Hbonds>
donor molecule, donor type, donor heavy atom, donor atom, acceptor molecule, acceptor atom, score
      L1  H     1    26       P1 10952  1.00
      L1  H     1    27       P1 10186  0.96
      L1  H     9    35       P1  7948  0.93
      L1  H    12    36       P1  7948  1.00
      P1  H  7989  7998       L1    22  0.65
      L1  C    23    47       P1  7957  1.00

> <Gold.PLP.Chemscore.Internal.Correction>
0.2663

> <Gold.Rescore>
     Score         DG    S(hbond)    S(metal)    S(lipo)     H(rot)  DE(clash)    DE(int)     intcor
     19.16     -21.77       3.58        0.00      78.89       1.91       0.05       2.55       ----

> <Gold.Chemscore.Fitness>
19.1625

> <Gold.Chemscore.DG>
-21.7708

> <Gold.Chemscore.ZeroCoef>
-5.4800

> <Gold.Chemscore.Hbond>
3.5758

> <Gold.Chemscore.Metal>
0.0000

> <Gold.Chemscore.Lipo>
78.8922

> <Gold.Chemscore.Internal_Hbond>
0.0000

> <Gold.Chemscore.DEClash>
0.0542

> <Gold.Chemscore.DEInternal>
2.5541

> <Gold.Chemscore.Rot>
1.9074

> <Gold.Chemscore.Internal.Correction>
   9.000000E+99

> <Gold.Chemscore.Hbonds>
donor molecule, donor type, donor heavy atom, donor atom, acceptor molecule, acceptor atom, score
      L1  H     1    26       P1 10952  0.92
      L1  H     1    27       P1 10186  0.92
      L1  H     9    35       P1  7948  0.23
      L1  H    12    36       P1  7948  0.75
      P1  H  7989  7998       L1    22  0.06

> <Gold.Chemscore.Hbond.Weighted>
-11.9433

> <Gold.Chemscore.Metal.Weighted>
-0.0000

> <Gold.Chemscore.Lipo.Weighted>
-9.2304

> <Gold.Chemscore.Internal_Hbond.Weighted>
0.0000

> <Gold.Chemscore.DEClash.Weighted>
0.0542

> <Gold.Chemscore.DEInternal.Weighted>
2.5541

> <Gold.Chemscore.Rot.Weighted>
4.8829

> <Gold.Chemscore.Internal.Correction.Weighted>
   9.000000E+99

> <Gold.Protein.RotatedTorsions>
[ 6907 6896 6895 6894 ] final   19.56 input  -60.11 | X-H torsion
[ 7974 7965 7964 7962 ] final -153.94 input  175.53 | X-H torsion
[ 8008 7997 7996 7995 ] final   40.35 input   59.86 | X-H torsion
[ 10167 10162 10161 10158 ] final  127.16 input  -65.29 | X-H torsion
[ 10718 10713 10712 10709 ] final  160.07 input   66.30 | X-H torsion
[ 10763 10752 10751 10750 ] final   75.38 input  -60.55 | X-H torsion
[ 11005 11000 10999 10996 ] final -160.12 input  -57.11 | X-H torsion

> <Gold.Protein.ActiveResidues>
 VAL166  LYS551  ARG553  GLY616  TRP617  ASP618  TYR619  PRO620  LYS621  CYS622 
 ASP623  PHE694  ASN695  SER759  ASP760  ASP761  ALA762  ILE779  LEU786  VAL792 
 PHE793  MET794  SER795  GLU796  ALA797  LYS798  CYS799  TRP800  GLU811  SER814 

> <Gold.Protein.RotatedAtoms>
  151.8828  135.0447  160.0490 H   0  0  0  0  0  0  0  0  0  0  0  0  # atno 6907 bound_to 6896
  152.2499  133.5201  159.5327 H   0  0  0  0  0  0  0  0  0  0  0  0  # atno 6908 bound_to 6896
  150.7080  134.0891  159.3968 H   0  0  0  0  0  0  0  0  0  0  0  0  # atno 6909 bound_to 6896
  144.7714  140.4456  143.5904 H   0  0  0  0  0  0  0  0  0  0  0  0  # atno 7974 bound_to 7965
  155.2517  140.3353  155.4281 H   0  0  0  0  0  0  0  0  0  0  0  0  # atno 8008 bound_to 7997
  156.2212  140.1810  156.7515 H   0  0  0  0  0  0  0  0  0  0  0  0  # atno 8009 bound_to 7997
  154.5829  140.0650  156.9114 H   0  0  0  0  0  0  0  0  0  0  0  0  # atno 8010 bound_to 7997
  139.5593  144.6871  151.4090 H   0  0  0  0  0  0  0  0  0  0  0  0  # atno 10167 bound_to 10162
  157.1554  131.0574  151.2259 H   0  0  0  0  0  0  0  0  0  0  0  0  # atno 10718 bound_to 10713
  153.0651  135.4991  154.8181 H   0  0  0  0  0  0  0  0  0  0  0  0  # atno 10763 bound_to 10752
  154.6941  135.2989  154.9439 H   0  0  0  0  0  0  0  0  0  0  0  0  # atno 10764 bound_to 10752
  154.0184  135.6745  153.4823 H   0  0  0  0  0  0  0  0  0  0  0  0  # atno 10765 bound_to 10752
  140.6350  134.4611  157.5231 H   0  0  0  0  0  0  0  0  0  0  0  0  # atno 11005 bound_to 11000
  145.6311  139.1536  143.2968 LP  0  0  0  0  0  0  0  0  0  0  0  0  # atno 17320 bound_to 7965
  146.1864  140.6415  142.9166 LP  0  0  0  0  0  0  0  0  0  0  0  0  # atno 17321 bound_to 7965
  140.6870  143.7949  150.7201 LP  0  0  0  0  0  0  0  0  0  0  0  0  # atno 17342 bound_to 10162
  140.1420  143.4432  152.2187 LP  0  0  0  0  0  0  0  0  0  0  0  0  # atno 17343 bound_to 10162
  157.4182  130.7422  149.6892 LP  0  0  0  0  0  0  0  0  0  0  0  0  # atno 17370 bound_to 10713
  155.9763  130.4077  150.3789 LP  0  0  0  0  0  0  0  0  0  0  0  0  # atno 17371 bound_to 10713
  139.9101  134.8362  156.1558 LP  0  0  0  0  0  0  0  0  0  0  0  0  # atno 17394 bound_to 11000
  141.0648  133.6824  156.2023 LP  0  0  0  0  0  0  0  0  0  0  0  0  # atno 17395 bound_to 11000

$$$$
