AV-unprocessed.smi:2593|AV-procd|sdf|10165|dock4
  -GOLD-   2272014183D 1   1.00000     0.00000
 Structure written by MMmdl.
 41 43  0  0  0  0  0  0  0  0  2 V2000
  153.9878  137.5699  157.8139 C   0  0  0  0  0  0  0  0  0  0  0  0
  154.3121  138.7950  158.4463 O   0  0  0  0  0  0  0  0  0  0  0  0
  153.5110  139.0480  159.5894 C   0  0  0  0  0  0  0  0  0  0  0  0
  152.0356  139.1376  159.1747 C   0  0  0  0  0  0  0  0  0  0  0  0
  151.7940  140.2321  158.2459 N   0  0  0  0  0  0  0  0  0  0  0  0
  151.3533  140.1582  156.9654 C   0  0  0  0  0  0  0  0  0  0  0  0
  150.9804  138.6031  156.2069 S   0  0  0  0  0  0  0  0  0  0  0  0
  151.1342  139.0627  154.4552 C   0  0  0  0  0  0  0  0  0  0  0  0
  149.7951  139.5444  153.9352 C   0  0  0  0  0  0  0  0  0  0  0  0
  149.2754  140.8135  154.2691 C   0  0  0  0  0  0  0  0  0  0  0  0
  148.0227  141.2020  153.7515 C   0  0  0  0  0  0  0  0  0  0  0  0
  147.3164  140.3151  152.9125 C   0  0  0  0  0  0  0  0  0  0  0  0
  147.8814  139.0582  152.6111 C   0  0  0  0  0  0  0  0  0  0  0  0
  147.2357  138.1344  151.7918 N   0  0  0  0  0  0  0  0  0  0  0  0
  149.0849  138.7243  153.1270 N   0  3  0  0  0  0  0  0  0  0  0  0
  151.2160  141.3289  156.3395 N   0  0  0  0  0  0  0  0  0  0  0  0
  151.5997  142.2419  157.3018 C   0  0  0  0  0  0  0  0  0  0  0  0
  151.6714  143.6525  157.2534 C   0  0  0  0  0  0  0  0  0  0  0  0
  152.0960  144.3843  158.3818 C   0  0  0  0  0  0  0  0  0  0  0  0
  152.4534  143.7176  159.5716 C   0  0  0  0  0  0  0  0  0  0  0  0
  152.3900  142.3125  159.6400 C   0  0  0  0  0  0  0  0  0  0  0  0
  151.9671  141.5871  158.5100 C   0  0  0  0  0  0  0  0  0  0  0  0
  154.6347  137.4226  156.9490 H   0  0  0  0  0  0  0  0  0  0  0  0
  152.9544  137.5683  157.4655 H   0  0  0  0  0  0  0  0  0  0  0  0
  154.1320  136.7263  158.4902 H   0  0  0  0  0  0  0  0  0  0  0  0
  153.6403  138.2491  160.3209 H   0  0  0  0  0  0  0  0  0  0  0  0
  153.8227  139.9793  160.0649 H   0  0  0  0  0  0  0  0  0  0  0  0
  151.7267  138.2055  158.7008 H   0  0  0  0  0  0  0  0  0  0  0  0
  151.3974  139.2578  160.0503 H   0  0  0  0  0  0  0  0  0  0  0  0
  151.8897  139.8409  154.3392 H   0  0  0  0  0  0  0  0  0  0  0  0
  151.4556  138.1976  153.8739 H   0  0  0  0  0  0  0  0  0  0  0  0
  149.8304  141.4811  154.9123 H   0  0  0  0  0  0  0  0  0  0  0  0
  147.6080  142.1691  153.9955 H   0  0  0  0  0  0  0  0  0  0  0  0
  146.3552  140.6000  152.5096 H   0  0  0  0  0  0  0  0  0  0  0  0
  146.3343  138.3323  151.3814 H   0  0  0  0  0  0  0  0  0  0  0  0
  147.6343  137.2262  151.6013 H   0  0  0  0  0  0  0  0  0  0  0  0
  151.3983  144.1726  156.3469 H   0  0  0  0  0  0  0  0  0  0  0  0
  152.1460  145.4622  158.3350 H   0  0  0  0  0  0  0  0  0  0  0  0
  152.7753  144.2851  160.4325 H   0  0  0  0  0  0  0  0  0  0  0  0
  152.6596  141.7994  160.5513 H   0  0  0  0  0  0  0  0  0  0  0  0
  149.4789  137.8116  152.8975 H   0  0  0  0  0  0  0  0  0  0  0  0
  1  2  1  0  0  0  0
  1 23  1  0  0  0  0
  1 24  1  0  0  0  0
  1 25  1  0  0  0  0
  2  3  1  0  0  0  0
  3  4  1  0  0  0  0
  3 26  1  0  0  0  0
  3 27  1  0  0  0  0
  4  5  1  0  0  0  0
  4 28  1  0  0  0  0
  4 29  1  0  0  0  0
  5 22  1  0  0  0  0
  5  6  1  0  0  0  0
  6  7  1  0  0  0  0
  6 16  2  0  0  0  0
  7  8  1  0  0  0  0
  8  9  1  0  0  0  0
  8 30  1  0  0  0  0
  8 31  1  0  0  0  0
  9 15  1  0  0  0  0
  9 10  2  0  0  0  0
 10 11  1  0  0  0  0
 10 32  1  0  0  0  0
 11 12  2  0  0  0  0
 11 33  1  0  0  0  0
 12 13  1  0  0  0  0
 12 34  1  0  0  0  0
 13 14  1  0  0  0  0
 13 15  2  0  0  0  0
 14 35  1  0  0  0  0
 14 36  1  0  0  0  0
 15 41  1  0  0  0  0
 16 17  1  0  0  0  0
 17 22  2  0  0  0  0
 17 18  1  0  0  0  0
 18 19  2  0  0  0  0
 18 37  1  0  0  0  0
 19 20  1  0  0  0  0
 19 38  1  0  0  0  0
 20 21  2  0  0  0  0
 20 39  1  0  0  0  0
 21 22  1  0  0  0  0
 21 40  1  0  0  0  0
M  CHG  1  15   1
M  END
> <s_m_source_file>
AV-unprocessed.smi

> <i_m_source_file_index>
2593

> <i_lp_mmshare_version>
43012

> <i_f3d_flags>
0

> <s_epik_input>
W2NIXTFbY0hdW2NIXVtjSF1jKGMxMiluKFtDSDJdW0NIMl1PW0NIM10pYyhuMilTW0NIMl1jM1tjSF1bY0hdW2NIXWMobjMpW05IMl0=

> <s_epik_cmdline>
J2VwaWtfcHl0aG9uJywgJy1waCcsICc3LjAnLCAnLXRuJywgJzgnLCAnLW1hJywgJzIwMCcsICctbWV0YWxfYmluZGluZycsICctaW1hZScsICc8aW5maWxlLm1hZT4nLCAnLW9tYWUnLCAnPG91dGZpbGUubWFlPic=

> <r_epik_Ionization_Penalty>
2.18774

> <r_epik_Ionization_Penalty_Charging>
2.15599

> <r_epik_Ionization_Penalty_Neutral>
0.0317477

> <r_epik_State_Penalty>
2.32894

> <r_epik_Charging_Adjusted_Penalty>
4.48493

> <i_epik_Tot_Q>
1

> <i_epik_Tot_abs_Q>
1

> <r_epik_Metal_State_Penalty>
2.33496

> <b_epik_Metal_Only>
0

> <s_lp_Force_Field>
OPLS_2005

> <r_lp_Energy>
14.8683

> <b_lp_Chiralities_Consistent>
1

> <s_lp_Variant>
AV-unprocessed.smi:2593-3

> <Gold.Version>
5.8.1

> <Gold.Id.Protein>
6NUR|6NUR_protein|mol2

> <Gold.PLP.Fitness>
57.6583

> <Gold.PLP.PLP>
-45.5032

> <Gold.PLP.part.hbond>
-4.1849

> <Gold.PLP.part.metal>
0.0000

> <Gold.PLP.part.buried>
0.5361

> <Gold.PLP.part.nonpolar>
-41.5077

> <Gold.PLP.part.repulsive>
0.2244

> <Gold.PLP.ligand.clash>
0.0000

> <Gold.PLP.ligand.torsion>
0.6957

> <Gold.PLP.Chemscore.Hbond>
4.4834

> <Gold.PLP.Chemscore.CHOScore>
0.0000

> <Gold.PLP.Chemscore.Metal>
0.0000

> <Gold.Chemscore.Hbonds>
donor molecule, donor type, donor heavy atom, donor atom, acceptor molecule, acceptor atom, score
      L1  H    14    36       P1  7948  1.82
      L1  H    15    41       P1  7948  1.54
      P1  H  7997  8008       L1     2  1.00

> <Gold.PLP.Chemscore.Internal.Correction>
0.0964

> <Gold.Rescore>
     Score         DG    S(hbond)    S(metal)    S(lipo)     H(rot)  DE(clash)    DE(int)     intcor
     21.55     -22.57       2.65        0.00     118.80       2.21       0.34       0.68       ----

> <Gold.Chemscore.Fitness>
21.5526

> <Gold.Chemscore.DG>
-22.5655

> <Gold.Chemscore.ZeroCoef>
-5.4800

> <Gold.Chemscore.Hbond>
2.6459

> <Gold.Chemscore.Metal>
0.0000

> <Gold.Chemscore.Lipo>
118.7950

> <Gold.Chemscore.Internal_Hbond>
0.0000

> <Gold.Chemscore.DEClash>
0.3371

> <Gold.Chemscore.DEInternal>
0.6758

> <Gold.Chemscore.Rot>
2.2073

> <Gold.Chemscore.Internal.Correction>
   9.000000E+99

> <Gold.Chemscore.Hbonds>
donor molecule, donor type, donor heavy atom, donor atom, acceptor molecule, acceptor atom, score
      L1  H    14    36       P1  7948  0.88
      L1  H    15    41       P1  7948  0.64
      P1  H  7997  8008       L1     2  0.53

> <Gold.Chemscore.Hbond.Weighted>
-8.8373

> <Gold.Chemscore.Metal.Weighted>
-0.0000

> <Gold.Chemscore.Lipo.Weighted>
-13.8990

> <Gold.Chemscore.Internal_Hbond.Weighted>
0.0000

> <Gold.Chemscore.DEClash.Weighted>
0.3371

> <Gold.Chemscore.DEInternal.Weighted>
0.6758

> <Gold.Chemscore.Rot.Weighted>
5.6508

> <Gold.Chemscore.Internal.Correction.Weighted>
   9.000000E+99

> <Gold.Protein.RotatedTorsions>
[ 6907 6896 6895 6894 ] final  160.57 input  -60.11 | X-H torsion
[ 7974 7965 7964 7962 ] final   30.84 input  175.53 | X-H torsion
[ 8008 7997 7996 7995 ] final  -89.13 input   59.86 | X-H torsion
[ 10167 10162 10161 10158 ] final  166.38 input  -65.29 | X-H torsion
[ 10718 10713 10712 10709 ] final    1.62 input   66.30 | X-H torsion
[ 10763 10752 10751 10750 ] final   85.23 input  -60.55 | X-H torsion
[ 11005 11000 10999 10996 ] final -142.40 input  -57.11 | X-H torsion

> <Gold.Protein.ActiveResidues>
 VAL166  LYS551  ARG553  GLY616  TRP617  ASP618  TYR619  PRO620  LYS621  CYS622 
 ASP623  PHE694  ASN695  SER759  ASP760  ASP761  ALA762  ILE779  LEU786  VAL792 
 PHE793  MET794  SER795  GLU796  ALA797  LYS798  CYS799  TRP800  GLU811  SER814 

> <Gold.Protein.RotatedAtoms>
  151.9686  133.3718  159.4062 H   0  0  0  0  0  0  0  0  0  0  0  0  # atno 6907 bound_to 6896
  150.6952  134.4164  159.5194 H   0  0  0  0  0  0  0  0  0  0  0  0  # atno 6908 bound_to 6896
  152.1864  134.8710  160.0572 H   0  0  0  0  0  0  0  0  0  0  0  0  # atno 6909 bound_to 6896
  146.1587  139.6736  142.9048 H   0  0  0  0  0  0  0  0  0  0  0  0  # atno 7974 bound_to 7965
  154.6829  140.0545  157.0285 H   0  0  0  0  0  0  0  0  0  0  0  0  # atno 8008 bound_to 7997
  155.0925  140.3221  155.4551 H   0  0  0  0  0  0  0  0  0  0  0  0  # atno 8009 bound_to 7997
  156.2701  140.2045  156.6052 H   0  0  0  0  0  0  0  0  0  0  0  0  # atno 8010 bound_to 7997
  139.4923  144.4034  151.9383 H   0  0  0  0  0  0  0  0  0  0  0  0  # atno 10167 bound_to 10162
  156.8509  130.5553  149.5670 H   0  0  0  0  0  0  0  0  0  0  0  0  # atno 10718 bound_to 10713
  153.1455  135.4625  154.9560 H   0  0  0  0  0  0  0  0  0  0  0  0  # atno 10763 bound_to 10752
  154.7783  135.3180  154.8048 H   0  0  0  0  0  0  0  0  0  0  0  0  # atno 10764 bound_to 10752
  153.8562  135.6917  153.4841 H   0  0  0  0  0  0  0  0  0  0  0  0  # atno 10765 bound_to 10752
  140.8229  134.2610  157.4892 H   0  0  0  0  0  0  0  0  0  0  0  0  # atno 11005 bound_to 11000
  145.4643  141.0434  143.2734 LP  0  0  0  0  0  0  0  0  0  0  0  0  # atno 17320 bound_to 7965
  144.7998  139.6163  143.7077 LP  0  0  0  0  0  0  0  0  0  0  0  0  # atno 17321 bound_to 7965
  140.3473  144.3131  150.5955 LP  0  0  0  0  0  0  0  0  0  0  0  0  # atno 17342 bound_to 10162
  140.5515  143.2206  151.7919 LP  0  0  0  0  0  0  0  0  0  0  0  0  # atno 17343 bound_to 10162
  156.0829  130.5835  150.9595 LP  0  0  0  0  0  0  0  0  0  0  0  0  # atno 17370 bound_to 10713
  157.6304  131.0921  150.8453 LP  0  0  0  0  0  0  0  0  0  0  0  0  # atno 17371 bound_to 10713
  139.8708  134.9545  156.4177 LP  0  0  0  0  0  0  0  0  0  0  0  0  # atno 17394 bound_to 11000
  140.9080  133.7732  155.9758 LP  0  0  0  0  0  0  0  0  0  0  0  0  # atno 17395 bound_to 11000

$$$$
