AV-unprocessed.smi:1954|AV-procd|sdf|7894|dock9
  -GOLD-   2272010 53D 1   1.00000     0.00000
 Structure written by MMmdl.
 44 46  0  0  0  0  0  0  0  0  1 V2000
  150.7521  140.3930  156.2941 O   0  0  0  0  0  0  0  0  0  0  0  0
  150.3591  141.5599  156.3127 C   0  0  0  0  0  0  0  0  0  0  0  0
  149.4841  142.0561  155.4291 N   0  0  0  0  0  0  0  0  0  0  0  0
  148.8757  141.2934  154.3432 C   0  0  0  0  0  0  0  0  0  0  0  0
  147.4325  140.8136  154.7023 C   0  0  1  0  0  0  0  0  0  0  0  0
  146.5717  141.9826  155.0614 N   0  0  0  0  0  0  0  0  0  0  0  0
  146.1016  142.8092  153.9400 C   0  0  0  0  0  0  0  0  0  0  0  0
  145.2930  144.0307  154.4099 C   0  0  0  0  0  0  0  0  0  0  0  0
  144.1968  143.6055  155.2078 O   0  0  0  0  0  0  0  0  0  0  0  0
  144.6181  142.8694  156.3477 C   0  0  0  0  0  0  0  0  0  0  0  0
  145.4162  141.6341  155.8996 C   0  0  0  0  0  0  0  0  0  0  0  0
  146.8950  139.9989  153.4898 C   0  0  0  0  0  0  0  0  0  0  0  0
  147.6371  138.6600  153.4099 C   0  0  0  0  0  0  0  0  0  0  0  0
  148.0475  138.1675  155.1007 S   0  0  0  0  0  0  0  0  0  0  0  0
  147.5375  139.7505  155.8256 C   0  0  0  0  0  0  0  0  0  0  0  0
  150.7330  142.4947  157.2042 N   0  0  0  0  0  0  0  0  0  0  0  0
  151.6511  142.3641  158.2801 C   0  0  0  0  0  0  0  0  0  0  0  0
  151.8408  143.5332  159.0512 C   0  0  0  0  0  0  0  0  0  0  0  0
  152.7336  143.5079  160.1401 C   0  0  0  0  0  0  0  0  0  0  0  0
  153.4160  142.3129  160.4297 C   0  0  0  0  0  0  0  0  0  0  0  0
  153.1702  141.1946  159.6119 C   0  0  0  0  0  0  0  0  0  0  0  0
  152.3142  141.2164  158.5684 N   0  0  0  0  0  0  0  0  0  0  0  0
  149.2077  143.0235  155.5137 H   0  0  0  0  0  0  0  0  0  0  0  0
  148.8790  141.9068  153.4424 H   0  0  0  0  0  0  0  0  0  0  0  0
  149.5259  140.4546  154.0963 H   0  0  0  0  0  0  0  0  0  0  0  0
  146.9364  143.1972  153.3616 H   0  0  0  0  0  0  0  0  0  0  0  0
  145.4842  142.2221  153.2612 H   0  0  0  0  0  0  0  0  0  0  0  0
  145.9228  144.7155  154.9797 H   0  0  0  0  0  0  0  0  0  0  0  0
  144.9134  144.5856  153.5519 H   0  0  0  0  0  0  0  0  0  0  0  0
  145.2211  143.5035  156.9996 H   0  0  0  0  0  0  0  0  0  0  0  0
  143.7407  142.5659  156.9185 H   0  0  0  0  0  0  0  0  0  0  0  0
  144.7520  140.9604  155.3572 H   0  0  0  0  0  0  0  0  0  0  0  0
  145.7278  141.1097  156.8002 H   0  0  0  0  0  0  0  0  0  0  0  0
  145.8485  139.7346  153.6233 H   0  0  0  0  0  0  0  0  0  0  0  0
  146.9559  140.5486  152.5502 H   0  0  0  0  0  0  0  0  0  0  0  0
  147.0360  137.8930  152.9211 H   0  0  0  0  0  0  0  0  0  0  0  0
  148.5597  138.7604  152.8378 H   0  0  0  0  0  0  0  0  0  0  0  0
  148.2287  140.0432  156.6166 H   0  0  0  0  0  0  0  0  0  0  0  0
  146.5737  139.5715  156.2990 H   0  0  0  0  0  0  0  0  0  0  0  0
  150.3129  143.4064  157.1005 H   0  0  0  0  0  0  0  0  0  0  0  0
  151.3087  144.4433  158.8146 H   0  0  0  0  0  0  0  0  0  0  0  0
  152.8914  144.3907  160.7422 H   0  0  0  0  0  0  0  0  0  0  0  0
  154.1092  142.2543  161.2558 H   0  0  0  0  0  0  0  0  0  0  0  0
  153.6733  140.2577  159.7998 H   0  0  0  0  0  0  0  0  0  0  0  0
  1  2  2  0  0  0  0
  2  3  1  0  0  0  0
  2 16  1  0  0  0  0
  3  4  1  0  0  0  0
  3 23  1  0  0  0  0
  4  5  1  0  0  0  0
  4 24  1  0  0  0  0
  4 25  1  0  0  0  0
  5 15  1  0  0  0  0
  5  6  1  0  0  0  0
  5 12  1  0  0  0  0
  6 11  1  0  0  0  0
  6  7  1  0  0  0  0
  7  8  1  0  0  0  0
  7 26  1  0  0  0  0
  7 27  1  0  0  0  0
  8  9  1  0  0  0  0
  8 28  1  0  0  0  0
  8 29  1  0  0  0  0
  9 10  1  0  0  0  0
 10 11  1  0  0  0  0
 10 30  1  0  0  0  0
 10 31  1  0  0  0  0
 11 32  1  0  0  0  0
 11 33  1  0  0  0  0
 12 13  1  0  0  0  0
 12 34  1  0  0  0  0
 12 35  1  0  0  0  0
 13 14  1  0  0  0  0
 13 36  1  0  0  0  0
 13 37  1  0  0  0  0
 14 15  1  0  0  0  0
 15 38  1  0  0  0  0
 15 39  1  0  0  0  0
 16 17  1  0  0  0  0
 16 40  1  0  0  0  0
 17 22  1  0  0  0  0
 17 18  2  0  0  0  0
 18 19  1  0  0  0  0
 18 41  1  0  0  0  0
 19 20  2  0  0  0  0
 19 42  1  0  0  0  0
 20 21  1  0  0  0  0
 20 43  1  0  0  0  0
 21 22  2  0  0  0  0
 21 44  1  0  0  0  0
M  END
> <s_m_source_file>
AV-unprocessed.smi

> <i_m_source_file_index>
1954

> <i_lp_mmshare_version>
43012

> <i_f3d_flags>
0

> <s_epik_input>
bjFbY0hdW2NIXVtjSF1bY0hdYzFbTkhdQyg9TylbTkhdW0NIMl1bQ0BdMihbQ0gyXVtDSDJdU1tDSDJdMilOM1tDSDJdW0NIMl1PW0NIMl1bQ0gyXTM=

> <s_epik_cmdline>
J2VwaWtfcHl0aG9uJywgJy1waCcsICc3LjAnLCAnLXRuJywgJzgnLCAnLW1hJywgJzIwMCcsICctbWV0YWxfYmluZGluZycsICctaW1hZScsICc8aW5maWxlLm1hZT4nLCAnLW9tYWUnLCAnPG91dGZpbGUubWFlPic=

> <r_epik_Ionization_Penalty>
0.0195535

> <r_epik_Ionization_Penalty_Charging>
0

> <r_epik_Ionization_Penalty_Neutral>
0.0195535

> <r_epik_State_Penalty>
0.0155843

> <r_epik_Charging_Adjusted_Penalty>
0.0155843

> <i_epik_Tot_Q>
0

> <i_epik_Tot_abs_Q>
0

> <r_epik_Metal_State_Penalty>
0.0155842

> <b_epik_Metal_Only>
0

> <s_lp_Force_Field>
OPLS_2005

> <r_lp_Energy>
55.5144

> <b_lp_Chiralities_Consistent>
1

> <s_lp_Variant>
AV-unprocessed.smi:1954-1

> <Gold.Version>
5.8.1

> <Gold.Id.Protein>
6NUR|6NUR_protein|mol2

> <Gold.PLP.Fitness>
43.7120

> <Gold.PLP.PLP>
-39.4112

> <Gold.PLP.part.hbond>
-1.9607

> <Gold.PLP.part.metal>
0.0000

> <Gold.PLP.part.buried>
-6.7403

> <Gold.PLP.part.nonpolar>
-31.5971

> <Gold.PLP.part.repulsive>
0.5583

> <Gold.PLP.ligand.clash>
0.0000

> <Gold.PLP.ligand.torsion>
0.7273

> <Gold.PLP.Chemscore.Hbond>
1.8960

> <Gold.PLP.Chemscore.CHOScore>
0.0000

> <Gold.PLP.Chemscore.Metal>
0.0000

> <Gold.Chemscore.Hbonds>
donor molecule, donor type, donor heavy atom, donor atom, acceptor molecule, acceptor atom, score
      L1  H     3    23       P1  8028  1.00
      L1  H    16    40       P1  8028  0.06

> <Gold.PLP.Chemscore.Internal.Correction>
0.0674

> <Gold.Rescore>
     Score         DG    S(hbond)    S(metal)    S(lipo)     H(rot)  DE(clash)    DE(int)     intcor
     16.15     -18.61       1.81        0.00      93.18       1.49       0.04       2.42       ----

> <Gold.Chemscore.Fitness>
16.1517

> <Gold.Chemscore.DG>
-18.6118

> <Gold.Chemscore.ZeroCoef>
-5.4800

> <Gold.Chemscore.Hbond>
1.8126

> <Gold.Chemscore.Metal>
0.0000

> <Gold.Chemscore.Lipo>
93.1810

> <Gold.Chemscore.Internal_Hbond>
0.0000

> <Gold.Chemscore.DEClash>
0.0435

> <Gold.Chemscore.DEInternal>
2.4165

> <Gold.Chemscore.Rot>
1.4940

> <Gold.Chemscore.Internal.Correction>
   9.000000E+99

> <Gold.Chemscore.Hbonds>
donor molecule, donor type, donor heavy atom, donor atom, acceptor molecule, acceptor atom, score
      L1  H     3    23       P1  8028  1.00
      L1  H    16    40       P1  8028  0.10

> <Gold.Chemscore.Hbond.Weighted>
-6.0542

> <Gold.Chemscore.Metal.Weighted>
-0.0000

> <Gold.Chemscore.Lipo.Weighted>
-10.9022

> <Gold.Chemscore.Internal_Hbond.Weighted>
0.0000

> <Gold.Chemscore.DEClash.Weighted>
0.0435

> <Gold.Chemscore.DEInternal.Weighted>
2.4165

> <Gold.Chemscore.Rot.Weighted>
3.8246

> <Gold.Chemscore.Internal.Correction.Weighted>
   9.000000E+99

> <Gold.Protein.RotatedTorsions>
[ 6907 6896 6895 6894 ] final  -82.00 input  -60.11 | X-H torsion
[ 7974 7965 7964 7962 ] final  -53.00 input  175.53 | X-H torsion
[ 8008 7997 7996 7995 ] final  -91.70 input   59.86 | X-H torsion
[ 10167 10162 10161 10158 ] final  149.44 input  -65.29 | X-H torsion
[ 10718 10713 10712 10709 ] final   50.37 input   66.30 | X-H torsion
[ 10763 10752 10751 10750 ] final  -98.30 input  -60.55 | X-H torsion
[ 11005 11000 10999 10996 ] final  149.89 input  -57.11 | X-H torsion

> <Gold.Protein.ActiveResidues>
 VAL166  LYS551  ARG553  GLY616  TRP617  ASP618  TYR619  PRO620  LYS621  CYS622 
 ASP623  PHE694  ASN695  SER759  ASP760  ASP761  ALA762  ILE779  LEU786  VAL792 
 PHE793  MET794  SER795  GLU796  ALA797  LYS798  CYS799  TRP800  GLU811  SER814 

> <Gold.Protein.RotatedAtoms>
  150.6903  134.3731  159.5000 H   0  0  0  0  0  0  0  0  0  0  0  0  # atno 6907 bound_to 6896
  152.1544  134.8960  160.0555 H   0  0  0  0  0  0  0  0  0  0  0  0  # atno 6908 bound_to 6896
  152.0045  133.3803  159.4232 H   0  0  0  0  0  0  0  0  0  0  0  0  # atno 6909 bound_to 6896
  145.9018  140.7988  142.9739 H   0  0  0  0  0  0  0  0  0  0  0  0  # atno 7974 bound_to 7965
  154.7139  140.0517  157.0576 H   0  0  0  0  0  0  0  0  0  0  0  0  # atno 8008 bound_to 7997
  155.0517  140.3180  155.4671 H   0  0  0  0  0  0  0  0  0  0  0  0  # atno 8009 bound_to 7997
  156.2797  140.2114  156.5643 H   0  0  0  0  0  0  0  0  0  0  0  0  # atno 8010 bound_to 7997
  139.4861  144.5601  151.7246 H   0  0  0  0  0  0  0  0  0  0  0  0  # atno 10167 bound_to 10162
  157.4878  130.8356  149.8167 H   0  0  0  0  0  0  0  0  0  0  0  0  # atno 10718 bound_to 10713
  154.7402  135.5014  153.9110 H   0  0  0  0  0  0  0  0  0  0  0  0  # atno 10763 bound_to 10752
  153.1035  135.6691  153.9636 H   0  0  0  0  0  0  0  0  0  0  0  0  # atno 10764 bound_to 10752
  153.9416  135.3067  155.3421 H   0  0  0  0  0  0  0  0  0  0  0  0  # atno 10765 bound_to 10752
  140.1084  134.8939  157.1900 H   0  0  0  0  0  0  0  0  0  0  0  0  # atno 11005 bound_to 11000
  144.6736  140.1688  143.7416 LP  0  0  0  0  0  0  0  0  0  0  0  0  # atno 17320 bound_to 7965
  145.8782  139.2308  143.1621 LP  0  0  0  0  0  0  0  0  0  0  0  0  # atno 17321 bound_to 7965
  140.5170  144.0938  150.6011 LP  0  0  0  0  0  0  0  0  0  0  0  0  # atno 17342 bound_to 10162
  140.3883  143.2766  152.0090 LP  0  0  0  0  0  0  0  0  0  0  0  0  # atno 17343 bound_to 10162
  156.0156  130.3815  150.2121 LP  0  0  0  0  0  0  0  0  0  0  0  0  # atno 17370 bound_to 10713
  157.0309  131.0007  151.3312 LP  0  0  0  0  0  0  0  0  0  0  0  0  # atno 17371 bound_to 10713
  140.3124  134.3008  155.7264 LP  0  0  0  0  0  0  0  0  0  0  0  0  # atno 17394 bound_to 11000
  141.2124  133.7659  156.9796 LP  0  0  0  0  0  0  0  0  0  0  0  0  # atno 17395 bound_to 11000

$$$$
