#       Name:                AV-unprocessed.smi:788
#       Creating user name   scv26
#       Creation time:       Fri Mar 27 01:16:59 2020


#       File generated by GOLD software.
#

@<TRIPOS>MOLECULE
AV-unprocessed.smi:788
    39    40     1
SMALL
NO_CHARGES


@<TRIPOS>ATOM
      1 ****        -0.5489  -1.4766  -1.7269 C.3            1 S1                 0.0000
      2 ****        -1.1388  -0.0639  -1.5306 C.3            1 S1                 0.0000
      3 ****        -2.6794  -0.0730  -1.5831 C.3            1 S1                 0.0000
      4 ****        -3.3011  -0.6740  -0.3131 C.3            1 S1                 0.0000
      5 ****        -2.8058   0.0541   0.9445 C.3            1 S1                 0.0000
      6 ****        -1.2674   0.0574   1.0415 C.3            1 S1                 0.0000
      7 ****        -0.8125   0.7917   2.3161 C.3            1 S1                 0.0000
      8 ****        -0.6445   0.6565  -0.2462 C.3            1 S1                 0.0000
      9 ****         0.8148   0.6409  -0.1622 N.am           1 S1                 0.0000
     10 ****         1.6507   1.4879  -0.7845 C.2            1 S1                 0.0000
     11 ****         1.2555   2.3979  -1.5109 O.2            1 S1                 0.0000
     12 ****         2.9698   1.2918  -0.5723 N.am           1 S1                 0.0000
     13 ****         4.1230   1.9779  -1.0550 C.2            1 S1                 0.0000
     14 ****         4.0923   3.0569  -1.8547 N.2            1 S1                 0.0000
     15 ****         5.3654   3.5176  -2.1622 N.2            1 S1                 0.0000
     16 ****         6.3089   2.7720  -1.5808 C.2            1 S1                 0.0000
     17 ****         5.7328   1.4341  -0.6027 S.3            1 S1                 0.0000
     18 ****        -0.7962  -2.1426  -0.9010 H              1 S1                 0.0000
     19 ****         0.5374  -1.4497  -1.8140 H              1 S1                 0.0000
     20 ****        -0.9297  -1.9324  -2.6410 H              1 S1                 0.0000
     21 ****        -0.8014   0.5246  -2.3851 H              1 S1                 0.0000
     22 ****        -3.0382   0.9501  -1.7022 H              1 S1                 0.0000
     23 ****        -3.0255  -0.6175  -2.4624 H              1 S1                 0.0000
     24 ****        -4.3880  -0.6117  -0.3701 H              1 S1                 0.0000
     25 ****        -3.0598  -1.7350  -0.2441 H              1 S1                 0.0000
     26 ****        -3.1749   1.0806   0.9361 H              1 S1                 0.0000
     27 ****        -3.2342  -0.4188   1.8287 H              1 S1                 0.0000
     28 ****        -0.9378  -0.9781   1.1351 H              1 S1                 0.0000
     29 ****        -1.0726   1.8499   2.2770 H              1 S1                 0.0000
     30 ****         0.2654   0.7183   2.4624 H              1 S1                 0.0000
     31 ****        -1.2857   0.3668   3.2017 H              1 S1                 0.0000
     32 ****        -0.9682   1.6980  -0.3023 H              1 S1                 0.0000
     33 ****         1.2245  -0.0789   0.4163 H              1 S1                 0.0000
     34 ****         3.1772   0.5261   0.0522 H              1 S1                 0.0000
     35 ****         7.3517   3.0110  -1.7288 H              1 S1                 0.0000
     36 ****         0.2753   2.5304  -1.6580 LP             1 S1                 0.0000
     37 ****         1.9143   3.0054  -1.9546 LP             1 S1                 0.0000
     38 ****         3.2501   3.4794  -2.1896 LP             1 S1                 0.0000
     39 ****         5.5524   4.3080  -2.7455 LP             1 S1                 0.0000
@<TRIPOS>BOND
    1    1    2 1     
    2    1   18 1     
    3    1   19 1     
    4    1   20 1     
    5    2    8 1     
    6    2    3 1     
    7    2   21 1     
    8    3    4 1     
    9    3   22 1     
   10    3   23 1     
   11    4    5 1     
   12    4   24 1     
   13    4   25 1     
   14    5    6 1     
   15    5   26 1     
   16    5   27 1     
   17    6    7 1     
   18    6    8 1     
   19    6   28 1     
   20    7   29 1     
   21    7   30 1     
   22    7   31 1     
   23    8    9 1     
   24    8   32 1     
   25    9   10 am    
   26    9   33 1     
   27   10   11 2     
   28   10   12 am    
   29   12   13 1     
   30   12   34 1     
   31   13   17 1     
   32   13   14 2     
   33   14   15 1     
   34   15   16 2     
   35   16   17 1     
   36   16   35 1     
   37   11   36 1     
   38   11   37 1     
   39   14   38 1     
   40   15   39 1     
@<TRIPOS>SUBSTRUCTURE
      1 S1             1
@<TRIPOS>SET
LONE_PAIRS      STATIC     ATOMS    <user>   **** ""
4 36 37 38 39
DONOR_HYDROGENS      STATIC     ATOMS    <user>   **** ""
2 33 34
ATOM$BLUE        STATIC     ATOMS    COLORGROUP SYSTEM
4 36 37 38 39
ATOM$RED        STATIC     ATOMS    COLORGROUP SYSTEM
2 33 34
