AV-unprocessed.smi:452|AV-procd|sdf|2610|dock7
  -GOLD-   2262023 13D 1   1.00000     0.00000
 Structure written by MMmdl.
 43 44  0  0  0  0  0  0  0  0  1 V2000
  152.0801  144.3180  160.7060 C   0  0  0  0  0  0  0  0  0  0  0  0
  152.9028  143.9045  159.4760 C   0  0  0  0  0  0  0  0  0  0  0  0
  152.2730  144.4830  158.1973 C   0  0  0  0  0  0  0  0  0  0  0  0
  153.0605  142.3708  159.4167 C   0  0  0  0  0  0  0  0  0  0  0  0
  153.9917  141.7910  160.5006 C   0  0  0  0  0  0  0  0  0  0  0  0
  154.2408  140.2895  160.3237 C   0  0  0  0  0  0  0  0  0  0  0  0
  154.4186  139.8274  159.1963 O   0  0  0  0  0  0  0  0  0  0  0  0
  154.2405  139.5617  161.4566 N   0  0  0  0  0  0  0  0  0  0  0  0
  154.4510  138.1655  161.6086 C   0  0  0  0  0  0  0  0  0  0  0  0
  154.2519  137.6711  162.9167 C   0  0  0  0  0  0  0  0  0  0  0  0
  154.4421  136.3006  163.1762 C   0  0  0  0  0  0  0  0  0  0  0  0
  154.8233  135.4509  162.1204 C   0  0  0  0  0  0  0  0  0  0  0  0
  155.0299  134.0855  162.3639 N   0  0  0  0  0  0  0  0  0  0  0  0
  154.8740  133.2672  161.1681 C   0  0  0  0  0  0  0  0  0  0  0  0
  155.2372  131.8044  161.4787 C   0  0  0  0  0  0  0  0  0  0  0  0
  154.4460  131.3349  162.5668 O   0  0  0  0  0  0  0  0  0  0  0  0
  154.6629  132.0953  163.7522 C   0  0  0  0  0  0  0  0  0  0  0  0
  154.2786  133.5638  163.4992 C   0  0  0  0  0  0  0  0  0  0  0  0
  154.9972  136.0295  160.8436 C   0  0  0  0  0  0  0  0  0  0  0  0
  154.8175  137.3436  160.5944 N   0  0  0  0  0  0  0  0  0  0  0  0
  151.0713  143.9056  160.6638 H   0  0  0  0  0  0  0  0  0  0  0  0
  151.9936  145.4026  160.7762 H   0  0  0  0  0  0  0  0  0  0  0  0
  152.5445  143.9674  161.6281 H   0  0  0  0  0  0  0  0  0  0  0  0
  153.8954  144.3430  159.5890 H   0  0  0  0  0  0  0  0  0  0  0  0
  151.2907  144.0488  158.0087 H   0  0  0  0  0  0  0  0  0  0  0  0
  152.8935  144.3006  157.3207 H   0  0  0  0  0  0  0  0  0  0  0  0
  152.1469  145.5631  158.2784 H   0  0  0  0  0  0  0  0  0  0  0  0
  152.0739  141.9174  159.5257 H   0  0  0  0  0  0  0  0  0  0  0  0
  153.4167  142.0786  158.4275 H   0  0  0  0  0  0  0  0  0  0  0  0
  154.9487  142.3130  160.4937 H   0  0  0  0  0  0  0  0  0  0  0  0
  153.5567  141.9504  161.4877 H   0  0  0  0  0  0  0  0  0  0  0  0
  154.0835  140.0720  162.3131 H   0  0  0  0  0  0  0  0  0  0  0  0
  153.9600  138.3332  163.7190 H   0  0  0  0  0  0  0  0  0  0  0  0
  154.2981  135.9108  164.1734 H   0  0  0  0  0  0  0  0  0  0  0  0
  153.8442  133.3256  160.8130 H   0  0  0  0  0  0  0  0  0  0  0  0
  155.5131  133.6494  160.3710 H   0  0  0  0  0  0  0  0  0  0  0  0
  155.0512  131.1777  160.6065 H   0  0  0  0  0  0  0  0  0  0  0  0
  156.2975  131.7101  161.7193 H   0  0  0  0  0  0  0  0  0  0  0  0
  154.0565  131.6803  164.5573 H   0  0  0  0  0  0  0  0  0  0  0  0
  155.7057  132.0137  164.0634 H   0  0  0  0  0  0  0  0  0  0  0  0
  154.4860  134.1627  164.3867 H   0  0  0  0  0  0  0  0  0  0  0  0
  153.2080  133.6339  163.3036 H   0  0  0  0  0  0  0  0  0  0  0  0
  155.2966  135.4278  159.9981 H   0  0  0  0  0  0  0  0  0  0  0  0
  1  2  1  0  0  0  0
  1 21  1  0  0  0  0
  1 22  1  0  0  0  0
  1 23  1  0  0  0  0
  2  3  1  0  0  0  0
  2  4  1  0  0  0  0
  2 24  1  0  0  0  0
  3 25  1  0  0  0  0
  3 26  1  0  0  0  0
  3 27  1  0  0  0  0
  4  5  1  0  0  0  0
  4 28  1  0  0  0  0
  4 29  1  0  0  0  0
  5  6  1  0  0  0  0
  5 30  1  0  0  0  0
  5 31  1  0  0  0  0
  6  7  2  0  0  0  0
  6  8  1  0  0  0  0
  8  9  1  0  0  0  0
  8 32  1  0  0  0  0
  9 20  1  0  0  0  0
  9 10  2  0  0  0  0
 10 11  1  0  0  0  0
 10 33  1  0  0  0  0
 11 12  2  0  0  0  0
 11 34  1  0  0  0  0
 12 13  1  0  0  0  0
 12 19  1  0  0  0  0
 13 18  1  0  0  0  0
 13 14  1  0  0  0  0
 14 15  1  0  0  0  0
 14 35  1  0  0  0  0
 14 36  1  0  0  0  0
 15 16  1  0  0  0  0
 15 37  1  0  0  0  0
 15 38  1  0  0  0  0
 16 17  1  0  0  0  0
 17 18  1  0  0  0  0
 17 39  1  0  0  0  0
 17 40  1  0  0  0  0
 18 41  1  0  0  0  0
 18 42  1  0  0  0  0
 19 20  2  0  0  0  0
 19 43  1  0  0  0  0
M  END
> <s_m_source_file>
AV-unprocessed.smi

> <i_m_source_file_index>
452

> <i_lp_mmshare_version>
43012

> <i_f3d_flags>
0

> <s_epik_input>
W0NIM11bQ0hdKFtDSDNdKVtDSDJdW0NIMl1DKD1PKVtOSF1jMVtjSF1bY0hdYyhbY0hdbjEpTjJbQ0gyXVtDSDJdT1tDSDJdW0NIMl0y

> <s_epik_cmdline>
J2VwaWtfcHl0aG9uJywgJy1waCcsICc3LjAnLCAnLXRuJywgJzgnLCAnLW1hJywgJzIwMCcsICctbWV0YWxfYmluZGluZycsICctaW1hZScsICc8aW5maWxlLm1hZT4nLCAnLW9tYWUnLCAnPG91dGZpbGUubWFlPic=

> <r_lp_tautomer_probability>
1

> <r_epik_Ionization_Penalty>
0.0030116

> <r_epik_Ionization_Penalty_Charging>
0

> <r_epik_Ionization_Penalty_Neutral>
0.0030116

> <r_epik_State_Penalty>
0.00263935

> <r_epik_Charging_Adjusted_Penalty>
0.00263935

> <i_epik_Tot_Q>
0

> <i_epik_Tot_abs_Q>
0

> <r_epik_Metal_State_Penalty>
-0

> <b_epik_Metal_Only>
0

> <s_lp_Force_Field>
OPLS_2005

> <r_lp_Energy>
28.4973

> <b_lp_Chiralities_Consistent>
1

> <s_lp_Variant>
AV-unprocessed.smi:452-1

> <Gold.Version>
5.8.1

> <Gold.Id.Protein>
6NUR|6NUR_protein|mol2

> <Gold.PLP.Fitness>
39.6633

> <Gold.PLP.PLP>
-38.6766

> <Gold.PLP.part.hbond>
-1.0000

> <Gold.PLP.part.metal>
0.0000

> <Gold.PLP.part.buried>
-4.1829

> <Gold.PLP.part.nonpolar>
-33.8299

> <Gold.PLP.part.repulsive>
0.0125

> <Gold.PLP.ligand.clash>
0.0000

> <Gold.PLP.ligand.torsion>
1.0600

> <Gold.PLP.Chemscore.Hbond>
1.0000

> <Gold.PLP.Chemscore.CHOScore>
0.0000

> <Gold.PLP.Chemscore.Metal>
0.0000

> <Gold.Chemscore.Hbonds>
donor molecule, donor type, donor heavy atom, donor atom, acceptor molecule, acceptor atom, score
      P1  H  7997  8009       L1     7  1.00

> <Gold.PLP.Chemscore.Internal.Correction>
0.1067

> <Gold.Rescore>
     Score         DG    S(hbond)    S(metal)    S(lipo)     H(rot)  DE(clash)    DE(int)     intcor
     15.01     -17.22       0.98        0.00     103.64       1.43       0.00       2.21       ----

> <Gold.Chemscore.Fitness>
15.0102

> <Gold.Chemscore.DG>
-17.2216

> <Gold.Chemscore.ZeroCoef>
-5.4800

> <Gold.Chemscore.Hbond>
0.9833

> <Gold.Chemscore.Metal>
0.0000

> <Gold.Chemscore.Lipo>
103.6427

> <Gold.Chemscore.Internal_Hbond>
0.0000

> <Gold.Chemscore.DEClash>
0.0000

> <Gold.Chemscore.DEInternal>
2.2115

> <Gold.Chemscore.Rot>
1.4332

> <Gold.Chemscore.Internal.Correction>
   9.000000E+99

> <Gold.Chemscore.Hbonds>
donor molecule, donor type, donor heavy atom, donor atom, acceptor molecule, acceptor atom, score
      P1  H  7997  8009       L1     7  0.96

> <Gold.Chemscore.Hbond.Weighted>
-3.2844

> <Gold.Chemscore.Metal.Weighted>
-0.0000

> <Gold.Chemscore.Lipo.Weighted>
-12.1262

> <Gold.Chemscore.Internal_Hbond.Weighted>
0.0000

> <Gold.Chemscore.DEClash.Weighted>
0.0000

> <Gold.Chemscore.DEInternal.Weighted>
2.2115

> <Gold.Chemscore.Rot.Weighted>
3.6689

> <Gold.Chemscore.Internal.Correction.Weighted>
   9.000000E+99

> <Gold.Protein.RotatedTorsions>
[ 6907 6896 6895 6894 ] final   82.76 input  -60.11 | X-H torsion
[ 7974 7965 7964 7962 ] final  -58.41 input  175.53 | X-H torsion
[ 8008 7997 7996 7995 ] final  121.15 input   59.86 | X-H torsion
[ 10167 10162 10161 10158 ] final -107.39 input  -65.29 | X-H torsion
[ 10718 10713 10712 10709 ] final   31.71 input   66.30 | X-H torsion
[ 10763 10752 10751 10750 ] final  157.63 input  -60.55 | X-H torsion
[ 11005 11000 10999 10996 ] final  -16.03 input  -57.11 | X-H torsion

> <Gold.Protein.ActiveResidues>
 VAL166  LYS551  ARG553  GLY616  TRP617  ASP618  TYR619  PRO620  LYS621  CYS622 
 ASP623  PHE694  ASN695  SER759  ASP760  ASP761  ALA762  ILE779  LEU786  VAL792 
 PHE793  MET794  SER795  GLU796  ALA797  LYS798  CYS799  TRP800  GLU811  SER814 

> <Gold.Protein.RotatedAtoms>
  152.5308  134.3001  159.9074 H   0  0  0  0  0  0  0  0  0  0  0  0  # atno 6907 bound_to 6896
  151.2951  133.4141  159.2643 H   0  0  0  0  0  0  0  0  0  0  0  0  # atno 6908 bound_to 6896
  151.0167  134.9454  159.8094 H   0  0  0  0  0  0  0  0  0  0  0  0  # atno 6909 bound_to 6896
  145.8396  140.8426  143.0041 H   0  0  0  0  0  0  0  0  0  0  0  0  # atno 7974 bound_to 7965
  156.2674  140.2815  156.1262 H   0  0  0  0  0  0  0  0  0  0  0  0  # atno 8008 bound_to 7997
  155.1102  140.0391  157.2739 H   0  0  0  0  0  0  0  0  0  0  0  0  # atno 8009 bound_to 7997
  154.6748  140.2596  155.6975 H   0  0  0  0  0  0  0  0  0  0  0  0  # atno 8010 bound_to 7997
  140.1775  143.3993  152.1307 H   0  0  0  0  0  0  0  0  0  0  0  0  # atno 10167 bound_to 10162
  157.2760  130.7231  149.6530 H   0  0  0  0  0  0  0  0  0  0  0  0  # atno 10718 bound_to 10713
  154.2033  135.2789  155.2983 H   0  0  0  0  0  0  0  0  0  0  0  0  # atno 10763 bound_to 10752
  154.5836  135.5581  153.7213 H   0  0  0  0  0  0  0  0  0  0  0  0  # atno 10764 bound_to 10752
  153.0082  135.6351  154.2172 H   0  0  0  0  0  0  0  0  0  0  0  0  # atno 10765 bound_to 10752
  140.8027  133.8201  155.9485 H   0  0  0  0  0  0  0  0  0  0  0  0  # atno 11005 bound_to 11000
  144.6734  140.0793  143.7470 LP  0  0  0  0  0  0  0  0  0  0  0  0  # atno 17320 bound_to 7965
  145.9479  139.2714  143.1229 LP  0  0  0  0  0  0  0  0  0  0  0  0  # atno 17321 bound_to 7965
  139.5311  144.7159  151.5054 LP  0  0  0  0  0  0  0  0  0  0  0  0  # atno 17342 bound_to 10162
  140.6542  143.8634  150.6817 LP  0  0  0  0  0  0  0  0  0  0  0  0  # atno 17343 bound_to 10162
  155.9663  130.4353  150.5085 LP  0  0  0  0  0  0  0  0  0  0  0  0  # atno 17370 bound_to 10713
  157.3019  131.0647  151.2062 LP  0  0  0  0  0  0  0  0  0  0  0  0  # atno 17371 bound_to 10713
  140.9278  134.2060  157.4884 LP  0  0  0  0  0  0  0  0  0  0  0  0  # atno 17394 bound_to 11000
  139.8720  134.9820  156.5139 LP  0  0  0  0  0  0  0  0  0  0  0  0  # atno 17395 bound_to 11000

$$$$
