#       Name:                AV-unprocessed.smi:2356
#       Creating user name   scv26
#       Creation time:       Fri Mar 27 13:03:19 2020


#       File generated by GOLD software.
#

@<TRIPOS>MOLECULE
AV-unprocessed.smi:2356
    58    61     1
SMALL
NO_CHARGES


@<TRIPOS>ATOM
      1 ****        -1.3757  -1.4223   0.6645 C.3            1 S1                 0.0000
      2 ****        -1.9599  -0.0867   0.2409 C.ar           1 S1                 0.0000
      3 ****        -3.3063   0.0331   0.2432 N.pl3          1 S1                 1.0000
      4 ****        -3.9659   1.1624  -0.1080 C.ar           1 S1                 0.0000
      5 ****        -5.3731   1.1649  -0.0672 N.pl3          1 S1                 0.0000
      6 ****        -6.1162   0.0762   0.5476 C.3            1 S1                 0.0000
      7 ****        -7.5679   0.5521   0.5468 C.3            1 S1                 0.0000
      8 ****        -7.4358   2.0658   0.7166 C.3            1 S1                 0.0000
      9 ****        -6.1223   2.4116   0.0050 C.3            1 S1                 0.0000
     10 ****        -3.2099   2.2847  -0.5172 C.ar           1 S1                 0.0000
     11 ****        -1.8028   2.2109  -0.5367 C.ar           1 S1                 0.0000
     12 ****        -1.1570   1.0143  -0.1394 C.ar           1 S1                 0.0000
     13 ****         0.2556   0.8533  -0.1492 N.am           1 S1                 0.0000
     14 ****         1.2106   1.7957  -0.0279 C.2            1 S1                 0.0000
     15 ****         0.9915   2.9951   0.1268 O.2            1 S1                 0.0000
     16 ****         2.4666   1.3147  -0.0596 N.am           1 S1                 0.0000
     17 ****         3.7267   2.0541   0.0444 C.3            1 S1                 0.0000
     18 ****         4.1316   2.6508  -1.3146 C.3            1 S1                 0.0000
     19 ****         5.5294   3.2827  -1.2320 C.3            1 S1                 0.0000
     20 ****         6.4736   2.3168  -0.7842 O.3            1 S1                 0.0000
     21 ****         6.2043   1.8258   0.5283 C.3            1 S1                 0.0000
     22 ****         7.3181   0.8991   0.9889 C.3            1 S1                 0.0000
     23 ****         8.7575   1.1366   0.5837 C.3            1 S1                 0.0000
     24 ****         8.0056  -0.0436   0.0241 C.3            1 S1                 0.0000
     25 ****         4.8382   1.1138   0.5334 C.3            1 S1                 0.0000
     26 ****        -0.7671  -1.8431  -0.1364 H              1 S1                 0.0000
     27 ****        -2.1594  -2.1407   0.9074 H              1 S1                 0.0000
     28 ****        -0.7467  -1.2977   1.5461 H              1 S1                 0.0000
     29 ****        -5.9975  -0.8564  -0.0051 H              1 S1                 0.0000
     30 ****        -5.7623  -0.0773   1.5681 H              1 S1                 0.0000
     31 ****        -8.0307   0.3284  -0.4155 H              1 S1                 0.0000
     32 ****        -8.1692   0.0852   1.3276 H              1 S1                 0.0000
     33 ****        -8.2896   2.6147   0.3185 H              1 S1                 0.0000
     34 ****        -7.3506   2.3049   1.7775 H              1 S1                 0.0000
     35 ****        -5.5815   3.1891   0.5460 H              1 S1                 0.0000
     36 ****        -6.3125   2.7675  -1.0079 H              1 S1                 0.0000
     37 ****        -3.6918   3.1998  -0.8280 H              1 S1                 0.0000
     38 ****        -1.2456   3.0717  -0.8728 H              1 S1                 0.0000
     39 ****         0.5828  -0.1013  -0.1774 H              1 S1                 0.0000
     40 ****         2.5575   0.3126  -0.1480 H              1 S1                 0.0000
     41 ****         3.6257   2.8579   0.7761 H              1 S1                 0.0000
     42 ****         4.1366   1.8697  -2.0762 H              1 S1                 0.0000
     43 ****         3.4075   3.3979  -1.6397 H              1 S1                 0.0000
     44 ****         5.8353   3.6443  -2.2138 H              1 S1                 0.0000
     45 ****         5.5281   4.1442  -0.5624 H              1 S1                 0.0000
     46 ****         6.1786   2.6698   1.2198 H              1 S1                 0.0000
     47 ****         7.1728   0.5179   1.9979 H              1 S1                 0.0000
     48 ****         8.9716   1.9619  -0.0923 H              1 S1                 0.0000
     49 ****         9.5262   0.9352   1.3270 H              1 S1                 0.0000
     50 ****         8.2727  -1.0311   0.3944 H              1 S1                 0.0000
     51 ****         7.7162  -0.0038  -1.0240 H              1 S1                 0.0000
     52 ****         4.6077   0.7536   1.5368 H              1 S1                 0.0000
     53 ****         4.8883   0.2337  -0.1100 H              1 S1                 0.0000
     54 ****        -3.8580  -0.7760   0.5281 H              1 S1                 0.0000
     55 ****         0.0502   3.3299   0.1701 LP             1 S1                 0.0000
     56 ****         1.7545   3.6362   0.2092 LP             1 S1                 0.0000
     57 ****         7.3812   2.7366  -0.7854 LP             1 S1                 0.0000
     58 ****         6.4627   1.5447  -1.4197 LP             1 S1                 0.0000
@<TRIPOS>BOND
    1    1    2 1     
    2    1   26 1     
    3    1   27 1     
    4    1   28 1     
    5    2   12 ar    
    6    2    3 ar    
    7    3    4 ar    
    8    3   54 1     
    9    4    5 1     
   10    4   10 ar    
   11    5    9 1     
   12    5    6 1     
   13    6    7 1     
   14    6   29 1     
   15    6   30 1     
   16    7    8 1     
   17    7   31 1     
   18    7   32 1     
   19    8    9 1     
   20    8   33 1     
   21    8   34 1     
   22    9   35 1     
   23    9   36 1     
   24   10   11 ar    
   25   10   37 1     
   26   11   12 ar    
   27   11   38 1     
   28   12   13 1     
   29   13   14 am    
   30   13   39 1     
   31   14   15 2     
   32   14   16 am    
   33   16   17 1     
   34   16   40 1     
   35   17   25 1     
   36   17   18 1     
   37   17   41 1     
   38   18   19 1     
   39   18   42 1     
   40   18   43 1     
   41   19   20 1     
   42   19   44 1     
   43   19   45 1     
   44   20   21 1     
   45   21   22 1     
   46   21   25 1     
   47   21   46 1     
   48   22   24 1     
   49   22   23 1     
   50   22   47 1     
   51   23   24 1     
   52   23   48 1     
   53   23   49 1     
   54   24   50 1     
   55   24   51 1     
   56   25   52 1     
   57   25   53 1     
   58   15   55 1     
   59   15   56 1     
   60   20   57 1     
   61   20   58 1     
@<TRIPOS>SUBSTRUCTURE
      1 S1             1
@<TRIPOS>SET
LONE_PAIRS      STATIC     ATOMS    <user>   **** ""
4 55 56 57 58
DONOR_HYDROGENS      STATIC     ATOMS    <user>   **** ""
3 54 39 40
ATOM$BLUE        STATIC     ATOMS    COLORGROUP SYSTEM
4 55 56 57 58
ATOM$RED        STATIC     ATOMS    COLORGROUP SYSTEM
3 54 39 40
