#       Name:                AV-unprocessed.smi:438
#       Creating user name   scv26
#       Creation time:       Thu Mar 26 22:54:51 2020


#       File generated by GOLD software.
#

@<TRIPOS>MOLECULE
AV-unprocessed.smi:438
    55    56     1
SMALL
NO_CHARGES


@<TRIPOS>ATOM
      1 ****        -3.7714   4.9933   1.5978 C.3            1 S1                 0.0000
      2 ****        -3.4298   3.5213   1.4448 C.2            1 S1                 0.0000
      3 ****        -2.0802   3.2619   1.2877 N.pl3          1 S1                 0.0000
      4 ****        -1.6615   1.9498   1.1314 C.2            1 S1                 0.0000
      5 ****         0.1421   1.8932   0.9218 S.3            1 S1                 0.0000
      6 ****         0.4329   0.1066   0.7484 C.3            1 S1                 0.0000
      7 ****         1.8915  -0.2545   0.4658 C.2            1 S1                 0.0000
      8 ****         2.8065   0.4743   0.8501 O.2            1 S1                 0.0000
      9 ****         2.0933  -1.3965  -0.2093 N.am           1 S1                 0.0000
     10 ****         3.3945  -1.9237  -0.6152 C.3            1 S1                 0.0000
     11 ****         4.0363  -2.6993   0.5548 C.3            1 S1                 0.0000
     12 ****         5.3830  -3.3184   0.1534 C.3            1 S1                 0.0000
     13 ****         5.2305  -4.2182  -1.0806 C.3            1 S1                 0.0000
     14 ****         4.6037  -3.4462  -2.2512 C.3            1 S1                 0.0000
     15 ****         3.2459  -2.8237  -1.8676 C.3            1 S1                 0.0000
     16 ****         2.6371  -2.0743  -3.0664 C.3            1 S1                 0.0000
     17 ****        -2.4696   0.9310   1.1362 N.2            1 S1                 0.0000
     18 ****        -3.8489   1.1289   1.3000 C.2            1 S1                 0.0000
     19 ****        -4.6183   0.1691   1.3165 O.2            1 S1                 0.0000
     20 ****        -4.3393   2.5161   1.4484 C.2            1 S1                 0.0000
     21 ****        -5.8413   2.7416   1.6224 C.3            1 S1                 0.0000
     22 ****        -6.6346   2.5962   0.3120 C.3            1 S1                 0.0000
     23 ****        -6.2605   3.5943  -0.6144 O.3            1 S1                 0.0000
     24 ****        -4.4747   5.3044   0.8252 H              1 S1                 0.0000
     25 ****        -2.8844   5.6229   1.5144 H              1 S1                 0.0000
     26 ****        -4.2229   5.1795   2.5724 H              1 S1                 0.0000
     27 ****        -0.1934  -0.2714  -0.0610 H              1 S1                 0.0000
     28 ****         0.1184  -0.3953   1.6638 H              1 S1                 0.0000
     29 ****         1.2825  -1.9354  -0.4775 H              1 S1                 0.0000
     30 ****         4.0463  -1.0877  -0.8773 H              1 S1                 0.0000
     31 ****         4.1831  -2.0387   1.4103 H              1 S1                 0.0000
     32 ****         3.3613  -3.4889   0.8883 H              1 S1                 0.0000
     33 ****         6.1014  -2.5252  -0.0575 H              1 S1                 0.0000
     34 ****         5.7912  -3.8931   0.9852 H              1 S1                 0.0000
     35 ****         6.2032  -4.6135  -1.3748 H              1 S1                 0.0000
     36 ****         4.6080  -5.0791  -0.8335 H              1 S1                 0.0000
     37 ****         5.2889  -2.6620  -2.5761 H              1 S1                 0.0000
     38 ****         4.4797  -4.1170  -3.1021 H              1 S1                 0.0000
     39 ****         2.5685  -3.6419  -1.6173 H              1 S1                 0.0000
     40 ****         3.2518  -1.2202  -3.3516 H              1 S1                 0.0000
     41 ****         1.6354  -1.7051  -2.8460 H              1 S1                 0.0000
     42 ****         2.5545  -2.7283  -3.9349 H              1 S1                 0.0000
     43 ****        -1.4424   4.0449   1.2859 H              1 S1                 0.0000
     44 ****        -6.0365   3.7221   2.0553 H              1 S1                 0.0000
     45 ****        -6.2191   2.0283   2.3562 H              1 S1                 0.0000
     46 ****        -6.4805   1.6143  -0.1357 H              1 S1                 0.0000
     47 ****        -7.7024   2.6909   0.5101 H              1 S1                 0.0000
     48 ****        -6.7618   3.4727  -1.4063 H              1 S1                 0.0000
     49 ****         2.5997   1.3134   1.3533 LP             1 S1                 0.0000
     50 ****         3.7565   0.2271   0.6590 LP             1 S1                 0.0000
     51 ****        -2.1076   0.0057   1.0230 LP             1 S1                 0.0000
     52 ****        -4.2617  -0.7594   1.2127 LP             1 S1                 0.0000
     53 ****        -5.6002   0.3174   1.4336 LP             1 S1                 0.0000
     54 ****        -5.2845   3.5165  -0.8180 LP             1 S1                 0.0000
     55 ****        -6.4500   4.4982  -0.2310 LP             1 S1                 0.0000
@<TRIPOS>BOND
    1    1   24 1     
    2    1   25 1     
    3    1   26 1     
    4    1    2 1     
    5    2   20 2     
    6    2    3 1     
    7    3    4 1     
    8    3   43 1     
    9    4    5 1     
   10    4   17 2     
   11    5    6 1     
   12    6    7 1     
   13    6   27 1     
   14    6   28 1     
   15    7    8 2     
   16    7    9 am    
   17    9   10 1     
   18    9   29 1     
   19   10   15 1     
   20   10   11 1     
   21   10   30 1     
   22   11   12 1     
   23   11   31 1     
   24   11   32 1     
   25   12   13 1     
   26   12   33 1     
   27   12   34 1     
   28   13   14 1     
   29   13   35 1     
   30   13   36 1     
   31   14   15 1     
   32   14   37 1     
   33   14   38 1     
   34   15   16 1     
   35   15   39 1     
   36   16   40 1     
   37   16   41 1     
   38   16   42 1     
   39   17   18 1     
   40   18   19 2     
   41   18   20 1     
   42   20   21 1     
   43   21   22 1     
   44   21   44 1     
   45   21   45 1     
   46   22   23 1     
   47   22   46 1     
   48   22   47 1     
   49   23   48 1     
   50    8   49 1     
   51    8   50 1     
   52   17   51 1     
   53   19   52 1     
   54   19   53 1     
   55   23   54 1     
   56   23   55 1     
@<TRIPOS>SUBSTRUCTURE
      1 S1             1
@<TRIPOS>SET
LONE_PAIRS      STATIC     ATOMS    <user>   **** ""
7 49 50 51 52 53 54 55
DONOR_HYDROGENS      STATIC     ATOMS    <user>   **** ""
3 43 29 48
ATOM$BLUE        STATIC     ATOMS    COLORGROUP SYSTEM
7 49 50 51 52 53 54 55
ATOM$RED        STATIC     ATOMS    COLORGROUP SYSTEM
3 43 29 48
