AV-unprocessed.smi:2173|AV-procd|sdf|8839|dock5
  -GOLD-   2272012 33D 1   1.00000     0.00000
 Structure written by MMmdl.
 35 36  0  0  0  0  0  0  0  0  1 V2000
  152.7302  139.5252  155.5427 O   0  0  0  0  0  0  0  0  0  0  0  0
  151.6854  140.0572  155.9198 C   0  0  0  0  0  0  0  0  0  0  0  0
  151.4908  140.4866  157.1758 N   0  0  0  0  0  0  0  0  0  0  0  0
  152.4933  140.4624  158.2360 C   0  0  0  0  0  0  0  0  0  0  0  0
  152.0186  141.1511  159.5330 C   0  0  0  0  0  0  0  0  0  0  0  0
  151.9885  142.6691  159.4479 C   0  0  0  0  0  0  0  0  0  0  0  0
  152.3405  143.3265  158.2500 C   0  0  0  0  0  0  0  0  0  0  0  0
  152.3205  144.7348  158.2266 C   0  0  0  0  0  0  0  0  0  0  0  0
  151.9529  145.4283  159.3958 C   0  0  0  0  0  0  0  0  0  0  0  0
  151.6174  144.6796  160.5412 C   0  0  0  0  0  0  0  0  0  0  0  0
  151.6327  143.3300  160.5736 N   0  0  0  0  0  0  0  0  0  0  0  0
  150.5287  140.2802  154.9371 C   0  0  1  0  0  0  0  0  0  0  0  0
  149.7534  138.9649  154.6953 C   0  0  0  0  0  0  0  0  0  0  0  0
  148.4624  139.1937  153.9300 C   0  0  0  0  0  0  0  0  0  0  0  0
  147.8933  140.4026  153.7856 C   0  0  0  0  0  0  0  0  0  0  0  0
  148.4736  141.6760  154.3761 C   0  0  0  0  0  0  0  0  0  0  0  0
  149.5723  141.3899  155.4180 C   0  0  0  0  0  0  0  0  0  0  0  0
  150.6017  140.9099  157.3989 H   0  0  0  0  0  0  0  0  0  0  0  0
  152.7185  139.4164  158.4453 H   0  0  0  0  0  0  0  0  0  0  0  0
  153.4238  140.9123  157.8862 H   0  0  0  0  0  0  0  0  0  0  0  0
  151.0226  140.7912  159.7925 H   0  0  0  0  0  0  0  0  0  0  0  0
  152.6649  140.8583  160.3619 H   0  0  0  0  0  0  0  0  0  0  0  0
  152.6233  142.7660  157.3712 H   0  0  0  0  0  0  0  0  0  0  0  0
  152.5842  145.2735  157.3285 H   0  0  0  0  0  0  0  0  0  0  0  0
  151.9280  146.5078  159.4147 H   0  0  0  0  0  0  0  0  0  0  0  0
  151.3310  145.1773  161.4559 H   0  0  0  0  0  0  0  0  0  0  0  0
  150.9515  140.6035  153.9837 H   0  0  0  0  0  0  0  0  0  0  0  0
  150.3747  138.2704  154.1287 H   0  0  0  0  0  0  0  0  0  0  0  0
  149.5051  138.4716  155.6362 H   0  0  0  0  0  0  0  0  0  0  0  0
  147.9916  138.3225  153.4988 H   0  0  0  0  0  0  0  0  0  0  0  0
  146.9807  140.5019  153.2163 H   0  0  0  0  0  0  0  0  0  0  0  0
  148.8757  142.2740  153.5578 H   0  0  0  0  0  0  0  0  0  0  0  0
  147.6729  142.2592  154.8316 H   0  0  0  0  0  0  0  0  0  0  0  0
  149.1028  141.0849  156.3549 H   0  0  0  0  0  0  0  0  0  0  0  0
  150.1216  142.3072  155.6343 H   0  0  0  0  0  0  0  0  0  0  0  0
  1  2  2  0  0  0  0
  2  3  1  0  0  0  0
  2 12  1  0  0  0  0
  3  4  1  0  0  0  0
  3 18  1  0  0  0  0
  4  5  1  0  0  0  0
  4 19  1  0  0  0  0
  4 20  1  0  0  0  0
  5  6  1  0  0  0  0
  5 21  1  0  0  0  0
  5 22  1  0  0  0  0
  6 11  1  0  0  0  0
  6  7  2  0  0  0  0
  7  8  1  0  0  0  0
  7 23  1  0  0  0  0
  8  9  2  0  0  0  0
  8 24  1  0  0  0  0
  9 10  1  0  0  0  0
  9 25  1  0  0  0  0
 10 11  2  0  0  0  0
 10 26  1  0  0  0  0
 12 17  1  0  0  0  0
 12 13  1  0  0  0  0
 12 27  1  0  0  0  0
 13 14  1  0  0  0  0
 13 28  1  0  0  0  0
 13 29  1  0  0  0  0
 14 15  2  0  0  0  0
 14 30  1  0  0  0  0
 15 16  1  0  0  0  0
 15 31  1  0  0  0  0
 16 17  1  0  0  0  0
 16 32  1  0  0  0  0
 16 33  1  0  0  0  0
 17 34  1  0  0  0  0
 17 35  1  0  0  0  0
M  END
> <s_m_source_file>
AV-unprocessed.smi

> <i_m_source_file_index>
2173

> <i_lp_mmshare_version>
43012

> <i_f3d_flags>
0

> <s_epik_input>
W0NIMl0xW0NIMl1bQ0hdPVtDSF1bQ0gyXVtDQEhdMUMoPU8pW05IXVtDSDJdW0NIMl1jMltjSF1bY0hdW2NIXVtjSF1uMg==

> <s_epik_cmdline>
J2VwaWtfcHl0aG9uJywgJy1waCcsICc3LjAnLCAnLXRuJywgJzgnLCAnLW1hJywgJzIwMCcsICctbWV0YWxfYmluZGluZycsICctaW1hZScsICc8aW5maWxlLm1hZT4nLCAnLW9tYWUnLCAnPG91dGZpbGUubWFlPic=

> <r_epik_Ionization_Penalty>
0.0268825

> <r_epik_Ionization_Penalty_Charging>
0

> <r_epik_Ionization_Penalty_Neutral>
0.0268825

> <r_epik_State_Penalty>
0.0219706

> <r_epik_Charging_Adjusted_Penalty>
0.0219706

> <i_epik_Tot_Q>
0

> <i_epik_Tot_abs_Q>
0

> <r_epik_Metal_State_Penalty>
0.0210138

> <b_epik_Metal_Only>
0

> <s_lp_Force_Field>
OPLS_2005

> <r_lp_Energy>
8.2635

> <b_lp_Chiralities_Consistent>
1

> <s_lp_Variant>
AV-unprocessed.smi:2173-2

> <Gold.Version>
5.8.1

> <Gold.Id.Protein>
6NUR|6NUR_protein|mol2

> <Gold.PLP.Fitness>
43.7310

> <Gold.PLP.PLP>
-41.8974

> <Gold.PLP.part.hbond>
-1.4876

> <Gold.PLP.part.metal>
0.0000

> <Gold.PLP.part.buried>
-0.8359

> <Gold.PLP.part.nonpolar>
-39.0666

> <Gold.PLP.part.repulsive>
0.1691

> <Gold.PLP.ligand.clash>
0.0000

> <Gold.PLP.ligand.torsion>
0.6030

> <Gold.PLP.Chemscore.Hbond>
1.0000

> <Gold.PLP.Chemscore.CHOScore>
0.0000

> <Gold.PLP.Chemscore.Metal>
0.0000

> <Gold.Chemscore.Hbonds>
donor molecule, donor type, donor heavy atom, donor atom, acceptor molecule, acceptor atom, score
      P1  H  7997  8009       L1     1  1.00

> <Gold.PLP.Chemscore.Internal.Correction>
0.0395

> <Gold.Rescore>
     Score         DG    S(hbond)    S(metal)    S(lipo)     H(rot)  DE(clash)    DE(int)     intcor
     17.95     -18.60       1.00        0.00     114.15       1.39       0.05       0.60       ----

> <Gold.Chemscore.Fitness>
17.9504

> <Gold.Chemscore.DG>
-18.5992

> <Gold.Chemscore.ZeroCoef>
-5.4800

> <Gold.Chemscore.Hbond>
0.9951

> <Gold.Chemscore.Metal>
0.0000

> <Gold.Chemscore.Lipo>
114.1520

> <Gold.Chemscore.Internal_Hbond>
0.0000

> <Gold.Chemscore.DEClash>
0.0517

> <Gold.Chemscore.DEInternal>
0.5971

> <Gold.Chemscore.Rot>
1.3907

> <Gold.Chemscore.Internal.Correction>
   9.000000E+99

> <Gold.Chemscore.Hbonds>
donor molecule, donor type, donor heavy atom, donor atom, acceptor molecule, acceptor atom, score
      P1  H  7997  8009       L1     1  0.99

> <Gold.Chemscore.Hbond.Weighted>
-3.3235

> <Gold.Chemscore.Metal.Weighted>
-0.0000

> <Gold.Chemscore.Lipo.Weighted>
-13.3558

> <Gold.Chemscore.Internal_Hbond.Weighted>
0.0000

> <Gold.Chemscore.DEClash.Weighted>
0.0517

> <Gold.Chemscore.DEInternal.Weighted>
0.5971

> <Gold.Chemscore.Rot.Weighted>
3.5601

> <Gold.Chemscore.Internal.Correction.Weighted>
   9.000000E+99

> <Gold.Protein.RotatedTorsions>
[ 6907 6896 6895 6894 ] final   14.67 input  -60.11 | X-H torsion
[ 7974 7965 7964 7962 ] final   -1.83 input  175.53 | X-H torsion
[ 8008 7997 7996 7995 ] final -141.43 input   59.86 | X-H torsion
[ 10167 10162 10161 10158 ] final  164.04 input  -65.29 | X-H torsion
[ 10718 10713 10712 10709 ] final  152.90 input   66.30 | X-H torsion
[ 10763 10752 10751 10750 ] final -163.38 input  -60.55 | X-H torsion
[ 11005 11000 10999 10996 ] final -177.63 input  -57.11 | X-H torsion

> <Gold.Protein.ActiveResidues>
 VAL166  LYS551  ARG553  GLY616  TRP617  ASP618  TYR619  PRO620  LYS621  CYS622 
 ASP623  PHE694  ASN695  SER759  ASP760  ASP761  ALA762  ILE779  LEU786  VAL792 
 PHE793  MET794  SER795  GLU796  ALA797  LYS798  CYS799  TRP800  GLU811  SER814 

> <Gold.Protein.RotatedAtoms>
  151.8060  135.0695  160.0406 H   0  0  0  0  0  0  0  0  0  0  0  0  # atno 6907 bound_to 6896
  152.3055  133.5694  159.5654 H   0  0  0  0  0  0  0  0  0  0  0  0  # atno 6908 bound_to 6896
  150.7294  134.0145  159.3723 H   0  0  0  0  0  0  0  0  0  0  0  0  # atno 6909 bound_to 6896
  146.2412  140.1480  142.8334 H   0  0  0  0  0  0  0  0  0  0  0  0  # atno 7974 bound_to 7965
  155.4776  140.0558  157.2971 H   0  0  0  0  0  0  0  0  0  0  0  0  # atno 8008 bound_to 7997
  154.4673  140.2024  156.0038 H   0  0  0  0  0  0  0  0  0  0  0  0  # atno 8009 bound_to 7997
  156.0996  140.3221  155.7929 H   0  0  0  0  0  0  0  0  0  0  0  0  # atno 8010 bound_to 7997
  139.4882  144.4276  151.9110 H   0  0  0  0  0  0  0  0  0  0  0  0  # atno 10167 bound_to 10162
  157.2517  131.0780  151.1725 H   0  0  0  0  0  0  0  0  0  0  0  0  # atno 10718 bound_to 10713
  154.7127  135.3009  154.9171 H   0  0  0  0  0  0  0  0  0  0  0  0  # atno 10763 bound_to 10752
  154.0068  135.6700  153.4766 H   0  0  0  0  0  0  0  0  0  0  0  0  # atno 10764 bound_to 10752
  153.0768  135.5030  154.8336 H   0  0  0  0  0  0  0  0  0  0  0  0  # atno 10765 bound_to 10752
  140.4387  134.6451  157.4747 H   0  0  0  0  0  0  0  0  0  0  0  0  # atno 11005 bound_to 11000
  145.0192  140.8779  143.5177 LP  0  0  0  0  0  0  0  0  0  0  0  0  # atno 17320 bound_to 7965
  145.1525  139.2506  143.5433 LP  0  0  0  0  0  0  0  0  0  0  0  0  # atno 17321 bound_to 7965
  140.3723  144.2840  150.5918 LP  0  0  0  0  0  0  0  0  0  0  0  0  # atno 17342 bound_to 10162
  140.5308  143.2244  151.8241 LP  0  0  0  0  0  0  0  0  0  0  0  0  # atno 17343 bound_to 10162
  157.3270  130.6966  149.6302 LP  0  0  0  0  0  0  0  0  0  0  0  0  # atno 17370 bound_to 10713
  155.9666  130.4318  150.4938 LP  0  0  0  0  0  0  0  0  0  0  0  0  # atno 17371 bound_to 10713
  140.0084  134.6728  155.9418 LP  0  0  0  0  0  0  0  0  0  0  0  0  # atno 17394 bound_to 11000
  141.1715  133.6537  156.4668 LP  0  0  0  0  0  0  0  0  0  0  0  0  # atno 17395 bound_to 11000

$$$$
