AV-unprocessed.smi:1830|AV-procd|sdf|7448|dock6
  -GOLD-   22720 9133D 1   1.00000     0.00000
 Structure written by MMmdl.
 54 57  0  0  0  0  0  0  0  0  3 V2000
  150.8022  137.3425  157.0356 O   0  0  0  0  0  0  0  0  0  0  0  0
  149.6068  137.6290  156.9850 C   0  0  0  0  0  0  0  0  0  0  0  0
  148.6348  136.7138  156.8858 N   0  0  0  0  0  0  0  0  0  0  0  0
  148.8668  135.2755  156.8197 C   0  0  0  0  0  0  0  0  0  0  0  0
  148.9439  134.7698  155.3690 C   0  0  2  0  0  0  0  0  0  0  0  0
  147.6204  134.9110  154.5944 C   0  0  0  0  0  0  0  0  0  0  0  0
  147.7494  134.3982  153.2069 N   0  3  2  0  0  0  0  0  0  0  0  0
  146.4368  134.2432  152.5421 C   0  0  0  0  0  0  0  0  0  0  0  0
  146.0346  132.7652  152.7011 C   0  0  0  0  0  0  0  0  0  0  0  0
  147.2352  132.0759  153.3603 C   0  0  0  0  0  0  0  0  0  0  0  0
  148.3821  133.0624  153.1397 C   0  0  2  0  0  0  0  0  0  0  0  0
  149.5955  132.9107  154.0799 C   0  0  0  0  0  0  0  0  0  0  0  0
  149.3041  133.3944  155.3837 O   0  0  0  0  0  0  0  0  0  0  0  0
  149.1019  138.8730  157.0359 N   0  0  0  0  0  0  0  0  0  0  0  0
  149.7990  140.1079  157.1752 C   0  0  0  0  0  0  0  0  0  0  0  0
  150.9931  140.2381  157.9309 C   0  0  0  0  0  0  0  0  0  0  0  0
  151.6358  141.4895  158.0126 C   0  0  0  0  0  0  0  0  0  0  0  0
  151.0834  142.5894  157.3312 C   0  0  0  0  0  0  0  0  0  0  0  0
  149.9564  142.4294  156.6065 N   0  3  0  0  0  0  0  0  0  0  0  0
  149.2996  141.2485  156.4960 C   0  0  0  0  0  0  0  0  0  0  0  0
  148.1376  141.1878  155.7071 N   0  0  0  0  0  0  0  0  0  0  0  0
  147.0183  141.9906  156.1710 C   0  0  0  0  0  0  0  0  0  0  0  0
  146.0536  142.0636  154.9851 C   0  0  0  0  0  0  0  0  0  0  0  0
  146.9227  141.7842  153.7527 C   0  0  0  0  0  0  0  0  0  0  0  0
  148.3271  141.5310  154.3076 C   0  0  0  0  0  0  0  0  0  0  0  0
  147.6751  137.0265  156.8645 H   0  0  0  0  0  0  0  0  0  0  0  0
  149.7964  135.0363  157.3387 H   0  0  0  0  0  0  0  0  0  0  0  0
  148.0658  134.7583  157.3501 H   0  0  0  0  0  0  0  0  0  0  0  0
  149.7242  135.3396  154.8611 H   0  0  0  0  0  0  0  0  0  0  0  0
  146.8290  134.3637  155.1088 H   0  0  0  0  0  0  0  0  0  0  0  0
  147.3102  135.9560  154.5611 H   0  0  0  0  0  0  0  0  0  0  0  0
  145.6836  134.9276  152.9356 H   0  0  0  0  0  0  0  0  0  0  0  0
  146.5614  134.4754  151.4838 H   0  0  0  0  0  0  0  0  0  0  0  0
  145.1394  132.6556  153.3141 H   0  0  0  0  0  0  0  0  0  0  0  0
  145.8209  132.3254  151.7260 H   0  0  0  0  0  0  0  0  0  0  0  0
  147.0479  131.9459  154.4272 H   0  0  0  0  0  0  0  0  0  0  0  0
  147.4407  131.0923  152.9366 H   0  0  0  0  0  0  0  0  0  0  0  0
  148.7319  132.9270  152.1146 H   0  0  0  0  0  0  0  0  0  0  0  0
  149.8958  131.8647  154.1439 H   0  0  0  0  0  0  0  0  0  0  0  0
  150.4526  133.4542  153.6787 H   0  0  0  0  0  0  0  0  0  0  0  0
  148.0949  138.9403  157.0649 H   0  0  0  0  0  0  0  0  0  0  0  0
  151.4394  139.3985  158.4405 H   0  0  0  0  0  0  0  0  0  0  0  0
  152.5437  141.6016  158.5872 H   0  0  0  0  0  0  0  0  0  0  0  0
  151.5091  143.5824  157.3373 H   0  0  0  0  0  0  0  0  0  0  0  0
  146.5466  141.5397  157.0447 H   0  0  0  0  0  0  0  0  0  0  0  0
  147.3495  142.9929  156.4461 H   0  0  0  0  0  0  0  0  0  0  0  0
  145.2830  141.2969  155.0764 H   0  0  0  0  0  0  0  0  0  0  0  0
  145.5539  143.0313  154.9314 H   0  0  0  0  0  0  0  0  0  0  0  0
  146.5538  140.9011  153.2296 H   0  0  0  0  0  0  0  0  0  0  0  0
  146.9176  142.6146  153.0459 H   0  0  0  0  0  0  0  0  0  0  0  0
  148.9351  142.4318  154.2134 H   0  0  0  0  0  0  0  0  0  0  0  0
  148.8317  140.7265  153.7714 H   0  0  0  0  0  0  0  0  0  0  0  0
  148.3160  135.0566  152.6908 H   0  0  0  0  0  0  0  0  0  0  0  0
  149.5804  143.2405  156.1152 H   0  0  0  0  0  0  0  0  0  0  0  0
  1  2  2  0  0  0  0
  2  3  1  0  0  0  0
  2 14  1  0  0  0  0
  3  4  1  0  0  0  0
  3 26  1  0  0  0  0
  4  5  1  0  0  0  0
  4 27  1  0  0  0  0
  4 28  1  0  0  0  0
  5 13  1  0  0  0  0
  5  6  1  0  0  0  0
  5 29  1  0  0  0  0
  6  7  1  0  0  0  0
  6 30  1  0  0  0  0
  6 31  1  0  0  0  0
  7 11  1  0  0  0  0
  7  8  1  0  0  0  0
  7 53  1  0  0  0  0
  8  9  1  0  0  0  0
  8 32  1  0  0  0  0
  8 33  1  0  0  0  0
  9 10  1  0  0  0  0
  9 34  1  0  0  0  0
  9 35  1  0  0  0  0
 10 11  1  0  0  0  0
 10 36  1  0  0  0  0
 10 37  1  0  0  0  0
 11 12  1  0  0  0  0
 11 38  1  0  0  0  0
 12 13  1  0  0  0  0
 12 39  1  0  0  0  0
 12 40  1  0  0  0  0
 14 15  1  0  0  0  0
 14 41  1  0  0  0  0
 15 20  1  0  0  0  0
 15 16  2  0  0  0  0
 16 17  1  0  0  0  0
 16 42  1  0  0  0  0
 17 18  2  0  0  0  0
 17 43  1  0  0  0  0
 18 19  1  0  0  0  0
 18 44  1  0  0  0  0
 19 20  2  0  0  0  0
 19 54  1  0  0  0  0
 20 21  1  0  0  0  0
 21 25  1  0  0  0  0
 21 22  1  0  0  0  0
 22 23  1  0  0  0  0
 22 45  1  0  0  0  0
 22 46  1  0  0  0  0
 23 24  1  0  0  0  0
 23 47  1  0  0  0  0
 23 48  1  0  0  0  0
 24 25  1  0  0  0  0
 24 49  1  0  0  0  0
 24 50  1  0  0  0  0
 25 51  1  0  0  0  0
 25 52  1  0  0  0  0
M  CHG  1   7   1
M  CHG  1  19   1
M  END
> <s_m_source_file>
AV-unprocessed.smi

> <i_m_source_file_index>
1830

> <i_lp_mmshare_version>
43012

> <i_f3d_flags>
0

> <s_epik_input>
W0NIMl0xW0NIMl1bQ0gyXVtDQEhdKE4xMilbQ0gyXU9bQ0BASF0oW0NIMl0yKVtDSDJdW05IXUMoPU8pW05IXWMzW2NIXVtjSF1bY0hdbmMzTjRbQ0gyXVtDSDJdW0NIMl1bQ0gyXTQ=

> <s_epik_cmdline>
J2VwaWtfcHl0aG9uJywgJy1waCcsICc3LjAnLCAnLXRuJywgJzgnLCAnLW1hJywgJzIwMCcsICctbWV0YWxfYmluZGluZycsICctaW1hZScsICc8aW5maWxlLm1hZT4nLCAnLW9tYWUnLCAnPG91dGZpbGUubWFlPic=

> <r_lp_tautomer_probability>
0.999994

> <r_epik_Ionization_Penalty>
1.29113

> <r_epik_Ionization_Penalty_Charging>
1.29111

> <r_epik_Ionization_Penalty_Neutral>
1.88144e-05

> <r_epik_State_Penalty>
1.32676

> <r_epik_Charging_Adjusted_Penalty>
2.61787

> <i_epik_Tot_Q>
2

> <i_epik_Tot_abs_Q>
2

> <r_epik_Metal_State_Penalty>
1.40425

> <b_epik_Metal_Only>
0

> <s_lp_Force_Field>
OPLS_2005

> <r_lp_Energy>
77.5794

> <b_lp_Chiralities_Consistent>
1

> <s_lp_Variant>
AV-unprocessed.smi:1830-17

> <Gold.Version>
5.8.1

> <Gold.Id.Protein>
6NUR|6NUR_protein|mol2

> <Gold.PLP.Fitness>
44.1799

> <Gold.PLP.PLP>
-33.0544

> <Gold.PLP.part.hbond>
-2.0000

> <Gold.PLP.part.metal>
0.0000

> <Gold.PLP.part.buried>
-6.4586

> <Gold.PLP.part.nonpolar>
-25.7229

> <Gold.PLP.part.repulsive>
0.1782

> <Gold.PLP.ligand.clash>
0.0000

> <Gold.PLP.ligand.torsion>
0.4534

> <Gold.PLP.Chemscore.Hbond>
4.0000

> <Gold.PLP.Chemscore.CHOScore>
0.0000

> <Gold.PLP.Chemscore.Metal>
0.0000

> <Gold.Chemscore.Hbonds>
donor molecule, donor type, donor heavy atom, donor atom, acceptor molecule, acceptor atom, score
      L1  H     7    53       P1  7948  2.00
      L1  H    19    54       P1  8028  2.00

> <Gold.PLP.Chemscore.Internal.Correction>
0.0322

> <Gold.Rescore>
     Score         DG    S(hbond)    S(metal)    S(lipo)     H(rot)  DE(clash)    DE(int)     intcor
     16.48     -17.67       1.96        0.00      79.53       1.43       0.11       1.08       ----

> <Gold.Chemscore.Fitness>
16.4773

> <Gold.Chemscore.DG>
-17.6658

> <Gold.Chemscore.ZeroCoef>
-5.4800

> <Gold.Chemscore.Hbond>
1.9569

> <Gold.Chemscore.Metal>
0.0000

> <Gold.Chemscore.Lipo>
79.5275

> <Gold.Chemscore.Internal_Hbond>
0.0000

> <Gold.Chemscore.DEClash>
0.1075

> <Gold.Chemscore.DEInternal>
1.0811

> <Gold.Chemscore.Rot>
1.4278

> <Gold.Chemscore.Internal.Correction>
   9.000000E+99

> <Gold.Chemscore.Hbonds>
donor molecule, donor type, donor heavy atom, donor atom, acceptor molecule, acceptor atom, score
      L1  H     7    53       P1  7948  0.70
      L1  H    19    54       P1  8028  1.00

> <Gold.Chemscore.Hbond.Weighted>
-6.5362

> <Gold.Chemscore.Metal.Weighted>
-0.0000

> <Gold.Chemscore.Lipo.Weighted>
-9.3047

> <Gold.Chemscore.Internal_Hbond.Weighted>
0.0000

> <Gold.Chemscore.DEClash.Weighted>
0.1075

> <Gold.Chemscore.DEInternal.Weighted>
1.0811

> <Gold.Chemscore.Rot.Weighted>
3.6551

> <Gold.Chemscore.Internal.Correction.Weighted>
   9.000000E+99

> <Gold.Protein.RotatedTorsions>
[ 6907 6896 6895 6894 ] final   62.22 input  -60.11 | X-H torsion
[ 7974 7965 7964 7962 ] final -129.64 input  175.53 | X-H torsion
[ 8008 7997 7996 7995 ] final -110.19 input   59.86 | X-H torsion
[ 10167 10162 10161 10158 ] final  167.80 input  -65.29 | X-H torsion
[ 10718 10713 10712 10709 ] final  173.99 input   66.30 | X-H torsion
[ 10763 10752 10751 10750 ] final -166.36 input  -60.55 | X-H torsion
[ 11005 11000 10999 10996 ] final  -10.22 input  -57.11 | X-H torsion

> <Gold.Protein.ActiveResidues>
 VAL166  LYS551  ARG553  GLY616  TRP617  ASP618  TYR619  PRO620  LYS621  CYS622 
 ASP623  PHE694  ASN695  SER759  ASP760  ASP761  ALA762  ILE779  LEU786  VAL792 
 PHE793  MET794  SER795  GLU796  ALA797  LYS798  CYS799  TRP800  GLU811  SER814 

> <Gold.Protein.RotatedAtoms>
  152.4154  134.6051  160.0010 H   0  0  0  0  0  0  0  0  0  0  0  0  # atno 6907 bound_to 6896
  151.6216  133.3333  159.3097 H   0  0  0  0  0  0  0  0  0  0  0  0  # atno 6908 bound_to 6896
  150.8043  134.7197  159.6695 H   0  0  0  0  0  0  0  0  0  0  0  0  # atno 6909 bound_to 6896
  144.9552  140.7387  143.4763 H   0  0  0  0  0  0  0  0  0  0  0  0  # atno 7974 bound_to 7965
  154.9707  140.0397  157.2233 H   0  0  0  0  0  0  0  0  0  0  0  0  # atno 8008 bound_to 7997
  154.7804  140.2817  155.6046 H   0  0  0  0  0  0  0  0  0  0  0  0  # atno 8009 bound_to 7997
  156.2935  140.2593  156.2628 H   0  0  0  0  0  0  0  0  0  0  0  0  # atno 8010 bound_to 7997
  139.4953  144.3883  151.9545 H   0  0  0  0  0  0  0  0  0  0  0  0  # atno 10167 bound_to 10162
  156.9562  131.0046  151.2938 H   0  0  0  0  0  0  0  0  0  0  0  0  # atno 10718 bound_to 10713
  154.6840  135.2959  154.9573 H   0  0  0  0  0  0  0  0  0  0  0  0  # atno 10763 bound_to 10752
  154.0558  135.6638  153.4810 H   0  0  0  0  0  0  0  0  0  0  0  0  # atno 10764 bound_to 10752
  153.0566  135.5140  154.7898 H   0  0  0  0  0  0  0  0  0  0  0  0  # atno 10765 bound_to 10752
  140.7424  133.8659  155.8978 H   0  0  0  0  0  0  0  0  0  0  0  0  # atno 11005 bound_to 11000
  145.2784  139.1928  143.4804 LP  0  0  0  0  0  0  0  0  0  0  0  0  # atno 17320 bound_to 7965
  146.3334  140.2741  142.8607 LP  0  0  0  0  0  0  0  0  0  0  0  0  # atno 17321 bound_to 7965
  140.3321  144.3304  150.5985 LP  0  0  0  0  0  0  0  0  0  0  0  0  # atno 17342 bound_to 10162
  140.5637  143.2189  151.7721 LP  0  0  0  0  0  0  0  0  0  0  0  0  # atno 17343 bound_to 10162
  157.5688  130.8296  149.8364 LP  0  0  0  0  0  0  0  0  0  0  0  0  # atno 17370 bound_to 10713
  156.0341  130.3756  150.1607 LP  0  0  0  0  0  0  0  0  0  0  0  0  # atno 17371 bound_to 10713
  140.9825  134.1387  157.4482 LP  0  0  0  0  0  0  0  0  0  0  0  0  # atno 17394 bound_to 11000
  139.8803  135.0015  156.6070 LP  0  0  0  0  0  0  0  0  0  0  0  0  # atno 17395 bound_to 11000

$$$$
