AV-unprocessed.smi:3320|AV-procd|sdf|12768|dock10
  -GOLD-   2272019113D 1   1.00000     0.00000
 Structure written by MMmdl.
 37 38  0  0  0  0  0  0  0  0  1 V2000
  153.5645  141.4087  161.0728 C   0  0  0  0  0  0  0  0  0  0  0  0
  153.2116  142.7973  160.5205 C   0  0  0  0  0  0  0  0  0  0  0  0
  152.5628  143.7140  161.5675 C   0  0  0  0  0  0  0  0  0  0  0  0
  152.4014  142.7144  159.2650 C   0  0  0  0  0  0  0  0  0  0  0  0
  151.7935  141.6000  158.8468 N   0  0  0  0  0  0  0  0  0  0  0  0
  151.1007  141.7788  157.6458 C   0  0  0  0  0  0  0  0  0  0  0  0
  150.3693  140.6260  157.0285 C   0  0  0  0  0  0  0  0  0  0  0  0
  150.7316  139.2882  157.6943 C   0  0  0  0  0  0  0  0  0  0  0  0
  149.5454  138.5775  158.1574 N   0  0  0  0  0  0  0  0  0  0  0  0
  149.5539  137.3880  158.7774 C   0  0  0  0  0  0  0  0  0  0  0  0
  150.5870  136.7649  159.0258 O   0  0  0  0  0  0  0  0  0  0  0  0
  148.1827  136.8259  159.1750 C   0  0  0  0  0  0  0  0  0  0  0  0
  148.0823  136.3497  160.6353 C   0  0  0  0  0  0  0  0  0  0  0  0
  147.3530  135.0994  160.1347 C   0  0  0  0  0  0  0  0  0  0  0  0
  147.9432  135.3671  158.7469 C   0  0  0  0  0  0  0  0  0  0  0  0
  151.1899  143.0575  157.1556 C   0  0  0  0  0  0  0  0  0  0  0  0
  152.1506  144.0826  158.1857 S   0  0  0  0  0  0  0  0  0  0  0  0
  154.0967  140.8142  160.3295 H   0  0  0  0  0  0  0  0  0  0  0  0
  152.6689  140.8574  161.3613 H   0  0  0  0  0  0  0  0  0  0  0  0
  154.2036  141.4868  161.9526 H   0  0  0  0  0  0  0  0  0  0  0  0
  154.1566  143.2671  160.2446 H   0  0  0  0  0  0  0  0  0  0  0  0
  152.4000  144.7145  161.1656 H   0  0  0  0  0  0  0  0  0  0  0  0
  153.1955  143.8116  162.4501 H   0  0  0  0  0  0  0  0  0  0  0  0
  151.5978  143.3240  161.8926 H   0  0  0  0  0  0  0  0  0  0  0  0
  149.2940  140.7944  157.0993 H   0  0  0  0  0  0  0  0  0  0  0  0
  150.5927  140.5723  155.9623 H   0  0  0  0  0  0  0  0  0  0  0  0
  151.2518  138.6488  156.9808 H   0  0  0  0  0  0  0  0  0  0  0  0
  151.4197  139.4476  158.5265 H   0  0  0  0  0  0  0  0  0  0  0  0
  148.6531  139.0203  157.9916 H   0  0  0  0  0  0  0  0  0  0  0  0
  147.3487  137.4746  158.8993 H   0  0  0  0  0  0  0  0  0  0  0  0
  149.0417  136.1183  161.1018 H   0  0  0  0  0  0  0  0  0  0  0  0
  147.4749  136.9898  161.2758 H   0  0  0  0  0  0  0  0  0  0  0  0
  147.6793  134.1667  160.5958 H   0  0  0  0  0  0  0  0  0  0  0  0
  146.2674  135.2063  160.1587 H   0  0  0  0  0  0  0  0  0  0  0  0
  147.2287  135.2501  157.9315 H   0  0  0  0  0  0  0  0  0  0  0  0
  148.8557  134.7977  158.5602 H   0  0  0  0  0  0  0  0  0  0  0  0
  150.7519  143.4571  156.2530 H   0  0  0  0  0  0  0  0  0  0  0  0
  1  2  1  0  0  0  0
  1 18  1  0  0  0  0
  1 19  1  0  0  0  0
  1 20  1  0  0  0  0
  2  3  1  0  0  0  0
  2  4  1  0  0  0  0
  2 21  1  0  0  0  0
  3 22  1  0  0  0  0
  3 23  1  0  0  0  0
  3 24  1  0  0  0  0
  4 17  1  0  0  0  0
  4  5  2  0  0  0  0
  5  6  1  0  0  0  0
  6  7  1  0  0  0  0
  6 16  2  0  0  0  0
  7  8  1  0  0  0  0
  7 25  1  0  0  0  0
  7 26  1  0  0  0  0
  8  9  1  0  0  0  0
  8 27  1  0  0  0  0
  8 28  1  0  0  0  0
  9 10  1  0  0  0  0
  9 29  1  0  0  0  0
 10 11  2  0  0  0  0
 10 12  1  0  0  0  0
 12 15  1  0  0  0  0
 12 13  1  0  0  0  0
 12 30  1  0  0  0  0
 13 14  1  0  0  0  0
 13 31  1  0  0  0  0
 13 32  1  0  0  0  0
 14 15  1  0  0  0  0
 14 33  1  0  0  0  0
 14 34  1  0  0  0  0
 15 35  1  0  0  0  0
 15 36  1  0  0  0  0
 16 17  1  0  0  0  0
 16 37  1  0  0  0  0
M  END
> <s_m_source_file>
AV-unprocessed.smi

> <i_m_source_file_index>
3320

> <i_lp_mmshare_version>
43012

> <i_f3d_flags>
0

> <s_epik_input>
W0NIM11bQ0hdKFtDSDNdKWMxbmMoW2NIXXMxKVtDSDJdW0NIMl1bTkhdQyg9TylbQ0hdMltDSDJdW0NIMl1bQ0gyXTI=

> <s_epik_cmdline>
J2VwaWtfcHl0aG9uJywgJy1waCcsICc3LjAnLCAnLXRuJywgJzgnLCAnLW1hJywgJzIwMCcsICctbWV0YWxfYmluZGluZycsICctaW1hZScsICc8aW5maWxlLm1hZT4nLCAnLW9tYWUnLCAnPG91dGZpbGUubWFlPic=

> <r_epik_Ionization_Penalty>
0.000842111

> <r_epik_Ionization_Penalty_Charging>
0

> <r_epik_Ionization_Penalty_Neutral>
0.000842111

> <r_epik_State_Penalty>
0.000542609

> <r_epik_Charging_Adjusted_Penalty>
0.000542609

> <i_epik_Tot_Q>
0

> <i_epik_Tot_abs_Q>
0

> <r_epik_Metal_State_Penalty>
-0

> <b_epik_Metal_Only>
0

> <s_lp_Force_Field>
OPLS_2005

> <r_lp_Energy>
-0.445202

> <b_lp_Chiralities_Consistent>
1

> <s_lp_Variant>
AV-unprocessed.smi:3320-1

> <Gold.Version>
5.8.1

> <Gold.Id.Protein>
6NUR|6NUR_protein|mol2

> <Gold.PLP.Fitness>
41.8520

> <Gold.PLP.PLP>
-37.2003

> <Gold.PLP.part.hbond>
-1.0000

> <Gold.PLP.part.metal>
0.0000

> <Gold.PLP.part.buried>
-4.7900

> <Gold.PLP.part.nonpolar>
-31.6296

> <Gold.PLP.part.repulsive>
0.1306

> <Gold.PLP.ligand.clash>
0.0000

> <Gold.PLP.ligand.torsion>
0.9158

> <Gold.PLP.Chemscore.Hbond>
1.0000

> <Gold.PLP.Chemscore.CHOScore>
0.9982

> <Gold.PLP.Chemscore.Metal>
0.0000

> <Gold.Chemscore.Hbonds>
donor molecule, donor type, donor heavy atom, donor atom, acceptor molecule, acceptor atom, score
      P1  H  6896  6909       L1    11  1.00
      L1  C    16    37       P1  8028  1.00

> <Gold.PLP.Chemscore.Internal.Correction>
0.4886

> <Gold.Rescore>
     Score         DG    S(hbond)    S(metal)    S(lipo)     H(rot)  DE(clash)    DE(int)     intcor
     16.75     -17.54       1.00        0.00     107.09       1.49       0.06       0.73       ----

> <Gold.Chemscore.Fitness>
16.7502

> <Gold.Chemscore.DG>
-17.5424

> <Gold.Chemscore.ZeroCoef>
-5.4800

> <Gold.Chemscore.Hbond>
0.9998

> <Gold.Chemscore.Metal>
0.0000

> <Gold.Chemscore.Lipo>
107.0907

> <Gold.Chemscore.Internal_Hbond>
0.0000

> <Gold.Chemscore.DEClash>
0.0597

> <Gold.Chemscore.DEInternal>
0.7326

> <Gold.Chemscore.Rot>
1.4870

> <Gold.Chemscore.Internal.Correction>
   9.000000E+99

> <Gold.Chemscore.Hbonds>
donor molecule, donor type, donor heavy atom, donor atom, acceptor molecule, acceptor atom, score
      P1  H  6896  6909       L1    11  0.98

> <Gold.Chemscore.Hbond.Weighted>
-3.3395

> <Gold.Chemscore.Metal.Weighted>
-0.0000

> <Gold.Chemscore.Lipo.Weighted>
-12.5296

> <Gold.Chemscore.Internal_Hbond.Weighted>
0.0000

> <Gold.Chemscore.DEClash.Weighted>
0.0597

> <Gold.Chemscore.DEInternal.Weighted>
0.7326

> <Gold.Chemscore.Rot.Weighted>
3.8067

> <Gold.Chemscore.Internal.Correction.Weighted>
   9.000000E+99

> <Gold.Protein.RotatedTorsions>
[ 6907 6896 6895 6894 ] final   93.52 input  -60.11 | X-H torsion
[ 7974 7965 7964 7962 ] final -143.04 input  175.53 | X-H torsion
[ 8008 7997 7996 7995 ] final   49.10 input   59.86 | X-H torsion
[ 10167 10162 10161 10158 ] final  159.45 input  -65.29 | X-H torsion
[ 10718 10713 10712 10709 ] final   85.92 input   66.30 | X-H torsion
[ 10763 10752 10751 10750 ] final   87.80 input  -60.55 | X-H torsion
[ 11005 11000 10999 10996 ] final   -9.76 input  -57.11 | X-H torsion

> <Gold.Protein.ActiveResidues>
 VAL166  LYS551  ARG553  GLY616  TRP617  ASP618  TYR619  PRO620  LYS621  CYS622 
 ASP623  PHE694  ASN695  SER759  ASP760  ASP761  ALA762  ILE779  LEU786  VAL792 
 PHE793  MET794  SER795  GLU796  ALA797  LYS798  CYS799  TRP800  GLU811  SER814 

> <Gold.Protein.RotatedAtoms>
  152.5452  134.1335  159.8448 H   0  0  0  0  0  0  0  0  0  0  0  0  # atno 6907 bound_to 6896
  151.1378  133.4985  159.2605 H   0  0  0  0  0  0  0  0  0  0  0  0  # atno 6908 bound_to 6896
  151.1605  135.0281  159.8763 H   0  0  0  0  0  0  0  0  0  0  0  0  # atno 6909 bound_to 6896
  144.8398  140.5883  143.5459 H   0  0  0  0  0  0  0  0  0  0  0  0  # atno 7974 bound_to 7965
  155.3966  140.3436  155.4254 H   0  0  0  0  0  0  0  0  0  0  0  0  # atno 8008 bound_to 7997
  156.1527  140.1576  156.8775 H   0  0  0  0  0  0  0  0  0  0  0  0  # atno 8009 bound_to 7997
  154.5067  140.0800  156.7890 H   0  0  0  0  0  0  0  0  0  0  0  0  # atno 8010 bound_to 7997
  139.4832  144.4729  151.8551 H   0  0  0  0  0  0  0  0  0  0  0  0  # atno 10167 bound_to 10162
  157.6921  131.0194  150.2894 H   0  0  0  0  0  0  0  0  0  0  0  0  # atno 10718 bound_to 10713
  153.1704  135.4530  154.9894 H   0  0  0  0  0  0  0  0  0  0  0  0  # atno 10763 bound_to 10752
  154.7962  135.3238  154.7664 H   0  0  0  0  0  0  0  0  0  0  0  0  # atno 10764 bound_to 10752
  153.8141  135.6952  153.4891 H   0  0  0  0  0  0  0  0  0  0  0  0  # atno 10765 bound_to 10752
  140.7376  133.8697  155.8942 H   0  0  0  0  0  0  0  0  0  0  0  0  # atno 11005 bound_to 11000
  145.4717  139.1503  143.3810 LP  0  0  0  0  0  0  0  0  0  0  0  0  # atno 17320 bound_to 7965
  146.2692  140.4851  142.8821 LP  0  0  0  0  0  0  0  0  0  0  0  0  # atno 17321 bound_to 7965
  140.4199  144.2257  150.5887 LP  0  0  0  0  0  0  0  0  0  0  0  0  # atno 17342 bound_to 10162
  140.4884  143.2355  151.8855 LP  0  0  0  0  0  0  0  0  0  0  0  0  # atno 17343 bound_to 10162
  156.3428  130.3818  149.7394 LP  0  0  0  0  0  0  0  0  0  0  0  0  # atno 17370 bound_to 10713
  156.4898  130.8079  151.3090 LP  0  0  0  0  0  0  0  0  0  0  0  0  # atno 17371 bound_to 10713
  140.9866  134.1335  157.4447 LP  0  0  0  0  0  0  0  0  0  0  0  0  # atno 17394 bound_to 11000
  139.8813  135.0027  156.6143 LP  0  0  0  0  0  0  0  0  0  0  0  0  # atno 17395 bound_to 11000

$$$$
