AV-unprocessed.smi:1005|AV-procd|sdf|4384|dock2
  -GOLD-   22720 2303D 1   1.00000     0.00000
 Structure written by MMmdl.
 58 60  0  0  0  0  0  0  0  0  4 V2000
  151.6721  142.8723  162.0339 C   0  0  0  0  0  0  0  0  0  0  0  0
  151.3256  142.4719  160.6098 C   0  0  0  0  0  0  0  0  0  0  0  0
  151.7628  141.2141  160.1374 C   0  0  0  0  0  0  0  0  0  0  0  0
  151.4340  140.8784  158.8293 C   0  0  0  0  0  0  0  0  0  0  0  0
  151.7156  139.7333  158.0817 N   0  3  0  0  0  0  0  0  0  0  0  0
  151.1842  139.8619  156.8348 C   0  0  0  0  0  0  0  0  0  0  0  0
  150.5705  141.0753  156.7721 N   0  0  0  0  0  0  0  0  0  0  0  0
  149.8438  141.7024  155.6576 C   0  0  0  0  0  0  0  0  0  0  0  0
  149.0864  140.6825  154.7837 C   0  0  2  0  0  0  0  0  0  0  0  0
  150.0088  139.9502  154.0002 O   0  0  0  0  0  0  0  0  0  0  0  0
  148.0807  141.3751  153.8416 C   0  0  0  0  0  0  0  0  0  0  0  0
  147.0723  142.1880  154.5697 N   0  3  2  0  0  0  0  0  0  0  0  0
  146.4648  141.4540  155.7043 C   0  0  0  0  0  0  0  0  0  0  0  0
  145.4867  142.3621  156.4663 C   0  0  0  0  0  0  0  0  0  0  0  0
  144.4951  142.8491  155.5702 O   0  0  0  0  0  0  0  0  0  0  0  0
  145.0501  143.6374  154.5218 C   0  0  2  0  0  0  0  0  0  0  0  0
  143.8883  144.1694  153.6615 C   0  0  0  0  0  0  0  0  0  0  0  0
  142.9059  144.9600  154.4472 N   0  3  0  0  0  0  0  0  0  0  0  0
  143.5324  145.9931  155.3043 C   0  0  0  0  0  0  0  0  0  0  0  0
  141.8442  145.5373  153.5933 C   0  0  0  0  0  0  0  0  0  0  0  0
  146.0128  142.7565  153.6993 C   0  0  0  0  0  0  0  0  0  0  0  0
  150.6961  141.7430  157.9972 C   0  0  0  0  0  0  0  0  0  0  0  0
  150.2550  142.9848  158.4488 C   0  0  0  0  0  0  0  0  0  0  0  0
  150.5796  143.3450  159.7763 C   0  0  0  0  0  0  0  0  0  0  0  0
  150.1132  144.6948  160.2948 C   0  0  0  0  0  0  0  0  0  0  0  0
  152.2855  142.1155  162.5236 H   0  0  0  0  0  0  0  0  0  0  0  0
  150.7656  143.0013  162.6256 H   0  0  0  0  0  0  0  0  0  0  0  0
  152.2297  143.8091  162.0449 H   0  0  0  0  0  0  0  0  0  0  0  0
  152.3299  140.5434  160.7665 H   0  0  0  0  0  0  0  0  0  0  0  0
  151.2401  139.1317  156.0401 H   0  0  0  0  0  0  0  0  0  0  0  0
  149.1376  142.4087  156.0960 H   0  0  0  0  0  0  0  0  0  0  0  0
  150.5387  142.2976  155.0646 H   0  0  0  0  0  0  0  0  0  0  0  0
  148.5715  139.9837  155.4422 H   0  0  0  0  0  0  0  0  0  0  0  0
  149.7894  139.0322  154.0581 H   0  0  0  0  0  0  0  0  0  0  0  0
  148.6022  142.0069  153.1209 H   0  0  0  0  0  0  0  0  0  0  0  0
  147.5708  140.6060  153.2587 H   0  0  0  0  0  0  0  0  0  0  0  0
  145.9439  140.5701  155.3324 H   0  0  0  0  0  0  0  0  0  0  0  0
  147.2441  141.1057  156.3833 H   0  0  0  0  0  0  0  0  0  0  0  0
  144.9983  141.8029  157.2647 H   0  0  0  0  0  0  0  0  0  0  0  0
  146.0122  143.1952  156.9363 H   0  0  0  0  0  0  0  0  0  0  0  0
  145.6128  144.4687  154.9476 H   0  0  0  0  0  0  0  0  0  0  0  0
  144.2658  144.7789  152.8389 H   0  0  0  0  0  0  0  0  0  0  0  0
  143.3859  143.3161  153.2029 H   0  0  0  0  0  0  0  0  0  0  0  0
  144.0727  146.7249  154.7025 H   0  0  0  0  0  0  0  0  0  0  0  0
  144.2300  145.5556  156.0171 H   0  0  0  0  0  0  0  0  0  0  0  0
  142.7738  146.5237  155.8806 H   0  0  0  0  0  0  0  0  0  0  0  0
  142.2601  146.2493  152.8792 H   0  0  0  0  0  0  0  0  0  0  0  0
  141.1002  146.0556  154.1992 H   0  0  0  0  0  0  0  0  0  0  0  0
  141.3257  144.7559  153.0365 H   0  0  0  0  0  0  0  0  0  0  0  0
  146.4564  143.3566  152.9058 H   0  0  0  0  0  0  0  0  0  0  0  0
  145.4642  141.9456  153.2173 H   0  0  0  0  0  0  0  0  0  0  0  0
  149.6909  143.6541  157.8161 H   0  0  0  0  0  0  0  0  0  0  0  0
  149.5007  145.2161  159.5587 H   0  0  0  0  0  0  0  0  0  0  0  0
  150.9679  145.3300  160.5280 H   0  0  0  0  0  0  0  0  0  0  0  0
  149.5141  144.5739  161.1977 H   0  0  0  0  0  0  0  0  0  0  0  0
  142.4397  144.3090  155.0635 H   0  0  0  0  0  0  0  0  0  0  0  0
  147.5768  142.9646  154.9741 H   0  0  0  0  0  0  0  0  0  0  0  0
  152.2302  138.9210  158.3976 H   0  0  0  0  0  0  0  0  0  0  0  0
  1  2  1  0  0  0  0
  1 26  1  0  0  0  0
  1 27  1  0  0  0  0
  1 28  1  0  0  0  0
  2 24  1  0  0  0  0
  2  3  2  0  0  0  0
  3  4  1  0  0  0  0
  3 29  1  0  0  0  0
  4 22  2  0  0  0  0
  4  5  1  0  0  0  0
  5  6  2  0  0  0  0
  5 58  1  0  0  0  0
  6  7  1  0  0  0  0
  6 30  1  0  0  0  0
  7  8  1  0  0  0  0
  7 22  1  0  0  0  0
  8  9  1  0  0  0  0
  8 31  1  0  0  0  0
  8 32  1  0  0  0  0
  9 10  1  0  0  0  0
  9 11  1  0  0  0  0
  9 33  1  0  0  0  0
 10 34  1  0  0  0  0
 11 12  1  0  0  0  0
 11 35  1  0  0  0  0
 11 36  1  0  0  0  0
 12 21  1  0  0  0  0
 12 13  1  0  0  0  0
 12 57  1  0  0  0  0
 13 14  1  0  0  0  0
 13 37  1  0  0  0  0
 13 38  1  0  0  0  0
 14 15  1  0  0  0  0
 14 39  1  0  0  0  0
 14 40  1  0  0  0  0
 15 16  1  0  0  0  0
 16 17  1  0  0  0  0
 16 21  1  0  0  0  0
 16 41  1  0  0  0  0
 17 18  1  0  0  0  0
 17 42  1  0  0  0  0
 17 43  1  0  0  0  0
 18 19  1  0  0  0  0
 18 20  1  0  0  0  0
 18 56  1  0  0  0  0
 19 44  1  0  0  0  0
 19 45  1  0  0  0  0
 19 46  1  0  0  0  0
 20 47  1  0  0  0  0
 20 48  1  0  0  0  0
 20 49  1  0  0  0  0
 21 50  1  0  0  0  0
 21 51  1  0  0  0  0
 22 23  1  0  0  0  0
 23 24  2  0  0  0  0
 23 52  1  0  0  0  0
 24 25  1  0  0  0  0
 25 53  1  0  0  0  0
 25 54  1  0  0  0  0
 25 55  1  0  0  0  0
M  CHG  1   5   1
M  CHG  1  12   1
M  CHG  1  18   1
M  END
> <s_m_source_file>
AV-unprocessed.smi

> <i_m_source_file_index>
1005

> <i_lp_mmshare_version>
43012

> <i_f3d_flags>
0

> <s_epik_input>
W0NIM11jKFtjSF0xKWMoW0NIM10pW2NIXWMoYzEyKW4oW2NIXW4yKVtDSDJdW0NASF0oW09IXSlbQ0gyXU4zW0NIMl1bQ0gyXU9bQ0BIXShbQ0gyXTMpW0NIMl1OKFtDSDNdKVtDSDNd

> <s_epik_cmdline>
J2VwaWtfcHl0aG9uJywgJy1waCcsICc3LjAnLCAnLXRuJywgJzgnLCAnLW1hJywgJzIwMCcsICctbWV0YWxfYmluZGluZycsICctaW1hZScsICc8aW5maWxlLm1hZT4nLCAnLW9tYWUnLCAnPG91dGZpbGUubWFlPic=

> <r_epik_Ionization_Penalty>
2.30802

> <r_epik_Ionization_Penalty_Charging>
2.30798

> <r_epik_Ionization_Penalty_Neutral>
3.4851e-05

> <r_epik_State_Penalty>
2.52618

> <r_epik_Charging_Adjusted_Penalty>
4.83416

> <i_epik_Tot_Q>
3

> <i_epik_Tot_abs_Q>
3

> <r_epik_Metal_State_Penalty>
6.53149

> <b_epik_Metal_Only>
0

> <s_lp_Force_Field>
OPLS_2005

> <r_lp_Energy>
42.4593

> <b_lp_Chiralities_Consistent>
1

> <s_lp_Variant>
AV-unprocessed.smi:1005-23

> <Gold.Version>
5.8.1

> <Gold.Id.Protein>
6NUR|6NUR_protein|mol2

> <Gold.PLP.Fitness>
59.7009

> <Gold.PLP.PLP>
-52.1454

> <Gold.PLP.part.hbond>
-3.0000

> <Gold.PLP.part.metal>
0.0000

> <Gold.PLP.part.buried>
-8.6057

> <Gold.PLP.part.nonpolar>
-40.5518

> <Gold.PLP.part.repulsive>
0.3317

> <Gold.PLP.ligand.clash>
0.0000

> <Gold.PLP.ligand.torsion>
0.5284

> <Gold.PLP.Chemscore.Hbond>
2.8160

> <Gold.PLP.Chemscore.CHOScore>
0.0000

> <Gold.PLP.Chemscore.Metal>
0.0000

> <Gold.Chemscore.Hbonds>
donor molecule, donor type, donor heavy atom, donor atom, acceptor molecule, acceptor atom, score
      L1  H    12    57       P1  8028  0.88
      P1  H  7989  7998       L1    10  0.93

> <Gold.PLP.Chemscore.Internal.Correction>
0.1643

> <Gold.Rescore>
     Score         DG    S(hbond)    S(metal)    S(lipo)     H(rot)  DE(clash)    DE(int)     intcor
     19.00     -19.91       1.80        0.00     127.77       2.56       0.21       0.70       ----

> <Gold.Chemscore.Fitness>
18.9970

> <Gold.Chemscore.DG>
-19.9073

> <Gold.Chemscore.ZeroCoef>
-5.4800

> <Gold.Chemscore.Hbond>
1.8034

> <Gold.Chemscore.Metal>
0.0000

> <Gold.Chemscore.Lipo>
127.7688

> <Gold.Chemscore.Internal_Hbond>
0.0000

> <Gold.Chemscore.DEClash>
0.2089

> <Gold.Chemscore.DEInternal>
0.7013

> <Gold.Chemscore.Rot>
2.5566

> <Gold.Chemscore.Internal.Correction>
   9.000000E+99

> <Gold.Chemscore.Hbonds>
donor molecule, donor type, donor heavy atom, donor atom, acceptor molecule, acceptor atom, score
      L1  H    12    57       P1  8028  0.24
      P1  H  7989  7998       L1    10  0.84

> <Gold.Chemscore.Hbond.Weighted>
-6.0233

> <Gold.Chemscore.Metal.Weighted>
-0.0000

> <Gold.Chemscore.Lipo.Weighted>
-14.9490

> <Gold.Chemscore.Internal_Hbond.Weighted>
0.0000

> <Gold.Chemscore.DEClash.Weighted>
0.2089

> <Gold.Chemscore.DEInternal.Weighted>
0.7013

> <Gold.Chemscore.Rot.Weighted>
6.5450

> <Gold.Chemscore.Internal.Correction.Weighted>
   9.000000E+99

> <Gold.Protein.RotatedTorsions>
[ 6907 6896 6895 6894 ] final  -12.24 input  -60.11 | X-H torsion
[ 7974 7965 7964 7962 ] final  165.95 input  175.53 | X-H torsion
[ 8008 7997 7996 7995 ] final -107.22 input   59.86 | X-H torsion
[ 10167 10162 10161 10158 ] final  179.05 input  -65.29 | X-H torsion
[ 10718 10713 10712 10709 ] final  134.55 input   66.30 | X-H torsion
[ 10763 10752 10751 10750 ] final  -66.78 input  -60.55 | X-H torsion
[ 11005 11000 10999 10996 ] final  -85.95 input  -57.11 | X-H torsion

> <Gold.Protein.ActiveResidues>
 VAL166  LYS551  ARG553  GLY616  TRP617  ASP618  TYR619  PRO620  LYS621  CYS622 
 ASP623  PHE694  ASN695  SER759  ASP760  ASP761  ALA762  ILE779  LEU786  VAL792 
 PHE793  MET794  SER795  GLU796  ALA797  LYS798  CYS799  TRP800  GLU811  SER814 

> <Gold.Protein.RotatedAtoms>
  151.3736  135.0927  159.9473 H   0  0  0  0  0  0  0  0  0  0  0  0  # atno 6907 bound_to 6896
  152.5128  133.9140  159.7512 H   0  0  0  0  0  0  0  0  0  0  0  0  # atno 6908 bound_to 6896
  150.9559  133.6443  159.2792 H   0  0  0  0  0  0  0  0  0  0  0  0  # atno 6909 bound_to 6896
  144.7482  139.8544  143.6375 H   0  0  0  0  0  0  0  0  0  0  0  0  # atno 7974 bound_to 7965
  154.9261  140.0406  157.2024 H   0  0  0  0  0  0  0  0  0  0  0  0  # atno 8008 bound_to 7997
  154.8206  140.2883  155.5768 H   0  0  0  0  0  0  0  0  0  0  0  0  # atno 8009 bound_to 7997
  156.2979  140.2519  156.3112 H   0  0  0  0  0  0  0  0  0  0  0  0  # atno 8010 bound_to 7997
  139.5320  144.2608  152.0709 H   0  0  0  0  0  0  0  0  0  0  0  0  # atno 10167 bound_to 10162
  157.4661  131.1077  150.9861 H   0  0  0  0  0  0  0  0  0  0  0  0  # atno 10718 bound_to 10713
  154.3649  135.6108  153.5709 H   0  0  0  0  0  0  0  0  0  0  0  0  # atno 10763 bound_to 10752
  152.9792  135.5824  154.4590 H   0  0  0  0  0  0  0  0  0  0  0  0  # atno 10764 bound_to 10752
  154.4334  135.2848  155.1874 H   0  0  0  0  0  0  0  0  0  0  0  0  # atno 10765 bound_to 10752
  141.1635  133.7427  156.9090 H   0  0  0  0  0  0  0  0  0  0  0  0  # atno 11005 bound_to 11000
  146.1393  139.4446  143.0119 LP  0  0  0  0  0  0  0  0  0  0  0  0  # atno 17320 bound_to 7965
  145.7043  141.0126  143.1487 LP  0  0  0  0  0  0  0  0  0  0  0  0  # atno 17321 bound_to 7965
  140.2072  144.4599  150.6403 LP  0  0  0  0  0  0  0  0  0  0  0  0  # atno 17342 bound_to 10162
  140.6503  143.2223  151.6092 LP  0  0  0  0  0  0  0  0  0  0  0  0  # atno 17343 bound_to 10162
  157.0641  130.5837  149.5391 LP  0  0  0  0  0  0  0  0  0  0  0  0  # atno 17370 bound_to 10713
  156.0051  130.5136  150.7801 LP  0  0  0  0  0  0  0  0  0  0  0  0  # atno 17371 bound_to 10713
  140.1530  134.9217  157.2617 LP  0  0  0  0  0  0  0  0  0  0  0  0  # atno 17394 bound_to 11000
  140.2700  134.3471  155.7377 LP  0  0  0  0  0  0  0  0  0  0  0  0  # atno 17395 bound_to 11000

$$$$
