#       Name:                AV-unprocessed.smi:1986
#       Creating user name   scv26
#       Creation time:       Fri Mar 27 10:25:06 2020


#       File generated by GOLD software.
#

@<TRIPOS>MOLECULE
AV-unprocessed.smi:1986
    57    58     1
SMALL
NO_CHARGES


@<TRIPOS>ATOM
      1 ****        -3.2342  -0.9481   0.6864 C.3            1 S1                 0.0000
      2 ****        -1.7580  -0.5951   0.4288 C.3            1 S1                 0.0000
      3 ****        -1.4652   0.1477  -0.9142 C.3            1 S1                 0.0000
      4 ****        -2.1215   1.5499  -0.7932 C.3            1 S1                 0.0000
      5 ****         0.0792   0.3392  -1.0372 C.3            1 S1                 0.0000
      6 ****         0.6435   1.1152   0.0654 N.am           1 S1                 0.0000
      7 ****         1.8406   0.9119   0.6335 C.2            1 S1                 0.0000
      8 ****         2.6383   0.0558   0.2495 O.2            1 S1                 0.0000
      9 ****         2.1922   1.8372   1.8071 C.3            1 S1                 0.0000
     10 ****         3.0168   1.1808   2.8315 N.am           1 S1                 0.0000
     11 ****         4.3576   1.5320   2.7927 N.2            1 S1                 0.0000
     12 ****         5.1835   1.0160   3.6388 C.2            1 S1                 0.0000
     13 ****         6.5026   1.3898   3.5633 O.3            1 S1                 0.0000
     14 ****         4.7381   0.0716   4.6397 C.2            1 S1                 0.0000
     15 ****         3.4290  -0.2604   4.6729 C.2            1 S1                 0.0000
     16 ****         2.4645   0.3078   3.7295 C.2            1 S1                 0.0000
     17 ****         1.2655   0.0286   3.7405 O.2            1 S1                 0.0000
     18 ****        -2.0342  -0.5951  -2.0746 N.3            1 S1                 0.0000
     19 ****        -1.9245   0.0886  -3.3688 C.3            1 S1                 0.0000
     20 ****        -2.6607  -0.6705  -4.4859 C.3            1 S1                 0.0000
     21 ****        -2.1577  -1.9981  -4.5764 O.3            1 S1                 0.0000
     22 ****        -2.2964  -2.7156  -3.3560 C.3            1 S1                 0.0000
     23 ****        -1.5535  -1.9733  -2.2326 C.3            1 S1                 0.0000
     24 ****         6.5493   1.9987   2.8423 H              1 S1                 0.0000
     25 ****        -3.3397  -1.4691   1.6380 H              1 S1                 0.0000
     26 ****        -3.6369  -1.6017  -0.0872 H              1 S1                 0.0000
     27 ****        -3.8608  -0.0580   0.7343 H              1 S1                 0.0000
     28 ****        -1.4187   0.0084   1.2714 H              1 S1                 0.0000
     29 ****        -1.1622  -1.5055   0.4943 H              1 S1                 0.0000
     30 ****        -1.9159   2.0188   0.1697 H              1 S1                 0.0000
     31 ****        -3.2056   1.4966  -0.8971 H              1 S1                 0.0000
     32 ****        -1.7560   2.2390  -1.5548 H              1 S1                 0.0000
     33 ****         0.5730  -0.6315  -1.0899 H              1 S1                 0.0000
     34 ****         0.3371   0.8656  -1.9557 H              1 S1                 0.0000
     35 ****         0.0613   1.8481   0.4440 H              1 S1                 0.0000
     36 ****         2.7088   2.7101   1.4040 H              1 S1                 0.0000
     37 ****         1.2781   2.2227   2.2631 H              1 S1                 0.0000
     38 ****         5.4429  -0.3523   5.3396 H              1 S1                 0.0000
     39 ****         3.0825  -0.9645   5.4150 H              1 S1                 0.0000
     40 ****        -2.3437   1.0919  -3.3175 H              1 S1                 0.0000
     41 ****        -0.8778   0.1962  -3.6527 H              1 S1                 0.0000
     42 ****        -3.7349  -0.6925  -4.2952 H              1 S1                 0.0000
     43 ****        -2.5157  -0.1696  -5.4431 H              1 S1                 0.0000
     44 ****        -3.3532  -2.8303  -3.1096 H              1 S1                 0.0000
     45 ****        -1.8865  -3.7175  -3.4836 H              1 S1                 0.0000
     46 ****        -0.4870  -1.9792  -2.4574 H              1 S1                 0.0000
     47 ****        -1.6859  -2.5424  -1.3144 H              1 S1                 0.0000
     48 ****         2.4060  -0.5325  -0.5250 LP             1 S1                 0.0000
     49 ****         3.5184  -0.0510   0.7123 LP             1 S1                 0.0000
     50 ****         4.6842   2.1849   2.1093 LP             1 S1                 0.0000
     51 ****         7.0824   0.5942   3.3877 LP             1 S1                 0.0000
     52 ****         6.7906   1.8310   4.4133 LP             1 S1                 0.0000
     53 ****         0.6488   0.4461   3.0732 LP             1 S1                 0.0000
     54 ****         0.9084  -0.6156   4.4168 LP             1 S1                 0.0000
     55 ****        -2.9993  -0.6263  -1.8149 LP             1 S1                 0.0000
     56 ****        -1.1878  -1.9582  -4.8169 LP             1 S1                 0.0000
     57 ****        -2.6591  -2.4832  -5.2928 LP             1 S1                 0.0000
@<TRIPOS>BOND
    1    1    2 1     
    2    1   25 1     
    3    1   26 1     
    4    1   27 1     
    5    2    3 1     
    6    2   28 1     
    7    2   29 1     
    8    3    4 1     
    9    3    5 1     
   10    3   18 1     
   11    4   30 1     
   12    4   31 1     
   13    4   32 1     
   14    5    6 1     
   15    5   33 1     
   16    5   34 1     
   17    6    7 am    
   18    6   35 1     
   19    7    8 2     
   20    7    9 1     
   21    9   36 1     
   22    9   37 1     
   23    9   10 1     
   24   10   11 1     
   25   10   16 am    
   26   11   12 2     
   27   12   13 1     
   28   12   14 1     
   29   13   24 1     
   30   14   38 1     
   31   14   15 2     
   32   15   39 1     
   33   15   16 1     
   34   16   17 2     
   35   18   23 1     
   36   18   19 1     
   37   19   20 1     
   38   19   40 1     
   39   19   41 1     
   40   20   21 1     
   41   20   42 1     
   42   20   43 1     
   43   21   22 1     
   44   22   23 1     
   45   22   44 1     
   46   22   45 1     
   47   23   46 1     
   48   23   47 1     
   49    8   48 1     
   50    8   49 1     
   51   11   50 1     
   52   13   51 1     
   53   13   52 1     
   54   17   53 1     
   55   17   54 1     
   56   18   55 1     
   57   21   56 1     
   58   21   57 1     
@<TRIPOS>SUBSTRUCTURE
      1 S1             1
@<TRIPOS>SET
LONE_PAIRS      STATIC     ATOMS    <user>   **** ""
10 48 49 50 51 52 53 54 55 56 57
DONOR_HYDROGENS      STATIC     ATOMS    <user>   **** ""
2 35 24
ATOM$BLUE        STATIC     ATOMS    COLORGROUP SYSTEM
10 48 49 50 51 52 53 54 55 56 57
ATOM$RED        STATIC     ATOMS    COLORGROUP SYSTEM
2 35 24
