#       Name:                AV-unprocessed.smi:3170
#       Creating user name   scv26
#       Creation time:       Fri Mar 27 17:54:48 2020


#       File generated by GOLD software.
#

@<TRIPOS>MOLECULE
AV-unprocessed.smi:3170
    40    41     1
SMALL
NO_CHARGES


@<TRIPOS>ATOM
      1 ****         1.0536   1.4026  -1.7297 O.2            1 S1                 0.0000
      2 ****         0.4412   0.3357  -1.7759 C.2            1 S1                 0.0000
      3 ****         1.0282  -0.8649  -1.8703 N.am           1 S1                 0.0000
      4 ****         2.4689  -1.1011  -1.8599 C.3            1 S1                 0.0000
      5 ****         3.1042  -0.8361  -0.4799 C.3            1 S1                 0.0000
      6 ****         2.5017  -1.6376   0.5692 N.pl3          1 S1                 0.0000
      7 ****         2.7466  -2.9748   0.8505 C.2            1 S1                 0.0000
      8 ****         1.9428  -3.3046   1.9186 C.2            1 S1                 0.0000
      9 ****         1.2003  -2.1923   2.3086 N.2            1 S1                 0.0000
     10 ****         1.5875  -1.2430   1.4666 C.2            1 S1                 0.0000
     11 ****        -0.8922   0.2302  -1.7022 N.am           1 S1                 0.0000
     12 ****        -1.8071   1.3450  -1.4829 C.3            1 S1                 0.0000
     13 ****        -1.8249   1.7888  -0.0070 C.3            1 S1                 0.0000
     14 ****        -2.2604   0.7189   0.9755 C.3            1 S1                 0.0000
     15 ****        -2.6295   1.5528   2.1978 C.3            1 S1                 0.0000
     16 ****        -3.1283   2.7861   1.6872 O.3            1 S1                 0.0000
     17 ****        -2.8304   2.8986   0.2980 C.3            1 S1                 0.0000
     18 ****         0.4358  -1.6819  -1.9005 H              1 S1                 0.0000
     19 ****         2.6441  -2.1358  -2.1555 H              1 S1                 0.0000
     20 ****         2.9460  -0.4785  -2.6181 H              1 S1                 0.0000
     21 ****         4.1706  -1.0608  -0.5125 H              1 S1                 0.0000
     22 ****         3.0198   0.2172  -0.2093 H              1 S1                 0.0000
     23 ****         3.4498  -3.5649   0.2816 H              1 S1                 0.0000
     24 ****         1.8412  -4.2496   2.4316 H              1 S1                 0.0000
     25 ****         1.1898  -0.2390   1.4969 H              1 S1                 0.0000
     26 ****        -1.3011  -0.6915  -1.7515 H              1 S1                 0.0000
     27 ****        -1.5351   2.1827  -2.1272 H              1 S1                 0.0000
     28 ****        -2.8035   1.0288  -1.7928 H              1 S1                 0.0000
     29 ****        -0.8325   2.1393   0.2819 H              1 S1                 0.0000
     30 ****        -3.1397   0.1920   0.6017 H              1 S1                 0.0000
     31 ****        -1.4833  -0.0171   1.1847 H              1 S1                 0.0000
     32 ****        -3.3619   1.0579   2.8359 H              1 S1                 0.0000
     33 ****        -1.7422   1.7594   2.7977 H              1 S1                 0.0000
     34 ****        -2.4440   3.8884   0.0535 H              1 S1                 0.0000
     35 ****        -3.7546   2.7496  -0.2622 H              1 S1                 0.0000
     36 ****         2.0530   1.4073  -1.7626 LP             1 S1                 0.0000
     37 ****         0.5516   2.2646  -1.6592 LP             1 S1                 0.0000
     38 ****         0.5320  -2.1252   3.0495 LP             1 S1                 0.0000
     39 ****        -2.7011   3.5446   2.1794 LP             1 S1                 0.0000
     40 ****        -4.1193   2.8208   1.8166 LP             1 S1                 0.0000
@<TRIPOS>BOND
    1    1    2 2     
    2    2    3 am    
    3    2   11 am    
    4    3    4 1     
    5    3   18 1     
    6    4    5 1     
    7    4   19 1     
    8    4   20 1     
    9    5    6 1     
   10    5   21 1     
   11    5   22 1     
   12    6   10 1     
   13    6    7 1     
   14    7    8 2     
   15    7   23 1     
   16    8    9 1     
   17    8   24 1     
   18    9   10 2     
   19   10   25 1     
   20   11   12 1     
   21   11   26 1     
   22   12   13 1     
   23   12   27 1     
   24   12   28 1     
   25   13   17 1     
   26   13   14 1     
   27   13   29 1     
   28   14   15 1     
   29   14   30 1     
   30   14   31 1     
   31   15   16 1     
   32   15   32 1     
   33   15   33 1     
   34   16   17 1     
   35   17   34 1     
   36   17   35 1     
   37    1   36 1     
   38    1   37 1     
   39    9   38 1     
   40   16   39 1     
   41   16   40 1     
@<TRIPOS>SUBSTRUCTURE
      1 S1             1
@<TRIPOS>SET
LONE_PAIRS      STATIC     ATOMS    <user>   **** ""
5 36 37 38 39 40
DONOR_HYDROGENS      STATIC     ATOMS    <user>   **** ""
2 18 26
ATOM$BLUE        STATIC     ATOMS    COLORGROUP SYSTEM
5 36 37 38 39 40
ATOM$RED        STATIC     ATOMS    COLORGROUP SYSTEM
2 18 26
