AV-unprocessed.smi:283|AV-procd|sdf|2143|dock2
  -GOLD-   2262021473D 1   1.00000     0.00000
 Structure written by MMmdl.
 48 51  0  0  0  0  0  0  0  0  1 V2000
  150.9802  142.1763  156.4811 C   0  0  0  0  0  0  0  0  0  0  0  0
  151.9497  141.6065  157.5249 C   0  0  2  0  0  0  0  0  0  0  0  0
  151.5975  140.2199  157.8275 N   0  0  0  0  0  0  0  0  0  0  0  0
  151.7343  139.2486  156.8971 C   0  0  0  0  0  0  0  0  0  0  0  0
  152.6092  139.3801  155.8658 N   0  0  0  0  0  0  0  0  0  0  0  0
  152.7268  138.4046  154.9606 C   0  0  0  0  0  0  0  0  0  0  0  0
  152.0765  137.2403  154.9003 N   0  0  0  0  0  0  0  0  0  0  0  0
  151.1928  137.1049  155.9310 C   0  0  0  0  0  0  0  0  0  0  0  0
  150.9634  138.0593  156.9609 C   0  0  0  0  0  0  0  0  0  0  0  0
  149.9946  137.5851  157.8355 N   0  0  0  0  0  0  0  0  0  0  0  0
  149.6719  136.4181  157.3461 C   0  0  0  0  0  0  0  0  0  0  0  0
  150.3485  136.0478  156.2048 N   0  0  0  0  0  0  0  0  0  0  0  0
  150.1981  134.7812  155.4276 C   0  0  1  0  0  0  0  0  0  0  0  0
  150.5745  133.7215  156.2495 O   0  0  0  0  0  0  0  0  0  0  0  0
  149.7480  132.5891  156.0026 C   0  0  2  0  0  0  0  0  0  0  0  0
  150.3634  131.7525  154.8635 C   0  0  0  0  0  0  0  0  0  0  0  0
  149.4931  130.6965  154.5183 O   0  0  0  0  0  0  0  0  0  0  0  0
  148.3944  133.2066  155.6240 C   0  0  1  0  0  0  0  0  0  0  0  0
  147.6153  133.3697  156.7923 O   0  0  0  0  0  0  0  0  0  0  0  0
  148.7368  134.5598  155.0036 C   0  0  2  0  0  0  0  0  0  0  0  0
  148.6260  134.4727  153.5969 O   0  0  0  0  0  0  0  0  0  0  0  0
  152.0159  142.5232  158.7489 C   0  0  0  0  0  0  0  0  0  0  0  0
  151.4581  143.8216  158.6849 C   0  0  0  0  0  0  0  0  0  0  0  0
  151.5102  144.6812  159.7981 C   0  0  0  0  0  0  0  0  0  0  0  0
  152.1277  144.2540  160.9873 C   0  0  0  0  0  0  0  0  0  0  0  0
  152.6961  142.9688  161.0589 C   0  0  0  0  0  0  0  0  0  0  0  0
  152.6464  142.1033  159.9475 C   0  0  0  0  0  0  0  0  0  0  0  0
  153.3724  140.5404  160.0892 Cl  0  0  0  0  0  0  0  0  0  0  0  0
  150.8901  134.8790  154.5894 H   0  0  0  0  0  0  0  0  0  0  0  0
  149.6605  131.9733  156.8997 H   0  0  0  0  0  0  0  0  0  0  0  0
  147.8240  132.5662  154.9494 H   0  0  0  0  0  0  0  0  0  0  0  0
  148.0894  135.3607  155.3659 H   0  0  0  0  0  0  0  0  0  0  0  0
  151.2773  143.1813  156.1792 H   0  0  0  0  0  0  0  0  0  0  0  0
  149.9635  142.2329  156.8715 H   0  0  0  0  0  0  0  0  0  0  0  0
  150.9593  141.5573  155.5835 H   0  0  0  0  0  0  0  0  0  0  0  0
  152.9344  141.5685  157.0603 H   0  0  0  0  0  0  0  0  0  0  0  0
  151.4042  140.0205  158.7985 H   0  0  0  0  0  0  0  0  0  0  0  0
  153.4443  138.5823  154.1731 H   0  0  0  0  0  0  0  0  0  0  0  0
  148.9272  135.7886  157.8112 H   0  0  0  0  0  0  0  0  0  0  0  0
  150.4923  132.3670  153.9721 H   0  0  0  0  0  0  0  0  0  0  0  0
  151.3460  131.3600  155.1269 H   0  0  0  0  0  0  0  0  0  0  0  0
  149.4134  130.1188  155.2622 H   0  0  0  0  0  0  0  0  0  0  0  0
  147.8848  132.7191  157.4241 H   0  0  0  0  0  0  0  0  0  0  0  0
  148.8655  135.3077  153.2247 H   0  0  0  0  0  0  0  0  0  0  0  0
  150.9844  144.1672  157.7777 H   0  0  0  0  0  0  0  0  0  0  0  0
  151.0771  145.6689  159.7388 H   0  0  0  0  0  0  0  0  0  0  0  0
  152.1687  144.9124  161.8427 H   0  0  0  0  0  0  0  0  0  0  0  0
  153.1746  142.6465  161.9721 H   0  0  0  0  0  0  0  0  0  0  0  0
  1  2  1  0  0  0  0
  1 33  1  0  0  0  0
  1 34  1  0  0  0  0
  1 35  1  0  0  0  0
  2  3  1  0  0  0  0
  2 22  1  0  0  0  0
  2 36  1  0  0  0  0
  3  4  1  0  0  0  0
  3 37  1  0  0  0  0
  4  9  1  0  0  0  0
  4  5  2  0  0  0  0
  5  6  1  0  0  0  0
  6  7  2  0  0  0  0
  6 38  1  0  0  0  0
  7  8  1  0  0  0  0
  8 12  1  0  0  0  0
  8  9  2  0  0  0  0
  9 10  1  0  0  0  0
 10 11  2  0  0  0  0
 11 12  1  0  0  0  0
 11 39  1  0  0  0  0
 12 13  1  0  0  0  0
 13 29  1  0  0  0  0
 13 20  1  0  0  0  0
 13 14  1  0  0  0  0
 14 15  1  0  0  0  0
 15 30  1  0  0  0  0
 15 16  1  0  0  0  0
 15 18  1  0  0  0  0
 16 17  1  0  0  0  0
 16 40  1  0  0  0  0
 16 41  1  0  0  0  0
 17 42  1  0  0  0  0
 18 31  1  0  0  0  0
 18 19  1  0  0  0  0
 18 20  1  0  0  0  0
 19 43  1  0  0  0  0
 20 32  1  0  0  0  0
 20 21  1  0  0  0  0
 21 44  1  0  0  0  0
 22 27  1  0  0  0  0
 22 23  2  0  0  0  0
 23 24  1  0  0  0  0
 23 45  1  0  0  0  0
 24 25  2  0  0  0  0
 24 46  1  0  0  0  0
 25 26  1  0  0  0  0
 25 47  1  0  0  0  0
 26 27  2  0  0  0  0
 26 48  1  0  0  0  0
 27 28  1  0  0  0  0
M  END
> <s_m_source_file>
AV-unprocessed.smi

> <i_m_source_file_index>
283

> <i_lp_mmshare_version>
43012

> <i_f3d_flags>
0

> <s_epik_input>
Q2xjMVtjSF1bY0hdW2NIXVtjSF1jMVtDQEhdKFtDSDNdKVtOSF1jKG5bY0hdbjIpYyhjMjMpbltjSF1uM1tDQEBIXTRPW0NASF0oW0NIMl1bT0hdKVtDQEBIXShbT0hdKVtDQEhdNFtPSF0=

> <s_epik_cmdline>
J2VwaWtfcHl0aG9uJywgJy1waCcsICc3LjAnLCAnLXRuJywgJzgnLCAnLW1hJywgJzIwMCcsICctbWV0YWxfYmluZGluZycsICctaW1hZScsICc8aW5maWxlLm1hZT4nLCAnLW9tYWUnLCAnPG91dGZpbGUubWFlPic=

> <r_lp_tautomer_probability>
1

> <r_epik_Ionization_Penalty>
0.000266407

> <r_epik_Ionization_Penalty_Charging>
0

> <r_epik_Ionization_Penalty_Neutral>
0.000266407

> <r_epik_State_Penalty>
-0

> <r_epik_Charging_Adjusted_Penalty>
0

> <i_epik_Tot_Q>
0

> <i_epik_Tot_abs_Q>
0

> <r_epik_Metal_State_Penalty>
-0

> <b_epik_Metal_Only>
0

> <s_epik_Chemistry_Notes>
This compound contains an acetal/aminal-like group ( X-CH(R)-Y where X, Y are N, S, or O) that may be acid/base labile, releasing an aldehyde.

> <s_lp_Force_Field>
OPLS_2005

> <r_lp_Energy>
39.2487

> <b_lp_Chiralities_Consistent>
1

> <s_lp_Variant>
AV-unprocessed.smi:283-19

> <Gold.Version>
5.8.1

> <Gold.Id.Protein>
6NUR|6NUR_protein|mol2

> <Gold.PLP.Fitness>
52.6159

> <Gold.PLP.PLP>
-45.3491

> <Gold.PLP.part.hbond>
-3.0000

> <Gold.PLP.part.metal>
0.0000

> <Gold.PLP.part.buried>
-8.8158

> <Gold.PLP.part.nonpolar>
-33.5003

> <Gold.PLP.part.repulsive>
0.1654

> <Gold.PLP.ligand.clash>
0.0000

> <Gold.PLP.ligand.torsion>
0.6063

> <Gold.PLP.Chemscore.Hbond>
2.7920

> <Gold.PLP.Chemscore.CHOScore>
0.0000

> <Gold.PLP.Chemscore.Metal>
0.0000

> <Gold.Chemscore.Hbonds>
donor molecule, donor type, donor heavy atom, donor atom, acceptor molecule, acceptor atom, score
      L1  H    21    44       P1  7948  0.91
      P1  H  7997  8009       L1     5  1.00
      P1  H 10752 10764       L1     7  0.83

> <Gold.PLP.Chemscore.Internal.Correction>
0.1033

> <Gold.Rescore>
     Score         DG    S(hbond)    S(metal)    S(lipo)     H(rot)  DE(clash)    DE(int)     intcor
     14.74     -15.83       2.40        0.00     109.46       4.10       0.18       0.91       ----

> <Gold.Chemscore.Fitness>
14.7429

> <Gold.Chemscore.DG>
-15.8300

> <Gold.Chemscore.ZeroCoef>
-5.4800

> <Gold.Chemscore.Hbond>
2.4044

> <Gold.Chemscore.Metal>
0.0000

> <Gold.Chemscore.Lipo>
109.4636

> <Gold.Chemscore.Internal_Hbond>
0.0000

> <Gold.Chemscore.DEClash>
0.1795

> <Gold.Chemscore.DEInternal>
0.9077

> <Gold.Chemscore.Rot>
4.0968

> <Gold.Chemscore.Internal.Correction>
   9.000000E+99

> <Gold.Chemscore.Hbonds>
donor molecule, donor type, donor heavy atom, donor atom, acceptor molecule, acceptor atom, score
      L1  H    21    44       P1  7948  0.54
      P1  H  7997  8009       L1     5  0.70
      P1  H 10752 10764       L1     7  0.58

> <Gold.Chemscore.Hbond.Weighted>
-8.0307

> <Gold.Chemscore.Metal.Weighted>
-0.0000

> <Gold.Chemscore.Lipo.Weighted>
-12.8072

> <Gold.Chemscore.Internal_Hbond.Weighted>
0.0000

> <Gold.Chemscore.DEClash.Weighted>
0.1795

> <Gold.Chemscore.DEInternal.Weighted>
0.9077

> <Gold.Chemscore.Rot.Weighted>
10.4879

> <Gold.Chemscore.Internal.Correction.Weighted>
   9.000000E+99

> <Gold.Protein.RotatedTorsions>
[ 6907 6896 6895 6894 ] final   55.72 input  -60.11 | X-H torsion
[ 7974 7965 7964 7962 ] final  -36.99 input  175.53 | X-H torsion
[ 8008 7997 7996 7995 ] final -159.02 input   59.86 | X-H torsion
[ 10167 10162 10161 10158 ] final -118.36 input  -65.29 | X-H torsion
[ 10718 10713 10712 10709 ] final  141.32 input   66.30 | X-H torsion
[ 10763 10752 10751 10750 ] final  -56.25 input  -60.55 | X-H torsion
[ 11005 11000 10999 10996 ] final   53.85 input  -57.11 | X-H torsion

> <Gold.Protein.ActiveResidues>
 VAL166  LYS551  ARG553  GLY616  TRP617  ASP618  TYR619  PRO620  LYS621  CYS622 
 ASP623  PHE694  ASN695  SER759  ASP760  ASP761  ALA762  ILE779  LEU786  VAL792 
 PHE793  MET794  SER795  GLU796  ALA797  LYS798  CYS799  TRP800  GLU811  SER814 

> <Gold.Protein.RotatedAtoms>
  152.3566  134.6931  160.0219 H   0  0  0  0  0  0  0  0  0  0  0  0  # atno 6907 bound_to 6896
  151.7268  133.3311  159.3338 H   0  0  0  0  0  0  0  0  0  0  0  0  # atno 6908 bound_to 6896
  150.7576  134.6333  159.6242 H   0  0  0  0  0  0  0  0  0  0  0  0  # atno 6909 bound_to 6896
  146.0614  140.6344  142.8995 H   0  0  0  0  0  0  0  0  0  0  0  0  # atno 7974 bound_to 7965
  155.7563  140.0833  157.2177 H   0  0  0  0  0  0  0  0  0  0  0  0  # atno 8008 bound_to 7997
  154.4007  140.1551  156.2837 H   0  0  0  0  0  0  0  0  0  0  0  0  # atno 8009 bound_to 7997
  155.8882  140.3417  155.5940 H   0  0  0  0  0  0  0  0  0  0  0  0  # atno 8010 bound_to 7997
  140.0584  143.4992  152.2045 H   0  0  0  0  0  0  0  0  0  0  0  0  # atno 10167 bound_to 10162
  157.3933  131.1007  151.0624 H   0  0  0  0  0  0  0  0  0  0  0  0  # atno 10718 bound_to 10713
  154.2036  135.6406  153.5094 H   0  0  0  0  0  0  0  0  0  0  0  0  # atno 10763 bound_to 10752
  153.0006  135.5457  154.6289 H   0  0  0  0  0  0  0  0  0  0  0  0  # atno 10764 bound_to 10752
  154.5708  135.2916  155.0802 H   0  0  0  0  0  0  0  0  0  0  0  0  # atno 10765 bound_to 10752
  140.0734  134.5438  155.9022 H   0  0  0  0  0  0  0  0  0  0  0  0  # atno 11005 bound_to 11000
  144.7177  140.4266  143.7032 LP  0  0  0  0  0  0  0  0  0  0  0  0  # atno 17320 bound_to 7965
  145.6554  139.1572  143.2838 LP  0  0  0  0  0  0  0  0  0  0  0  0  # atno 17321 bound_to 7965
  139.5909  144.7549  151.3403 LP  0  0  0  0  0  0  0  0  0  0  0  0  # atno 17342 bound_to 10162
  140.7184  143.7204  150.7700 LP  0  0  0  0  0  0  0  0  0  0  0  0  # atno 17343 bound_to 10162
  157.1650  130.6242  149.5622 LP  0  0  0  0  0  0  0  0  0  0  0  0  # atno 17370 bound_to 10713
  155.9804  130.4804  150.6770 LP  0  0  0  0  0  0  0  0  0  0  0  0  # atno 17371 bound_to 10713
  141.2020  133.6622  156.5983 LP  0  0  0  0  0  0  0  0  0  0  0  0  # atno 17394 bound_to 11000
  140.3594  134.7701  157.4523 LP  0  0  0  0  0  0  0  0  0  0  0  0  # atno 17395 bound_to 11000

$$$$
