#       Name:                AV-unprocessed.smi:3150
#       Creating user name   scv26
#       Creation time:       Fri Mar 27 17:42:21 2020


#       File generated by GOLD software.
#

@<TRIPOS>MOLECULE
AV-unprocessed.smi:3150
    37    38     1
SMALL
NO_CHARGES


@<TRIPOS>ATOM
      1 ****        -0.6354  -2.4973   2.2851 C.3            1 S1                 0.0000
      2 ****        -0.2219  -1.7329   1.0189 C.3            1 S1                 0.0000
      3 ****         1.2030  -1.7192   0.9713 O.3            1 S1                 0.0000
      4 ****         1.7671  -1.2850  -0.2602 C.3            1 S1                 0.0000
      5 ****         3.2688  -1.4623  -0.1955 C.3            1 S1                 0.0000
      6 ****         4.1579  -0.3483   0.3091 C.3            1 S1                 0.0000
      7 ****         4.1671  -0.7132  -1.1534 C.3            1 S1                 0.0000
      8 ****        -0.7749  -0.2985   1.0283 C.2            1 S1                 0.0000
      9 ****        -0.5272   0.4444   1.9792 O.2            1 S1                 0.0000
     10 ****        -1.4998   0.0505  -0.0504 N.am           1 S1                 0.0000
     11 ****        -2.1422   1.2878  -0.3315 C.ar           1 S1                 0.0000
     12 ****        -2.0911   2.3524   0.5084 N.ar           1 S1                 0.0000
     13 ****        -2.7299   3.4915   0.1714 C.ar           1 S1                 0.0000
     14 ****        -3.4593   3.6428  -1.0209 C.ar           1 S1                 0.0000
     15 ****        -3.5206   2.5494  -1.9017 C.ar           1 S1                 0.0000
     16 ****        -2.8552   1.3555  -1.5578 C.ar           1 S1                 0.0000
     17 ****        -2.9150   0.2912  -2.4165 O.co2          1 S1                -1.0000
     18 ****        -1.7206  -2.5364   2.3869 H              1 S1                 0.0000
     19 ****        -0.2296  -2.0336   3.1850 H              1 S1                 0.0000
     20 ****        -0.2714  -3.5243   2.2516 H              1 S1                 0.0000
     21 ****        -0.6059  -2.2743   0.1519 H              1 S1                 0.0000
     22 ****         1.3792  -1.8821  -1.0865 H              1 S1                 0.0000
     23 ****         1.5315  -0.2394  -0.4630 H              1 S1                 0.0000
     24 ****         3.5813  -2.4761   0.0482 H              1 S1                 0.0000
     25 ****         3.6845   0.5905   0.5903 H              1 S1                 0.0000
     26 ****         5.0246  -0.6295   0.9039 H              1 S1                 0.0000
     27 ****         5.0400  -1.2380  -1.5362 H              1 S1                 0.0000
     28 ****         3.7008  -0.0161  -1.8470 H              1 S1                 0.0000
     29 ****        -1.6183  -0.6563  -0.7621 H              1 S1                 0.0000
     30 ****        -2.6569   4.3078   0.8748 H              1 S1                 0.0000
     31 ****        -3.9576   4.5718  -1.2538 H              1 S1                 0.0000
     32 ****        -4.0715   2.6275  -2.8278 H              1 S1                 0.0000
     33 ****         1.5267  -2.6486   1.1485 LP             1 S1                 0.0000
     34 ****         1.5301  -1.1090   1.6929 LP             1 S1                 0.0000
     35 ****         0.0311   0.1135   2.7400 LP             1 S1                 0.0000
     36 ****        -0.8845   1.3783   1.9903 LP             1 S1                 0.0000
     37 ****        -1.5849   2.2930   1.3687 LP             1 S1                 0.0000
@<TRIPOS>BOND
    1    1    2 1     
    2    1   18 1     
    3    1   19 1     
    4    1   20 1     
    5    2    3 1     
    6    2    8 1     
    7    2   21 1     
    8    3    4 1     
    9    4    5 1     
   10    4   22 1     
   11    4   23 1     
   12    5    7 1     
   13    5    6 1     
   14    5   24 1     
   15    6    7 1     
   16    6   25 1     
   17    6   26 1     
   18    7   27 1     
   19    7   28 1     
   20    8    9 2     
   21    8   10 am    
   22   10   29 1     
   23   10   11 1     
   24   11   16 ar    
   25   11   12 ar    
   26   12   13 ar    
   27   13   30 1     
   28   13   14 ar    
   29   14   31 1     
   30   14   15 ar    
   31   15   16 ar    
   32   15   32 1     
   33   16   17 ar    
   34    3   33 1     
   35    3   34 1     
   36    9   35 1     
   37    9   36 1     
   38   12   37 1     
@<TRIPOS>SUBSTRUCTURE
      1 S1             1
@<TRIPOS>SET
LONE_PAIRS      STATIC     ATOMS    <user>   **** ""
6 33 34 35 36 37 17
DONOR_HYDROGENS      STATIC     ATOMS    <user>   **** ""
1 29
ATOM$BLUE        STATIC     ATOMS    COLORGROUP SYSTEM
6 33 34 35 36 37 17
ATOM$RED        STATIC     ATOMS    COLORGROUP SYSTEM
1 29
