AV-unprocessed.smi:1300|AV-procd|sdf|5419|dock2
  -GOLD-   22720 4573D 1   1.00000     0.00000
 Structure written by MMmdl.
 35 36  0  0  0  0  0  0  0  0  1 V2000
  151.5657  137.7669  154.2992 C   0  0  0  0  0  0  0  0  0  0  0  0
  151.0726  137.3812  155.6676 C   0  0  0  0  0  0  0  0  0  0  0  0
  151.4689  138.1144  156.6550 N   0  0  0  0  0  0  0  0  0  0  0  0
  151.0618  137.8577  157.9508 N   0  0  0  0  0  0  0  0  0  0  0  0
  151.5488  138.8264  158.9453 C   0  0  0  0  0  0  0  0  0  0  0  0
  152.4924  139.9168  158.3688 C   0  0  2  0  0  0  0  0  0  0  0  0
  153.7883  139.3748  158.2028 O   0  0  0  0  0  0  0  0  0  0  0  0
  152.4756  141.2440  159.1260 C   0  0  0  0  0  0  0  0  0  0  0  0
  153.0723  141.3605  160.4027 C   0  0  0  0  0  0  0  0  0  0  0  0
  153.0233  142.5806  161.1034 C   0  0  0  0  0  0  0  0  0  0  0  0
  152.3789  143.6946  160.5342 C   0  0  0  0  0  0  0  0  0  0  0  0
  151.7827  143.5871  159.2636 C   0  0  0  0  0  0  0  0  0  0  0  0
  151.8292  142.3669  158.5615 C   0  0  0  0  0  0  0  0  0  0  0  0
  151.2382  142.2754  157.3460 F   0  0  0  0  0  0  0  0  0  0  0  0
  150.2631  136.8172  158.3215 C   0  0  0  0  0  0  0  0  0  0  0  0
  149.9448  136.6107  159.4932 O   0  0  0  0  0  0  0  0  0  0  0  0
  149.8172  135.9910  157.1975 C   0  0  0  0  0  0  0  0  0  0  0  0
  148.9595  134.9025  157.5392 C   0  0  0  0  0  0  0  0  0  0  0  0
  148.2770  134.0147  157.8321 N   0  0  0  0  0  0  0  0  0  0  0  0
  150.1891  136.2473  155.9183 C   0  0  0  0  0  0  0  0  0  0  0  0
  149.7509  135.4221  154.7162 C   0  0  0  0  0  0  0  0  0  0  0  0
  152.0978  136.9387  153.8310 H   0  0  0  0  0  0  0  0  0  0  0  0
  152.2488  138.6169  154.3373 H   0  0  0  0  0  0  0  0  0  0  0  0
  150.7325  138.0436  153.6530 H   0  0  0  0  0  0  0  0  0  0  0  0
  150.7257  139.2680  159.5107 H   0  0  0  0  0  0  0  0  0  0  0  0
  152.1151  138.2678  159.6933 H   0  0  0  0  0  0  0  0  0  0  0  0
  152.1639  140.1258  157.3500 H   0  0  0  0  0  0  0  0  0  0  0  0
  153.7045  138.4858  157.8937 H   0  0  0  0  0  0  0  0  0  0  0  0
  153.5589  140.5113  160.8596 H   0  0  0  0  0  0  0  0  0  0  0  0
  153.4781  142.6603  162.0798 H   0  0  0  0  0  0  0  0  0  0  0  0
  152.3402  144.6302  161.0724 H   0  0  0  0  0  0  0  0  0  0  0  0
  151.2857  144.4411  158.8279 H   0  0  0  0  0  0  0  0  0  0  0  0
  149.0618  134.6246  154.9919 H   0  0  0  0  0  0  0  0  0  0  0  0
  150.6135  134.9589  154.2361 H   0  0  0  0  0  0  0  0  0  0  0  0
  149.2445  136.0505  153.9830 H   0  0  0  0  0  0  0  0  0  0  0  0
  1  2  1  0  0  0  0
  1 22  1  0  0  0  0
  1 23  1  0  0  0  0
  1 24  1  0  0  0  0
  2 20  1  0  0  0  0
  2  3  2  0  0  0  0
  3  4  1  0  0  0  0
  4  5  1  0  0  0  0
  4 15  1  0  0  0  0
  5  6  1  0  0  0  0
  5 25  1  0  0  0  0
  5 26  1  0  0  0  0
  6  7  1  0  0  0  0
  6  8  1  0  0  0  0
  6 27  1  0  0  0  0
  7 28  1  0  0  0  0
  8 13  1  0  0  0  0
  8  9  2  0  0  0  0
  9 10  1  0  0  0  0
  9 29  1  0  0  0  0
 10 11  2  0  0  0  0
 10 30  1  0  0  0  0
 11 12  1  0  0  0  0
 11 31  1  0  0  0  0
 12 13  2  0  0  0  0
 12 32  1  0  0  0  0
 13 14  1  0  0  0  0
 15 16  2  0  0  0  0
 15 17  1  0  0  0  0
 17 18  1  0  0  0  0
 17 20  2  0  0  0  0
 18 19  3  0  0  0  0
 20 21  1  0  0  0  0
 21 33  1  0  0  0  0
 21 34  1  0  0  0  0
 21 35  1  0  0  0  0
M  END
> <s_m_source_file>
AV-unprocessed.smi

> <i_m_source_file_index>
1300

> <i_lp_mmshare_version>
43012

> <i_f3d_flags>
0

> <s_epik_input>
TiNDYyhjMVtDSDNdKWMoPU8pbihuYzFbQ0gzXSlbQ0gyXVtDQEhdKFtPSF0pYzJbY0hdW2NIXVtjSF1bY0hdYzJG

> <s_epik_cmdline>
J2VwaWtfcHl0aG9uJywgJy1waCcsICc3LjAnLCAnLXRuJywgJzgnLCAnLW1hJywgJzIwMCcsICctbWV0YWxfYmluZGluZycsICctaW1hZScsICc8aW5maWxlLm1hZT4nLCAnLW9tYWUnLCAnPG91dGZpbGUubWFlPic=

> <r_lp_tautomer_probability>
1

> <r_epik_Ionization_Penalty>
7.1854e-08

> <r_epik_Ionization_Penalty_Charging>
1.40848e-10

> <r_epik_Ionization_Penalty_Neutral>
7.17131e-08

> <r_epik_State_Penalty>
-0

> <r_epik_Charging_Adjusted_Penalty>
1.40848e-10

> <i_epik_Tot_Q>
0

> <i_epik_Tot_abs_Q>
0

> <r_epik_Metal_State_Penalty>
-0

> <b_epik_Metal_Only>
0

> <s_lp_Force_Field>
OPLS_2005

> <r_lp_Energy>
27.5545

> <b_lp_Chiralities_Consistent>
1

> <s_lp_Variant>
AV-unprocessed.smi:1300-1

> <Gold.Version>
5.8.1

> <Gold.Id.Protein>
6NUR|6NUR_protein|mol2

> <Gold.PLP.Fitness>
40.5748

> <Gold.PLP.PLP>
-35.3941

> <Gold.PLP.part.hbond>
-2.0000

> <Gold.PLP.part.metal>
0.0000

> <Gold.PLP.part.buried>
-3.6205

> <Gold.PLP.part.nonpolar>
-30.0719

> <Gold.PLP.part.repulsive>
0.0000

> <Gold.PLP.ligand.clash>
0.0000

> <Gold.PLP.ligand.torsion>
0.4472

> <Gold.PLP.Chemscore.Hbond>
2.0000

> <Gold.PLP.Chemscore.CHOScore>
0.0000

> <Gold.PLP.Chemscore.Metal>
0.0000

> <Gold.Chemscore.Hbonds>
donor molecule, donor type, donor heavy atom, donor atom, acceptor molecule, acceptor atom, score
      P1  H  6896  6909       L1    16  0.95
      P1  H  7997  8009       L1     7  1.00

> <Gold.PLP.Chemscore.Internal.Correction>
0.0750

> <Gold.Rescore>
     Score         DG    S(hbond)    S(metal)    S(lipo)     H(rot)  DE(clash)    DE(int)     intcor
     15.15     -17.00       1.60        0.00      96.59       2.00       1.48       0.36       ----

> <Gold.Chemscore.Fitness>
15.1543

> <Gold.Chemscore.DG>
-17.0009

> <Gold.Chemscore.ZeroCoef>
-5.4800

> <Gold.Chemscore.Hbond>
1.5955

> <Gold.Chemscore.Metal>
0.0000

> <Gold.Chemscore.Lipo>
96.5940

> <Gold.Chemscore.Internal_Hbond>
0.0000

> <Gold.Chemscore.DEClash>
1.4837

> <Gold.Chemscore.DEInternal>
0.3629

> <Gold.Chemscore.Rot>
1.9960

> <Gold.Chemscore.Internal.Correction>
   9.000000E+99

> <Gold.Chemscore.Hbonds>
donor molecule, donor type, donor heavy atom, donor atom, acceptor molecule, acceptor atom, score
      P1  H  6896  6909       L1    16  0.21
      P1  H  7997  8009       L1     7  0.43

> <Gold.Chemscore.Hbond.Weighted>
-5.3291

> <Gold.Chemscore.Metal.Weighted>
-0.0000

> <Gold.Chemscore.Lipo.Weighted>
-11.3015

> <Gold.Chemscore.Internal_Hbond.Weighted>
0.0000

> <Gold.Chemscore.DEClash.Weighted>
1.4837

> <Gold.Chemscore.DEInternal.Weighted>
0.3629

> <Gold.Chemscore.Rot.Weighted>
5.1097

> <Gold.Chemscore.Internal.Correction.Weighted>
   9.000000E+99

> <Gold.Protein.RotatedTorsions>
[ 6907 6896 6895 6894 ] final   79.11 input  -60.11 | X-H torsion
[ 7974 7965 7964 7962 ] final  -87.26 input  175.53 | X-H torsion
[ 8008 7997 7996 7995 ] final  128.10 input   59.86 | X-H torsion
[ 10167 10162 10161 10158 ] final  -32.69 input  -65.29 | X-H torsion
[ 10718 10713 10712 10709 ] final   72.83 input   66.30 | X-H torsion
[ 10763 10752 10751 10750 ] final   60.73 input  -60.55 | X-H torsion
[ 11005 11000 10999 10996 ] final   96.72 input  -57.11 | X-H torsion

> <Gold.Protein.ActiveResidues>
 VAL166  LYS551  ARG553  GLY616  TRP617  ASP618  TYR619  PRO620  LYS621  CYS622 
 ASP623  PHE694  ASN695  SER759  ASP760  ASP761  ALA762  ILE779  LEU786  VAL792 
 PHE793  MET794  SER795  GLU796  ALA797  LYS798  CYS799  TRP800  GLU811  SER814 

> <Gold.Protein.RotatedAtoms>
  152.5186  134.3561  159.9268 H   0  0  0  0  0  0  0  0  0  0  0  0  # atno 6907 bound_to 6896
  151.3513  133.3918  159.2688 H   0  0  0  0  0  0  0  0  0  0  0  0  # atno 6908 bound_to 6896
  150.9725  134.9114  159.7854 H   0  0  0  0  0  0  0  0  0  0  0  0  # atno 6909 bound_to 6896
  145.4690  140.9560  143.1928 H   0  0  0  0  0  0  0  0  0  0  0  0  # atno 7974 bound_to 7965
  156.2907  140.2653  156.2381 H   0  0  0  0  0  0  0  0  0  0  0  0  # atno 8008 bound_to 7997
  155.0005  140.0388  157.2376 H   0  0  0  0  0  0  0  0  0  0  0  0  # atno 8009 bound_to 7997
  154.7606  140.2760  155.6222 H   0  0  0  0  0  0  0  0  0  0  0  0  # atno 8010 bound_to 7997
  140.7217  143.3675  151.1842 H   0  0  0  0  0  0  0  0  0  0  0  0  # atno 10167 bound_to 10162
  157.6520  130.9598  150.0984 H   0  0  0  0  0  0  0  0  0  0  0  0  # atno 10718 bound_to 10713
  152.9929  135.5526  154.5920 H   0  0  0  0  0  0  0  0  0  0  0  0  # atno 10763 bound_to 10752
  154.5280  135.2812  155.1207 H   0  0  0  0  0  0  0  0  0  0  0  0  # atno 10764 bound_to 10752
  154.2534  135.6394  153.5301 H   0  0  0  0  0  0  0  0  0  0  0  0  # atno 10765 bound_to 10752
  139.8780  134.8965  156.4200 H   0  0  0  0  0  0  0  0  0  0  0  0  # atno 11005 bound_to 11000
  144.7957  139.6239  143.7094 LP  0  0  0  0  0  0  0  0  0  0  0  0  # atno 17320 bound_to 7965
  146.2408  139.5997  142.9493 LP  0  0  0  0  0  0  0  0  0  0  0  0  # atno 17321 bound_to 7965
  139.7240  143.9178  152.2996 LP  0  0  0  0  0  0  0  0  0  0  0  0  # atno 17342 bound_to 10162
  139.8944  144.6947  150.8734 LP  0  0  0  0  0  0  0  0  0  0  0  0  # atno 17343 bound_to 10162
  156.1914  130.3655  149.8905 LP  0  0  0  0  0  0  0  0  0  0  0  0  # atno 17370 bound_to 10713
  156.6833  130.8866  151.3578 LP  0  0  0  0  0  0  0  0  0  0  0  0  # atno 17371 bound_to 10713
  140.9140  133.7691  155.9826 LP  0  0  0  0  0  0  0  0  0  0  0  0  # atno 17394 bound_to 11000
  140.8514  134.2949  157.5274 LP  0  0  0  0  0  0  0  0  0  0  0  0  # atno 17395 bound_to 11000

$$$$
