#       Name:                AV-unprocessed.smi:1669
#       Creating user name   scv26
#       Creation time:       Fri Mar 27 07:41:25 2020


#       File generated by GOLD software.
#

@<TRIPOS>MOLECULE
AV-unprocessed.smi:1669
    53    55     1
SMALL
NO_CHARGES


@<TRIPOS>ATOM
      1 ****        -1.8752   1.0988   2.0086 C.3            1 S1                 0.0000
      2 ****        -0.5596   1.1554   1.3773 N.3            1 S1                 0.0000
      3 ****        -0.6699   1.6254  -0.0084 C.3            1 S1                 0.0000
      4 ****        -1.1614   3.0571  -0.1385 C.ar           1 S1                 0.0000
      5 ****        -0.4355   4.1139   0.4511 C.ar           1 S1                 0.0000
      6 ****        -0.8915   5.4409   0.3279 C.ar           1 S1                 0.0000
      7 ****        -2.0735   5.7161  -0.3865 C.ar           1 S1                 0.0000
      8 ****        -2.7988   4.6643  -0.9788 C.ar           1 S1                 0.0000
      9 ****        -2.3430   3.3372  -0.8566 C.ar           1 S1                 0.0000
     10 ****         0.0846  -0.1569   1.4558 C.3            1 S1                 0.0000
     11 ****         1.6063  -0.1669   1.1836 C.3            1 S1                 0.0000
     12 ****         2.2582   0.3775   2.3116 O.3            1 S1                 0.0000
     13 ****         2.1803  -1.5787   0.9492 C.3            1 S1                 0.0000
     14 ****         1.6066  -2.2370  -0.2180 N.pl3          1 S1                 0.0000
     15 ****         1.9411  -2.0704  -1.5233 C.2            1 S1                 0.0000
     16 ****         3.0281  -1.1207  -1.9434 C.3            1 S1                 0.0000
     17 ****         3.3950  -1.2343  -3.3037 O.3            1 S1                 0.0000
     18 ****         1.2363  -2.7960  -2.3949 N.2            1 S1                 0.0000
     19 ****         0.3755  -3.5044  -1.5811 C.ar           1 S1                 0.0000
     20 ****        -0.6264  -4.4472  -1.9045 C.ar           1 S1                 0.0000
     21 ****        -1.3947  -5.0499  -0.8870 C.ar           1 S1                 0.0000
     22 ****        -1.1723  -4.7193   0.4653 C.ar           1 S1                 0.0000
     23 ****        -0.1798  -3.7815   0.8089 C.ar           1 S1                 0.0000
     24 ****         0.5843  -3.1820  -0.2108 C.ar           1 S1                 0.0000
     25 ****        -1.7943   0.7669   3.0441 H              1 S1                 0.0000
     26 ****        -2.5356   0.4083   1.4821 H              1 S1                 0.0000
     27 ****        -2.3507   2.0797   2.0231 H              1 S1                 0.0000
     28 ****         0.2978   1.5915  -0.5055 H              1 S1                 0.0000
     29 ****        -1.3231   0.9607  -0.5763 H              1 S1                 0.0000
     30 ****         0.4714   3.9080   1.0006 H              1 S1                 0.0000
     31 ****        -0.3348   6.2477   0.7814 H              1 S1                 0.0000
     32 ****        -2.4237   6.7335  -0.4802 H              1 S1                 0.0000
     33 ****        -3.7053   4.8755  -1.5269 H              1 S1                 0.0000
     34 ****        -2.9049   2.5356  -1.3135 H              1 S1                 0.0000
     35 ****        -0.0797  -0.5912   2.4435 H              1 S1                 0.0000
     36 ****        -0.4233  -0.8247   0.7601 H              1 S1                 0.0000
     37 ****         1.8596   0.4547   0.3280 H              1 S1                 0.0000
     38 ****         1.9099   1.2425   2.4665 H              1 S1                 0.0000
     39 ****         3.2633  -1.5366   0.8320 H              1 S1                 0.0000
     40 ****         2.0010  -2.2052   1.8237 H              1 S1                 0.0000
     41 ****         2.7001  -0.0979  -1.7600 H              1 S1                 0.0000
     42 ****         3.9190  -1.2954  -1.3406 H              1 S1                 0.0000
     43 ****         4.0791  -0.6082  -3.4843 H              1 S1                 0.0000
     44 ****        -0.8039  -4.7066  -2.9377 H              1 S1                 0.0000
     45 ****        -2.1584  -5.7688  -1.1454 H              1 S1                 0.0000
     46 ****        -1.7650  -5.1852   1.2389 H              1 S1                 0.0000
     47 ****        -0.0115  -3.5243   1.8441 H              1 S1                 0.0000
     48 ****         0.0132   1.8125   1.8672 LP             1 S1                 0.0000
     49 ****         3.2415   0.4347   2.1390 LP             1 S1                 0.0000
     50 ****         2.0930  -0.2016   3.1099 LP             1 S1                 0.0000
     51 ****         2.6026  -1.0443  -3.8835 LP             1 S1                 0.0000
     52 ****         3.7278  -2.1594  -3.4869 LP             1 S1                 0.0000
     53 ****         1.3131  -2.8202  -3.3917 LP             1 S1                 0.0000
@<TRIPOS>BOND
    1    1    2 1     
    2    1   25 1     
    3    1   26 1     
    4    1   27 1     
    5    2    3 1     
    6    2   10 1     
    7    3    4 1     
    8    3   28 1     
    9    3   29 1     
   10    4    9 ar    
   11    4    5 ar    
   12    5    6 ar    
   13    5   30 1     
   14    6    7 ar    
   15    6   31 1     
   16    7    8 ar    
   17    7   32 1     
   18    8    9 ar    
   19    8   33 1     
   20    9   34 1     
   21   10   11 1     
   22   10   35 1     
   23   10   36 1     
   24   11   12 1     
   25   11   13 1     
   26   11   37 1     
   27   12   38 1     
   28   13   14 1     
   29   13   39 1     
   30   13   40 1     
   31   14   24 1     
   32   14   15 1     
   33   15   16 1     
   34   15   18 2     
   35   16   17 1     
   36   16   41 1     
   37   16   42 1     
   38   17   43 1     
   39   18   19 1     
   40   19   24 ar    
   41   19   20 ar    
   42   20   21 ar    
   43   20   44 1     
   44   21   22 ar    
   45   21   45 1     
   46   22   23 ar    
   47   22   46 1     
   48   23   24 ar    
   49   23   47 1     
   50    2   48 1     
   51   12   49 1     
   52   12   50 1     
   53   17   51 1     
   54   17   52 1     
   55   18   53 1     
@<TRIPOS>SUBSTRUCTURE
      1 S1             1
@<TRIPOS>SET
LONE_PAIRS      STATIC     ATOMS    <user>   **** ""
6 48 49 50 51 52 53
DONOR_HYDROGENS      STATIC     ATOMS    <user>   **** ""
2 38 43
ATOM$BLUE        STATIC     ATOMS    COLORGROUP SYSTEM
6 48 49 50 51 52 53
ATOM$RED        STATIC     ATOMS    COLORGROUP SYSTEM
2 38 43
