#       Name:                AV-unprocessed.smi:104
#       Creating user name   scv26
#       Creation time:       Thu Mar 26 18:00:35 2020


#       File generated by GOLD software.
#

@<TRIPOS>MOLECULE
AV-unprocessed.smi:104
    58    60     1
SMALL
NO_CHARGES


@<TRIPOS>ATOM
      1 ****        -5.1678   2.9645   1.2601 C.3            1 S1                 0.0000
      2 ****        -4.9439   1.7167   0.4163 C.2            1 S1                 0.0000
      3 ****        -5.8854   1.0917  -0.0724 O.2            1 S1                 0.0000
      4 ****        -3.6446   1.4105   0.2919 O.3            1 S1                 0.0000
      5 ****        -3.2622   0.2657  -0.4550 C.3            1 S1                 0.0000
      6 ****        -1.7360   0.1110  -0.4502 C.3            1 S1                 0.0000
      7 ****        -1.1317   1.2079  -1.1195 O.3            1 S1                 0.0000
      8 ****         0.1025   1.5110  -0.5535 C.3            1 S1                 0.0000
      9 ****         1.1913   0.9892  -1.4609 N.pl3          1 S1                 0.0000
     10 ****         2.0797   1.7215  -2.2208 C.2            1 S1                 0.0000
     11 ****         2.1060   3.6267  -2.2296 Br             1 S1                 0.0000
     12 ****         2.9349   1.0623  -2.9491 N.2            1 S1                 0.0000
     13 ****         2.6110  -0.2587  -2.6802 C.ar           1 S1                 0.0000
     14 ****         3.1284  -1.5029  -3.1209 C.ar           1 S1                 0.0000
     15 ****         4.1467  -1.6058  -3.9858 N.pl3          1 S1                 0.0000
     16 ****         2.5714  -2.6411  -2.6478 N.ar           1 S1                 0.0000
     17 ****         1.5542  -2.5645  -1.7855 C.ar           1 S1                 0.0000
     18 ****         0.9644  -1.4758  -1.2874 N.ar           1 S1                 0.0000
     19 ****         1.5225  -0.3234  -1.7606 C.ar           1 S1                 0.0000
     20 ****         0.1279   0.9414   0.8830 C.3            1 S1                 0.0000
     21 ****         1.3487   0.2770   1.2056 O.3            1 S1                 0.0000
     22 ****         2.4127   0.9763   1.6340 C.2            1 S1                 0.0000
     23 ****         3.6088   0.0826   1.9304 C.3            1 S1                 0.0000
     24 ****         2.4697   2.1983   1.7709 O.2            1 S1                 0.0000
     25 ****        -1.1046   0.0306   0.9484 C.3            1 S1                 0.0000
     26 ****        -0.7897  -1.3258   1.2504 O.3            1 S1                 0.0000
     27 ****        -0.7542  -1.7519   2.5246 C.2            1 S1                 0.0000
     28 ****        -0.3955  -3.2279   2.6303 C.3            1 S1                 0.0000
     29 ****        -0.9674  -1.0673   3.5251 O.2            1 S1                 0.0000
     30 ****        -4.5328   3.7791   0.9109 H              1 S1                 0.0000
     31 ****        -4.9282   2.7615   2.3039 H              1 S1                 0.0000
     32 ****        -6.2077   3.2861   1.2003 H              1 S1                 0.0000
     33 ****        -3.7225  -0.6220  -0.0187 H              1 S1                 0.0000
     34 ****        -3.6259   0.3519  -1.4800 H              1 S1                 0.0000
     35 ****        -1.4936  -0.7827  -1.0227 H              1 S1                 0.0000
     36 ****         0.2408   2.5901  -0.5537 H              1 S1                 0.0000
     37 ****         4.5810  -0.7716  -4.3537 H              1 S1                 0.0000
     38 ****         4.4750  -2.5168  -4.2714 H              1 S1                 0.0000
     39 ****         1.1557  -3.5089  -1.4456 H              1 S1                 0.0000
     40 ****        -0.0400   1.7712   1.5713 H              1 S1                 0.0000
     41 ****         3.3670  -0.6192   2.7285 H              1 S1                 0.0000
     42 ****         4.4664   0.6792   2.2418 H              1 S1                 0.0000
     43 ****         3.8855  -0.4844   1.0413 H              1 S1                 0.0000
     44 ****        -1.7989   0.4329   1.6873 H              1 S1                 0.0000
     45 ****        -1.1606  -3.8383   2.1505 H              1 S1                 0.0000
     46 ****        -0.3167  -3.5294   3.6748 H              1 S1                 0.0000
     47 ****         0.5597  -3.4206   2.1414 H              1 S1                 0.0000
     48 ****        -6.8241   1.4007   0.0812 LP             1 S1                 0.0000
     49 ****        -5.7115   0.2752  -0.6228 LP             1 S1                 0.0000
     50 ****        -1.7302   2.0059  -1.0482 LP             1 S1                 0.0000
     51 ****        -1.0022   0.9734  -2.0829 LP             1 S1                 0.0000
     52 ****         3.6478   1.4200  -3.5522 LP             1 S1                 0.0000
     53 ****         2.9180  -3.5320  -2.9410 LP             1 S1                 0.0000
     54 ****         0.2012  -1.5013  -0.6416 LP             1 S1                 0.0000
     55 ****         1.6733   2.7634   1.5550 LP             1 S1                 0.0000
     56 ****         3.3123   2.6261   2.0981 LP             1 S1                 0.0000
     57 ****        -1.1919  -0.0975   3.4289 LP             1 S1                 0.0000
     58 ****        -0.9162  -1.4808   4.4342 LP             1 S1                 0.0000
@<TRIPOS>BOND
    1    1    2 1     
    2    1   30 1     
    3    1   31 1     
    4    1   32 1     
    5    2    3 2     
    6    2    4 1     
    7    4    5 1     
    8    5    6 1     
    9    5   33 1     
   10    5   34 1     
   11    6   25 1     
   12    6    7 1     
   13    6   35 1     
   14    7    8 1     
   15    8    9 1     
   16    8   20 1     
   17    8   36 1     
   18    9   19 1     
   19    9   10 1     
   20   10   11 1     
   21   10   12 2     
   22   12   13 1     
   23   13   19 ar    
   24   13   14 ar    
   25   14   15 1     
   26   14   16 ar    
   27   15   37 1     
   28   15   38 1     
   29   16   17 ar    
   30   17   18 ar    
   31   17   39 1     
   32   18   19 ar    
   33   20   21 1     
   34   20   25 1     
   35   20   40 1     
   36   21   22 1     
   37   22   23 1     
   38   22   24 2     
   39   23   41 1     
   40   23   42 1     
   41   23   43 1     
   42   25   26 1     
   43   25   44 1     
   44   26   27 1     
   45   27   28 1     
   46   27   29 2     
   47   28   45 1     
   48   28   46 1     
   49   28   47 1     
   50    3   48 1     
   51    3   49 1     
   52    7   50 1     
   53    7   51 1     
   54   12   52 1     
   55   16   53 1     
   56   18   54 1     
   57   24   55 1     
   58   24   56 1     
   59   29   57 1     
   60   29   58 1     
@<TRIPOS>SUBSTRUCTURE
      1 S1             1
@<TRIPOS>SET
LONE_PAIRS      STATIC     ATOMS    <user>   **** ""
11 48 49 50 51 52 53 54 55 56 57 58
DONOR_HYDROGENS      STATIC     ATOMS    <user>   **** ""
2 37 38
ATOM$BLUE        STATIC     ATOMS    COLORGROUP SYSTEM
11 48 49 50 51 52 53 54 55 56 57 58
ATOM$RED        STATIC     ATOMS    COLORGROUP SYSTEM
2 37 38
