#       Name:                AV-unprocessed.smi:1771
#       Creating user name   scv26
#       Creation time:       Fri Mar 27 08:39:50 2020


#       File generated by GOLD software.
#

@<TRIPOS>MOLECULE
AV-unprocessed.smi:1771
    34    35     1
SMALL
NO_CHARGES


@<TRIPOS>ATOM
      1 ****        -0.3482   1.9585  -0.2243 O.2            1 S1                 0.0000
      2 ****        -0.8139   1.0087  -0.8545 C.2            1 S1                 0.0000
      3 ****        -0.0705  -0.0012  -1.3281 N.am           1 S1                 0.0000
      4 ****         1.3738  -0.1267  -1.1608 C.3            1 S1                 0.0000
      5 ****         1.7546  -0.6412   0.2414 C.3            1 S1                 0.0000
      6 ****         3.2789  -0.7724   0.4252 C.3            1 S1                 0.0000
      7 ****         3.5490  -1.5368   1.7246 C.3            1 S1                 0.0000
      8 ****         2.1939  -2.7602   1.8639 S.o2           1 S1                 0.0000
      9 ****         2.6608  -4.0659   1.3741 O.2            1 S1                 0.0000
     10 ****         1.5616  -2.6285   3.1852 O.2            1 S1                 0.0000
     11 ****         1.1185  -1.9988   0.5888 C.3            1 S1                 0.0000
     12 ****        -2.1125   0.8421  -1.1544 N.am           1 S1                 0.0000
     13 ****        -3.1907   1.6986  -0.8156 C.2            1 S1                 0.0000
     14 ****        -4.5493   1.4658  -1.1632 C.2            1 S1                 0.0000
     15 ****        -5.3363   2.4328  -0.7134 N.2            1 S1                 0.0000
     16 ****        -4.4932   3.2803  -0.0814 N.pl3          1 S1                 0.0000
     17 ****        -3.1776   2.8738  -0.1178 C.2            1 S1                 0.0000
     18 ****        -4.8270   4.1223   0.3656 H              1 S1                 0.0000
     19 ****        -0.5361  -0.7394  -1.8354 H              1 S1                 0.0000
     20 ****         1.7419  -0.8134  -1.9236 H              1 S1                 0.0000
     21 ****         1.8538   0.8340  -1.3558 H              1 S1                 0.0000
     22 ****         1.4090   0.0799   0.9838 H              1 S1                 0.0000
     23 ****         3.6946  -1.3390  -0.4091 H              1 S1                 0.0000
     24 ****         3.7710   0.2006   0.4268 H              1 S1                 0.0000
     25 ****         4.5162  -2.0390   1.7348 H              1 S1                 0.0000
     26 ****         3.4909  -0.8692   2.5847 H              1 S1                 0.0000
     27 ****         0.0998  -1.9046   0.9658 H              1 S1                 0.0000
     28 ****         1.1083  -2.6624  -0.2762 H              1 S1                 0.0000
     29 ****        -2.3571   0.0146  -1.6785 H              1 S1                 0.0000
     30 ****        -4.9817   0.6442  -1.7150 H              1 S1                 0.0000
     31 ****        -2.3840   3.4433   0.3428 H              1 S1                 0.0000
     32 ****         0.6340   2.0040  -0.0418 LP             1 S1                 0.0000
     33 ****        -0.9521   2.6843   0.1050 LP             1 S1                 0.0000
     34 ****        -6.3273   2.5165  -0.8176 LP             1 S1                 0.0000
@<TRIPOS>BOND
    1    1    2 2     
    2    2    3 am    
    3    2   12 am    
    4    3    4 1     
    5    3   19 1     
    6    4    5 1     
    7    4   20 1     
    8    4   21 1     
    9    5   11 1     
   10    5    6 1     
   11    5   22 1     
   12    6    7 1     
   13    6   23 1     
   14    6   24 1     
   15    7    8 1     
   16    7   25 1     
   17    7   26 1     
   18    8    9 2     
   19    8   10 2     
   20    8   11 1     
   21   11   27 1     
   22   11   28 1     
   23   12   13 1     
   24   12   29 1     
   25   13   17 2     
   26   13   14 1     
   27   14   15 2     
   28   14   30 1     
   29   15   16 1     
   30   16   18 1     
   31   16   17 1     
   32   17   31 1     
   33    1   32 1     
   34    1   33 1     
   35   15   34 1     
@<TRIPOS>SUBSTRUCTURE
      1 S1             1
@<TRIPOS>SET
LONE_PAIRS      STATIC     ATOMS    <user>   **** ""
5 32 33 9 10 34
DONOR_HYDROGENS      STATIC     ATOMS    <user>   **** ""
3 19 29 18
ATOM$BLUE        STATIC     ATOMS    COLORGROUP SYSTEM
5 32 33 9 10 34
ATOM$RED        STATIC     ATOMS    COLORGROUP SYSTEM
3 19 29 18
