#       Name:                AV-unprocessed.smi:179
#       Creating user name   scv26
#       Creation time:       Thu Mar 26 19:24:36 2020


#       File generated by GOLD software.
#

@<TRIPOS>MOLECULE
AV-unprocessed.smi:179
    54    57     1
SMALL
NO_CHARGES


@<TRIPOS>ATOM
      1 ****        -3.6257  -2.4173  -0.0227 O.3            1 S1                 0.0000
      2 ****        -4.6875  -1.4840  -0.0124 C.3            1 S1                 0.0000
      3 ****        -4.1931  -0.0237   0.0002 C.3            1 S1                 0.0000
      4 ****        -5.4400   0.8798  -0.0389 C.3            1 S1                 0.0000
      5 ****        -6.1932   0.7789   1.1530 O.3            1 S1                 0.0000
      6 ****        -3.1344   0.3560   1.0630 C.3            1 S1                 0.0000
      7 ****        -2.3989   1.1938   0.0139 C.3            1 S1                 0.0000
      8 ****        -0.9682   1.3242   0.0321 N.pl3          1 S1                 0.0000
      9 ****        -0.2554   2.5027   0.0574 C.2            1 S1                 0.0000
     10 ****         1.0428   2.3711   0.0768 N.2            1 S1                 0.0000
     11 ****         1.2436   0.9972   0.0662 C.ar           1 S1                 0.0000
     12 ****         2.4072   0.1814   0.0813 C.ar           1 S1                 0.0000
     13 ****         3.7155   0.7395   0.1103 N.3            1 S1                 0.0000
     14 ****         4.6465   0.1207   1.0491 C.3            1 S1                 0.0000
     15 ****         5.5419  -0.2554  -0.1348 C.3            1 S1                 0.0000
     16 ****         6.8187   0.3507  -0.1402 O.3            1 S1                 0.0000
     17 ****         5.8520  -1.7390  -0.3702 C.3            1 S1                 0.0000
     18 ****         6.4726  -2.2600   0.6892 F              1 S1                 0.0000
     19 ****         4.7445  -2.4428  -0.5989 F              1 S1                 0.0000
     20 ****         4.5260   0.4226  -1.0602 C.3            1 S1                 0.0000
     21 ****         2.2079  -1.1641   0.0603 N.ar           1 S1                 0.0000
     22 ****         0.9733  -1.6738   0.0304 C.ar           1 S1                 0.0000
     23 ****        -0.1932  -1.0286   0.0167 N.ar           1 S1                 0.0000
     24 ****        -0.0100   0.3222   0.0358 C.ar           1 S1                 0.0000
     25 ****        -3.1133   0.3476  -1.0439 C.3            1 S1                 0.0000
     26 ****        -3.9910  -3.2888  -0.0216 H              1 S1                 0.0000
     27 ****        -5.3084  -1.6754  -0.8882 H              1 S1                 0.0000
     28 ****        -5.3022  -1.6982   0.8623 H              1 S1                 0.0000
     29 ****        -5.1659   1.9267  -0.1712 H              1 S1                 0.0000
     30 ****        -6.0829   0.6247  -0.8820 H              1 S1                 0.0000
     31 ****        -6.9373   1.3582   1.0890 H              1 S1                 0.0000
     32 ****        -3.5143   0.9332   1.9065 H              1 S1                 0.0000
     33 ****        -2.5470  -0.4927   1.4147 H              1 S1                 0.0000
     34 ****        -2.8009   2.2085   0.0068 H              1 S1                 0.0000
     35 ****        -0.7303   3.4730   0.0631 H              1 S1                 0.0000
     36 ****         5.0963   0.8520   1.7212 H              1 S1                 0.0000
     37 ****         4.2516  -0.7360   1.5965 H              1 S1                 0.0000
     38 ****         6.6849   1.2743   0.0092 H              1 S1                 0.0000
     39 ****         6.4991  -1.8911  -1.2351 H              1 S1                 0.0000
     40 ****         4.0483  -0.2532  -1.7709 H              1 S1                 0.0000
     41 ****         4.9065   1.3194  -1.5505 H              1 S1                 0.0000
     42 ****         0.9116  -2.7520   0.0145 H              1 S1                 0.0000
     43 ****        -2.5164  -0.5004  -1.3806 H              1 S1                 0.0000
     44 ****        -3.4811   0.9173  -1.8978 H              1 S1                 0.0000
     45 ****        -3.0566  -2.2893   0.7896 LP             1 S1                 0.0000
     46 ****        -3.0695  -2.2860  -0.8433 LP             1 S1                 0.0000
     47 ****        -5.6264   1.0434   1.9333 LP             1 S1                 0.0000
     48 ****        -6.5084  -0.1624   1.2738 LP             1 S1                 0.0000
     49 ****         1.7340   3.0936   0.0951 LP             1 S1                 0.0000
     50 ****         3.4629   1.6928   0.2761 LP             1 S1                 0.0000
     51 ****         7.2642   0.2063  -1.0238 LP             1 S1                 0.0000
     52 ****         7.3862  -0.0365   0.5864 LP             1 S1                 0.0000
     53 ****         2.9959  -1.7798   0.0673 LP             1 S1                 0.0000
     54 ****        -1.0867  -1.4772  -0.0048 LP             1 S1                 0.0000
@<TRIPOS>BOND
    1    1    2 1     
    2    1   26 1     
    3    2    3 1     
    4    2   27 1     
    5    2   28 1     
    6    3   25 1     
    7    3    4 1     
    8    3    6 1     
    9    4    5 1     
   10    4   29 1     
   11    4   30 1     
   12    5   31 1     
   13    6    7 1     
   14    6   32 1     
   15    6   33 1     
   16    7    8 1     
   17    7   25 1     
   18    7   34 1     
   19    8   24 1     
   20    8    9 1     
   21    9   10 2     
   22    9   35 1     
   23   10   11 1     
   24   11   24 ar    
   25   11   12 ar    
   26   12   13 1     
   27   12   21 ar    
   28   13   20 1     
   29   13   14 1     
   30   14   15 1     
   31   14   36 1     
   32   14   37 1     
   33   15   16 1     
   34   15   17 1     
   35   15   20 1     
   36   16   38 1     
   37   17   18 1     
   38   17   19 1     
   39   17   39 1     
   40   20   40 1     
   41   20   41 1     
   42   21   22 ar    
   43   22   23 ar    
   44   22   42 1     
   45   23   24 ar    
   46   25   43 1     
   47   25   44 1     
   48    1   45 1     
   49    1   46 1     
   50    5   47 1     
   51    5   48 1     
   52   10   49 1     
   53   13   50 1     
   54   16   51 1     
   55   16   52 1     
   56   21   53 1     
   57   23   54 1     
@<TRIPOS>SUBSTRUCTURE
      1 S1             1
@<TRIPOS>SET
LONE_PAIRS      STATIC     ATOMS    <user>   **** ""
10 45 46 47 48 49 50 51 52 53 54
DONOR_HYDROGENS      STATIC     ATOMS    <user>   **** ""
3 26 31 38
ATOM$BLUE        STATIC     ATOMS    COLORGROUP SYSTEM
10 45 46 47 48 49 50 51 52 53 54
ATOM$RED        STATIC     ATOMS    COLORGROUP SYSTEM
3 26 31 38
