AV-unprocessed.smi:1055|AV-procd|sdf|4628|dock6
  -GOLD-   22720 3133D 1   1.00000     0.00000
 Structure written by MMmdl.
 51 52  0  0  0  0  0  0  0  0  2 V2000
  151.8521  144.2789  159.1772 C   0  0  0  0  0  0  0  0  0  0  0  0
  152.3718  143.4807  160.1244 C   0  0  0  0  0  0  0  0  0  0  0  0
  152.2103  143.7778  161.6035 C   0  0  0  0  0  0  0  0  0  0  0  0
  153.1370  142.2122  159.7757 C   0  0  0  0  0  0  0  0  0  0  0  0
  152.3064  141.1805  159.1539 N   0  0  0  0  0  0  0  0  0  0  0  0
  153.0024  139.8897  159.0995 C   0  0  0  0  0  0  0  0  0  0  0  0
  152.0857  138.8097  158.4995 C   0  0  0  0  0  0  0  0  0  0  0  0
  151.6098  139.2058  157.0916 C   0  0  0  0  0  0  0  0  0  0  0  0
  150.6354  138.2460  156.5805 N   0  0  0  0  0  0  0  0  0  0  0  0
  150.8995  136.9668  156.2789 C   0  0  0  0  0  0  0  0  0  0  0  0
  152.0148  136.4590  156.3931 O   0  0  0  0  0  0  0  0  0  0  0  0
  149.8014  136.3351  155.8290 N   0  0  0  0  0  0  0  0  0  0  0  0
  149.6593  134.9740  155.4446 C   0  0  0  0  0  0  0  0  0  0  0  0
  150.7032  134.0837  155.7717 C   0  0  0  0  0  0  0  0  0  0  0  0
  150.6129  132.7272  155.3970 C   0  0  0  0  0  0  0  0  0  0  0  0
  149.4778  132.2666  154.6854 C   0  0  0  0  0  0  0  0  0  0  0  0
  149.3139  130.9261  154.2743 N   0  0  0  0  0  0  0  0  0  0  0  0
  150.4024  129.9741  154.4533 C   0  0  0  0  0  0  0  0  0  0  0  0
  148.0617  130.5056  153.6552 C   0  0  0  0  0  0  0  0  0  0  0  0
  148.5068  133.1627  154.3830 N   0  3  0  0  0  0  0  0  0  0  0  0
  148.5517  134.4686  154.7232 C   0  0  0  0  0  0  0  0  0  0  0  0
  150.9855  140.6072  157.1505 C   0  0  0  0  0  0  0  0  0  0  0  0
  151.9508  141.6131  157.8011 C   0  0  0  0  0  0  0  0  0  0  0  0
  151.3035  145.1726  159.4359 H   0  0  0  0  0  0  0  0  0  0  0  0
  151.9681  144.0509  158.1278 H   0  0  0  0  0  0  0  0  0  0  0  0
  151.7029  142.9511  162.1010 H   0  0  0  0  0  0  0  0  0  0  0  0
  151.6240  144.6830  161.7660 H   0  0  0  0  0  0  0  0  0  0  0  0
  153.1830  143.9177  162.0757 H   0  0  0  0  0  0  0  0  0  0  0  0
  153.9410  142.4877  159.0917 H   0  0  0  0  0  0  0  0  0  0  0  0
  153.6100  141.8113  160.6739 H   0  0  0  0  0  0  0  0  0  0  0  0
  153.9156  139.9819  158.5096 H   0  0  0  0  0  0  0  0  0  0  0  0
  153.3000  139.5748  160.0997 H   0  0  0  0  0  0  0  0  0  0  0  0
  152.6182  137.8588  158.4641 H   0  0  0  0  0  0  0  0  0  0  0  0
  151.2274  138.6590  159.1563 H   0  0  0  0  0  0  0  0  0  0  0  0
  152.4698  139.2414  156.4200 H   0  0  0  0  0  0  0  0  0  0  0  0
  149.6918  138.5823  156.4548 H   0  0  0  0  0  0  0  0  0  0  0  0
  148.9769  136.9067  155.7160 H   0  0  0  0  0  0  0  0  0  0  0  0
  151.5707  134.4334  156.3122 H   0  0  0  0  0  0  0  0  0  0  0  0
  151.4208  132.0616  155.6620 H   0  0  0  0  0  0  0  0  0  0  0  0
  151.2809  130.2883  153.8891 H   0  0  0  0  0  0  0  0  0  0  0  0
  150.1211  128.9798  154.1056 H   0  0  0  0  0  0  0  0  0  0  0  0
  150.6726  129.8933  155.5066 H   0  0  0  0  0  0  0  0  0  0  0  0
  147.8675  131.0838  152.7512 H   0  0  0  0  0  0  0  0  0  0  0  0
  147.2279  130.6469  154.3435 H   0  0  0  0  0  0  0  0  0  0  0  0
  148.0897  129.4521  153.3767 H   0  0  0  0  0  0  0  0  0  0  0  0
  147.7054  135.0507  154.3911 H   0  0  0  0  0  0  0  0  0  0  0  0
  150.7260  140.9437  156.1461 H   0  0  0  0  0  0  0  0  0  0  0  0
  150.0543  140.5804  157.7189 H   0  0  0  0  0  0  0  0  0  0  0  0
  151.4718  142.5921  157.8445 H   0  0  0  0  0  0  0  0  0  0  0  0
  152.8499  141.7236  157.1925 H   0  0  0  0  0  0  0  0  0  0  0  0
  147.6928  132.8327  153.8641 H   0  0  0  0  0  0  0  0  0  0  0  0
  1  2  2  0  0  0  0
  1 24  1  0  0  0  0
  1 25  1  0  0  0  0
  2  3  1  0  0  0  0
  2  4  1  0  0  0  0
  3 26  1  0  0  0  0
  3 27  1  0  0  0  0
  3 28  1  0  0  0  0
  4  5  1  0  0  0  0
  4 29  1  0  0  0  0
  4 30  1  0  0  0  0
  5 23  1  0  0  0  0
  5  6  1  0  0  0  0
  6  7  1  0  0  0  0
  6 31  1  0  0  0  0
  6 32  1  0  0  0  0
  7  8  1  0  0  0  0
  7 33  1  0  0  0  0
  7 34  1  0  0  0  0
  8  9  1  0  0  0  0
  8 22  1  0  0  0  0
  8 35  1  0  0  0  0
  9 10  1  0  0  0  0
  9 36  1  0  0  0  0
 10 11  2  0  0  0  0
 10 12  1  0  0  0  0
 12 13  1  0  0  0  0
 12 37  1  0  0  0  0
 13 21  1  0  0  0  0
 13 14  2  0  0  0  0
 14 15  1  0  0  0  0
 14 38  1  0  0  0  0
 15 16  2  0  0  0  0
 15 39  1  0  0  0  0
 16 17  1  0  0  0  0
 16 20  1  0  0  0  0
 17 18  1  0  0  0  0
 17 19  1  0  0  0  0
 18 40  1  0  0  0  0
 18 41  1  0  0  0  0
 18 42  1  0  0  0  0
 19 43  1  0  0  0  0
 19 44  1  0  0  0  0
 19 45  1  0  0  0  0
 20 21  2  0  0  0  0
 20 51  1  0  0  0  0
 21 46  1  0  0  0  0
 22 23  1  0  0  0  0
 22 47  1  0  0  0  0
 22 48  1  0  0  0  0
 23 49  1  0  0  0  0
 23 50  1  0  0  0  0
M  CHG  1  20   1
M  END
> <s_m_source_file>
AV-unprocessed.smi

> <i_m_source_file_index>
1055

> <i_lp_mmshare_version>
43012

> <i_f3d_flags>
0

> <s_epik_input>
W0NIMl09QyhbQ0gzXSlbQ0gyXU4xW0NIMl1bQ0gyXVtDSF0oW0NIMl1bQ0gyXTEpW05IXUMoPU8pW05IXWMyW2NIXVtjSF1jKE4oW0NIM10pW0NIM10pbltjSF0y

> <s_epik_cmdline>
J2VwaWtfcHl0aG9uJywgJy1waCcsICc3LjAnLCAnLXRuJywgJzgnLCAnLW1hJywgJzIwMCcsICctbWV0YWxfYmluZGluZycsICctaW1hZScsICc8aW5maWxlLm1hZT4nLCAnLW9tYWUnLCAnPG91dGZpbGUubWFlPic=

> <r_epik_Ionization_Penalty>
2.2313

> <r_epik_Ionization_Penalty_Charging>
0.252156

> <r_epik_Ionization_Penalty_Neutral>
1.97915

> <r_epik_State_Penalty>
2.37644

> <r_epik_Charging_Adjusted_Penalty>
2.62859

> <i_epik_Tot_Q>
1

> <i_epik_Tot_abs_Q>
1

> <r_epik_Metal_State_Penalty>
2.63815

> <b_epik_Metal_Only>
0

> <s_lp_Force_Field>
OPLS_2005

> <r_lp_Energy>
24.1414

> <b_lp_Chiralities_Consistent>
1

> <s_lp_Variant>
AV-unprocessed.smi:1055-5

> <Gold.Version>
5.8.1

> <Gold.Id.Protein>
6NUR|6NUR_protein|mol2

> <Gold.PLP.Fitness>
43.9053

> <Gold.PLP.PLP>
-41.3022

> <Gold.PLP.part.hbond>
-1.0000

> <Gold.PLP.part.metal>
0.0000

> <Gold.PLP.part.buried>
-6.2593

> <Gold.PLP.part.nonpolar>
-33.6425

> <Gold.PLP.part.repulsive>
0.0288

> <Gold.PLP.ligand.clash>
0.0000

> <Gold.PLP.ligand.torsion>
0.2146

> <Gold.PLP.Chemscore.Hbond>
1.0000

> <Gold.PLP.Chemscore.CHOScore>
0.0000

> <Gold.PLP.Chemscore.Metal>
0.0000

> <Gold.Chemscore.Hbonds>
donor molecule, donor type, donor heavy atom, donor atom, acceptor molecule, acceptor atom, score
      P1  H 10752 10763       L1    11  0.98

> <Gold.PLP.Chemscore.Internal.Correction>
0.0324

> <Gold.Rescore>
     Score         DG    S(hbond)    S(metal)    S(lipo)     H(rot)  DE(clash)    DE(int)     intcor
     16.03     -17.99       0.99        0.00     107.44       1.32       0.16       1.79       ----

> <Gold.Chemscore.Fitness>
16.0326

> <Gold.Chemscore.DG>
-17.9861

> <Gold.Chemscore.ZeroCoef>
-5.4800

> <Gold.Chemscore.Hbond>
0.9948

> <Gold.Chemscore.Metal>
0.0000

> <Gold.Chemscore.Lipo>
107.4412

> <Gold.Chemscore.Internal_Hbond>
0.0000

> <Gold.Chemscore.DEClash>
0.1616

> <Gold.Chemscore.DEInternal>
1.7919

> <Gold.Chemscore.Rot>
1.3231

> <Gold.Chemscore.Internal.Correction>
   9.000000E+99

> <Gold.Chemscore.Hbonds>
donor molecule, donor type, donor heavy atom, donor atom, acceptor molecule, acceptor atom, score
      P1  H 10752 10763       L1    11  0.91

> <Gold.Chemscore.Hbond.Weighted>
-3.3226

> <Gold.Chemscore.Metal.Weighted>
-0.0000

> <Gold.Chemscore.Lipo.Weighted>
-12.5706

> <Gold.Chemscore.Internal_Hbond.Weighted>
0.0000

> <Gold.Chemscore.DEClash.Weighted>
0.1616

> <Gold.Chemscore.DEInternal.Weighted>
1.7919

> <Gold.Chemscore.Rot.Weighted>
3.3871

> <Gold.Chemscore.Internal.Correction.Weighted>
   9.000000E+99

> <Gold.Protein.RotatedTorsions>
[ 6907 6896 6895 6894 ] final   76.11 input  -60.11 | X-H torsion
[ 7974 7965 7964 7962 ] final    1.17 input  175.53 | X-H torsion
[ 8008 7997 7996 7995 ] final  -69.59 input   59.86 | X-H torsion
[ 10167 10162 10161 10158 ] final   77.67 input  -65.29 | X-H torsion
[ 10718 10713 10712 10709 ] final  100.69 input   66.30 | X-H torsion
[ 10763 10752 10751 10750 ] final   78.33 input  -60.55 | X-H torsion
[ 11005 11000 10999 10996 ] final -153.17 input  -57.11 | X-H torsion

> <Gold.Protein.ActiveResidues>
 VAL166  LYS551  ARG553  GLY616  TRP617  ASP618  TYR619  PRO620  LYS621  CYS622 
 ASP623  PHE694  ASN695  SER759  ASP760  ASP761  ALA762  ILE779  LEU786  VAL792 
 PHE793  MET794  SER795  GLU796  ALA797  LYS798  CYS799  TRP800  GLU811  SER814 

> <Gold.Protein.RotatedAtoms>
  152.5058  134.4018  159.9418 H   0  0  0  0  0  0  0  0  0  0  0  0  # atno 6907 bound_to 6896
  151.3982  133.3760  159.2737 H   0  0  0  0  0  0  0  0  0  0  0  0  # atno 6908 bound_to 6896
  150.9381  134.8813  159.7654 H   0  0  0  0  0  0  0  0  0  0  0  0  # atno 6909 bound_to 6896
  146.2439  140.1027  142.8347 H   0  0  0  0  0  0  0  0  0  0  0  0  # atno 7974 bound_to 7965
  154.4950  140.0850  156.7676 H   0  0  0  0  0  0  0  0  0  0  0  0  # atno 8008 bound_to 7997
  155.4139  140.3442  155.4247 H   0  0  0  0  0  0  0  0  0  0  0  0  # atno 8009 bound_to 7997
  156.1381  140.1521  156.8951 H   0  0  0  0  0  0  0  0  0  0  0  0  # atno 8010 bound_to 7997
  139.9791  144.5839  150.7916 H   0  0  0  0  0  0  0  0  0  0  0  0  # atno 10167 bound_to 10162
  157.6848  131.0705  150.5139 H   0  0  0  0  0  0  0  0  0  0  0  0  # atno 10718 bound_to 10713
  153.0866  135.4881  154.8609 H   0  0  0  0  0  0  0  0  0  0  0  0  # atno 10763 bound_to 10752
  154.7218  135.3041  154.9037 H   0  0  0  0  0  0  0  0  0  0  0  0  # atno 10764 bound_to 10752
  153.9699  135.6802  153.4800 H   0  0  0  0  0  0  0  0  0  0  0  0  # atno 10765 bound_to 10752
  140.7110  134.3832  157.5197 H   0  0  0  0  0  0  0  0  0  0  0  0  # atno 11005 bound_to 11000
  145.0554  140.9049  143.4970 LP  0  0  0  0  0  0  0  0  0  0  0  0  # atno 17320 bound_to 7965
  145.1133  139.2742  143.5626 LP  0  0  0  0  0  0  0  0  0  0  0  0  # atno 17321 bound_to 7965
  140.7495  143.2940  151.3254 LP  0  0  0  0  0  0  0  0  0  0  0  0  # atno 17342 bound_to 10162
  139.6423  144.0516  152.2564 LP  0  0  0  0  0  0  0  0  0  0  0  0  # atno 17343 bound_to 10162
  156.5455  130.4218  149.6133 LP  0  0  0  0  0  0  0  0  0  0  0  0  # atno 17370 bound_to 10713
  156.2948  130.7144  151.2001 LP  0  0  0  0  0  0  0  0  0  0  0  0  # atno 17371 bound_to 10713
  139.8871  134.8890  156.2544 LP  0  0  0  0  0  0  0  0  0  0  0  0  # atno 17394 bound_to 11000
  141.0084  133.7110  156.1072 LP  0  0  0  0  0  0  0  0  0  0  0  0  # atno 17395 bound_to 11000

$$$$
