AV-unprocessed.smi:2360|AV-procd|sdf|9409|dock10
  -GOLD-   2272013 43D 1   1.00000     0.00000
 Structure written by MMmdl.
 34 35  0  0  0  0  0  0  0  0  1 V2000
  153.0038  142.5176  161.8887 C   0  0  0  0  0  0  0  0  0  0  0  0
  152.5775  142.5335  160.4314 C   0  0  0  0  0  0  0  0  0  0  0  0
  152.6181  141.2989  159.7770 N   0  0  0  0  0  0  0  0  0  0  0  0
  152.2769  141.2170  158.5326 C   0  0  0  0  0  0  0  0  0  0  0  0
  151.8621  142.3447  157.8057 N   0  0  0  0  0  0  0  0  0  0  0  0
  151.5025  142.1167  156.3958 C   0  0  0  0  0  0  0  0  0  0  0  0
  150.5212  140.9359  156.2237 C   0  0  2  0  0  0  0  0  0  0  0  0
  151.0520  140.0416  155.2653 O   0  0  0  0  0  0  0  0  0  0  0  0
  149.1422  141.4307  155.8144 C   0  0  0  0  0  0  0  0  0  0  0  0
  148.8163  141.5518  154.4465 C   0  0  0  0  0  0  0  0  0  0  0  0
  147.5388  141.9998  154.0576 C   0  0  0  0  0  0  0  0  0  0  0  0
  146.5785  142.3270  155.0341 C   0  0  0  0  0  0  0  0  0  0  0  0
  145.3509  142.7572  154.6582 F   0  0  0  0  0  0  0  0  0  0  0  0
  146.8960  142.2039  156.4009 C   0  0  0  0  0  0  0  0  0  0  0  0
  145.9735  142.5149  157.3424 F   0  0  0  0  0  0  0  0  0  0  0  0
  148.1734  141.7557  156.7899 C   0  0  0  0  0  0  0  0  0  0  0  0
  151.7834  143.5847  158.3700 C   0  0  0  0  0  0  0  0  0  0  0  0
  151.4030  144.5651  157.7268 O   0  0  0  0  0  0  0  0  0  0  0  0
  152.1789  143.6633  159.7855 C   0  0  0  0  0  0  0  0  0  0  0  0
  152.1149  145.0348  160.4462 C   0  0  0  0  0  0  0  0  0  0  0  0
  153.8618  143.1726  162.0423 H   0  0  0  0  0  0  0  0  0  0  0  0
  153.2894  141.5146  162.2087 H   0  0  0  0  0  0  0  0  0  0  0  0
  152.1882  142.8535  162.5294 H   0  0  0  0  0  0  0  0  0  0  0  0
  152.2867  140.2773  157.9776 H   0  0  0  0  0  0  0  0  0  0  0  0
  151.0342  143.0285  156.0194 H   0  0  0  0  0  0  0  0  0  0  0  0
  152.3790  141.9832  155.7579 H   0  0  0  0  0  0  0  0  0  0  0  0
  150.4208  140.3885  157.1618 H   0  0  0  0  0  0  0  0  0  0  0  0
  150.9476  139.1598  155.5891 H   0  0  0  0  0  0  0  0  0  0  0  0
  149.5443  141.2993  153.6893 H   0  0  0  0  0  0  0  0  0  0  0  0
  147.2955  142.0909  153.0092 H   0  0  0  0  0  0  0  0  0  0  0  0
  148.4064  141.6599  157.8403 H   0  0  0  0  0  0  0  0  0  0  0  0
  151.0964  145.4223  160.4103 H   0  0  0  0  0  0  0  0  0  0  0  0
  152.7629  145.7360  159.9194 H   0  0  0  0  0  0  0  0  0  0  0  0
  152.4246  145.0241  161.4900 H   0  0  0  0  0  0  0  0  0  0  0  0
  1  2  1  0  0  0  0
  1 21  1  0  0  0  0
  1 22  1  0  0  0  0
  1 23  1  0  0  0  0
  2 19  2  0  0  0  0
  2  3  1  0  0  0  0
  3  4  2  0  0  0  0
  4  5  1  0  0  0  0
  4 24  1  0  0  0  0
  5  6  1  0  0  0  0
  5 17  1  0  0  0  0
  6  7  1  0  0  0  0
  6 25  1  0  0  0  0
  6 26  1  0  0  0  0
  7  8  1  0  0  0  0
  7  9  1  0  0  0  0
  7 27  1  0  0  0  0
  8 28  1  0  0  0  0
  9 16  1  0  0  0  0
  9 10  2  0  0  0  0
 10 11  1  0  0  0  0
 10 29  1  0  0  0  0
 11 12  2  0  0  0  0
 11 30  1  0  0  0  0
 12 13  1  0  0  0  0
 12 14  1  0  0  0  0
 14 15  1  0  0  0  0
 14 16  2  0  0  0  0
 16 31  1  0  0  0  0
 17 18  2  0  0  0  0
 17 19  1  0  0  0  0
 19 20  1  0  0  0  0
 20 32  1  0  0  0  0
 20 33  1  0  0  0  0
 20 34  1  0  0  0  0
M  END
> <s_m_source_file>
AV-unprocessed.smi

> <i_m_source_file_index>
2360

> <i_lp_mmshare_version>
43012

> <i_f3d_flags>
0

> <s_epik_input>
W0NIM11jMW5bY0hdbihjKD1PKWMxW0NIM10pW0NIMl1bQ0BIXShbT0hdKWMyW2NIXVtjSF1jKEYpYyhGKVtjSF0y

> <s_epik_cmdline>
J2VwaWtfcHl0aG9uJywgJy1waCcsICc3LjAnLCAnLXRuJywgJzgnLCAnLW1hJywgJzIwMCcsICctbWV0YWxfYmluZGluZycsICctaW1hZScsICc8aW5maWxlLm1hZT4nLCAnLW9tYWUnLCAnPG91dGZpbGUubWFlPic=

> <r_lp_tautomer_probability>
1

> <r_epik_Ionization_Penalty>
5.07449e-05

> <r_epik_Ionization_Penalty_Charging>
7.56727e-08

> <r_epik_Ionization_Penalty_Neutral>
5.06692e-05

> <r_epik_State_Penalty>
-0

> <r_epik_Charging_Adjusted_Penalty>
7.56727e-08

> <i_epik_Tot_Q>
0

> <i_epik_Tot_abs_Q>
0

> <r_epik_Metal_State_Penalty>
-0

> <b_epik_Metal_Only>
0

> <s_lp_Force_Field>
OPLS_2005

> <r_lp_Energy>
18.6732

> <b_lp_Chiralities_Consistent>
1

> <s_lp_Variant>
AV-unprocessed.smi:2360-1

> <Gold.Version>
5.8.1

> <Gold.Id.Protein>
6NUR|6NUR_protein|mol2

> <Gold.PLP.Fitness>
42.3777

> <Gold.PLP.PLP>
-42.4757

> <Gold.PLP.part.hbond>
-1.0000

> <Gold.PLP.part.metal>
0.0000

> <Gold.PLP.part.buried>
-7.3234

> <Gold.PLP.part.nonpolar>
-34.3685

> <Gold.PLP.part.repulsive>
0.1660

> <Gold.PLP.ligand.clash>
0.0000

> <Gold.PLP.ligand.torsion>
1.5517

> <Gold.PLP.Chemscore.Hbond>
1.0000

> <Gold.PLP.Chemscore.CHOScore>
0.0000

> <Gold.PLP.Chemscore.Metal>
0.0000

> <Gold.Chemscore.Hbonds>
donor molecule, donor type, donor heavy atom, donor atom, acceptor molecule, acceptor atom, score
      P1  H  7989  7998       L1     8  0.99

> <Gold.PLP.Chemscore.Internal.Correction>
0.0053

> <Gold.Rescore>
     Score         DG    S(hbond)    S(metal)    S(lipo)     H(rot)  DE(clash)    DE(int)     intcor
     12.03     -13.92       0.96        0.00      90.84       2.11       0.58       1.31       ----

> <Gold.Chemscore.Fitness>
12.0339

> <Gold.Chemscore.DG>
-13.9241

> <Gold.Chemscore.ZeroCoef>
-5.4800

> <Gold.Chemscore.Hbond>
0.9630

> <Gold.Chemscore.Metal>
0.0000

> <Gold.Chemscore.Lipo>
90.8429

> <Gold.Chemscore.Internal_Hbond>
0.0000

> <Gold.Chemscore.DEClash>
0.5832

> <Gold.Chemscore.DEInternal>
1.3070

> <Gold.Chemscore.Rot>
2.1097

> <Gold.Chemscore.Internal.Correction>
   9.000000E+99

> <Gold.Chemscore.Hbonds>
donor molecule, donor type, donor heavy atom, donor atom, acceptor molecule, acceptor atom, score
      P1  H  7989  7998       L1     8  0.85

> <Gold.Chemscore.Hbond.Weighted>
-3.2164

> <Gold.Chemscore.Metal.Weighted>
-0.0000

> <Gold.Chemscore.Lipo.Weighted>
-10.6286

> <Gold.Chemscore.Internal_Hbond.Weighted>
0.0000

> <Gold.Chemscore.DEClash.Weighted>
0.5832

> <Gold.Chemscore.DEInternal.Weighted>
1.3070

> <Gold.Chemscore.Rot.Weighted>
5.4009

> <Gold.Chemscore.Internal.Correction.Weighted>
   9.000000E+99

> <Gold.Protein.RotatedTorsions>
[ 6907 6896 6895 6894 ] final -138.66 input  -60.11 | X-H torsion
[ 7974 7965 7964 7962 ] final   62.06 input  175.53 | X-H torsion
[ 8008 7997 7996 7995 ] final   20.13 input   59.86 | X-H torsion
[ 10167 10162 10161 10158 ] final  -66.78 input  -65.29 | X-H torsion
[ 10718 10713 10712 10709 ] final   92.80 input   66.30 | X-H torsion
[ 10763 10752 10751 10750 ] final  -86.82 input  -60.55 | X-H torsion
[ 11005 11000 10999 10996 ] final   17.60 input  -57.11 | X-H torsion

> <Gold.Protein.ActiveResidues>
 VAL166  LYS551  ARG553  GLY616  TRP617  ASP618  TYR619  PRO620  LYS621  CYS622 
 ASP623  PHE694  ASN695  SER759  ASP760  ASP761  ALA762  ILE779  LEU786  VAL792 
 PHE793  MET794  SER795  GLU796  ALA797  LYS798  CYS799  TRP800  GLU811  SER814 

> <Gold.Protein.RotatedAtoms>
  151.0378  133.5733  159.2653 H   0  0  0  0  0  0  0  0  0  0  0  0  # atno 6907 bound_to 6896
  151.2790  135.0707  159.9172 H   0  0  0  0  0  0  0  0  0  0  0  0  # atno 6908 bound_to 6896
  152.5358  134.0096  159.7986 H   0  0  0  0  0  0  0  0  0  0  0  0  # atno 6909 bound_to 6896
  145.8776  139.3421  143.0725 H   0  0  0  0  0  0  0  0  0  0  0  0  # atno 7974 bound_to 7965
  154.9310  140.3040  155.5168 H   0  0  0  0  0  0  0  0  0  0  0  0  # atno 8008 bound_to 7997
  156.3003  140.2354  156.4307 H   0  0  0  0  0  0  0  0  0  0  0  0  # atno 8009 bound_to 7997
  154.8237  140.0422  157.1417 H   0  0  0  0  0  0  0  0  0  0  0  0  # atno 8010 bound_to 7997
  140.5632  143.2313  151.6687 H   0  0  0  0  0  0  0  0  0  0  0  0  # atno 10167 bound_to 10162
  157.6957  131.0456  150.3937 H   0  0  0  0  0  0  0  0  0  0  0  0  # atno 10718 bound_to 10713
  154.6268  135.5435  153.7635 H   0  0  0  0  0  0  0  0  0  0  0  0  # atno 10763 bound_to 10752
  153.0264  135.6426  154.1360 H   0  0  0  0  0  0  0  0  0  0  0  0  # atno 10764 bound_to 10752
  154.1292  135.2915  155.3169 H   0  0  0  0  0  0  0  0  0  0  0  0  # atno 10765 bound_to 10752
  140.4342  134.1389  155.7683 H   0  0  0  0  0  0  0  0  0  0  0  0  # atno 11005 bound_to 11000
  145.9062  140.9210  143.0477 LP  0  0  0  0  0  0  0  0  0  0  0  0  # atno 17320 bound_to 7965
  144.6726  140.1098  143.7456 LP  0  0  0  0  0  0  0  0  0  0  0  0  # atno 17321 bound_to 7965
  139.5080  144.3627  152.0547 LP  0  0  0  0  0  0  0  0  0  0  0  0  # atno 17342 bound_to 10162
  140.2756  144.3916  150.6136 LP  0  0  0  0  0  0  0  0  0  0  0  0  # atno 17343 bound_to 10162
  156.4338  130.3977  149.6742 LP  0  0  0  0  0  0  0  0  0  0  0  0  # atno 17370 bound_to 10713
  156.3950  130.7646  151.2650 LP  0  0  0  0  0  0  0  0  0  0  0  0  # atno 17371 bound_to 10713
  141.1733  133.8565  157.1502 LP  0  0  0  0  0  0  0  0  0  0  0  0  # atno 17394 bound_to 11000
  140.0114  134.9986  157.0402 LP  0  0  0  0  0  0  0  0  0  0  0  0  # atno 17395 bound_to 11000

$$$$
