AV-unprocessed.smi:142|AV-procd|sdf|1189|dock3
  -GOLD-   2262018343D 1   1.00000     0.00000
 Structure written by MMmdl.
 52 55  0  0  0  0  0  0  0  0  1 V2000
  150.8746  139.3116  154.4888 C   0  0  0  0  0  0  0  0  0  0  0  0
  151.6329  139.0582  155.7987 C   0  0  2  0  0  0  0  0  0  0  0  0
  151.1233  137.8382  156.4219 N   0  0  0  0  0  0  0  0  0  0  0  0
  151.0726  136.6328  155.8348 C   0  0  0  0  0  0  0  0  0  0  0  0
  151.4367  136.4333  154.6749 O   0  0  0  0  0  0  0  0  0  0  0  0
  150.5220  135.4888  156.6998 C   0  0  0  0  0  0  0  0  0  0  0  0
  150.3840  134.2149  155.9610 N   0  0  0  0  0  0  0  0  0  0  0  0
  149.5443  134.1833  154.8201 C   0  0  0  0  0  0  0  0  0  0  0  0
  148.9524  135.1932  154.4352 O   0  0  0  0  0  0  0  0  0  0  0  0
  149.4305  132.8892  154.1572 C   0  0  0  0  0  0  0  0  0  0  0  0
  148.6598  132.7678  153.0632 F   0  0  0  0  0  0  0  0  0  0  0  0
  150.0862  131.8075  154.6265 C   0  0  0  0  0  0  0  0  0  0  0  0
  150.8981  131.8516  155.7458 N   0  0  0  0  0  0  0  0  0  0  0  0
  151.6117  130.6241  156.2710 C   0  0  2  0  0  0  0  0  0  0  0  0
  153.1265  130.8798  156.3724 C   0  0  0  0  0  0  0  0  0  0  0  0
  153.7144  129.6758  155.6645 C   0  0  0  0  0  0  0  0  0  0  0  0
  152.6305  129.3518  154.6474 C   0  0  0  0  0  0  0  0  0  0  0  0
  151.4330  129.5546  155.3862 O   0  0  0  0  0  0  0  0  0  0  0  0
  151.0605  133.0689  156.4421 C   0  0  0  0  0  0  0  0  0  0  0  0
  151.7724  133.1262  157.4473 O   0  0  0  0  0  0  0  0  0  0  0  0
  151.5644  140.2788  156.7129 C   0  0  0  0  0  0  0  0  0  0  0  0
  150.8803  141.4331  156.2757 C   0  0  0  0  0  0  0  0  0  0  0  0
  150.7936  142.5694  157.1030 C   0  0  0  0  0  0  0  0  0  0  0  0
  151.3891  142.5609  158.3802 C   0  0  0  0  0  0  0  0  0  0  0  0
  151.3047  143.6950  159.2146 C   0  0  0  0  0  0  0  0  0  0  0  0
  151.9031  143.6787  160.4897 C   0  0  0  0  0  0  0  0  0  0  0  0
  152.5868  142.5306  160.9339 C   0  0  0  0  0  0  0  0  0  0  0  0
  152.6725  141.3946  160.1057 C   0  0  0  0  0  0  0  0  0  0  0  0
  152.0750  141.4051  158.8284 C   0  0  0  0  0  0  0  0  0  0  0  0
  152.1565  140.2698  157.9969 C   0  0  0  0  0  0  0  0  0  0  0  0
  151.2821  140.1746  153.9611 H   0  0  0  0  0  0  0  0  0  0  0  0
  149.8171  139.5043  154.6731 H   0  0  0  0  0  0  0  0  0  0  0  0
  150.9461  138.4542  153.8189 H   0  0  0  0  0  0  0  0  0  0  0  0
  152.6809  138.8884  155.5440 H   0  0  0  0  0  0  0  0  0  0  0  0
  150.8017  137.9142  157.3759 H   0  0  0  0  0  0  0  0  0  0  0  0
  151.1689  135.3588  157.5694 H   0  0  0  0  0  0  0  0  0  0  0  0
  149.5699  135.8092  157.1251 H   0  0  0  0  0  0  0  0  0  0  0  0
  149.9555  130.8790  154.0924 H   0  0  0  0  0  0  0  0  0  0  0  0
  151.1336  130.3848  157.2228 H   0  0  0  0  0  0  0  0  0  0  0  0
  153.3900  131.7972  155.8436 H   0  0  0  0  0  0  0  0  0  0  0  0
  153.4411  130.9660  157.4127 H   0  0  0  0  0  0  0  0  0  0  0  0
  154.6830  129.8787  155.2071 H   0  0  0  0  0  0  0  0  0  0  0  0
  153.8308  128.8475  156.3647 H   0  0  0  0  0  0  0  0  0  0  0  0
  152.6732  130.0409  153.8027 H   0  0  0  0  0  0  0  0  0  0  0  0
  152.6983  128.3331  154.2655 H   0  0  0  0  0  0  0  0  0  0  0  0
  150.4184  141.4508  155.2994 H   0  0  0  0  0  0  0  0  0  0  0  0
  150.2675  143.4454  156.7524 H   0  0  0  0  0  0  0  0  0  0  0  0
  150.7821  144.5800  158.8818 H   0  0  0  0  0  0  0  0  0  0  0  0
  151.8381  144.5482  161.1271 H   0  0  0  0  0  0  0  0  0  0  0  0
  153.0462  142.5205  161.9113 H   0  0  0  0  0  0  0  0  0  0  0  0
  153.1989  140.5179  160.4545 H   0  0  0  0  0  0  0  0  0  0  0  0
  152.6752  139.3904  158.3503 H   0  0  0  0  0  0  0  0  0  0  0  0
  1  2  1  0  0  0  0
  1 31  1  0  0  0  0
  1 32  1  0  0  0  0
  1 33  1  0  0  0  0
  2  3  1  0  0  0  0
  2 21  1  0  0  0  0
  2 34  1  0  0  0  0
  3  4  1  0  0  0  0
  3 35  1  0  0  0  0
  4  5  2  0  0  0  0
  4  6  1  0  0  0  0
  6  7  1  0  0  0  0
  6 36  1  0  0  0  0
  6 37  1  0  0  0  0
  7 19  1  0  0  0  0
  7  8  1  0  0  0  0
  8  9  2  0  0  0  0
  8 10  1  0  0  0  0
 10 11  1  0  0  0  0
 10 12  2  0  0  0  0
 12 13  1  0  0  0  0
 12 38  1  0  0  0  0
 13 14  1  0  0  0  0
 13 19  1  0  0  0  0
 14 18  1  0  0  0  0
 14 15  1  0  0  0  0
 14 39  1  0  0  0  0
 15 16  1  0  0  0  0
 15 40  1  0  0  0  0
 15 41  1  0  0  0  0
 16 17  1  0  0  0  0
 16 42  1  0  0  0  0
 16 43  1  0  0  0  0
 17 18  1  0  0  0  0
 17 44  1  0  0  0  0
 17 45  1  0  0  0  0
 19 20  2  0  0  0  0
 21 30  1  0  0  0  0
 21 22  2  0  0  0  0
 22 23  1  0  0  0  0
 22 46  1  0  0  0  0
 23 24  2  0  0  0  0
 23 47  1  0  0  0  0
 24 29  1  0  0  0  0
 24 25  1  0  0  0  0
 25 26  2  0  0  0  0
 25 48  1  0  0  0  0
 26 27  1  0  0  0  0
 26 49  1  0  0  0  0
 27 28  2  0  0  0  0
 27 50  1  0  0  0  0
 28 29  1  0  0  0  0
 28 51  1  0  0  0  0
 29 30  2  0  0  0  0
 30 52  1  0  0  0  0
M  END
> <s_m_source_file>
AV-unprocessed.smi

> <i_m_source_file_index>
142

> <i_lp_mmshare_version>
43012

> <i_f3d_flags>
0

> <s_epik_input>
W2NIXTFbY0hdW2NIXVtjSF1jKGMxMilbY0hdYyhbY0hdW2NIXTIpW0NASF0oW0NIM10pW05IXUMoPU8pW0NIMl1uM2MoPU8pYyhGKVtjSF1uKGMzPU8pW0NAQEhdNFtDSDJdW0NIMl1bQ0gyXU80

> <s_epik_cmdline>
J2VwaWtfcHl0aG9uJywgJy1waCcsICc3LjAnLCAnLXRuJywgJzgnLCAnLW1hJywgJzIwMCcsICctbWV0YWxfYmluZGluZycsICctaW1hZScsICc8aW5maWxlLm1hZT4nLCAnLW9tYWUnLCAnPG91dGZpbGUubWFlPic=

> <r_lp_tautomer_probability>
1

> <r_epik_Ionization_Penalty>
3.35688e-08

> <r_epik_Ionization_Penalty_Charging>
3.59856e-09

> <r_epik_Ionization_Penalty_Neutral>
2.99702e-08

> <r_epik_State_Penalty>
-0

> <r_epik_Charging_Adjusted_Penalty>
3.59856e-09

> <i_epik_Tot_Q>
0

> <i_epik_Tot_abs_Q>
0

> <r_epik_Metal_State_Penalty>
-0

> <b_epik_Metal_Only>
0

> <s_epik_Chemistry_Notes>
This compound contains an acetal/aminal-like group ( X-CH(R)-Y where X, Y are N, S, or O) that may be acid/base labile, releasing an aldehyde.

> <s_lp_Force_Field>
OPLS_2005

> <r_lp_Energy>
31.3548

> <b_lp_Chiralities_Consistent>
1

> <s_lp_Variant>
AV-unprocessed.smi:142-1

> <Gold.Version>
5.8.1

> <Gold.Id.Protein>
6NUR|6NUR_protein|mol2

> <Gold.PLP.Fitness>
64.8644

> <Gold.PLP.PLP>
-59.7801

> <Gold.PLP.part.hbond>
-2.0000

> <Gold.PLP.part.metal>
0.0000

> <Gold.PLP.part.buried>
-4.9717

> <Gold.PLP.part.nonpolar>
-53.5274

> <Gold.PLP.part.repulsive>
1.1171

> <Gold.PLP.ligand.clash>
0.0000

> <Gold.PLP.ligand.torsion>
0.1119

> <Gold.PLP.Chemscore.Hbond>
1.7520

> <Gold.PLP.Chemscore.CHOScore>
0.0000

> <Gold.PLP.Chemscore.Metal>
0.0000

> <Gold.Chemscore.Hbonds>
donor molecule, donor type, donor heavy atom, donor atom, acceptor molecule, acceptor atom, score
      P1  H  6896  6909       L1    20  0.74
      P1  H 10752 10764       L1     5  1.00

> <Gold.PLP.Chemscore.Internal.Correction>
0.0520

> <Gold.Rescore>
     Score         DG    S(hbond)    S(metal)    S(lipo)     H(rot)  DE(clash)    DE(int)     intcor
     18.39     -22.45       1.78        0.00     138.49       2.02       0.21       3.86       ----

> <Gold.Chemscore.Fitness>
18.3868

> <Gold.Chemscore.DG>
-22.4527

> <Gold.Chemscore.ZeroCoef>
-5.4800

> <Gold.Chemscore.Hbond>
1.7768

> <Gold.Chemscore.Metal>
0.0000

> <Gold.Chemscore.Lipo>
138.4877

> <Gold.Chemscore.Internal_Hbond>
0.0000

> <Gold.Chemscore.DEClash>
0.2084

> <Gold.Chemscore.DEInternal>
3.8575

> <Gold.Chemscore.Rot>
2.0175

> <Gold.Chemscore.Internal.Correction>
   9.000000E+99

> <Gold.Chemscore.Hbonds>
donor molecule, donor type, donor heavy atom, donor atom, acceptor molecule, acceptor atom, score
      P1  H  6896  6909       L1    20  0.74
      P1  H 10752 10764       L1     5  0.96

> <Gold.Chemscore.Hbond.Weighted>
-5.9345

> <Gold.Chemscore.Metal.Weighted>
-0.0000

> <Gold.Chemscore.Lipo.Weighted>
-16.2031

> <Gold.Chemscore.Internal_Hbond.Weighted>
0.0000

> <Gold.Chemscore.DEClash.Weighted>
0.2084

> <Gold.Chemscore.DEInternal.Weighted>
3.8575

> <Gold.Chemscore.Rot.Weighted>
5.1648

> <Gold.Chemscore.Internal.Correction.Weighted>
   9.000000E+99

> <Gold.Protein.RotatedTorsions>
[ 6907 6896 6895 6894 ] final  -56.61 input  -60.11 | X-H torsion
[ 7974 7965 7964 7962 ] final -147.30 input  175.53 | X-H torsion
[ 8008 7997 7996 7995 ] final  128.88 input   59.86 | X-H torsion
[ 10167 10162 10161 10158 ] final  -27.43 input  -65.29 | X-H torsion
[ 10718 10713 10712 10709 ] final  -35.16 input   66.30 | X-H torsion
[ 10763 10752 10751 10750 ] final  -69.45 input  -60.55 | X-H torsion
[ 11005 11000 10999 10996 ] final  120.84 input  -57.11 | X-H torsion

> <Gold.Protein.ActiveResidues>
 VAL166  LYS551  ARG553  GLY616  TRP617  ASP618  TYR619  PRO620  LYS621  CYS622 
 ASP623  PHE694  ASN695  SER759  ASP760  ASP761  ALA762  ILE779  LEU786  VAL792 
 PHE793  MET794  SER795  GLU796  ALA797  LYS798  CYS799  TRP800  GLU811  SER814 

> <Gold.Protein.RotatedAtoms>
  150.8153  134.7332  159.6724 H   0  0  0  0  0  0  0  0  0  0  0  0  # atno 6907 bound_to 6896
  152.4272  134.5842  159.9966 H   0  0  0  0  0  0  0  0  0  0  0  0  # atno 6908 bound_to 6896
  151.6041  133.3316  159.3089 H   0  0  0  0  0  0  0  0  0  0  0  0  # atno 6909 bound_to 6896
  144.8102  140.5344  143.5647 H   0  0  0  0  0  0  0  0  0  0  0  0  # atno 7974 bound_to 7965
  156.2924  140.2634  156.2508 H   0  0  0  0  0  0  0  0  0  0  0  0  # atno 8008 bound_to 7997
  154.9884  140.0389  157.2327 H   0  0  0  0  0  0  0  0  0  0  0  0  # atno 8009 bound_to 7997
  154.7708  140.2777  155.6144 H   0  0  0  0  0  0  0  0  0  0  0  0  # atno 8010 bound_to 7997
  140.7277  143.4094  151.1131 H   0  0  0  0  0  0  0  0  0  0  0  0  # atno 10167 bound_to 10162
  156.3419  130.4295  149.7780 H   0  0  0  0  0  0  0  0  0  0  0  0  # atno 10718 bound_to 10713
  154.4035  135.6025  153.5911 H   0  0  0  0  0  0  0  0  0  0  0  0  # atno 10763 bound_to 10752
  152.9788  135.5912  154.4155 H   0  0  0  0  0  0  0  0  0  0  0  0  # atno 10764 bound_to 10752
  154.3957  135.2842  155.2105 H   0  0  0  0  0  0  0  0  0  0  0  0  # atno 10765 bound_to 10752
  139.9201  134.9636  156.7868 H   0  0  0  0  0  0  0  0  0  0  0  0  # atno 11005 bound_to 11000
  145.5342  139.1475  143.3483 LP  0  0  0  0  0  0  0  0  0  0  0  0  # atno 17320 bound_to 7965
  146.2400  140.5482  142.8938 LP  0  0  0  0  0  0  0  0  0  0  0  0  # atno 17321 bound_to 7965
  139.7725  143.8473  152.3123 LP  0  0  0  0  0  0  0  0  0  0  0  0  # atno 17342 bound_to 10162
  139.8397  144.7216  150.9347 LP  0  0  0  0  0  0  0  0  0  0  0  0  # atno 17343 bound_to 10162
  156.5013  130.8130  151.3133 LP  0  0  0  0  0  0  0  0  0  0  0  0  # atno 17370 bound_to 10713
  157.7448  130.9944  150.2705 LP  0  0  0  0  0  0  0  0  0  0  0  0  # atno 17371 bound_to 10713
  140.6499  133.9740  155.7750 LP  0  0  0  0  0  0  0  0  0  0  0  0  # atno 17394 bound_to 11000
  141.0715  134.0199  157.3520 LP  0  0  0  0  0  0  0  0  0  0  0  0  # atno 17395 bound_to 11000

$$$$
