AV-unprocessed.smi:3204|AV-procd|sdf|12251|dock1
  -GOLD-   2272018 83D 1   1.00000     0.00000
 Structure written by MMmdl.
 30 31  0  0  0  0  0  0  0  0  1 V2000
  153.5500  141.1453  160.6801 C   0  0  0  0  0  0  0  0  0  0  0  0
  152.5805  142.0943  159.9663 C   0  0  0  0  0  0  0  0  0  0  0  0
  151.8393  141.4147  158.8296 C   0  0  0  0  0  0  0  0  0  0  0  0
  152.1570  140.1238  158.5835 N   0  0  0  0  0  0  0  0  0  0  0  0
  151.5091  139.5254  157.5810 C   0  0  0  0  0  0  0  0  0  0  0  0
  150.5790  140.0708  156.7930 N   0  0  0  0  0  0  0  0  0  0  0  0
  150.2524  141.3649  157.0237 C   0  0  0  0  0  0  0  0  0  0  0  0
  149.2837  141.9879  156.2241 N   0  0  0  0  0  0  0  0  0  0  0  0
  148.2696  141.2158  155.5119 C   0  0  1  0  0  0  0  0  0  0  0  0
  147.2418  142.0750  154.7877 C   0  0  0  0  0  0  0  0  0  0  0  0
  146.6092  141.1468  153.9182 O   0  0  0  0  0  0  0  0  0  0  0  0
  147.5598  140.1727  153.4873 C   0  0  0  0  0  0  0  0  0  0  0  0
  148.7982  140.3402  154.3800 C   0  0  1  0  0  0  0  0  0  0  0  0
  149.8179  140.9835  153.6350 O   0  0  0  0  0  0  0  0  0  0  0  0
  150.8733  142.0974  158.0582 C   0  0  0  0  0  0  0  0  0  0  0  0
  150.5578  143.3941  158.2961 F   0  0  0  0  0  0  0  0  0  0  0  0
  154.0680  141.6578  161.4909 H   0  0  0  0  0  0  0  0  0  0  0  0
  154.3042  140.7635  159.9913 H   0  0  0  0  0  0  0  0  0  0  0  0
  153.0236  140.2920  161.1087 H   0  0  0  0  0  0  0  0  0  0  0  0
  151.8538  142.4846  160.6800 H   0  0  0  0  0  0  0  0  0  0  0  0
  153.1249  142.9583  159.5839 H   0  0  0  0  0  0  0  0  0  0  0  0
  151.7639  138.4944  157.3859 H   0  0  0  0  0  0  0  0  0  0  0  0
  149.3142  142.9888  156.0943 H   0  0  0  0  0  0  0  0  0  0  0  0
  147.7335  140.5883  156.2257 H   0  0  0  0  0  0  0  0  0  0  0  0
  146.5272  142.5432  155.4649 H   0  0  0  0  0  0  0  0  0  0  0  0
  147.7212  142.8562  154.1952 H   0  0  0  0  0  0  0  0  0  0  0  0
  147.1194  139.1836  153.6157 H   0  0  0  0  0  0  0  0  0  0  0  0
  147.7852  140.2973  152.4270 H   0  0  0  0  0  0  0  0  0  0  0  0
  149.1749  139.3828  154.7409 H   0  0  0  0  0  0  0  0  0  0  0  0
  150.0491  140.4277  152.9067 H   0  0  0  0  0  0  0  0  0  0  0  0
  1  2  1  0  0  0  0
  1 17  1  0  0  0  0
  1 18  1  0  0  0  0
  1 19  1  0  0  0  0
  2  3  1  0  0  0  0
  2 20  1  0  0  0  0
  2 21  1  0  0  0  0
  3 15  1  0  0  0  0
  3  4  2  0  0  0  0
  4  5  1  0  0  0  0
  5  6  2  0  0  0  0
  5 22  1  0  0  0  0
  6  7  1  0  0  0  0
  7  8  1  0  0  0  0
  7 15  2  0  0  0  0
  8  9  1  0  0  0  0
  8 23  1  0  0  0  0
  9 13  1  0  0  0  0
  9 10  1  0  0  0  0
  9 24  1  0  0  0  0
 10 11  1  0  0  0  0
 10 25  1  0  0  0  0
 10 26  1  0  0  0  0
 11 12  1  0  0  0  0
 12 13  1  0  0  0  0
 12 27  1  0  0  0  0
 12 28  1  0  0  0  0
 13 14  1  0  0  0  0
 13 29  1  0  0  0  0
 14 30  1  0  0  0  0
 15 16  1  0  0  0  0
M  END
> <s_m_source_file>
AV-unprocessed.smi

> <i_m_source_file_index>
3204

> <i_lp_mmshare_version>
43012

> <i_f3d_flags>
0

> <s_epik_input>
W0NIM11bQ0gyXWMxbltjSF1uYyhjMUYpW05IXVtDQEBIXTJbQ0gyXU9bQ0gyXVtDQEhdMltPSF0=

> <s_epik_cmdline>
J2VwaWtfcHl0aG9uJywgJy1waCcsICc3LjAnLCAnLXRuJywgJzgnLCAnLW1hJywgJzIwMCcsICctbWV0YWxfYmluZGluZycsICctaW1hZScsICc8aW5maWxlLm1hZT4nLCAnLW9tYWUnLCAnPG91dGZpbGUubWFlPic=

> <r_lp_tautomer_probability>
1

> <r_epik_Ionization_Penalty>
0.000484964

> <r_epik_Ionization_Penalty_Charging>
0

> <r_epik_Ionization_Penalty_Neutral>
0.000484964

> <r_epik_State_Penalty>
-0

> <r_epik_Charging_Adjusted_Penalty>
0

> <i_epik_Tot_Q>
0

> <i_epik_Tot_abs_Q>
0

> <r_epik_Metal_State_Penalty>
-0

> <b_epik_Metal_Only>
0

> <s_lp_Force_Field>
OPLS_2005

> <r_lp_Energy>
19.2614

> <b_lp_Chiralities_Consistent>
1

> <s_lp_Variant>
AV-unprocessed.smi:3204-2

> <Gold.Version>
5.8.1

> <Gold.Id.Protein>
6NUR|6NUR_protein|mol2

> <Gold.PLP.Fitness>
38.1871

> <Gold.PLP.PLP>
-30.5517

> <Gold.PLP.part.hbond>
-3.4437

> <Gold.PLP.part.metal>
0.0000

> <Gold.PLP.part.buried>
-1.5656

> <Gold.PLP.part.nonpolar>
-25.0512

> <Gold.PLP.part.repulsive>
0.2822

> <Gold.PLP.ligand.clash>
0.0000

> <Gold.PLP.ligand.torsion>
0.1635

> <Gold.PLP.Chemscore.Hbond>
2.6488

> <Gold.PLP.Chemscore.CHOScore>
0.0000

> <Gold.PLP.Chemscore.Metal>
0.0000

> <Gold.Chemscore.Hbonds>
donor molecule, donor type, donor heavy atom, donor atom, acceptor molecule, acceptor atom, score
      L1  H     8    23       P1  8028  1.00
      L1  H    14    30       P1  7957  0.86
      P1  H  8011  8017       L1    14  0.24

> <Gold.PLP.Chemscore.Internal.Correction>
0.0159

> <Gold.Rescore>
     Score         DG    S(hbond)    S(metal)    S(lipo)     H(rot)  DE(clash)    DE(int)     intcor
     14.12     -14.57       1.96        0.00      61.91       1.83       0.05       0.41       ----

> <Gold.Chemscore.Fitness>
14.1163

> <Gold.Chemscore.DG>
-14.5722

> <Gold.Chemscore.ZeroCoef>
-5.4800

> <Gold.Chemscore.Hbond>
1.9588

> <Gold.Chemscore.Metal>
0.0000

> <Gold.Chemscore.Lipo>
61.9140

> <Gold.Chemscore.Internal_Hbond>
0.0000

> <Gold.Chemscore.DEClash>
0.0456

> <Gold.Chemscore.DEInternal>
0.4102

> <Gold.Chemscore.Rot>
1.8337

> <Gold.Chemscore.Internal.Correction>
   9.000000E+99

> <Gold.Chemscore.Hbonds>
donor molecule, donor type, donor heavy atom, donor atom, acceptor molecule, acceptor atom, score
      L1  H     8    23       P1  8028  1.00
      L1  H    14    30       P1  7957  0.85

> <Gold.Chemscore.Hbond.Weighted>
-6.5425

> <Gold.Chemscore.Metal.Weighted>
-0.0000

> <Gold.Chemscore.Lipo.Weighted>
-7.2439

> <Gold.Chemscore.Internal_Hbond.Weighted>
0.0000

> <Gold.Chemscore.DEClash.Weighted>
0.0456

> <Gold.Chemscore.DEInternal.Weighted>
0.4102

> <Gold.Chemscore.Rot.Weighted>
4.6942

> <Gold.Chemscore.Internal.Correction.Weighted>
   9.000000E+99

> <Gold.Protein.RotatedTorsions>
[ 6907 6896 6895 6894 ] final  155.89 input  -60.11 | X-H torsion
[ 7974 7965 7964 7962 ] final -148.48 input  175.53 | X-H torsion
[ 8008 7997 7996 7995 ] final  -77.28 input   59.86 | X-H torsion
[ 10167 10162 10161 10158 ] final  -96.42 input  -65.29 | X-H torsion
[ 10718 10713 10712 10709 ] final  158.72 input   66.30 | X-H torsion
[ 10763 10752 10751 10750 ] final   17.55 input  -60.55 | X-H torsion
[ 11005 11000 10999 10996 ] final  153.00 input  -57.11 | X-H torsion

> <Gold.Protein.ActiveResidues>
 VAL166  LYS551  ARG553  GLY616  TRP617  ASP618  TYR619  PRO620  LYS621  CYS622 
 ASP623  PHE694  ASN695  SER759  ASP760  ASP761  ALA762  ILE779  LEU786  VAL792 
 PHE793  MET794  SER795  GLU796  ALA797  LYS798  CYS799  TRP800  GLU811  SER814 

> <Gold.Protein.RotatedAtoms>
  152.0377  133.3964  159.4323 H   0  0  0  0  0  0  0  0  0  0  0  0  # atno 6907 bound_to 6896
  150.6877  134.3450  159.4893 H   0  0  0  0  0  0  0  0  0  0  0  0  # atno 6908 bound_to 6896
  152.1244  134.9181  160.0612 H   0  0  0  0  0  0  0  0  0  0  0  0  # atno 6909 bound_to 6896
  144.8027  140.5191  143.5696 H   0  0  0  0  0  0  0  0  0  0  0  0  # atno 7974 bound_to 7965
  154.5582  140.0713  156.8777 H   0  0  0  0  0  0  0  0  0  0  0  0  # atno 8008 bound_to 7997
  155.2862  140.3375  155.4237 H   0  0  0  0  0  0  0  0  0  0  0  0  # atno 8009 bound_to 7997
  156.2020  140.1725  156.7865 H   0  0  0  0  0  0  0  0  0  0  0  0  # atno 8010 bound_to 7997
  140.2939  143.3204  152.0317 H   0  0  0  0  0  0  0  0  0  0  0  0  # atno 10167 bound_to 10162
  157.1740  131.0616  151.2168 H   0  0  0  0  0  0  0  0  0  0  0  0  # atno 10718 bound_to 10713
  153.1328  135.6744  153.9150 H   0  0  0  0  0  0  0  0  0  0  0  0  # atno 10763 bound_to 10752
  153.8631  135.3079  155.3440 H   0  0  0  0  0  0  0  0  0  0  0  0  # atno 10764 bound_to 10752
  154.7722  135.4933  153.9754 H   0  0  0  0  0  0  0  0  0  0  0  0  # atno 10765 bound_to 10752
  140.1358  134.8772  157.2265 H   0  0  0  0  0  0  0  0  0  0  0  0  # atno 11005 bound_to 11000
  145.5514  139.1477  143.3392 LP  0  0  0  0  0  0  0  0  0  0  0  0  # atno 17320 bound_to 7965
  146.2312  140.5652  142.8975 LP  0  0  0  0  0  0  0  0  0  0  0  0  # atno 17321 bound_to 7965
  139.4931  144.6505  151.6687 LP  0  0  0  0  0  0  0  0  0  0  0  0  # atno 17342 bound_to 10162
  140.5708  144.0111  150.6216 LP  0  0  0  0  0  0  0  0  0  0  0  0  # atno 17343 bound_to 10162
  157.4016  130.7336  149.6772 LP  0  0  0  0  0  0  0  0  0  0  0  0  # atno 17370 bound_to 10713
  155.9734  130.4119  150.4005 LP  0  0  0  0  0  0  0  0  0  0  0  0  # atno 17371 bound_to 10713
  140.2784  134.3379  155.7351 LP  0  0  0  0  0  0  0  0  0  0  0  0  # atno 17394 bound_to 11000
  141.2178  133.7464  156.9327 LP  0  0  0  0  0  0  0  0  0  0  0  0  # atno 17395 bound_to 11000

$$$$
