AV-unprocessed.smi:935|AV-procd|sdf|4207|dock3
  -GOLD-   22720 2113D 1   1.00000     0.00000
 Structure written by MMmdl.
 34 35  0  0  0  0  0  0  0  0  1 V2000
  154.0527  141.0683  160.1460 C   0  0  0  0  0  0  0  0  0  0  0  0
  153.6441  142.5390  160.3113 C   0  0  0  0  0  0  0  0  0  0  0  0
  153.1302  142.8668  161.7207 C   0  0  0  0  0  0  0  0  0  0  0  0
  152.6891  142.9811  159.2473 C   0  0  0  0  0  0  0  0  0  0  0  0
  152.1648  142.1596  158.3327 N   0  0  0  0  0  0  0  0  0  0  0  0
  151.2989  142.8136  157.4511 C   0  0  0  0  0  0  0  0  0  0  0  0
  150.6139  142.0414  156.3651 C   0  0  0  0  0  0  0  0  0  0  0  0
  149.4965  141.1381  156.9130 C   0  0  0  0  0  0  0  0  0  0  0  0
  148.2658  141.2761  156.1429 N   0  0  0  0  0  0  0  0  0  0  0  0
  148.1934  141.3165  154.8039 C   0  0  0  0  0  0  0  0  0  0  0  0
  149.1843  141.2400  154.0759 O   0  0  0  0  0  0  0  0  0  0  0  0
  146.8036  141.4605  154.2761 C   0  0  0  0  0  0  0  0  0  0  0  0
  146.0430  142.7212  154.6346 C   0  0  0  0  0  0  0  0  0  0  0  0
  145.6638  141.4086  155.2734 C   0  0  0  0  0  0  0  0  0  0  0  0
  151.1735  144.1552  157.7118 C   0  0  0  0  0  0  0  0  0  0  0  0
  152.1399  144.6450  159.0757 S   0  0  0  0  0  0  0  0  0  0  0  0
  154.4901  140.8910  159.1629 H   0  0  0  0  0  0  0  0  0  0  0  0
  153.1949  140.4037  160.2538 H   0  0  0  0  0  0  0  0  0  0  0  0
  154.7920  140.7800  160.8936 H   0  0  0  0  0  0  0  0  0  0  0  0
  154.5519  143.1273  160.1715 H   0  0  0  0  0  0  0  0  0  0  0  0
  152.9272  143.9331  161.8256 H   0  0  0  0  0  0  0  0  0  0  0  0
  153.8636  142.5942  162.4799 H   0  0  0  0  0  0  0  0  0  0  0  0
  152.2079  142.3286  161.9419 H   0  0  0  0  0  0  0  0  0  0  0  0
  150.2012  142.7316  155.6285 H   0  0  0  0  0  0  0  0  0  0  0  0
  151.3424  141.4329  155.8277 H   0  0  0  0  0  0  0  0  0  0  0  0
  149.8063  140.0936  156.8670 H   0  0  0  0  0  0  0  0  0  0  0  0
  149.3075  141.3591  157.9650 H   0  0  0  0  0  0  0  0  0  0  0  0
  147.4054  141.3469  156.6667 H   0  0  0  0  0  0  0  0  0  0  0  0
  146.6104  141.0366  153.2917 H   0  0  0  0  0  0  0  0  0  0  0  0
  146.5306  143.4622  155.2656 H   0  0  0  0  0  0  0  0  0  0  0  0
  145.3797  143.1303  153.8753 H   0  0  0  0  0  0  0  0  0  0  0  0
  144.7440  140.9277  154.9468 H   0  0  0  0  0  0  0  0  0  0  0  0
  145.9003  141.2786  156.3282 H   0  0  0  0  0  0  0  0  0  0  0  0
  150.5715  144.8821  157.1871 H   0  0  0  0  0  0  0  0  0  0  0  0
  1  2  1  0  0  0  0
  1 17  1  0  0  0  0
  1 18  1  0  0  0  0
  1 19  1  0  0  0  0
  2  3  1  0  0  0  0
  2  4  1  0  0  0  0
  2 20  1  0  0  0  0
  3 21  1  0  0  0  0
  3 22  1  0  0  0  0
  3 23  1  0  0  0  0
  4 16  1  0  0  0  0
  4  5  2  0  0  0  0
  5  6  1  0  0  0  0
  6  7  1  0  0  0  0
  6 15  2  0  0  0  0
  7  8  1  0  0  0  0
  7 24  1  0  0  0  0
  7 25  1  0  0  0  0
  8  9  1  0  0  0  0
  8 26  1  0  0  0  0
  8 27  1  0  0  0  0
  9 10  1  0  0  0  0
  9 28  1  0  0  0  0
 10 11  2  0  0  0  0
 10 12  1  0  0  0  0
 12 14  1  0  0  0  0
 12 13  1  0  0  0  0
 12 29  1  0  0  0  0
 13 14  1  0  0  0  0
 13 30  1  0  0  0  0
 13 31  1  0  0  0  0
 14 32  1  0  0  0  0
 14 33  1  0  0  0  0
 15 16  1  0  0  0  0
 15 34  1  0  0  0  0
M  END
> <s_m_source_file>
AV-unprocessed.smi

> <i_m_source_file_index>
935

> <i_lp_mmshare_version>
43012

> <i_f3d_flags>
0

> <s_epik_input>
W0NIM11bQ0hdKFtDSDNdKWMxbmMoW2NIXXMxKVtDSDJdW0NIMl1bTkhdQyg9TylbQ0hdMltDSDJdW0NIMl0y

> <s_epik_cmdline>
J2VwaWtfcHl0aG9uJywgJy1waCcsICc3LjAnLCAnLXRuJywgJzgnLCAnLW1hJywgJzIwMCcsICctbWV0YWxfYmluZGluZycsICctaW1hZScsICc8aW5maWxlLm1hZT4nLCAnLW9tYWUnLCAnPG91dGZpbGUubWFlPic=

> <r_epik_Ionization_Penalty>
0.000842127

> <r_epik_Ionization_Penalty_Charging>
0

> <r_epik_Ionization_Penalty_Neutral>
0.000842127

> <r_epik_State_Penalty>
0.000542609

> <r_epik_Charging_Adjusted_Penalty>
0.000542609

> <i_epik_Tot_Q>
0

> <i_epik_Tot_abs_Q>
0

> <r_epik_Metal_State_Penalty>
-0

> <b_epik_Metal_Only>
0

> <s_lp_Force_Field>
OPLS_2005

> <r_lp_Energy>
-5.7146

> <b_lp_Chiralities_Consistent>
1

> <s_lp_Variant>
AV-unprocessed.smi:935-1

> <Gold.Version>
5.8.1

> <Gold.Id.Protein>
6NUR|6NUR_protein|mol2

> <Gold.PLP.Fitness>
49.2109

> <Gold.PLP.PLP>
-44.3982

> <Gold.PLP.part.hbond>
-2.1594

> <Gold.PLP.part.metal>
0.0000

> <Gold.PLP.part.buried>
-4.4806

> <Gold.PLP.part.nonpolar>
-38.8768

> <Gold.PLP.part.repulsive>
0.8187

> <Gold.PLP.ligand.clash>
0.1229

> <Gold.PLP.ligand.torsion>
0.6699

> <Gold.PLP.Chemscore.Hbond>
1.0382

> <Gold.PLP.Chemscore.CHOScore>
1.0000

> <Gold.PLP.Chemscore.Metal>
0.0000

> <Gold.Chemscore.Hbonds>
donor molecule, donor type, donor heavy atom, donor atom, acceptor molecule, acceptor atom, score
      P1  H  8011  8017       L1    11  0.47
      L1  C    15    34       P1  8028  1.00

> <Gold.PLP.Chemscore.Internal.Correction>
0.1609

> <Gold.Rescore>
     Score         DG    S(hbond)    S(metal)    S(lipo)     H(rot)  DE(clash)    DE(int)     intcor
     14.61     -17.66       1.04        0.00     108.45       1.55       1.34       1.71       ----

> <Gold.Chemscore.Fitness>
14.6104

> <Gold.Chemscore.DG>
-17.6616

> <Gold.Chemscore.ZeroCoef>
-5.4800

> <Gold.Chemscore.Hbond>
1.0387

> <Gold.Chemscore.Metal>
0.0000

> <Gold.Chemscore.Lipo>
108.4539

> <Gold.Chemscore.Internal_Hbond>
0.0000

> <Gold.Chemscore.DEClash>
1.3428

> <Gold.Chemscore.DEInternal>
1.7084

> <Gold.Chemscore.Rot>
1.5534

> <Gold.Chemscore.Internal.Correction>
   9.000000E+99

> <Gold.Chemscore.Hbonds>
donor molecule, donor type, donor heavy atom, donor atom, acceptor molecule, acceptor atom, score
      P1  H  8011  8017       L1    11  0.47

> <Gold.Chemscore.Hbond.Weighted>
-3.4692

> <Gold.Chemscore.Metal.Weighted>
-0.0000

> <Gold.Chemscore.Lipo.Weighted>
-12.6891

> <Gold.Chemscore.Internal_Hbond.Weighted>
0.0000

> <Gold.Chemscore.DEClash.Weighted>
1.3428

> <Gold.Chemscore.DEInternal.Weighted>
1.7084

> <Gold.Chemscore.Rot.Weighted>
3.9767

> <Gold.Chemscore.Internal.Correction.Weighted>
   9.000000E+99

> <Gold.Protein.RotatedTorsions>
[ 6907 6896 6895 6894 ] final  -75.71 input  -60.11 | X-H torsion
[ 7974 7965 7964 7962 ] final  119.39 input  175.53 | X-H torsion
[ 8008 7997 7996 7995 ] final -173.52 input   59.86 | X-H torsion
[ 10167 10162 10161 10158 ] final   71.20 input  -65.29 | X-H torsion
[ 10718 10713 10712 10709 ] final  -51.36 input   66.30 | X-H torsion
[ 10763 10752 10751 10750 ] final  175.10 input  -60.55 | X-H torsion
[ 11005 11000 10999 10996 ] final  -15.92 input  -57.11 | X-H torsion

> <Gold.Protein.ActiveResidues>
 VAL166  LYS551  ARG553  GLY616  TRP617  ASP618  TYR619  PRO620  LYS621  CYS622 
 ASP623  PHE694  ASN695  SER759  ASP760  ASP761  ALA762  ILE779  LEU786  VAL792 
 PHE793  MET794  SER795  GLU796  ALA797  LYS798  CYS799  TRP800  GLU811  SER814 

> <Gold.Protein.RotatedAtoms>
  150.7050  134.4681  159.5411 H   0  0  0  0  0  0  0  0  0  0  0  0  # atno 6907 bound_to 6896
  152.2342  134.8289  160.0478 H   0  0  0  0  0  0  0  0  0  0  0  0  # atno 6908 bound_to 6896
  151.9094  133.3522  159.3895 H   0  0  0  0  0  0  0  0  0  0  0  0  # atno 6909 bound_to 6896
  145.1437  139.3252  143.4602 H   0  0  0  0  0  0  0  0  0  0  0  0  # atno 7974 bound_to 7965
  155.9585  140.1140  157.0916 H   0  0  0  0  0  0  0  0  0  0  0  0  # atno 8008 bound_to 7997
  154.4126  140.1186  156.5213 H   0  0  0  0  0  0  0  0  0  0  0  0  # atno 8009 bound_to 7997
  155.6751  140.3473  155.4836 H   0  0  0  0  0  0  0  0  0  0  0  0  # atno 8010 bound_to 7997
  140.0487  144.5330  150.7379 H   0  0  0  0  0  0  0  0  0  0  0  0  # atno 10167 bound_to 10162
  156.1717  130.4149  149.9637 H   0  0  0  0  0  0  0  0  0  0  0  0  # atno 10718 bound_to 10713
  154.4630  135.2768  155.1699 H   0  0  0  0  0  0  0  0  0  0  0  0  # atno 10763 bound_to 10752
  154.3479  135.6156  153.5632 H   0  0  0  0  0  0  0  0  0  0  0  0  # atno 10764 bound_to 10752
  152.9856  135.5804  154.4996 H   0  0  0  0  0  0  0  0  0  0  0  0  # atno 10765 bound_to 10752
  140.8016  133.8210  155.9475 H   0  0  0  0  0  0  0  0  0  0  0  0  # atno 11005 bound_to 11000
  146.3502  140.1485  142.8593 LP  0  0  0  0  0  0  0  0  0  0  0  0  # atno 17320 bound_to 7965
  145.0504  140.9013  143.4999 LP  0  0  0  0  0  0  0  0  0  0  0  0  # atno 17321 bound_to 7965
  140.7227  143.2604  151.4225 LP  0  0  0  0  0  0  0  0  0  0  0  0  # atno 17342 bound_to 10162
  139.5967  144.1382  152.2152 LP  0  0  0  0  0  0  0  0  0  0  0  0  # atno 17343 bound_to 10162
  156.7435  130.9088  151.3633 LP  0  0  0  0  0  0  0  0  0  0  0  0  # atno 17370 bound_to 10713
  157.6807  130.9137  150.0261 LP  0  0  0  0  0  0  0  0  0  0  0  0  # atno 17371 bound_to 10713
  140.9289  134.2047  157.4877 LP  0  0  0  0  0  0  0  0  0  0  0  0  # atno 17394 bound_to 11000
  139.8721  134.9824  156.5156 LP  0  0  0  0  0  0  0  0  0  0  0  0  # atno 17395 bound_to 11000

$$$$
