AV-unprocessed.smi:910|AV-procd|sdf|4132|dock7
  -GOLD-   22720 2 33D 1   1.00000     0.00000
 Structure written by MMmdl.
 45 46  0  0  0  0  0  0  0  0  2 V2000
  145.2088  133.7240  162.8919 C   0  0  0  0  0  0  0  0  0  0  0  0
  145.9714  134.9530  162.5094 C   0  0  0  0  0  0  0  0  0  0  0  0
  147.2627  134.8985  162.0072 N   0  0  0  0  0  0  0  0  0  0  0  0
  147.6204  136.1646  161.7842 C   0  0  0  0  0  0  0  0  0  0  0  0
  148.7960  136.5819  161.2876 N   0  5  0  0  0  0  0  0  0  0  0  0
  149.1042  136.3427  159.9931 C   0  0  0  0  0  0  0  0  0  0  0  0
  148.7327  135.3793  159.3186 O   0  0  0  0  0  0  0  0  0  0  0  0
  149.8926  137.2786  159.4451 N   0  0  0  0  0  0  0  0  0  0  0  0
  150.3891  137.2843  158.0731 C   0  0  0  0  0  0  0  0  0  0  0  0
  151.4076  138.4094  157.8443 C   0  0  0  0  0  0  0  0  0  0  0  0
  150.7932  139.6564  158.1367 O   0  0  0  0  0  0  0  0  0  0  0  0
  151.6971  140.7501  158.2303 C   0  0  2  0  0  0  0  0  0  0  0  0
  152.3534  140.7587  159.6277 C   0  0  0  0  0  0  0  0  0  0  0  0
  153.2414  141.9961  159.8262 C   0  0  0  0  0  0  0  0  0  0  0  0
  152.4486  143.2887  159.5881 C   0  0  0  0  0  0  0  0  0  0  0  0
  151.7945  143.2870  158.1982 C   0  0  0  0  0  0  0  0  0  0  0  0
  150.8977  142.0504  157.9877 C   0  0  1  0  0  0  0  0  0  0  0  0
  150.2602  142.0766  156.5889 C   0  0  0  0  0  0  0  0  0  0  0  0
  146.6271  137.0419  162.1054 O   0  0  0  0  0  0  0  0  0  0  0  0
  145.5956  136.2682  162.5629 C   0  0  0  0  0  0  0  0  0  0  0  0
  144.3465  136.9546  162.9995 C   0  0  0  0  0  0  0  0  0  0  0  0
  144.3882  133.5409  162.1984 H   0  0  0  0  0  0  0  0  0  0  0  0
  144.7838  133.8213  163.8910 H   0  0  0  0  0  0  0  0  0  0  0  0
  145.8473  132.8400  162.8901 H   0  0  0  0  0  0  0  0  0  0  0  0
  150.1771  138.0469  160.0348 H   0  0  0  0  0  0  0  0  0  0  0  0
  150.8363  136.3176  157.8362 H   0  0  0  0  0  0  0  0  0  0  0  0
  149.5419  137.4056  157.3979 H   0  0  0  0  0  0  0  0  0  0  0  0
  152.2945  138.2485  158.4574 H   0  0  0  0  0  0  0  0  0  0  0  0
  151.7297  138.4008  156.8023 H   0  0  0  0  0  0  0  0  0  0  0  0
  152.4685  140.6693  157.4617 H   0  0  0  0  0  0  0  0  0  0  0  0
  151.5778  140.7410  160.3946 H   0  0  0  0  0  0  0  0  0  0  0  0
  152.9529  139.8613  159.7785 H   0  0  0  0  0  0  0  0  0  0  0  0
  153.6592  141.9962  160.8332 H   0  0  0  0  0  0  0  0  0  0  0  0
  154.0874  141.9529  159.1391 H   0  0  0  0  0  0  0  0  0  0  0  0
  151.6805  143.3947  160.3552 H   0  0  0  0  0  0  0  0  0  0  0  0
  153.1069  144.1523  159.6877 H   0  0  0  0  0  0  0  0  0  0  0  0
  151.2092  144.1984  158.0713 H   0  0  0  0  0  0  0  0  0  0  0  0
  152.5715  143.3115  157.4326 H   0  0  0  0  0  0  0  0  0  0  0  0
  150.0905  142.0936  158.7208 H   0  0  0  0  0  0  0  0  0  0  0  0
  151.0179  142.0202  155.8069 H   0  0  0  0  0  0  0  0  0  0  0  0
  149.6899  142.9930  156.4357 H   0  0  0  0  0  0  0  0  0  0  0  0
  149.5754  141.2402  156.4484 H   0  0  0  0  0  0  0  0  0  0  0  0
  144.1400  136.7474  164.0495 H   0  0  0  0  0  0  0  0  0  0  0  0
  143.4943  136.6126  162.4123 H   0  0  0  0  0  0  0  0  0  0  0  0
  144.4296  138.0348  162.8777 H   0  0  0  0  0  0  0  0  0  0  0  0
  1 22  1  0  0  0  0
  1 23  1  0  0  0  0
  1 24  1  0  0  0  0
  1  2  1  0  0  0  0
  2  3  1  0  0  0  0
  2 20  2  0  0  0  0
  3  4  2  0  0  0  0
  4 19  1  0  0  0  0
  4  5  1  0  0  0  0
  5  6  1  0  0  0  0
  6  8  1  0  0  0  0
  6  7  2  0  0  0  0
  8  9  1  0  0  0  0
  8 25  1  0  0  0  0
  9 10  1  0  0  0  0
  9 26  1  0  0  0  0
  9 27  1  0  0  0  0
 10 11  1  0  0  0  0
 10 28  1  0  0  0  0
 10 29  1  0  0  0  0
 11 12  1  0  0  0  0
 12 17  1  0  0  0  0
 12 13  1  0  0  0  0
 12 30  1  0  0  0  0
 13 14  1  0  0  0  0
 13 31  1  0  0  0  0
 13 32  1  0  0  0  0
 14 15  1  0  0  0  0
 14 33  1  0  0  0  0
 14 34  1  0  0  0  0
 15 16  1  0  0  0  0
 15 35  1  0  0  0  0
 15 36  1  0  0  0  0
 16 17  1  0  0  0  0
 16 37  1  0  0  0  0
 16 38  1  0  0  0  0
 17 18  1  0  0  0  0
 17 39  1  0  0  0  0
 18 40  1  0  0  0  0
 18 41  1  0  0  0  0
 18 42  1  0  0  0  0
 19 20  1  0  0  0  0
 20 21  1  0  0  0  0
 21 43  1  0  0  0  0
 21 44  1  0  0  0  0
 21 45  1  0  0  0  0
M  CHG  1   5  -1
M  END
> <s_m_source_file>
AV-unprocessed.smi

> <i_m_source_file_index>
910

> <i_lp_mmshare_version>
43012

> <i_f3d_flags>
0

> <s_epik_input>
W0NIM11jMW5jKG9jMVtDSDNdKVtOSF1DKD1PKVtOSF1bQ0gyXVtDSDJdT1tDQEBIXTJbQ0gyXVtDSDJdW0NIMl1bQ0gyXVtDQEhdMltDSDNd

> <s_epik_cmdline>
J2VwaWtfcHl0aG9uJywgJy1waCcsICc3LjAnLCAnLXRuJywgJzgnLCAnLW1hJywgJzIwMCcsICctbWV0YWxfYmluZGluZycsICctaW1hZScsICc8aW5maWxlLm1hZT4nLCAnLW9tYWUnLCAnPG91dGZpbGUubWFlPic=

> <r_lp_tautomer_probability>
0.107061

> <r_epik_Ionization_Penalty>
10.1763

> <r_epik_Ionization_Penalty_Charging>
7.13067

> <r_epik_Ionization_Penalty_Neutral>
3.04564

> <r_epik_State_Penalty>
5.57927

> <r_epik_Charging_Adjusted_Penalty>
12.7099

> <i_epik_Tot_Q>
-1

> <i_epik_Tot_abs_Q>
1

> <r_epik_Metal_State_Penalty>
1.52303

> <b_epik_Metal_Only>
1

> <s_lp_Force_Field>
OPLS_2005

> <r_lp_Energy>
4.71476

> <b_lp_Chiralities_Consistent>
1

> <s_lp_Variant>
AV-unprocessed.smi:910-17

> <Gold.Version>
5.8.1

> <Gold.Id.Protein>
6NUR|6NUR_protein|mol2

> <Gold.PLP.Fitness>
48.5113

> <Gold.PLP.PLP>
-38.7433

> <Gold.PLP.part.hbond>
-3.2856

> <Gold.PLP.part.metal>
0.0000

> <Gold.PLP.part.buried>
-6.2529

> <Gold.PLP.part.nonpolar>
-31.0550

> <Gold.PLP.part.repulsive>
0.6485

> <Gold.PLP.ligand.clash>
0.0000

> <Gold.PLP.ligand.torsion>
1.1413

> <Gold.PLP.Chemscore.Hbond>
4.0000

> <Gold.PLP.Chemscore.CHOScore>
0.0000

> <Gold.PLP.Chemscore.Metal>
0.0000

> <Gold.Chemscore.Hbonds>
donor molecule, donor type, donor heavy atom, donor atom, acceptor molecule, acceptor atom, score
      P1  H  6896  6908       L1     7  0.39
      P1  H  6931  6943       L1     5  2.00
      P1  H  6934  6947       L1    19  0.17

> <Gold.PLP.Chemscore.Internal.Correction>
0.0506

> <Gold.Rescore>
     Score         DG    S(hbond)    S(metal)    S(lipo)     H(rot)  DE(clash)    DE(int)     intcor
     17.89     -19.55       2.25        0.00      91.40       1.62       0.02       1.63       ----

> <Gold.Chemscore.Fitness>
17.8894

> <Gold.Chemscore.DG>
-19.5451

> <Gold.Chemscore.ZeroCoef>
-5.4800

> <Gold.Chemscore.Hbond>
2.2485

> <Gold.Chemscore.Metal>
0.0000

> <Gold.Chemscore.Lipo>
91.4048

> <Gold.Chemscore.Internal_Hbond>
0.0000

> <Gold.Chemscore.DEClash>
0.0238

> <Gold.Chemscore.DEInternal>
1.6318

> <Gold.Chemscore.Rot>
1.6169

> <Gold.Chemscore.Internal.Correction>
   9.000000E+99

> <Gold.Chemscore.Hbonds>
donor molecule, donor type, donor heavy atom, donor atom, acceptor molecule, acceptor atom, score
      P1  H  6896  6908       L1     7  0.02
      P1  H  6931  6943       L1     5  0.57
      P1  H  6934  6947       L1    19  0.08

> <Gold.Chemscore.Hbond.Weighted>
-7.5099

> <Gold.Chemscore.Metal.Weighted>
-0.0000

> <Gold.Chemscore.Lipo.Weighted>
-10.6944

> <Gold.Chemscore.Internal_Hbond.Weighted>
0.0000

> <Gold.Chemscore.DEClash.Weighted>
0.0238

> <Gold.Chemscore.DEInternal.Weighted>
1.6318

> <Gold.Chemscore.Rot.Weighted>
4.1393

> <Gold.Chemscore.Internal.Correction.Weighted>
   9.000000E+99

> <Gold.Protein.RotatedTorsions>
[ 6907 6896 6895 6894 ] final  162.59 input  -60.11 | X-H torsion
[ 7974 7965 7964 7962 ] final -149.03 input  175.53 | X-H torsion
[ 8008 7997 7996 7995 ] final   72.73 input   59.86 | X-H torsion
[ 10167 10162 10161 10158 ] final   73.32 input  -65.29 | X-H torsion
[ 10718 10713 10712 10709 ] final   98.21 input   66.30 | X-H torsion
[ 10763 10752 10751 10750 ] final  117.43 input  -60.55 | X-H torsion
[ 11005 11000 10999 10996 ] final   99.08 input  -57.11 | X-H torsion

> <Gold.Protein.ActiveResidues>
 VAL166  LYS551  ARG553  GLY616  TRP617  ASP618  TYR619  PRO620  LYS621  CYS622 
 ASP623  PHE694  ASN695  SER759  ASP760  ASP761  ALA762  ILE779  LEU786  VAL792 
 PHE793  MET794  SER795  GLU796  ALA797  LYS798  CYS799  TRP800  GLU811  SER814 

> <Gold.Protein.RotatedAtoms>
  151.9382  133.3630  159.3955 H   0  0  0  0  0  0  0  0  0  0  0  0  # atno 6907 bound_to 6896
  150.7003  134.4467  159.5326 H   0  0  0  0  0  0  0  0  0  0  0  0  # atno 6908 bound_to 6896
  152.2119  134.8493  160.0547 H   0  0  0  0  0  0  0  0  0  0  0  0  # atno 6909 bound_to 6896
  144.7992  140.5118  143.5718 H   0  0  0  0  0  0  0  0  0  0  0  0  # atno 7974 bound_to 7965
  155.7731  140.3484  155.5257 H   0  0  0  0  0  0  0  0  0  0  0  0  # atno 8008 bound_to 7997
  155.8802  140.1001  157.1511 H   0  0  0  0  0  0  0  0  0  0  0  0  # atno 8009 bound_to 7997
  154.4024  140.1324  156.4174 H   0  0  0  0  0  0  0  0  0  0  0  0  # atno 8010 bound_to 7997
  140.0257  144.5505  150.7546 H   0  0  0  0  0  0  0  0  0  0  0  0  # atno 10167 bound_to 10162
  157.6899  131.0633  150.4762 H   0  0  0  0  0  0  0  0  0  0  0  0  # atno 10718 bound_to 10713
  153.5523  135.3537  155.2764 H   0  0  0  0  0  0  0  0  0  0  0  0  # atno 10763 bound_to 10752
  154.8705  135.4116  154.2924 H   0  0  0  0  0  0  0  0  0  0  0  0  # atno 10764 bound_to 10752
  153.3652  135.7062  153.6749 H   0  0  0  0  0  0  0  0  0  0  0  0  # atno 10765 bound_to 10752
  139.8771  134.9079  156.4552 H   0  0  0  0  0  0  0  0  0  0  0  0  # atno 11005 bound_to 11000
  145.5595  139.1479  143.3349 LP  0  0  0  0  0  0  0  0  0  0  0  0  # atno 17320 bound_to 7965
  146.2269  140.5731  142.8992 LP  0  0  0  0  0  0  0  0  0  0  0  0  # atno 17321 bound_to 7965
  140.7323  143.2705  151.3905 LP  0  0  0  0  0  0  0  0  0  0  0  0  # atno 17342 bound_to 10162
  139.6110  144.1099  152.2298 LP  0  0  0  0  0  0  0  0  0  0  0  0  # atno 17343 bound_to 10162
  156.5096  130.4136  149.6308 LP  0  0  0  0  0  0  0  0  0  0  0  0  # atno 17370 bound_to 10713
  156.3252  130.7302  151.2222 LP  0  0  0  0  0  0  0  0  0  0  0  0  # atno 17371 bound_to 10713
  140.8903  133.7853  155.9565 LP  0  0  0  0  0  0  0  0  0  0  0  0  # atno 17394 bound_to 11000
  140.8760  134.2669  157.5168 LP  0  0  0  0  0  0  0  0  0  0  0  0  # atno 17395 bound_to 11000

$$$$
