AV-unprocessed.smi:3232|AV-procd|sdf|12345|dock4
  -GOLD-   2272018203D 1   1.00000     0.00000
 Structure written by MMmdl.
 40 41  0  0  0  0  0  0  0  0  2 V2000
  146.5411  141.2481  154.6158 C   0  0  0  0  0  0  0  0  0  0  0  0
  147.6397  141.4950  153.5724 C   0  0  0  0  0  0  0  0  0  0  0  0
  148.8524  140.6782  153.8274 N   0  3  2  0  0  0  0  0  0  0  0  0
  148.5929  139.2373  154.0482 C   0  0  0  0  0  0  0  0  0  0  0  0
  149.7353  138.7167  154.9323 C   0  0  0  0  0  0  0  0  0  0  0  0
  150.6955  139.8976  155.0672 C   0  0  0  0  0  0  0  0  0  0  0  0
  149.7953  141.1267  154.8834 C   0  0  2  0  0  0  0  0  0  0  0  0
  149.0872  141.5768  156.1890 C   0  0  0  0  0  0  0  0  0  0  0  0
  149.8868  142.5420  156.9363 N   0  0  0  0  0  0  0  0  0  0  0  0
  150.5165  142.2976  158.0973 C   0  0  0  0  0  0  0  0  0  0  0  0
  150.4334  141.2227  158.6927 O   0  0  0  0  0  0  0  0  0  0  0  0
  151.3903  143.4371  158.6468 C   0  0  1  0  0  0  0  0  0  0  0  0
  150.6118  144.7527  158.8461 C   0  0  0  0  0  0  0  0  0  0  0  0
  152.0563  143.0133  159.8728 N   0  0  0  0  0  0  0  0  0  0  0  0
  152.9091  142.0086  160.0845 C   0  0  0  0  0  0  0  0  0  0  0  0
  153.2904  141.8836  161.3479 N   0  0  0  0  0  0  0  0  0  0  0  0
  152.5860  142.9143  161.9025 C   0  0  0  0  0  0  0  0  0  0  0  0
  151.8244  143.6177  161.0651 N   0  0  0  0  0  0  0  0  0  0  0  0
  145.6883  141.9039  154.4388 H   0  0  0  0  0  0  0  0  0  0  0  0
  146.9054  141.4451  155.6247 H   0  0  0  0  0  0  0  0  0  0  0  0
  146.1753  140.2219  154.5858 H   0  0  0  0  0  0  0  0  0  0  0  0
  147.2623  141.3312  152.5629 H   0  0  0  0  0  0  0  0  0  0  0  0
  147.9260  142.5465  153.6188 H   0  0  0  0  0  0  0  0  0  0  0  0
  147.6357  139.0875  154.5504 H   0  0  0  0  0  0  0  0  0  0  0  0
  148.5522  138.7186  153.0899 H   0  0  0  0  0  0  0  0  0  0  0  0
  149.3476  138.4396  155.9135 H   0  0  0  0  0  0  0  0  0  0  0  0
  150.2234  137.8378  154.5102 H   0  0  0  0  0  0  0  0  0  0  0  0
  151.2615  139.8808  155.9979 H   0  0  0  0  0  0  0  0  0  0  0  0
  151.4225  139.8617  154.2547 H   0  0  0  0  0  0  0  0  0  0  0  0
  150.3868  141.9607  154.5032 H   0  0  0  0  0  0  0  0  0  0  0  0
  148.1471  142.0772  155.9585 H   0  0  0  0  0  0  0  0  0  0  0  0
  148.8272  140.7149  156.8058 H   0  0  0  0  0  0  0  0  0  0  0  0
  150.0048  143.4543  156.5198 H   0  0  0  0  0  0  0  0  0  0  0  0
  152.1684  143.6289  157.9061 H   0  0  0  0  0  0  0  0  0  0  0  0
  150.1617  145.0898  157.9114 H   0  0  0  0  0  0  0  0  0  0  0  0
  151.2744  145.5463  159.1925 H   0  0  0  0  0  0  0  0  0  0  0  0
  149.8118  144.6482  159.5802 H   0  0  0  0  0  0  0  0  0  0  0  0
  153.2541  141.3517  159.2995 H   0  0  0  0  0  0  0  0  0  0  0  0
  152.6301  143.1488  162.9557 H   0  0  0  0  0  0  0  0  0  0  0  0
  149.3910  140.7106  152.9734 H   0  0  0  0  0  0  0  0  0  0  0  0
  1  2  1  0  0  0  0
  1 19  1  0  0  0  0
  1 20  1  0  0  0  0
  1 21  1  0  0  0  0
  2  3  1  0  0  0  0
  2 22  1  0  0  0  0
  2 23  1  0  0  0  0
  3  7  1  0  0  0  0
  3  4  1  0  0  0  0
  3 40  1  0  0  0  0
  4  5  1  0  0  0  0
  4 24  1  0  0  0  0
  4 25  1  0  0  0  0
  5  6  1  0  0  0  0
  5 26  1  0  0  0  0
  5 27  1  0  0  0  0
  6  7  1  0  0  0  0
  6 28  1  0  0  0  0
  6 29  1  0  0  0  0
  7  8  1  0  0  0  0
  7 30  1  0  0  0  0
  8  9  1  0  0  0  0
  8 31  1  0  0  0  0
  8 32  1  0  0  0  0
  9 10  1  0  0  0  0
  9 33  1  0  0  0  0
 10 11  2  0  0  0  0
 10 12  1  0  0  0  0
 12 13  1  0  0  0  0
 12 14  1  0  0  0  0
 12 34  1  0  0  0  0
 13 35  1  0  0  0  0
 13 36  1  0  0  0  0
 13 37  1  0  0  0  0
 14 18  1  0  0  0  0
 14 15  1  0  0  0  0
 15 16  2  0  0  0  0
 15 38  1  0  0  0  0
 16 17  1  0  0  0  0
 17 18  2  0  0  0  0
 17 39  1  0  0  0  0
M  CHG  1   3   1
M  END
> <s_m_source_file>
AV-unprocessed.smi

> <i_m_source_file_index>
3232

> <i_lp_mmshare_version>
43012

> <i_f3d_flags>
0

> <s_epik_input>
W0NIM11bQ0gyXU4xW0NIMl1bQ0gyXVtDSDJdW0NASF0xW0NIMl1bTkhdQyg9TylbQ0BIXShbQ0gzXSluMltjSF1uW2NIXW4y

> <s_epik_cmdline>
J2VwaWtfcHl0aG9uJywgJy1waCcsICc3LjAnLCAnLXRuJywgJzgnLCAnLW1hJywgJzIwMCcsICctbWV0YWxfYmluZGluZycsICctaW1hZScsICc8aW5maWxlLm1hZT4nLCAnLW9tYWUnLCAnPG91dGZpbGUubWFlPic=

> <r_lp_tautomer_probability>
1

> <r_epik_Ionization_Penalty>
0.00177695

> <r_epik_Ionization_Penalty_Charging>
0.00176881

> <r_epik_Ionization_Penalty_Neutral>
8.13528e-06

> <r_epik_State_Penalty>
0.00119827

> <r_epik_Charging_Adjusted_Penalty>
0.00296709

> <i_epik_Tot_Q>
1

> <i_epik_Tot_abs_Q>
1

> <r_epik_Metal_State_Penalty>
-0

> <b_epik_Metal_Only>
0

> <s_lp_Force_Field>
OPLS_2005

> <r_lp_Energy>
36.5981

> <b_lp_Chiralities_Consistent>
1

> <s_lp_Variant>
AV-unprocessed.smi:3232-7

> <Gold.Version>
5.8.1

> <Gold.Id.Protein>
6NUR|6NUR_protein|mol2

> <Gold.PLP.Fitness>
42.2447

> <Gold.PLP.PLP>
-38.0539

> <Gold.PLP.part.hbond>
-2.0479

> <Gold.PLP.part.metal>
0.0000

> <Gold.PLP.part.buried>
-4.7910

> <Gold.PLP.part.nonpolar>
-31.6376

> <Gold.PLP.part.repulsive>
0.3042

> <Gold.PLP.ligand.clash>
0.0000

> <Gold.PLP.ligand.torsion>
0.5849

> <Gold.PLP.Chemscore.Hbond>
1.7440

> <Gold.PLP.Chemscore.CHOScore>
0.0000

> <Gold.PLP.Chemscore.Metal>
0.0000

> <Gold.Chemscore.Hbonds>
donor molecule, donor type, donor heavy atom, donor atom, acceptor molecule, acceptor atom, score
      L1  H     3    40       P1  7957  0.94
      L1  H     9    33       P1  8028  0.74

> <Gold.PLP.Chemscore.Internal.Correction>
0.1287

> <Gold.Rescore>
     Score         DG    S(hbond)    S(metal)    S(lipo)     H(rot)  DE(clash)    DE(int)     intcor
     11.32     -12.52       1.83        0.00      62.43       2.49       0.11       1.09       ----

> <Gold.Chemscore.Fitness>
11.3205

> <Gold.Chemscore.DG>
-12.5159

> <Gold.Chemscore.ZeroCoef>
-5.4800

> <Gold.Chemscore.Hbond>
1.8268

> <Gold.Chemscore.Metal>
0.0000

> <Gold.Chemscore.Lipo>
62.4290

> <Gold.Chemscore.Internal_Hbond>
0.0000

> <Gold.Chemscore.DEClash>
0.1098

> <Gold.Chemscore.DEInternal>
1.0857

> <Gold.Chemscore.Rot>
2.4882

> <Gold.Chemscore.Internal.Correction>
   9.000000E+99

> <Gold.Chemscore.Hbonds>
donor molecule, donor type, donor heavy atom, donor atom, acceptor molecule, acceptor atom, score
      L1  H     3    40       P1  7957  0.90
      L1  H     9    33       P1  8028  0.74

> <Gold.Chemscore.Hbond.Weighted>
-6.1015

> <Gold.Chemscore.Metal.Weighted>
-0.0000

> <Gold.Chemscore.Lipo.Weighted>
-7.3042

> <Gold.Chemscore.Internal_Hbond.Weighted>
0.0000

> <Gold.Chemscore.DEClash.Weighted>
0.1098

> <Gold.Chemscore.DEInternal.Weighted>
1.0857

> <Gold.Chemscore.Rot.Weighted>
6.3697

> <Gold.Chemscore.Internal.Correction.Weighted>
   9.000000E+99

> <Gold.Protein.RotatedTorsions>
[ 6907 6896 6895 6894 ] final  -24.19 input  -60.11 | X-H torsion
[ 7974 7965 7964 7962 ] final -106.34 input  175.53 | X-H torsion
[ 8008 7997 7996 7995 ] final  -11.97 input   59.86 | X-H torsion
[ 10167 10162 10161 10158 ] final   88.36 input  -65.29 | X-H torsion
[ 10718 10713 10712 10709 ] final  152.47 input   66.30 | X-H torsion
[ 10763 10752 10751 10750 ] final -172.49 input  -60.55 | X-H torsion
[ 11005 11000 10999 10996 ] final   13.72 input  -57.11 | X-H torsion

> <Gold.Protein.ActiveResidues>
 VAL166  LYS551  ARG553  GLY616  TRP617  ASP618  TYR619  PRO620  LYS621  CYS622 
 ASP623  PHE694  ASN695  SER759  ASP760  ASP761  ALA762  ILE779  LEU786  VAL792 
 PHE793  MET794  SER795  GLU796  ALA797  LYS798  CYS799  TRP800  GLU811  SER814 

> <Gold.Protein.RotatedAtoms>
  151.1931  135.0411  159.8840 H   0  0  0  0  0  0  0  0  0  0  0  0  # atno 6907 bound_to 6896
  152.5438  134.0934  159.8297 H   0  0  0  0  0  0  0  0  0  0  0  0  # atno 6908 bound_to 6896
  151.1065  133.5157  159.2639 H   0  0  0  0  0  0  0  0  0  0  0  0  # atno 6909 bound_to 6896
  145.2191  140.9127  143.3270 H   0  0  0  0  0  0  0  0  0  0  0  0  # atno 7974 bound_to 7965
  154.5418  140.2288  155.8628 H   0  0  0  0  0  0  0  0  0  0  0  0  # atno 8008 bound_to 7997
  156.1865  140.3087  155.9211 H   0  0  0  0  0  0  0  0  0  0  0  0  # atno 8009 bound_to 7997
  155.3243  140.0442  157.3031 H   0  0  0  0  0  0  0  0  0  0  0  0  # atno 8010 bound_to 7997
  139.8680  144.6508  150.8982 H   0  0  0  0  0  0  0  0  0  0  0  0  # atno 10167 bound_to 10162
  157.2574  131.0791  151.1689 H   0  0  0  0  0  0  0  0  0  0  0  0  # atno 10718 bound_to 10713
  154.6187  135.2873  155.0350 H   0  0  0  0  0  0  0  0  0  0  0  0  # atno 10763 bound_to 10752
  154.1553  135.6497  153.4977 H   0  0  0  0  0  0  0  0  0  0  0  0  # atno 10764 bound_to 10752
  153.0226  135.5365  154.6968 H   0  0  0  0  0  0  0  0  0  0  0  0  # atno 10765 bound_to 10752
  140.4776  134.0968  155.7744 H   0  0  0  0  0  0  0  0  0  0  0  0  # atno 11005 bound_to 11000
  144.9782  139.3810  143.6275 LP  0  0  0  0  0  0  0  0  0  0  0  0  # atno 17320 bound_to 7965
  146.3380  139.8911  142.8809 LP  0  0  0  0  0  0  0  0  0  0  0  0  # atno 17321 bound_to 7965
  140.7765  143.3688  151.1689 LP  0  0  0  0  0  0  0  0  0  0  0  0  # atno 17342 bound_to 10162
  139.7311  143.9072  152.3019 LP  0  0  0  0  0  0  0  0  0  0  0  0  # atno 17343 bound_to 10162
  157.3212  130.6938  149.6270 LP  0  0  0  0  0  0  0  0  0  0  0  0  # atno 17370 bound_to 10713
  155.9664  130.4335  150.5008 LP  0  0  0  0  0  0  0  0  0  0  0  0  # atno 17371 bound_to 10713
  141.1547  133.8904  157.2008 LP  0  0  0  0  0  0  0  0  0  0  0  0  # atno 17394 bound_to 11000
  139.9846  135.0086  156.9833 LP  0  0  0  0  0  0  0  0  0  0  0  0  # atno 17395 bound_to 11000

$$$$
