AV-unprocessed.smi:897|AV-procd|sdf|4081|dock7
  -GOLD-   22720 1573D 1   1.00000     0.00000
 Structure written by MMmdl.
 35 37  0  0  0  0  0  0  0  0  1 V2000
  152.7861  143.7200  159.1698 C   0  0  0  0  0  0  0  0  0  0  0  0
  152.8224  142.2260  159.4136 C   0  0  0  0  0  0  0  0  0  0  0  0
  153.6721  141.6713  160.3885 C   0  0  0  0  0  0  0  0  0  0  0  0
  153.6670  140.2742  160.5744 C   0  0  0  0  0  0  0  0  0  0  0  0
  154.5795  139.6641  161.6278 C   0  0  0  0  0  0  0  0  0  0  0  0
  152.8071  139.4824  159.7688 C   0  0  0  0  0  0  0  0  0  0  0  0
  152.7751  138.0294  159.9245 C   0  0  0  0  0  0  0  0  0  0  0  0
  152.7491  136.8792  160.0475 N   0  0  0  0  0  0  0  0  0  0  0  0
  151.9875  140.1381  158.8087 C   0  0  0  0  0  0  0  0  0  0  0  0
  151.1154  139.3972  157.9894 N   0  0  0  0  0  0  0  0  0  0  0  0
  150.5582  139.9657  156.7655 C   0  0  2  0  0  0  0  0  0  0  0  0
  149.5393  139.0451  156.0896 C   0  0  0  0  0  0  0  0  0  0  0  0
  150.0988  138.9471  154.6632 C   0  0  2  0  0  0  0  0  0  0  0  0
  151.3358  138.0416  154.6040 C   0  0  0  0  0  0  0  0  0  0  0  0
  152.3904  138.9127  155.2837 C   0  0  0  0  0  0  0  0  0  0  0  0
  151.5838  140.1754  155.6327 C   0  0  1  0  0  0  0  0  0  0  0  0
  150.7048  140.2211  154.5213 O   0  0  0  0  0  0  0  0  0  0  0  0
  152.0018  141.4823  158.6452 N   0  0  0  0  0  0  0  0  0  0  0  0
  153.3684  144.2566  159.9193 H   0  0  0  0  0  0  0  0  0  0  0  0
  151.7606  144.0880  159.2101 H   0  0  0  0  0  0  0  0  0  0  0  0
  153.1969  143.9521  158.1871 H   0  0  0  0  0  0  0  0  0  0  0  0
  154.3140  142.3059  160.9822 H   0  0  0  0  0  0  0  0  0  0  0  0
  155.2761  138.9606  161.1710 H   0  0  0  0  0  0  0  0  0  0  0  0
  153.9944  139.1339  162.3802 H   0  0  0  0  0  0  0  0  0  0  0  0
  155.1652  140.4296  162.1379 H   0  0  0  0  0  0  0  0  0  0  0  0
  151.1043  138.3920  158.0866 H   0  0  0  0  0  0  0  0  0  0  0  0
  150.0679  140.9128  156.9958 H   0  0  0  0  0  0  0  0  0  0  0  0
  149.4503  138.0647  156.5603 H   0  0  0  0  0  0  0  0  0  0  0  0
  148.5530  139.5102  156.0904 H   0  0  0  0  0  0  0  0  0  0  0  0
  149.3470  138.7182  153.9074 H   0  0  0  0  0  0  0  0  0  0  0  0
  151.1795  137.0898  155.1127 H   0  0  0  0  0  0  0  0  0  0  0  0
  151.6181  137.8358  153.5709 H   0  0  0  0  0  0  0  0  0  0  0  0
  152.8406  138.4361  156.1547 H   0  0  0  0  0  0  0  0  0  0  0  0
  153.1911  139.1530  154.5834 H   0  0  0  0  0  0  0  0  0  0  0  0
  152.1961  141.0699  155.7494 H   0  0  0  0  0  0  0  0  0  0  0  0
  1  2  1  0  0  0  0
  1 19  1  0  0  0  0
  1 20  1  0  0  0  0
  1 21  1  0  0  0  0
  2 18  1  0  0  0  0
  2  3  2  0  0  0  0
  3  4  1  0  0  0  0
  3 22  1  0  0  0  0
  4  5  1  0  0  0  0
  4  6  2  0  0  0  0
  5 23  1  0  0  0  0
  5 24  1  0  0  0  0
  5 25  1  0  0  0  0
  6  7  1  0  0  0  0
  6  9  1  0  0  0  0
  7  8  3  0  0  0  0
  9 10  1  0  0  0  0
  9 18  2  0  0  0  0
 10 11  1  0  0  0  0
 10 26  1  0  0  0  0
 11 16  1  0  0  0  0
 11 12  1  0  0  0  0
 11 27  1  0  0  0  0
 12 13  1  0  0  0  0
 12 28  1  0  0  0  0
 12 29  1  0  0  0  0
 13 17  1  0  0  0  0
 13 14  1  0  0  0  0
 13 30  1  0  0  0  0
 14 15  1  0  0  0  0
 14 31  1  0  0  0  0
 14 32  1  0  0  0  0
 15 16  1  0  0  0  0
 15 33  1  0  0  0  0
 15 34  1  0  0  0  0
 16 17  1  0  0  0  0
 16 35  1  0  0  0  0
M  END
> <s_m_source_file>
AV-unprocessed.smi

> <i_m_source_file_index>
897

> <i_lp_mmshare_version>
43012

> <i_f3d_flags>
0

> <s_epik_input>
W0NIM11jMVtjSF1jKFtDSDNdKWMoQyNOKWMobjEpW05IXVtDQEhdKFtDSDJdW0NAQEhdMjMpW0NAQEhdKE8zKVtDSDJdW0NIMl0y

> <s_epik_cmdline>
J2VwaWtfcHl0aG9uJywgJy1waCcsICc3LjAnLCAnLXRuJywgJzgnLCAnLW1hJywgJzIwMCcsICctbWV0YWxfYmluZGluZycsICctaW1hZScsICc8aW5maWxlLm1hZT4nLCAnLW9tYWUnLCAnPG91dGZpbGUubWFlPic=

> <r_lp_tautomer_probability>
1

> <r_epik_Ionization_Penalty>
0.000502654

> <r_epik_Ionization_Penalty_Charging>
0

> <r_epik_Ionization_Penalty_Neutral>
0.000502654

> <r_epik_State_Penalty>
-0

> <r_epik_Charging_Adjusted_Penalty>
0

> <i_epik_Tot_Q>
0

> <i_epik_Tot_abs_Q>
0

> <r_epik_Metal_State_Penalty>
-0

> <b_epik_Metal_Only>
0

> <s_lp_Force_Field>
OPLS_2005

> <r_lp_Energy>
43.9229

> <b_lp_Chiralities_Consistent>
1

> <s_lp_Variant>
AV-unprocessed.smi:897-3

> <Gold.Version>
5.8.1

> <Gold.Id.Protein>
6NUR|6NUR_protein|mol2

> <Gold.PLP.Fitness>
42.7916

> <Gold.PLP.PLP>
-37.0348

> <Gold.PLP.part.hbond>
-1.9519

> <Gold.PLP.part.metal>
0.0000

> <Gold.PLP.part.buried>
-4.3582

> <Gold.PLP.part.nonpolar>
-31.8383

> <Gold.PLP.part.repulsive>
0.1628

> <Gold.PLP.ligand.clash>
0.0000

> <Gold.PLP.ligand.torsion>
0.1266

> <Gold.PLP.Chemscore.Hbond>
2.0000

> <Gold.PLP.Chemscore.CHOScore>
0.0000

> <Gold.PLP.Chemscore.Metal>
0.0000

> <Gold.Chemscore.Hbonds>
donor molecule, donor type, donor heavy atom, donor atom, acceptor molecule, acceptor atom, score
      P1  H  6896  6908       L1     8  1.00
      P1  H  7989  7998       L1    17  0.99

> <Gold.PLP.Chemscore.Internal.Correction>
0.0101

> <Gold.Rescore>
     Score         DG    S(hbond)    S(metal)    S(lipo)     H(rot)  DE(clash)    DE(int)     intcor
     19.80     -19.95       1.86        0.00      92.35       1.00       0.00       0.14       ----

> <Gold.Chemscore.Fitness>
19.7986

> <Gold.Chemscore.DG>
-19.9453

> <Gold.Chemscore.ZeroCoef>
-5.4800

> <Gold.Chemscore.Hbond>
1.8624

> <Gold.Chemscore.Metal>
0.0000

> <Gold.Chemscore.Lipo>
92.3496

> <Gold.Chemscore.Internal_Hbond>
0.0000

> <Gold.Chemscore.DEClash>
0.0030

> <Gold.Chemscore.DEInternal>
0.1437

> <Gold.Chemscore.Rot>
1.0000

> <Gold.Chemscore.Internal.Correction>
   9.000000E+99

> <Gold.Chemscore.Hbonds>
donor molecule, donor type, donor heavy atom, donor atom, acceptor molecule, acceptor atom, score
      P1  H  6896  6908       L1     8  0.98
      P1  H  7989  7998       L1    17  0.24

> <Gold.Chemscore.Hbond.Weighted>
-6.2204

> <Gold.Chemscore.Metal.Weighted>
-0.0000

> <Gold.Chemscore.Lipo.Weighted>
-10.8049

> <Gold.Chemscore.Internal_Hbond.Weighted>
0.0000

> <Gold.Chemscore.DEClash.Weighted>
0.0030

> <Gold.Chemscore.DEInternal.Weighted>
0.1437

> <Gold.Chemscore.Rot.Weighted>
2.5600

> <Gold.Chemscore.Internal.Correction.Weighted>
   9.000000E+99

> <Gold.Protein.RotatedTorsions>
[ 6907 6896 6895 6894 ] final  -90.69 input  -60.11 | X-H torsion
[ 7974 7965 7964 7962 ] final   51.90 input  175.53 | X-H torsion
[ 8008 7997 7996 7995 ] final   78.68 input   59.86 | X-H torsion
[ 10167 10162 10161 10158 ] final    8.22 input  -65.29 | X-H torsion
[ 10718 10713 10712 10709 ] final   25.24 input   66.30 | X-H torsion
[ 10763 10752 10751 10750 ] final  172.78 input  -60.55 | X-H torsion
[ 11005 11000 10999 10996 ] final   86.82 input  -57.11 | X-H torsion

> <Gold.Protein.ActiveResidues>
 VAL166  LYS551  ARG553  GLY616  TRP617  ASP618  TYR619  PRO620  LYS621  CYS622 
 ASP623  PHE694  ASN695  SER759  ASP760  ASP761  ALA762  ILE779  LEU786  VAL792 
 PHE793  MET794  SER795  GLU796  ALA797  LYS798  CYS799  TRP800  GLU811  SER814 

> <Gold.Protein.RotatedAtoms>
  150.6884  134.2393  159.4465 H   0  0  0  0  0  0  0  0  0  0  0  0  # atno 6907 bound_to 6896
  152.0338  134.9749  160.0582 H   0  0  0  0  0  0  0  0  0  0  0  0  # atno 6908 bound_to 6896
  152.1278  133.4355  159.4743 H   0  0  0  0  0  0  0  0  0  0  0  0  # atno 6909 bound_to 6896
  145.9868  139.4297  143.0098 H   0  0  0  0  0  0  0  0  0  0  0  0  # atno 7974 bound_to 7965
  155.8591  140.3454  155.5744 H   0  0  0  0  0  0  0  0  0  0  0  0  # atno 8008 bound_to 7997
  155.7953  140.0877  157.2006 H   0  0  0  0  0  0  0  0  0  0  0  0  # atno 8009 bound_to 7997
  154.4011  140.1475  156.3198 H   0  0  0  0  0  0  0  0  0  0  0  0  # atno 8010 bound_to 7997
  140.6327  143.7957  150.7317 H   0  0  0  0  0  0  0  0  0  0  0  0  # atno 10167 bound_to 10162
  157.1907  130.6845  149.6149 H   0  0  0  0  0  0  0  0  0  0  0  0  # atno 10718 bound_to 10713
  154.4308  135.2760  155.1913 H   0  0  0  0  0  0  0  0  0  0  0  0  # atno 10763 bound_to 10752
  154.3820  135.6085  153.5800 H   0  0  0  0  0  0  0  0  0  0  0  0  # atno 10764 bound_to 10752
  152.9836  135.5882  154.4619 H   0  0  0  0  0  0  0  0  0  0  0  0  # atno 10765 bound_to 10752
  139.8935  134.8381  156.2773 H   0  0  0  0  0  0  0  0  0  0  0  0  # atno 11005 bound_to 11000
  145.7689  140.9904  143.1160 LP  0  0  0  0  0  0  0  0  0  0  0  0  # atno 17320 bound_to 7965
  144.6877  139.9423  143.7475 LP  0  0  0  0  0  0  0  0  0  0  0  0  # atno 17321 bound_to 7965
  140.1572  143.4307  152.2092 LP  0  0  0  0  0  0  0  0  0  0  0  0  # atno 17342 bound_to 10162
  139.5540  144.7359  151.4351 LP  0  0  0  0  0  0  0  0  0  0  0  0  # atno 17343 bound_to 10162
  155.9712  130.4615  150.6113 LP  0  0  0  0  0  0  0  0  0  0  0  0  # atno 17370 bound_to 10713
  157.3863  131.0789  151.1433 LP  0  0  0  0  0  0  0  0  0  0  0  0  # atno 17371 bound_to 10713
  141.0062  133.7122  156.1038 LP  0  0  0  0  0  0  0  0  0  0  0  0  # atno 17394 bound_to 11000
  140.7431  134.4128  157.5552 LP  0  0  0  0  0  0  0  0  0  0  0  0  # atno 17395 bound_to 11000

$$$$
