AV-unprocessed.smi:261|AV-procd|sdf|1988|dock2
  -GOLD-   2262021173D 1   1.00000     0.00000
 Structure written by MMmdl.
 51 54  0  0  0  0  0  0  0  0  1 V2000
  152.4116  145.2736  158.6790 C   0  0  0  0  0  0  0  0  0  0  0  0
  152.9274  143.9694  158.8905 O   0  0  0  0  0  0  0  0  0  0  0  0
  152.3371  142.9841  158.0553 C   0  0  2  0  0  0  0  0  0  0  0  0
  150.8257  143.1590  157.8788 C   0  0  0  0  0  0  0  0  0  0  0  0
  150.3164  141.7491  157.5346 C   0  0  1  0  0  0  0  0  0  0  0  0
  150.2973  141.5029  156.0153 C   0  0  0  0  0  0  0  0  0  0  0  0
  149.5343  142.3194  155.2850 N   0  0  0  0  0  0  0  0  0  0  0  0
  150.9659  140.6050  155.5051 O   0  0  0  0  0  0  0  0  0  0  0  0
  151.2676  140.8708  158.2208 N   0  0  0  0  0  0  0  0  0  0  0  0
  150.9814  139.5905  158.5863 C   0  0  0  0  0  0  0  0  0  0  0  0
  151.9952  138.8080  159.0441 N   0  0  0  0  0  0  0  0  0  0  0  0
  151.7707  137.5463  159.4192 C   0  0  0  0  0  0  0  0  0  0  0  0
  150.6227  136.8693  159.4185 N   0  0  0  0  0  0  0  0  0  0  0  0
  149.5973  137.6413  158.9602 C   0  0  0  0  0  0  0  0  0  0  0  0
  149.6833  138.9973  158.5279 C   0  0  0  0  0  0  0  0  0  0  0  0
  148.4220  139.4355  158.1356 N   0  0  0  0  0  0  0  0  0  0  0  0
  147.6436  138.4059  158.3222 C   0  0  0  0  0  0  0  0  0  0  0  0
  148.2698  137.2833  158.8099 N   0  0  0  0  0  0  0  0  0  0  0  0
  147.6553  136.0011  159.1035 C   0  0  0  0  0  0  0  0  0  0  0  0
  147.5878  135.6910  160.6142 C   0  0  1  0  0  0  0  0  0  0  0  0
  147.7488  136.9162  161.3006 O   0  0  0  0  0  0  0  0  0  0  0  0
  146.2709  135.0247  161.0711 C   0  0  2  0  0  0  0  0  0  0  0  0
  146.2350  134.6394  162.5513 C   0  0  0  0  0  0  0  0  0  0  0  0
  145.1816  133.5457  162.6092 C   0  0  0  0  0  0  0  0  0  0  0  0
  145.0696  133.0657  161.1603 C   0  0  0  0  0  0  0  0  0  0  0  0
  146.0937  133.7559  160.4585 O   0  0  0  0  0  0  0  0  0  0  0  0
  152.4368  141.5988  158.6954 C   0  0  0  0  0  0  0  0  0  0  0  0
  152.8270  142.9602  157.0799 H   0  0  0  0  0  0  0  0  0  0  0  0
  149.3095  141.6243  157.9369 H   0  0  0  0  0  0  0  0  0  0  0  0
  152.9382  145.9812  159.3191 H   0  0  0  0  0  0  0  0  0  0  0  0
  151.3507  145.3296  158.9241 H   0  0  0  0  0  0  0  0  0  0  0  0
  152.5498  145.5905  157.6445 H   0  0  0  0  0  0  0  0  0  0  0  0
  150.3811  143.4825  158.8212 H   0  0  0  0  0  0  0  0  0  0  0  0
  150.5731  143.9077  157.1267 H   0  0  0  0  0  0  0  0  0  0  0  0
  149.4901  142.2057  154.2829 H   0  0  0  0  0  0  0  0  0  0  0  0
  149.0086  143.0519  155.7391 H   0  0  0  0  0  0  0  0  0  0  0  0
  152.6348  137.0016  159.7696 H   0  0  0  0  0  0  0  0  0  0  0  0
  146.5869  138.4358  158.1001 H   0  0  0  0  0  0  0  0  0  0  0  0
  146.6529  136.0019  158.6734 H   0  0  0  0  0  0  0  0  0  0  0  0
  148.2168  135.2238  158.5831 H   0  0  0  0  0  0  0  0  0  0  0  0
  148.4266  135.0512  160.8907 H   0  0  0  0  0  0  0  0  0  0  0  0
  146.9349  137.3941  161.2565 H   0  0  0  0  0  0  0  0  0  0  0  0
  145.4168  135.6612  160.8319 H   0  0  0  0  0  0  0  0  0  0  0  0
  147.2004  134.2329  162.8561 H   0  0  0  0  0  0  0  0  0  0  0  0
  146.0044  135.4824  163.2031 H   0  0  0  0  0  0  0  0  0  0  0  0
  145.4807  132.7438  163.2852 H   0  0  0  0  0  0  0  0  0  0  0  0
  144.2244  133.9378  162.9546 H   0  0  0  0  0  0  0  0  0  0  0  0
  145.1956  131.9870  161.0654 H   0  0  0  0  0  0  0  0  0  0  0  0
  144.1000  133.3346  160.7393 H   0  0  0  0  0  0  0  0  0  0  0  0
  153.3688  141.1079  158.4140 H   0  0  0  0  0  0  0  0  0  0  0  0
  152.3930  141.6708  159.7833 H   0  0  0  0  0  0  0  0  0  0  0  0
  1  2  1  0  0  0  0
  1 30  1  0  0  0  0
  1 31  1  0  0  0  0
  1 32  1  0  0  0  0
  2  3  1  0  0  0  0
  3 28  1  0  0  0  0
  3 27  1  0  0  0  0
  3  4  1  0  0  0  0
  4  5  1  0  0  0  0
  4 33  1  0  0  0  0
  4 34  1  0  0  0  0
  5 29  1  0  0  0  0
  5  6  1  0  0  0  0
  5  9  1  0  0  0  0
  6  7  1  0  0  0  0
  6  8  2  0  0  0  0
  7 35  1  0  0  0  0
  7 36  1  0  0  0  0
  9 10  1  0  0  0  0
  9 27  1  0  0  0  0
 10 15  1  0  0  0  0
 10 11  2  0  0  0  0
 11 12  1  0  0  0  0
 12 13  2  0  0  0  0
 12 37  1  0  0  0  0
 13 14  1  0  0  0  0
 14 18  1  0  0  0  0
 14 15  2  0  0  0  0
 15 16  1  0  0  0  0
 16 17  2  0  0  0  0
 17 18  1  0  0  0  0
 17 38  1  0  0  0  0
 18 19  1  0  0  0  0
 19 20  1  0  0  0  0
 19 39  1  0  0  0  0
 19 40  1  0  0  0  0
 20 21  1  0  0  0  0
 20 22  1  0  0  0  0
 20 41  1  0  0  0  0
 21 42  1  0  0  0  0
 22 26  1  0  0  0  0
 22 23  1  0  0  0  0
 22 43  1  0  0  0  0
 23 24  1  0  0  0  0
 23 44  1  0  0  0  0
 23 45  1  0  0  0  0
 24 25  1  0  0  0  0
 24 46  1  0  0  0  0
 24 47  1  0  0  0  0
 25 26  1  0  0  0  0
 25 48  1  0  0  0  0
 25 49  1  0  0  0  0
 27 50  1  0  0  0  0
 27 51  1  0  0  0  0
M  END
> <s_m_source_file>
AV-unprocessed.smi

> <i_m_source_file_index>
261

> <i_lp_mmshare_version>
43012

> <i_f3d_flags>
0

> <s_epik_input>
W0NIM11PW0NASF0xW0NIMl1bQ0BASF0oQyg9TylbTkgyXSlOKFtDSDJdMSljKG5bY0hdbjIpYyhjMjMpbltjSF1uM1tDSDJdW0NASF0oW09IXSlbQ0BASF00W0NIMl1bQ0gyXVtDSDJdTzQ=

> <s_epik_cmdline>
J2VwaWtfcHl0aG9uJywgJy1waCcsICc3LjAnLCAnLXRuJywgJzgnLCAnLW1hJywgJzIwMCcsICctbWV0YWxfYmluZGluZycsICctaW1hZScsICc8aW5maWxlLm1hZT4nLCAnLW9tYWUnLCAnPG91dGZpbGUubWFlPic=

> <r_lp_tautomer_probability>
1

> <r_epik_Ionization_Penalty>
0.000713824

> <r_epik_Ionization_Penalty_Charging>
0

> <r_epik_Ionization_Penalty_Neutral>
0.000713824

> <r_epik_State_Penalty>
0.000402132

> <r_epik_Charging_Adjusted_Penalty>
0.000402132

> <i_epik_Tot_Q>
0

> <i_epik_Tot_abs_Q>
0

> <r_epik_Metal_State_Penalty>
-0

> <b_epik_Metal_Only>
0

> <s_lp_Force_Field>
OPLS_2005

> <r_lp_Energy>
43.323

> <b_lp_Chiralities_Consistent>
1

> <s_lp_Variant>
AV-unprocessed.smi:261-6

> <Gold.Version>
5.8.1

> <Gold.Id.Protein>
6NUR|6NUR_protein|mol2

> <Gold.PLP.Fitness>
51.5725

> <Gold.PLP.PLP>
-42.2900

> <Gold.PLP.part.hbond>
-4.4099

> <Gold.PLP.part.metal>
0.0000

> <Gold.PLP.part.buried>
-7.5413

> <Gold.PLP.part.nonpolar>
-29.7832

> <Gold.PLP.part.repulsive>
0.2411

> <Gold.PLP.ligand.clash>
0.0000

> <Gold.PLP.ligand.torsion>
1.0464

> <Gold.PLP.Chemscore.Hbond>
3.6924

> <Gold.PLP.Chemscore.CHOScore>
0.0000

> <Gold.PLP.Chemscore.Metal>
0.0000

> <Gold.Chemscore.Hbonds>
donor molecule, donor type, donor heavy atom, donor atom, acceptor molecule, acceptor atom, score
      L1  H     7    36       P1  8028  0.75
      P1  H  6896  6907       L1    13  0.90
      P1  H  6931  6943       L1    21  1.00
      P1  H  7989  7998       L1     8  0.67

> <Gold.PLP.Chemscore.Internal.Correction>
0.2983

> <Gold.Rescore>
     Score         DG    S(hbond)    S(metal)    S(lipo)     H(rot)  DE(clash)    DE(int)     intcor
     15.17     -18.10       3.14        0.00      87.87       3.18       0.81       2.12       ----

> <Gold.Chemscore.Fitness>
15.1686

> <Gold.Chemscore.DG>
-18.0989

> <Gold.Chemscore.ZeroCoef>
-5.4800

> <Gold.Chemscore.Hbond>
3.1399

> <Gold.Chemscore.Metal>
0.0000

> <Gold.Chemscore.Lipo>
87.8672

> <Gold.Chemscore.Internal_Hbond>
0.0000

> <Gold.Chemscore.DEClash>
0.8082

> <Gold.Chemscore.DEInternal>
2.1222

> <Gold.Chemscore.Rot>
3.1831

> <Gold.Chemscore.Internal.Correction>
   9.000000E+99

> <Gold.Chemscore.Hbonds>
donor molecule, donor type, donor heavy atom, donor atom, acceptor molecule, acceptor atom, score
      L1  H     7    36       P1  8028  0.76
      P1  H  6896  6907       L1    13  0.18
      P1  H  6931  6943       L1    21  0.43
      P1  H  7989  7998       L1     8  0.64

> <Gold.Chemscore.Hbond.Weighted>
-10.4871

> <Gold.Chemscore.Metal.Weighted>
-0.0000

> <Gold.Chemscore.Lipo.Weighted>
-10.2805

> <Gold.Chemscore.Internal_Hbond.Weighted>
0.0000

> <Gold.Chemscore.DEClash.Weighted>
0.8082

> <Gold.Chemscore.DEInternal.Weighted>
2.1222

> <Gold.Chemscore.Rot.Weighted>
8.1486

> <Gold.Chemscore.Internal.Correction.Weighted>
   9.000000E+99

> <Gold.Protein.RotatedTorsions>
[ 6907 6896 6895 6894 ] final  -12.81 input  -60.11 | X-H torsion
[ 7974 7965 7964 7962 ] final  -95.59 input  175.53 | X-H torsion
[ 8008 7997 7996 7995 ] final  110.88 input   59.86 | X-H torsion
[ 10167 10162 10161 10158 ] final   59.24 input  -65.29 | X-H torsion
[ 10718 10713 10712 10709 ] final -124.14 input   66.30 | X-H torsion
[ 10763 10752 10751 10750 ] final   85.52 input  -60.55 | X-H torsion
[ 11005 11000 10999 10996 ] final  127.01 input  -57.11 | X-H torsion

> <Gold.Protein.ActiveResidues>
 VAL166  LYS551  ARG553  GLY616  TRP617  ASP618  TYR619  PRO620  LYS621  CYS622 
 ASP623  PHE694  ASN695  SER759  ASP760  ASP761  ALA762  ILE779  LEU786  VAL792 
 PHE793  MET794  SER795  GLU796  ALA797  LYS798  CYS799  TRP800  GLU811  SER814 

> <Gold.Protein.RotatedAtoms>
  151.3647  135.0911  159.9445 H   0  0  0  0  0  0  0  0  0  0  0  0  # atno 6907 bound_to 6896
  152.5152  133.9224  159.7551 H   0  0  0  0  0  0  0  0  0  0  0  0  # atno 6908 bound_to 6896
  150.9625  133.6375  159.2781 H   0  0  0  0  0  0  0  0  0  0  0  0  # atno 6909 bound_to 6896
  145.3581  140.9487  143.2516 H   0  0  0  0  0  0  0  0  0  0  0  0  # atno 7974 bound_to 7965
  156.2084  140.3030  155.9678 H   0  0  0  0  0  0  0  0  0  0  0  0  # atno 8008 bound_to 7997
  155.2784  140.0436  157.3030 H   0  0  0  0  0  0  0  0  0  0  0  0  # atno 8009 bound_to 7997
  154.5665  140.2336  155.8264 H   0  0  0  0  0  0  0  0  0  0  0  0  # atno 8010 bound_to 7997
  140.1786  144.4205  150.6626 H   0  0  0  0  0  0  0  0  0  0  0  0  # atno 10167 bound_to 10162
  156.1562  130.6569  150.9984 H   0  0  0  0  0  0  0  0  0  0  0  0  # atno 10718 bound_to 10713
  153.1483  135.4614  154.9599 H   0  0  0  0  0  0  0  0  0  0  0  0  # atno 10763 bound_to 10752
  154.7804  135.3186  154.8004 H   0  0  0  0  0  0  0  0  0  0  0  0  # atno 10764 bound_to 10752
  153.8514  135.6921  153.4846 H   0  0  0  0  0  0  0  0  0  0  0  0  # atno 10765 bound_to 10752
  139.9485  134.9626  156.8791 H   0  0  0  0  0  0  0  0  0  0  0  0  # atno 11005 bound_to 11000
  144.8667  139.5097  143.6787 LP  0  0  0  0  0  0  0  0  0  0  0  0  # atno 17320 bound_to 7965
  146.2939  139.7221  142.9141 LP  0  0  0  0  0  0  0  0  0  0  0  0  # atno 17321 bound_to 7965
  140.6535  143.2231  151.6023 LP  0  0  0  0  0  0  0  0  0  0  0  0  # atno 17342 bound_to 10162
  139.5306  144.2927  152.1138 LP  0  0  0  0  0  0  0  0  0  0  0  0  # atno 17343 bound_to 10162
  157.6696  131.0864  150.7644 LP  0  0  0  0  0  0  0  0  0  0  0  0  # atno 17370 bound_to 10713
  156.7709  130.4828  149.5418 LP  0  0  0  0  0  0  0  0  0  0  0  0  # atno 17371 bound_to 10713
  140.5776  134.0383  155.7452 LP  0  0  0  0  0  0  0  0  0  0  0  0  # atno 17394 bound_to 11000
  141.1142  133.9567  157.2853 LP  0  0  0  0  0  0  0  0  0  0  0  0  # atno 17395 bound_to 11000

$$$$
