#       Name:                AV-unprocessed.smi:2790
#       Creating user name   scv26
#       Creation time:       Fri Mar 27 15:20:29 2020


#       File generated by GOLD software.
#

@<TRIPOS>MOLECULE
AV-unprocessed.smi:2790
    49    50     1
SMALL
NO_CHARGES


@<TRIPOS>ATOM
      1 ****        -4.1860   0.4583  -0.8017 C.3            1 S1                 0.0000
      2 ****        -2.8402   1.0427  -0.9808 N.4            1 S1                 1.0000
      3 ****        -2.7853   2.4544  -0.5345 C.3            1 S1                 0.0000
      4 ****        -2.3114   0.8380  -2.3536 C.3            1 S1                 0.0000
      5 ****        -0.7798   0.8836  -2.3475 C.2            1 S1                 0.0000
      6 ****        -0.2180   1.8181  -2.9266 O.2            1 S1                 0.0000
      7 ****        -0.2669  -0.1659  -1.6484 N.pl3          1 S1                -1.0000
      8 ****         1.1510  -0.3072  -1.3079 C.3            1 S1                 0.0000
      9 ****         1.3540  -0.5870   0.2340 C.3            1 S1                 0.0000
     10 ****         0.7083   0.5686   1.0547 C.ar           1 S1                 0.0000
     11 ****         1.3370   1.8371   1.1690 C.ar           1 S1                 0.0000
     12 ****         0.7128   2.8594   1.9095 C.ar           1 S1                 0.0000
     13 ****        -0.4713   2.7060   2.5353 N.ar           1 S1                 0.0000
     14 ****        -1.0755   1.5055   2.4381 C.ar           1 S1                 0.0000
     15 ****        -0.5401   0.4213   1.7162 C.ar           1 S1                 0.0000
     16 ****         0.7457  -1.9739   0.6633 C.3            1 S1                 0.0000
     17 ****         1.5144  -3.2309   0.2005 C.3            1 S1                 0.0000
     18 ****         2.9761  -3.1849   0.6518 C.3            1 S1                 0.0000
     19 ****         3.6496  -1.9058   0.1489 C.3            1 S1                 0.0000
     20 ****         2.8810  -0.6432   0.6004 C.3            1 S1                 0.0000
     21 ****        -4.9135   0.9442  -1.4532 H              1 S1                 0.0000
     22 ****        -4.5197   0.5698   0.2304 H              1 S1                 0.0000
     23 ****        -4.1755  -0.6079  -1.0308 H              1 S1                 0.0000
     24 ****        -3.4043   3.0900  -1.1686 H              1 S1                 0.0000
     25 ****        -1.7643   2.8365  -0.5577 H              1 S1                 0.0000
     26 ****        -3.1428   2.5458   0.4913 H              1 S1                 0.0000
     27 ****        -2.6212  -0.1349  -2.7396 H              1 S1                 0.0000
     28 ****        -2.7189   1.5869  -3.0347 H              1 S1                 0.0000
     29 ****         1.6051  -1.1133  -1.8835 H              1 S1                 0.0000
     30 ****         1.7262   0.5815  -1.5724 H              1 S1                 0.0000
     31 ****         2.2781   2.0454   0.6837 H              1 S1                 0.0000
     32 ****         1.1774   3.8304   1.9968 H              1 S1                 0.0000
     33 ****        -2.0258   1.4075   2.9415 H              1 S1                 0.0000
     34 ****        -1.1050  -0.4964   1.6776 H              1 S1                 0.0000
     35 ****         0.7324  -2.0168   1.7535 H              1 S1                 0.0000
     36 ****        -0.2980  -2.0764   0.3602 H              1 S1                 0.0000
     37 ****         1.0357  -4.1210   0.6097 H              1 S1                 0.0000
     38 ****         1.4629  -3.3365  -0.8835 H              1 S1                 0.0000
     39 ****         3.0269  -3.2241   1.7407 H              1 S1                 0.0000
     40 ****         3.5107  -4.0605   0.2828 H              1 S1                 0.0000
     41 ****         4.6724  -1.8623   0.5243 H              1 S1                 0.0000
     42 ****         3.7320  -1.9351  -0.9380 H              1 S1                 0.0000
     43 ****         3.4241   0.2317   0.2392 H              1 S1                 0.0000
     44 ****         2.9680  -0.5991   1.6874 H              1 S1                 0.0000
     45 ****        -2.2205   0.5203  -0.3767 H              1 S1                 0.0000
     46 ****        -0.7614   2.5216  -3.3846 LP             1 S1                 0.0000
     47 ****         0.7806   1.8715  -2.9377 LP             1 S1                 0.0000
     48 ****        -0.8957  -0.8835  -1.3493 LP             1 S1                 0.0000
     49 ****        -0.8857   3.4550   3.0522 LP             1 S1                 0.0000
@<TRIPOS>BOND
    1    1    2 1     
    2    1   21 1     
    3    1   22 1     
    4    1   23 1     
    5    2    3 1     
    6    2    4 1     
    7    2   45 1     
    8    3   24 1     
    9    3   25 1     
   10    3   26 1     
   11    4    5 1     
   12    4   27 1     
   13    4   28 1     
   14    5    6 2     
   15    5    7 1     
   16    7    8 1     
   17    8    9 1     
   18    8   29 1     
   19    8   30 1     
   20    9   20 1     
   21    9   10 1     
   22    9   16 1     
   23   10   15 ar    
   24   10   11 ar    
   25   11   12 ar    
   26   11   31 1     
   27   12   13 ar    
   28   12   32 1     
   29   13   14 ar    
   30   14   15 ar    
   31   14   33 1     
   32   15   34 1     
   33   16   17 1     
   34   16   35 1     
   35   16   36 1     
   36   17   18 1     
   37   17   37 1     
   38   17   38 1     
   39   18   19 1     
   40   18   39 1     
   41   18   40 1     
   42   19   20 1     
   43   19   41 1     
   44   19   42 1     
   45   20   43 1     
   46   20   44 1     
   47    6   46 1     
   48    6   47 1     
   49    7   48 1     
   50   13   49 1     
@<TRIPOS>SUBSTRUCTURE
      1 S1             1
@<TRIPOS>SET
LONE_PAIRS      STATIC     ATOMS    <user>   **** ""
4 46 47 48 49
DONOR_HYDROGENS      STATIC     ATOMS    <user>   **** ""
1 45
ATOM$BLUE        STATIC     ATOMS    COLORGROUP SYSTEM
4 46 47 48 49
ATOM$RED        STATIC     ATOMS    COLORGROUP SYSTEM
1 45
