AV-unprocessed.smi:72|AV-procd|sdf|681|dock7
  -GOLD-   2262016593D 1   1.00000     0.00000
 Structure written by MMmdl.
 29 30  0  0  0  0  0  0  0  0  1 V2000
  154.0741  138.1466  154.9618 N   0  0  0  0  0  0  0  0  0  0  0  0
  152.8126  138.3878  154.9353 C   0  0  0  0  0  0  0  0  0  0  0  0
  151.8392  137.5597  154.3575 N   0  0  0  0  0  0  0  0  0  0  0  0
  150.5989  137.9400  154.3909 C   0  0  0  0  0  0  0  0  0  0  0  0
  150.1883  139.2051  154.9892 N   0  0  0  0  0  0  0  0  0  0  0  0
  148.7383  139.6589  155.0444 C   0  0  2  0  0  0  0  0  0  0  0  0
  147.9413  138.8062  154.2729 O   0  0  0  0  0  0  0  0  0  0  0  0
  147.7125  139.3864  152.9919 C   0  0  1  0  0  0  0  0  0  0  0  0
  146.5274  138.7149  152.2767 C   0  0  0  0  0  0  0  0  0  0  0  0
  145.3677  138.8073  153.0764 O   0  0  0  0  0  0  0  0  0  0  0  0
  147.5281  140.8646  153.3466 C   0  0  1  0  0  0  0  0  0  0  0  0
  146.2074  141.1021  153.8072 O   0  0  0  0  0  0  0  0  0  0  0  0
  148.5782  141.0711  154.4383 C   0  0  1  0  0  0  0  0  0  0  0  0
  148.1906  142.0502  155.3843 O   0  0  0  0  0  0  0  0  0  0  0  0
  151.1584  140.0299  155.6116 C   0  0  0  0  0  0  0  0  0  0  0  0
  150.8640  141.0860  156.1716 O   0  0  0  0  0  0  0  0  0  0  0  0
  152.4323  139.5869  155.5495 N   0  0  0  0  0  0  0  0  0  0  0  0
  148.4513  139.5790  156.0946 H   0  0  0  0  0  0  0  0  0  0  0  0
  148.6139  139.2948  152.3831 H   0  0  0  0  0  0  0  0  0  0  0  0
  147.7097  141.5126  152.4886 H   0  0  0  0  0  0  0  0  0  0  0  0
  149.5180  141.3755  153.9744 H   0  0  0  0  0  0  0  0  0  0  0  0
  154.2685  137.2688  154.5015 H   0  0  0  0  0  0  0  0  0  0  0  0
  149.7974  137.3309  153.9731 H   0  0  0  0  0  0  0  0  0  0  0  0
  146.3475  139.1598  151.2973 H   0  0  0  0  0  0  0  0  0  0  0  0
  146.7336  137.6555  152.1214 H   0  0  0  0  0  0  0  0  0  0  0  0
  144.7931  139.4548  152.6975 H   0  0  0  0  0  0  0  0  0  0  0  0
  145.6059  140.8370  153.1279 H   0  0  0  0  0  0  0  0  0  0  0  0
  148.5206  142.8885  155.0971 H   0  0  0  0  0  0  0  0  0  0  0  0
  153.1484  140.1565  155.9759 H   0  0  0  0  0  0  0  0  0  0  0  0
  1  2  2  0  0  0  0
  1 22  1  0  0  0  0
  2 17  1  0  0  0  0
  2  3  1  0  0  0  0
  3  4  2  0  0  0  0
  4  5  1  0  0  0  0
  4 23  1  0  0  0  0
  5  6  1  0  0  0  0
  5 15  1  0  0  0  0
  6 18  1  0  0  0  0
  6 13  1  0  0  0  0
  6  7  1  0  0  0  0
  7  8  1  0  0  0  0
  8 19  1  0  0  0  0
  8  9  1  0  0  0  0
  8 11  1  0  0  0  0
  9 10  1  0  0  0  0
  9 24  1  0  0  0  0
  9 25  1  0  0  0  0
 10 26  1  0  0  0  0
 11 20  1  0  0  0  0
 11 12  1  0  0  0  0
 11 13  1  0  0  0  0
 12 27  1  0  0  0  0
 13 21  1  0  0  0  0
 13 14  1  0  0  0  0
 14 28  1  0  0  0  0
 15 16  2  0  0  0  0
 15 17  1  0  0  0  0
 17 29  1  0  0  0  0
M  END
> <s_m_source_file>
AV-unprocessed.smi

> <i_m_source_file_index>
72

> <i_lp_mmshare_version>
43012

> <i_f3d_flags>
0

> <s_epik_input>
W05IMl1jMW5bY0hdbihjKD1PKW4xKVtDQEBIXTJPW0NASF0oW0NIMl1bT0hdKVtDQEBIXShbT0hdKVtDQEhdMltPSF0=

> <s_epik_cmdline>
J2VwaWtfcHl0aG9uJywgJy1waCcsICc3LjAnLCAnLXRuJywgJzgnLCAnLW1hJywgJzIwMCcsICctbWV0YWxfYmluZGluZycsICctaW1hZScsICc8aW5maWxlLm1hZT4nLCAnLW9tYWUnLCAnPG91dGZpbGUubWFlPic=

> <r_lp_tautomer_probability>
7.17554e-07

> <r_epik_Ionization_Penalty>
0.0066451

> <r_epik_Ionization_Penalty_Charging>
0.00663793

> <r_epik_Ionization_Penalty_Neutral>
7.17052e-06

> <r_epik_State_Penalty>
0.419231

> <r_epik_Charging_Adjusted_Penalty>
0.425868

> <i_epik_Tot_Q>
0

> <i_epik_Tot_abs_Q>
0

> <r_epik_Metal_State_Penalty>
1.44144

> <b_epik_Metal_Only>
0

> <s_epik_Chemistry_Notes>
This compound contains an acetal/aminal-like group ( X-CH(R)-Y where X, Y are N, S, or O) that may be acid/base labile, releasing an aldehyde.

> <s_lp_Force_Field>
OPLS_2005

> <r_lp_Energy>
42.1864

> <b_lp_Chiralities_Consistent>
1

> <s_lp_Variant>
AV-unprocessed.smi:72-19

> <Gold.Version>
5.8.1

> <Gold.Id.Protein>
6NUR|6NUR_protein|mol2

> <Gold.PLP.Fitness>
44.5286

> <Gold.PLP.PLP>
-29.9913

> <Gold.PLP.part.hbond>
-5.0330

> <Gold.PLP.part.metal>
0.0000

> <Gold.PLP.part.buried>
-1.6362

> <Gold.PLP.part.nonpolar>
-24.4553

> <Gold.PLP.part.repulsive>
1.2035

> <Gold.PLP.ligand.clash>
0.0000

> <Gold.PLP.ligand.torsion>
0.0853

> <Gold.PLP.Chemscore.Hbond>
3.8950

> <Gold.PLP.Chemscore.CHOScore>
1.0000

> <Gold.PLP.Chemscore.Metal>
0.0000

> <Gold.Chemscore.Hbonds>
donor molecule, donor type, donor heavy atom, donor atom, acceptor molecule, acceptor atom, score
      L1  H    10    26       P1 10175  0.98
      L1  H    12    27       P1 10175  0.94
      L1  H    14    28       P1  8028  0.90
      P1  H  7997  8008       L1     1  0.19
      P1  H 10752 10765       L1     3  0.57
      L1  C     4    23       P1  7948  1.00

> <Gold.PLP.Chemscore.Internal.Correction>
0.0229

> <Gold.Rescore>
     Score         DG    S(hbond)    S(metal)    S(lipo)     H(rot)  DE(clash)    DE(int)     intcor
      4.22      -6.74       2.47        0.00      29.27       4.06       0.62       1.91       ----

> <Gold.Chemscore.Fitness>
4.2159

> <Gold.Chemscore.DG>
-6.7447

> <Gold.Chemscore.ZeroCoef>
-5.4800

> <Gold.Chemscore.Hbond>
2.4651

> <Gold.Chemscore.Metal>
0.0000

> <Gold.Chemscore.Lipo>
29.2734

> <Gold.Chemscore.Internal_Hbond>
0.0000

> <Gold.Chemscore.DEClash>
0.6227

> <Gold.Chemscore.DEInternal>
1.9060

> <Gold.Chemscore.Rot>
4.0600

> <Gold.Chemscore.Internal.Correction>
   9.000000E+99

> <Gold.Chemscore.Hbonds>
donor molecule, donor type, donor heavy atom, donor atom, acceptor molecule, acceptor atom, score
      L1  H    10    26       P1 10175  0.91
      L1  H    12    27       P1 10175  0.51
      L1  H    14    28       P1  8028  0.88
      P1  H  7997  8008       L1     1  0.04
      P1  H 10752 10765       L1     3  0.14

> <Gold.Chemscore.Hbond.Weighted>
-8.2333

> <Gold.Chemscore.Metal.Weighted>
-0.0000

> <Gold.Chemscore.Lipo.Weighted>
-3.4250

> <Gold.Chemscore.Internal_Hbond.Weighted>
0.0000

> <Gold.Chemscore.DEClash.Weighted>
0.6227

> <Gold.Chemscore.DEInternal.Weighted>
1.9060

> <Gold.Chemscore.Rot.Weighted>
10.3936

> <Gold.Chemscore.Internal.Correction.Weighted>
   9.000000E+99

> <Gold.Protein.RotatedTorsions>
[ 6907 6896 6895 6894 ] final   96.83 input  -60.11 | X-H torsion
[ 7974 7965 7964 7962 ] final  112.31 input  175.53 | X-H torsion
[ 8008 7997 7996 7995 ] final   11.26 input   59.86 | X-H torsion
[ 10167 10162 10161 10158 ] final -176.45 input  -65.29 | X-H torsion
[ 10718 10713 10712 10709 ] final -127.87 input   66.30 | X-H torsion
[ 10763 10752 10751 10750 ] final  154.98 input  -60.55 | X-H torsion
[ 11005 11000 10999 10996 ] final   50.76 input  -57.11 | X-H torsion

> <Gold.Protein.ActiveResidues>
 VAL166  LYS551  ARG553  GLY616  TRP617  ASP618  TYR619  PRO620  LYS621  CYS622 
 ASP623  PHE694  ASN695  SER759  ASP760  ASP761  ALA762  ILE779  LEU786  VAL792 
 PHE793  MET794  SER795  GLU796  ALA797  LYS798  CYS799  TRP800  GLU811  SER814 

> <Gold.Protein.RotatedAtoms>
  152.5430  134.0826  159.8241 H   0  0  0  0  0  0  0  0  0  0  0  0  # atno 6907 bound_to 6896
  151.0926  133.5297  159.2621 H   0  0  0  0  0  0  0  0  0  0  0  0  # atno 6908 bound_to 6896
  151.2083  135.0479  159.8955 H   0  0  0  0  0  0  0  0  0  0  0  0  # atno 6909 bound_to 6896
  145.2312  139.2819  143.4167 H   0  0  0  0  0  0  0  0  0  0  0  0  # atno 7974 bound_to 7965
  154.8045  140.2857  155.5897 H   0  0  0  0  0  0  0  0  0  0  0  0  # atno 8008 bound_to 7997
  156.2981  140.2580  156.2850 H   0  0  0  0  0  0  0  0  0  0  0  0  # atno 8009 bound_to 7997
  154.9519  140.0379  157.2138 H   0  0  0  0  0  0  0  0  0  0  0  0  # atno 8010 bound_to 7997
  139.5529  144.2063  152.1109 H   0  0  0  0  0  0  0  0  0  0  0  0  # atno 10167 bound_to 10162
  156.1898  130.6787  151.0409 H   0  0  0  0  0  0  0  0  0  0  0  0  # atno 10718 bound_to 10713
  154.1611  135.2809  155.3108 H   0  0  0  0  0  0  0  0  0  0  0  0  # atno 10763 bound_to 10752
  154.6146  135.5487  153.7513 H   0  0  0  0  0  0  0  0  0  0  0  0  # atno 10764 bound_to 10752
  153.0192  135.6424  154.1753 H   0  0  0  0  0  0  0  0  0  0  0  0  # atno 10765 bound_to 10752
  140.0990  134.5106  155.8780 H   0  0  0  0  0  0  0  0  0  0  0  0  # atno 11005 bound_to 11000
  146.3352  140.2647  142.8603 LP  0  0  0  0  0  0  0  0  0  0  0  0  # atno 17320 bound_to 7965
  144.9675  140.8336  143.5476 LP  0  0  0  0  0  0  0  0  0  0  0  0  # atno 17321 bound_to 7965
  140.1562  144.5069  150.6659 LP  0  0  0  0  0  0  0  0  0  0  0  0  # atno 17342 bound_to 10162
  140.6796  143.2320  151.5419 LP  0  0  0  0  0  0  0  0  0  0  0  0  # atno 17343 bound_to 10162
  157.6921  131.0806  150.7075 LP  0  0  0  0  0  0  0  0  0  0  0  0  # atno 17370 bound_to 10713
  156.7132  130.4658  149.5542 LP  0  0  0  0  0  0  0  0  0  0  0  0  # atno 17371 bound_to 10713
  141.2100  133.6690  156.6480 LP  0  0  0  0  0  0  0  0  0  0  0  0  # atno 17394 bound_to 11000
  140.3246  134.7979  157.4279 LP  0  0  0  0  0  0  0  0  0  0  0  0  # atno 17395 bound_to 11000

$$$$
