AV-unprocessed.smi:3149|AV-procd|sdf|12001|dock4
  -GOLD-   2272017403D 1   1.00000     0.00000
 Structure written by MMmdl.
 38 39  0  0  0  0  0  0  0  0  2 V2000
  148.6400  140.0334  157.3654 C   0  0  0  0  0  0  0  0  0  0  0  0
  149.8596  140.5764  156.5901 C   0  0  2  0  0  0  0  0  0  0  0  0
  149.9963  142.0353  156.8053 N   0  3  0  0  0  0  0  0  0  0  0  0
  149.7024  142.5066  158.1755 C   0  0  0  0  0  0  0  0  0  0  0  0
  150.9587  142.5046  159.0518 C   0  0  0  0  0  0  0  0  0  0  0  0
  151.4110  141.4488  159.4963 O   0  0  0  0  0  0  0  0  0  0  0  0
  151.4997  143.7431  159.4034 N   0  0  0  0  0  0  0  0  0  0  0  0
  150.6554  144.9041  159.6433 C   0  0  0  0  0  0  0  0  0  0  0  0
  151.7414  145.3552  160.6253 C   0  0  0  0  0  0  0  0  0  0  0  0
  152.2537  143.9113  160.6365 C   0  0  0  0  0  0  0  0  0  0  0  0
  149.7911  140.2774  155.0681 C   0  0  1  0  0  0  0  0  0  0  0  0
  150.0434  138.7911  154.7468 C   0  0  0  0  0  0  0  0  0  0  0  0
  148.5309  140.7089  154.4762 N   0  0  0  0  0  0  0  0  0  0  0  0
  147.9489  141.9593  154.5234 C   0  0  0  0  0  0  0  0  0  0  0  0
  146.7728  141.8889  153.8336 C   0  0  0  0  0  0  0  0  0  0  0  0
  146.7206  140.5384  153.3901 C   0  0  0  0  0  0  0  0  0  0  0  0
  147.7733  139.8350  153.7748 N   0  0  0  0  0  0  0  0  0  0  0  0
  148.5567  138.9499  157.2822 H   0  0  0  0  0  0  0  0  0  0  0  0
  147.7110  140.4661  156.9930 H   0  0  0  0  0  0  0  0  0  0  0  0
  148.7052  140.2543  158.4304 H   0  0  0  0  0  0  0  0  0  0  0  0
  150.7544  140.0917  156.9842 H   0  0  0  0  0  0  0  0  0  0  0  0
  150.9569  142.2825  156.6138 H   0  0  0  0  0  0  0  0  0  0  0  0
  149.2866  143.5133  158.1356 H   0  0  0  0  0  0  0  0  0  0  0  0
  148.9569  141.8570  158.6355 H   0  0  0  0  0  0  0  0  0  0  0  0
  150.5316  145.5524  158.7752 H   0  0  0  0  0  0  0  0  0  0  0  0
  149.7086  144.6654  160.1320 H   0  0  0  0  0  0  0  0  0  0  0  0
  152.4507  146.0625  160.1913 H   0  0  0  0  0  0  0  0  0  0  0  0
  151.3597  145.7024  161.5860 H   0  0  0  0  0  0  0  0  0  0  0  0
  151.8661  143.3249  161.4724 H   0  0  0  0  0  0  0  0  0  0  0  0
  153.3327  143.8103  160.5146 H   0  0  0  0  0  0  0  0  0  0  0  0
  150.5760  140.8562  154.5779 H   0  0  0  0  0  0  0  0  0  0  0  0
  151.0380  138.4746  155.0613 H   0  0  0  0  0  0  0  0  0  0  0  0
  149.9709  138.6059  153.6746 H   0  0  0  0  0  0  0  0  0  0  0  0
  149.3186  138.1451  155.2435 H   0  0  0  0  0  0  0  0  0  0  0  0
  148.4129  142.7863  155.0405 H   0  0  0  0  0  0  0  0  0  0  0  0
  146.0585  142.6821  153.6695 H   0  0  0  0  0  0  0  0  0  0  0  0
  145.9545  140.0514  152.8047 H   0  0  0  0  0  0  0  0  0  0  0  0
  149.4068  142.5265  156.1485 H   0  0  0  0  0  0  0  0  0  0  0  0
  1  2  1  0  0  0  0
  1 18  1  0  0  0  0
  1 19  1  0  0  0  0
  1 20  1  0  0  0  0
  2  3  1  0  0  0  0
  2 11  1  0  0  0  0
  2 21  1  0  0  0  0
  3  4  1  0  0  0  0
  3 22  1  0  0  0  0
  3 38  1  0  0  0  0
  4  5  1  0  0  0  0
  4 23  1  0  0  0  0
  4 24  1  0  0  0  0
  5  6  2  0  0  0  0
  5  7  1  0  0  0  0
  7 10  1  0  0  0  0
  7  8  1  0  0  0  0
  8  9  1  0  0  0  0
  8 25  1  0  0  0  0
  8 26  1  0  0  0  0
  9 10  1  0  0  0  0
  9 27  1  0  0  0  0
  9 28  1  0  0  0  0
 10 29  1  0  0  0  0
 10 30  1  0  0  0  0
 11 12  1  0  0  0  0
 11 13  1  0  0  0  0
 11 31  1  0  0  0  0
 12 32  1  0  0  0  0
 12 33  1  0  0  0  0
 12 34  1  0  0  0  0
 13 17  1  0  0  0  0
 13 14  1  0  0  0  0
 14 15  2  0  0  0  0
 14 35  1  0  0  0  0
 15 16  1  0  0  0  0
 15 36  1  0  0  0  0
 16 17  2  0  0  0  0
 16 37  1  0  0  0  0
M  CHG  1   3   1
M  END
> <s_m_source_file>
AV-unprocessed.smi

> <i_m_source_file_index>
3149

> <i_lp_mmshare_version>
43012

> <i_f3d_flags>
0

> <s_epik_input>
bjFbY0hdW2NIXVtjSF1uMVtDQEBIXShbQ0gzXSlbQ0BIXShbQ0gzXSlbTkhdW0NIMl1DKD1PKU4yW0NIMl1bQ0gyXVtDSDJdMg==

> <s_epik_cmdline>
J2VwaWtfcHl0aG9uJywgJy1waCcsICc3LjAnLCAnLXRuJywgJzgnLCAnLW1hJywgJzIwMCcsICctbWV0YWxfYmluZGluZycsICctaW1hZScsICc8aW5maWxlLm1hZT4nLCAnLW9tYWUnLCAnPG91dGZpbGUubWFlPic=

> <r_lp_tautomer_probability>
1

> <r_epik_Ionization_Penalty>
0.141739

> <r_epik_Ionization_Penalty_Charging>
0.141731

> <r_epik_Ionization_Penalty_Neutral>
8.82171e-06

> <r_epik_State_Penalty>
0.131043

> <r_epik_Charging_Adjusted_Penalty>
0.272773

> <i_epik_Tot_Q>
1

> <i_epik_Tot_abs_Q>
1

> <r_epik_Metal_State_Penalty>
0.131384

> <b_epik_Metal_Only>
0

> <s_lp_Force_Field>
OPLS_2005

> <r_lp_Energy>
21.3939

> <b_lp_Chiralities_Consistent>
1

> <s_lp_Variant>
AV-unprocessed.smi:3149-3

> <Gold.Version>
5.8.1

> <Gold.Id.Protein>
6NUR|6NUR_protein|mol2

> <Gold.PLP.Fitness>
44.0339

> <Gold.PLP.PLP>
-35.7972

> <Gold.PLP.part.hbond>
-1.0000

> <Gold.PLP.part.metal>
0.0000

> <Gold.PLP.part.buried>
-1.4855

> <Gold.PLP.part.nonpolar>
-33.5762

> <Gold.PLP.part.repulsive>
0.9893

> <Gold.PLP.ligand.clash>
0.0000

> <Gold.PLP.ligand.torsion>
1.1016

> <Gold.PLP.Chemscore.Hbond>
1.1762

> <Gold.PLP.Chemscore.CHOScore>
1.9910

> <Gold.PLP.Chemscore.Metal>
0.0000

> <Gold.Chemscore.Hbonds>
donor molecule, donor type, donor heavy atom, donor atom, acceptor molecule, acceptor atom, score
      L1  H     3    38       P1  8028  0.46
      L1  C    14    35       P1  8028  1.00
      L1  C    16    37       P1 10175  1.00

> <Gold.PLP.Chemscore.Internal.Correction>
0.9381

> <Gold.Rescore>
     Score         DG    S(hbond)    S(metal)    S(lipo)     H(rot)  DE(clash)    DE(int)     intcor
     10.71     -12.52       0.53        0.00      85.73       1.85       0.74       1.07       ----

> <Gold.Chemscore.Fitness>
10.7122

> <Gold.Chemscore.DG>
-12.5205

> <Gold.Chemscore.ZeroCoef>
-5.4800

> <Gold.Chemscore.Hbond>
0.5261

> <Gold.Chemscore.Metal>
0.0000

> <Gold.Chemscore.Lipo>
85.7294

> <Gold.Chemscore.Internal_Hbond>
0.0000

> <Gold.Chemscore.DEClash>
0.7422

> <Gold.Chemscore.DEInternal>
1.0661

> <Gold.Chemscore.Rot>
1.8544

> <Gold.Chemscore.Internal.Correction>
   9.000000E+99

> <Gold.Chemscore.Hbonds>
donor molecule, donor type, donor heavy atom, donor atom, acceptor molecule, acceptor atom, score
      L1  H     3    38       P1  8028  0.23

> <Gold.Chemscore.Hbond.Weighted>
-1.7573

> <Gold.Chemscore.Metal.Weighted>
-0.0000

> <Gold.Chemscore.Lipo.Weighted>
-10.0303

> <Gold.Chemscore.Internal_Hbond.Weighted>
0.0000

> <Gold.Chemscore.DEClash.Weighted>
0.7422

> <Gold.Chemscore.DEInternal.Weighted>
1.0661

> <Gold.Chemscore.Rot.Weighted>
4.7472

> <Gold.Chemscore.Internal.Correction.Weighted>
   9.000000E+99

> <Gold.Protein.RotatedTorsions>
[ 6907 6896 6895 6894 ] final -162.36 input  -60.11 | X-H torsion
[ 7974 7965 7964 7962 ] final   -3.39 input  175.53 | X-H torsion
[ 8008 7997 7996 7995 ] final  118.56 input   59.86 | X-H torsion
[ 10167 10162 10161 10158 ] final  -54.46 input  -65.29 | X-H torsion
[ 10718 10713 10712 10709 ] final  -14.76 input   66.30 | X-H torsion
[ 10763 10752 10751 10750 ] final  169.45 input  -60.55 | X-H torsion
[ 11005 11000 10999 10996 ] final  138.47 input  -57.11 | X-H torsion

> <Gold.Protein.ActiveResidues>
 VAL166  LYS551  ARG553  GLY616  TRP617  ASP618  TYR619  PRO620  LYS621  CYS622 
 ASP623  PHE694  ASN695  SER759  ASP760  ASP761  ALA762  ILE779  LEU786  VAL792 
 PHE793  MET794  SER795  GLU796  ALA797  LYS798  CYS799  TRP800  GLU811  SER814 

> <Gold.Protein.RotatedAtoms>
  151.3791  133.3827  159.2707 H   0  0  0  0  0  0  0  0  0  0  0  0  # atno 6907 bound_to 6896
  150.9591  134.8983  159.7730 H   0  0  0  0  0  0  0  0  0  0  0  0  # atno 6908 bound_to 6896
  152.5142  134.3749  159.9383 H   0  0  0  0  0  0  0  0  0  0  0  0  # atno 6909 bound_to 6896
  146.2390  140.1713  142.8332 H   0  0  0  0  0  0  0  0  0  0  0  0  # atno 7974 bound_to 7965
  156.2552  140.2872  156.0854 H   0  0  0  0  0  0  0  0  0  0  0  0  # atno 8008 bound_to 7997
  155.1521  140.0397  157.2841 H   0  0  0  0  0  0  0  0  0  0  0  0  # atno 8009 bound_to 7997
  154.6453  140.2532  155.7281 H   0  0  0  0  0  0  0  0  0  0  0  0  # atno 8010 bound_to 7997
  140.6429  143.2518  151.4940 H   0  0  0  0  0  0  0  0  0  0  0  0  # atno 10167 bound_to 10162
  156.6114  130.4850  149.6200 H   0  0  0  0  0  0  0  0  0  0  0  0  # atno 10718 bound_to 10713
  154.3833  135.2753  155.2198 H   0  0  0  0  0  0  0  0  0  0  0  0  # atno 10763 bound_to 10752
  154.4296  135.5980  153.6064 H   0  0  0  0  0  0  0  0  0  0  0  0  # atno 10764 bound_to 10752
  152.9834  135.5992  154.4079 H   0  0  0  0  0  0  0  0  0  0  0  0  # atno 10765 bound_to 10752
  140.0186  134.9407  157.0427 H   0  0  0  0  0  0  0  0  0  0  0  0  # atno 11005 bound_to 11000
  145.0009  140.8631  143.5282 LP  0  0  0  0  0  0  0  0  0  0  0  0  # atno 17320 bound_to 7965
  145.1733  139.2392  143.5331 LP  0  0  0  0  0  0  0  0  0  0  0  0  # atno 17321 bound_to 7965
  139.5638  144.2091  152.1734 LP  0  0  0  0  0  0  0  0  0  0  0  0  # atno 17342 bound_to 10162
  140.1367  144.5240  150.6769 LP  0  0  0  0  0  0  0  0  0  0  0  0  # atno 17343 bound_to 10162
  156.2387  130.6838  151.1534 LP  0  0  0  0  0  0  0  0  0  0  0  0  # atno 17370 bound_to 10713
  157.7253  131.0654  150.5958 LP  0  0  0  0  0  0  0  0  0  0  0  0  # atno 17371 bound_to 10713
  140.4428  134.1664  155.7175 LP  0  0  0  0  0  0  0  0  0  0  0  0  # atno 17394 bound_to 11000
  141.1759  133.8515  157.1423 LP  0  0  0  0  0  0  0  0  0  0  0  0  # atno 17395 bound_to 11000

$$$$
