AV-unprocessed.smi:69|AV-procd|sdf|657|dock9
  -GOLD-   2262016563D 1   1.00000     0.00000
 Structure written by MMmdl.
 32 34  0  0  0  0  0  0  0  0  1 V2000
  154.3827  141.0663  160.5268 N   0  0  0  0  0  0  0  0  0  0  0  0
  153.3095  141.5305  159.8720 C   0  0  0  0  0  0  0  0  0  0  0  0
  152.9980  142.8417  159.9959 N   0  0  0  0  0  0  0  0  0  0  0  0
  151.9300  143.3272  159.3546 C   0  0  0  0  0  0  0  0  0  0  0  0
  151.0683  142.6848  158.5624 N   0  0  0  0  0  0  0  0  0  0  0  0
  151.3835  141.3623  158.4371 C   0  0  0  0  0  0  0  0  0  0  0  0
  152.4851  140.7118  159.0595 C   0  0  0  0  0  0  0  0  0  0  0  0
  152.4979  139.3673  158.7150 N   0  0  0  0  0  0  0  0  0  0  0  0
  151.4593  139.2342  157.9348 C   0  0  0  0  0  0  0  0  0  0  0  0
  150.7279  140.3818  157.7168 N   0  0  0  0  0  0  0  0  0  0  0  0
  149.4908  140.5213  156.8794 C   0  0  2  0  0  0  0  0  0  0  0  0
  149.1606  139.2828  156.3213 O   0  0  0  0  0  0  0  0  0  0  0  0
  149.1576  139.3567  154.8953 C   0  0  1  0  0  0  0  0  0  0  0  0
  148.0963  138.4013  154.3279 C   0  0  0  0  0  0  0  0  0  0  0  0
  148.0687  138.4848  152.9191 O   0  0  0  0  0  0  0  0  0  0  0  0
  148.8547  140.8326  154.6291 C   0  0  2  0  0  0  0  0  0  0  0  0
  149.2173  141.2514  153.3267 O   0  0  0  0  0  0  0  0  0  0  0  0
  149.6445  141.5320  155.7261 C   0  0  2  0  0  0  0  0  0  0  0  0
  150.9927  141.7815  155.3590 O   0  0  0  0  0  0  0  0  0  0  0  0
  148.7082  140.8029  157.5852 H   0  0  0  0  0  0  0  0  0  0  0  0
  150.1499  139.1152  154.5111 H   0  0  0  0  0  0  0  0  0  0  0  0
  147.7908  141.0222  154.7805 H   0  0  0  0  0  0  0  0  0  0  0  0
  149.1885  142.4810  156.0096 H   0  0  0  0  0  0  0  0  0  0  0  0
  154.6335  140.0910  160.4515 H   0  0  0  0  0  0  0  0  0  0  0  0
  154.9374  141.6920  161.0926 H   0  0  0  0  0  0  0  0  0  0  0  0
  151.7373  144.3806  159.4964 H   0  0  0  0  0  0  0  0  0  0  0  0
  151.1925  138.2838  157.4962 H   0  0  0  0  0  0  0  0  0  0  0  0
  148.2763  137.3737  154.6449 H   0  0  0  0  0  0  0  0  0  0  0  0
  147.1071  138.6830  154.6898 H   0  0  0  0  0  0  0  0  0  0  0  0
  148.6728  137.8485  152.5682 H   0  0  0  0  0  0  0  0  0  0  0  0
  149.2817  140.4885  152.7731 H   0  0  0  0  0  0  0  0  0  0  0  0
  151.5429  141.6209  156.1104 H   0  0  0  0  0  0  0  0  0  0  0  0
  1  2  1  0  0  0  0
  1 24  1  0  0  0  0
  1 25  1  0  0  0  0
  2  7  1  0  0  0  0
  2  3  2  0  0  0  0
  3  4  1  0  0  0  0
  4  5  2  0  0  0  0
  4 26  1  0  0  0  0
  5  6  1  0  0  0  0
  6 10  1  0  0  0  0
  6  7  2  0  0  0  0
  7  8  1  0  0  0  0
  8  9  2  0  0  0  0
  9 10  1  0  0  0  0
  9 27  1  0  0  0  0
 10 11  1  0  0  0  0
 11 20  1  0  0  0  0
 11 18  1  0  0  0  0
 11 12  1  0  0  0  0
 12 13  1  0  0  0  0
 13 21  1  0  0  0  0
 13 14  1  0  0  0  0
 13 16  1  0  0  0  0
 14 15  1  0  0  0  0
 14 28  1  0  0  0  0
 14 29  1  0  0  0  0
 15 30  1  0  0  0  0
 16 22  1  0  0  0  0
 16 17  1  0  0  0  0
 16 18  1  0  0  0  0
 17 31  1  0  0  0  0
 18 23  1  0  0  0  0
 18 19  1  0  0  0  0
 19 32  1  0  0  0  0
M  END
> <s_m_source_file>
AV-unprocessed.smi

> <i_m_source_file_index>
69

> <i_lp_mmshare_version>
43012

> <i_f3d_flags>
0

> <s_epik_input>
bjFbY0hdbmMoW05IMl0pYyhjMTIpbltjSF1uMltDQEBIXTNPW0NASF0oW0NIMl1bT0hdKVtDQEBIXShbT0hdKVtDQEhdM1tPSF0=

> <s_epik_cmdline>
J2VwaWtfcHl0aG9uJywgJy1waCcsICc3LjAnLCAnLXRuJywgJzgnLCAnLW1hJywgJzIwMCcsICctbWV0YWxfYmluZGluZycsICctaW1hZScsICc8aW5maWxlLm1hZT4nLCAnLW9tYWUnLCAnPG91dGZpbGUubWFlPic=

> <r_lp_tautomer_probability>
1

> <r_epik_Ionization_Penalty>
0.000428445

> <r_epik_Ionization_Penalty_Charging>
0

> <r_epik_Ionization_Penalty_Neutral>
0.000428445

> <r_epik_State_Penalty>
-0

> <r_epik_Charging_Adjusted_Penalty>
0

> <i_epik_Tot_Q>
0

> <i_epik_Tot_abs_Q>
0

> <r_epik_Metal_State_Penalty>
-0

> <b_epik_Metal_Only>
0

> <s_epik_Chemistry_Notes>
This compound contains an acetal/aminal-like group ( X-CH(R)-Y where X, Y are N, S, or O) that may be acid/base labile, releasing an aldehyde.

> <s_lp_Force_Field>
OPLS_2005

> <r_lp_Energy>
44.883

> <b_lp_Chiralities_Consistent>
1

> <s_lp_Variant>
AV-unprocessed.smi:69-15

> <Gold.Version>
5.8.1

> <Gold.Id.Protein>
6NUR|6NUR_protein|mol2

> <Gold.PLP.Fitness>
36.5743

> <Gold.PLP.PLP>
-27.4970

> <Gold.PLP.part.hbond>
-5.9121

> <Gold.PLP.part.metal>
0.0000

> <Gold.PLP.part.buried>
-3.0133

> <Gold.PLP.part.nonpolar>
-19.2650

> <Gold.PLP.part.repulsive>
0.0968

> <Gold.PLP.ligand.clash>
0.0000

> <Gold.PLP.ligand.torsion>
0.0053

> <Gold.PLP.Chemscore.Hbond>
3.0266

> <Gold.PLP.Chemscore.CHOScore>
0.0000

> <Gold.PLP.Chemscore.Metal>
0.0000

> <Gold.Chemscore.Hbonds>
donor molecule, donor type, donor heavy atom, donor atom, acceptor molecule, acceptor atom, score
      L1  H    15    30       P1  7948  1.00
      L1  H    17    31       P1  7957  0.82
      P1  H  7989  7998       L1    19  0.21
      P1  H  8011  8017       L1    17  1.00

> <Gold.PLP.Chemscore.Internal.Correction>
0.0080

> <Gold.Rescore>
     Score         DG    S(hbond)    S(metal)    S(lipo)     H(rot)  DE(clash)    DE(int)     intcor
      6.27      -7.90       2.74        0.00      30.65       4.03       1.62       0.01       ----

> <Gold.Chemscore.Fitness>
6.2658

> <Gold.Chemscore.DG>
-7.8954

> <Gold.Chemscore.ZeroCoef>
-5.4800

> <Gold.Chemscore.Hbond>
2.7367

> <Gold.Chemscore.Metal>
0.0000

> <Gold.Chemscore.Lipo>
30.6490

> <Gold.Chemscore.Internal_Hbond>
0.0000

> <Gold.Chemscore.DEClash>
1.6230

> <Gold.Chemscore.DEInternal>
0.0066

> <Gold.Chemscore.Rot>
4.0277

> <Gold.Chemscore.Internal.Correction>
   9.000000E+99

> <Gold.Chemscore.Hbonds>
donor molecule, donor type, donor heavy atom, donor atom, acceptor molecule, acceptor atom, score
      L1  H    15    30       P1  7948  0.94
      L1  H    17    31       P1  7957  0.81
      P1  H  7989  7998       L1    19  0.18
      P1  H  8011  8017       L1    17  0.29

> <Gold.Chemscore.Hbond.Weighted>
-9.1404

> <Gold.Chemscore.Metal.Weighted>
-0.0000

> <Gold.Chemscore.Lipo.Weighted>
-3.5859

> <Gold.Chemscore.Internal_Hbond.Weighted>
0.0000

> <Gold.Chemscore.DEClash.Weighted>
1.6230

> <Gold.Chemscore.DEInternal.Weighted>
0.0066

> <Gold.Chemscore.Rot.Weighted>
10.3110

> <Gold.Chemscore.Internal.Correction.Weighted>
   9.000000E+99

> <Gold.Protein.RotatedTorsions>
[ 6907 6896 6895 6894 ] final  -91.76 input  -60.11 | X-H torsion
[ 7974 7965 7964 7962 ] final   57.67 input  175.53 | X-H torsion
[ 8008 7997 7996 7995 ] final   99.19 input   59.86 | X-H torsion
[ 10167 10162 10161 10158 ] final  -88.12 input  -65.29 | X-H torsion
[ 10718 10713 10712 10709 ] final -147.41 input   66.30 | X-H torsion
[ 10763 10752 10751 10750 ] final -112.35 input  -60.55 | X-H torsion
[ 11005 11000 10999 10996 ] final  -11.65 input  -57.11 | X-H torsion

> <Gold.Protein.ActiveResidues>
 VAL166  LYS551  ARG553  GLY616  TRP617  ASP618  TYR619  PRO620  LYS621  CYS622 
 ASP623  PHE694  ASN695  SER759  ASP760  ASP761  ALA762  ILE779  LEU786  VAL792 
 PHE793  MET794  SER795  GLU796  ALA797  LYS798  CYS799  TRP800  GLU811  SER814 

> <Gold.Protein.RotatedAtoms>
  150.6897  134.2227  159.4402 H   0  0  0  0  0  0  0  0  0  0  0  0  # atno 6907 bound_to 6896
  152.0183  134.9835  160.0579 H   0  0  0  0  0  0  0  0  0  0  0  0  # atno 6908 bound_to 6896
  152.1422  133.4436  159.4809 H   0  0  0  0  0  0  0  0  0  0  0  0  # atno 6909 bound_to 6896
  145.9266  139.3772  143.0446 H   0  0  0  0  0  0  0  0  0  0  0  0  # atno 7974 bound_to 7965
  156.1080  140.3232  155.8033 H   0  0  0  0  0  0  0  0  0  0  0  0  # atno 8008 bound_to 7997
  155.4722  140.0547  157.2995 H   0  0  0  0  0  0  0  0  0  0  0  0  # atno 8009 bound_to 7997
  154.4741  140.2024  155.9937 H   0  0  0  0  0  0  0  0  0  0  0  0  # atno 8010 bound_to 7997
  140.3777  143.2763  151.9422 H   0  0  0  0  0  0  0  0  0  0  0  0  # atno 10167 bound_to 10162
  156.4071  130.7963  151.2178 H   0  0  0  0  0  0  0  0  0  0  0  0  # atno 10718 bound_to 10713
  154.8345  135.4494  154.1181 H   0  0  0  0  0  0  0  0  0  0  0  0  # atno 10763 bound_to 10752
  153.2425  135.6918  153.7774 H   0  0  0  0  0  0  0  0  0  0  0  0  # atno 10764 bound_to 10752
  153.7117  135.3355  155.3223 H   0  0  0  0  0  0  0  0  0  0  0  0  # atno 10765 bound_to 10752
  140.7575  133.8542  155.9096 H   0  0  0  0  0  0  0  0  0  0  0  0  # atno 11005 bound_to 11000
  145.8481  140.9544  143.0764 LP  0  0  0  0  0  0  0  0  0  0  0  0  # atno 17320 bound_to 7965
  144.6759  140.0371  143.7481 LP  0  0  0  0  0  0  0  0  0  0  0  0  # atno 17321 bound_to 7965
  139.4798  144.5847  151.7873 LP  0  0  0  0  0  0  0  0  0  0  0  0  # atno 17342 bound_to 10162
  140.4969  144.1227  150.5962 LP  0  0  0  0  0  0  0  0  0  0  0  0  # atno 17343 bound_to 10162
  157.7506  131.0269  150.3981 LP  0  0  0  0  0  0  0  0  0  0  0  0  # atno 17370 bound_to 10713
  156.4272  130.3965  149.6784 LP  0  0  0  0  0  0  0  0  0  0  0  0  # atno 17371 bound_to 10713
  140.9694  134.1551  157.4589 LP  0  0  0  0  0  0  0  0  0  0  0  0  # atno 17394 bound_to 11000
  139.8776  134.9973  156.5841 LP  0  0  0  0  0  0  0  0  0  0  0  0  # atno 17395 bound_to 11000

$$$$
