AV-unprocessed.smi:790|AV-procd|sdf|3747|dock4
  -GOLD-   22720 1183D 1   1.00000     0.00000
 Structure written by MMmdl.
 38 40  0  0  0  0  0  0  0  0  1 V2000
  145.0547  137.8827  153.1831 O   0  0  0  0  0  0  0  0  0  0  0  0
  146.0842  137.4056  152.7067 C   0  0  0  0  0  0  0  0  0  0  0  0
  147.3233  137.9034  152.8638 N   0  0  0  0  0  0  0  0  0  0  0  0
  147.7420  139.0635  153.5730 C   0  0  0  0  0  0  0  0  0  0  0  0
  149.0305  139.2458  154.1324 C   0  0  0  0  0  0  0  0  0  0  0  0
  149.3102  140.4419  154.8216 C   0  0  0  0  0  0  0  0  0  0  0  0
  148.2925  141.4087  154.9328 C   0  0  0  0  0  0  0  0  0  0  0  0
  147.0571  141.2444  154.4157 N   0  0  0  0  0  0  0  0  0  0  0  0
  146.7967  140.0953  153.7561 C   0  0  0  0  0  0  0  0  0  0  0  0
  146.1029  136.2929  151.9601 N   0  0  0  0  0  0  0  0  0  0  0  0
  144.9242  135.5039  151.6065 C   0  0  1  0  0  0  0  0  0  0  0  0
  145.2100  134.4067  150.5495 C   0  0  1  0  0  0  0  0  0  0  0  0
  146.4160  133.5311  150.9535 C   0  0  0  0  0  0  0  0  0  0  0  0
  145.8680  132.7373  152.1537 C   0  0  0  0  0  0  0  0  0  0  0  0
  144.4148  133.2393  152.2595 C   0  0  2  0  0  0  0  0  0  0  0  0
  144.0562  133.4422  150.7917 C   0  0  0  0  0  0  0  0  0  0  0  0
  144.4071  134.6817  152.8170 C   0  0  2  0  0  0  0  0  0  0  0  0
  143.0137  135.1196  153.3090 C   0  0  0  0  0  0  0  0  0  0  0  0
  142.6579  134.4046  154.4731 O   0  0  0  0  0  0  0  0  0  0  0  0
  148.0692  137.3592  152.4559 H   0  0  0  0  0  0  0  0  0  0  0  0
  149.8042  138.4983  154.0610 H   0  0  0  0  0  0  0  0  0  0  0  0
  150.2836  140.6127  155.2574 H   0  0  0  0  0  0  0  0  0  0  0  0
  148.4746  142.3368  155.4541 H   0  0  0  0  0  0  0  0  0  0  0  0
  145.7967  139.9987  153.3586 H   0  0  0  0  0  0  0  0  0  0  0  0
  146.9918  135.9636  151.6134 H   0  0  0  0  0  0  0  0  0  0  0  0
  144.1387  136.1674  151.2387 H   0  0  0  0  0  0  0  0  0  0  0  0
  145.2748  134.7903  149.5308 H   0  0  0  0  0  0  0  0  0  0  0  0
  146.6820  132.8524  150.1421 H   0  0  0  0  0  0  0  0  0  0  0  0
  147.3093  134.1046  151.2006 H   0  0  0  0  0  0  0  0  0  0  0  0
  145.8949  131.6665  151.9475 H   0  0  0  0  0  0  0  0  0  0  0  0
  146.4376  132.9147  153.0666 H   0  0  0  0  0  0  0  0  0  0  0  0
  143.7630  132.5532  152.8014 H   0  0  0  0  0  0  0  0  0  0  0  0
  143.0748  133.8926  150.6360 H   0  0  0  0  0  0  0  0  0  0  0  0
  144.1232  132.5277  150.1993 H   0  0  0  0  0  0  0  0  0  0  0  0
  145.0969  134.7400  153.6613 H   0  0  0  0  0  0  0  0  0  0  0  0
  142.9807  136.1886  153.5198 H   0  0  0  0  0  0  0  0  0  0  0  0
  142.2635  134.9192  152.5435 H   0  0  0  0  0  0  0  0  0  0  0  0
  142.8326  133.4873  154.3270 H   0  0  0  0  0  0  0  0  0  0  0  0
  1  2  2  0  0  0  0
  2  3  1  0  0  0  0
  2 10  1  0  0  0  0
  3  4  1  0  0  0  0
  3 20  1  0  0  0  0
  4  9  1  0  0  0  0
  4  5  2  0  0  0  0
  5  6  1  0  0  0  0
  5 21  1  0  0  0  0
  6  7  2  0  0  0  0
  6 22  1  0  0  0  0
  7  8  1  0  0  0  0
  7 23  1  0  0  0  0
  8  9  2  0  0  0  0
  9 24  1  0  0  0  0
 10 11  1  0  0  0  0
 10 25  1  0  0  0  0
 11 17  1  0  0  0  0
 11 12  1  0  0  0  0
 11 26  1  0  0  0  0
 12 16  1  0  0  0  0
 12 13  1  0  0  0  0
 12 27  1  0  0  0  0
 13 14  1  0  0  0  0
 13 28  1  0  0  0  0
 13 29  1  0  0  0  0
 14 15  1  0  0  0  0
 14 30  1  0  0  0  0
 14 31  1  0  0  0  0
 15 16  1  0  0  0  0
 15 17  1  0  0  0  0
 15 32  1  0  0  0  0
 16 33  1  0  0  0  0
 16 34  1  0  0  0  0
 17 18  1  0  0  0  0
 17 35  1  0  0  0  0
 18 19  1  0  0  0  0
 18 36  1  0  0  0  0
 18 37  1  0  0  0  0
 19 38  1  0  0  0  0
M  END
> <s_m_source_file>
AV-unprocessed.smi

> <i_m_source_file_index>
790

> <i_lp_mmshare_version>
43012

> <i_f3d_flags>
0

> <s_epik_input>
W0NIMl0xW0NIMl1bQ0BASF0oW0NIMl0yKVtDQEBIXShbQ0gyXVtPSF0pW0NAQEhdKFtDQEhdMTIpW05IXUMoPU8pW05IXWMzW2NIXVtjSF1bY0hdbltjSF0z

> <s_epik_cmdline>
J2VwaWtfcHl0aG9uJywgJy1waCcsICc3LjAnLCAnLXRuJywgJzgnLCAnLW1hJywgJzIwMCcsICctbWV0YWxfYmluZGluZycsICctaW1hZScsICc8aW5maWxlLm1hZT4nLCAnLW9tYWUnLCAnPG91dGZpbGUubWFlPic=

> <r_epik_Ionization_Penalty>
0.00497582

> <r_epik_Ionization_Penalty_Charging>
0

> <r_epik_Ionization_Penalty_Neutral>
0.00497582

> <r_epik_State_Penalty>
0.00358602

> <r_epik_Charging_Adjusted_Penalty>
0.00358602

> <i_epik_Tot_Q>
0

> <i_epik_Tot_abs_Q>
0

> <r_epik_Metal_State_Penalty>
-0

> <b_epik_Metal_Only>
0

> <s_lp_Force_Field>
OPLS_2005

> <r_lp_Energy>
55.2793

> <b_lp_Chiralities_Consistent>
1

> <s_lp_Variant>
AV-unprocessed.smi:790-8

> <Gold.Version>
5.8.1

> <Gold.Id.Protein>
6NUR|6NUR_protein|mol2

> <Gold.PLP.Fitness>
44.2585

> <Gold.PLP.PLP>
-30.1563

> <Gold.PLP.part.hbond>
-3.3977

> <Gold.PLP.part.metal>
0.0000

> <Gold.PLP.part.buried>
-3.1600

> <Gold.PLP.part.nonpolar>
-25.4453

> <Gold.PLP.part.repulsive>
1.6090

> <Gold.PLP.ligand.clash>
0.0000

> <Gold.PLP.ligand.torsion>
0.2918

> <Gold.PLP.Chemscore.Hbond>
2.8886

> <Gold.PLP.Chemscore.CHOScore>
2.0000

> <Gold.PLP.Chemscore.Metal>
0.0000

> <Gold.Chemscore.Hbonds>
donor molecule, donor type, donor heavy atom, donor atom, acceptor molecule, acceptor atom, score
      L1  H     3    20       P1  7948  1.00
      L1  H    10    25       P1  7948  0.85
      L1  H    19    38       P1 10957  1.00
      P1  H 11000 11005       L1    19  0.06
      L1  C     7    23       P1  8028  1.00
      L1  C     9    24       P1 10175  1.00

> <Gold.PLP.Chemscore.Internal.Correction>
0.0201

> <Gold.Rescore>
     Score         DG    S(hbond)    S(metal)    S(lipo)     H(rot)  DE(clash)    DE(int)     intcor
     17.09     -18.79       2.88        0.00      70.56       1.78       0.17       1.53       ----

> <Gold.Chemscore.Fitness>
17.0852

> <Gold.Chemscore.DG>
-18.7853

> <Gold.Chemscore.ZeroCoef>
-5.4800

> <Gold.Chemscore.Hbond>
2.8750

> <Gold.Chemscore.Metal>
0.0000

> <Gold.Chemscore.Lipo>
70.5569

> <Gold.Chemscore.Internal_Hbond>
0.0000

> <Gold.Chemscore.DEClash>
0.1734

> <Gold.Chemscore.DEInternal>
1.5266

> <Gold.Chemscore.Rot>
1.7783

> <Gold.Chemscore.Internal.Correction>
   9.000000E+99

> <Gold.Chemscore.Hbonds>
donor molecule, donor type, donor heavy atom, donor atom, acceptor molecule, acceptor atom, score
      L1  H     3    20       P1  7948  0.93
      L1  H    10    25       P1  7948  0.84
      L1  H    19    38       P1 10957  0.95

> <Gold.Chemscore.Hbond.Weighted>
-9.6026

> <Gold.Chemscore.Metal.Weighted>
-0.0000

> <Gold.Chemscore.Lipo.Weighted>
-8.2552

> <Gold.Chemscore.Internal_Hbond.Weighted>
0.0000

> <Gold.Chemscore.DEClash.Weighted>
0.1734

> <Gold.Chemscore.DEInternal.Weighted>
1.5266

> <Gold.Chemscore.Rot.Weighted>
4.5525

> <Gold.Chemscore.Internal.Correction.Weighted>
   9.000000E+99

> <Gold.Protein.RotatedTorsions>
[ 6907 6896 6895 6894 ] final -136.52 input  -60.11 | X-H torsion
[ 7974 7965 7964 7962 ] final -116.34 input  175.53 | X-H torsion
[ 8008 7997 7996 7995 ] final  138.65 input   59.86 | X-H torsion
[ 10167 10162 10161 10158 ] final   64.62 input  -65.29 | X-H torsion
[ 10718 10713 10712 10709 ] final   10.30 input   66.30 | X-H torsion
[ 10763 10752 10751 10750 ] final -122.08 input  -60.55 | X-H torsion
[ 11005 11000 10999 10996 ] final  -17.02 input  -57.11 | X-H torsion

> <Gold.Protein.ActiveResidues>
 VAL166  LYS551  ARG553  GLY616  TRP617  ASP618  TYR619  PRO620  LYS621  CYS622 
 ASP623  PHE694  ASN695  SER759  ASP760  ASP761  ALA762  ILE779  LEU786  VAL792 
 PHE793  MET794  SER795  GLU796  ALA797  LYS798  CYS799  TRP800  GLU811  SER814 

> <Gold.Protein.RotatedAtoms>
  151.0111  133.5964  159.2682 H   0  0  0  0  0  0  0  0  0  0  0  0  # atno 6907 bound_to 6896
  151.3116  135.0794  159.9284 H   0  0  0  0  0  0  0  0  0  0  0  0  # atno 6908 bound_to 6896
  152.5299  133.9775  159.7845 H   0  0  0  0  0  0  0  0  0  0  0  0  # atno 6909 bound_to 6896
  145.0979  140.8532  143.3944 H   0  0  0  0  0  0  0  0  0  0  0  0  # atno 7974 bound_to 7965
  156.2996  140.2388  156.4109 H   0  0  0  0  0  0  0  0  0  0  0  0  # atno 8008 bound_to 7997
  154.8442  140.0427  157.1581 H   0  0  0  0  0  0  0  0  0  0  0  0  # atno 8009 bound_to 7997
  154.9069  140.2985  155.5291 H   0  0  0  0  0  0  0  0  0  0  0  0  # atno 8010 bound_to 7997
  140.1202  144.4738  150.6925 H   0  0  0  0  0  0  0  0  0  0  0  0  # atno 10167 bound_to 10162
  156.9790  130.5998  149.5675 H   0  0  0  0  0  0  0  0  0  0  0  0  # atno 10718 bound_to 10713
  154.8682  135.4145  154.2724 H   0  0  0  0  0  0  0  0  0  0  0  0  # atno 10763 bound_to 10752
  153.3632  135.7004  153.6701 H   0  0  0  0  0  0  0  0  0  0  0  0  # atno 10764 bound_to 10752
  153.5593  135.3613  155.2765 H   0  0  0  0  0  0  0  0  0  0  0  0  # atno 10765 bound_to 10752
  140.8127  133.8128  155.9579 H   0  0  0  0  0  0  0  0  0  0  0  0  # atno 11005 bound_to 11000
  145.0990  139.2836  143.5696 LP  0  0  0  0  0  0  0  0  0  0  0  0  # atno 17320 bound_to 7965
  146.3530  140.0551  142.8633 LP  0  0  0  0  0  0  0  0  0  0  0  0  # atno 17321 bound_to 7965
  140.6876  143.2358  151.5218 LP  0  0  0  0  0  0  0  0  0  0  0  0  # atno 17342 bound_to 10162
  139.5573  144.2245  152.1633 LP  0  0  0  0  0  0  0  0  0  0  0  0  # atno 17343 bound_to 10162
  156.0252  130.5346  150.8386 LP  0  0  0  0  0  0  0  0  0  0  0  0  # atno 17370 bound_to 10713
  157.5539  131.0944  150.9656 LP  0  0  0  0  0  0  0  0  0  0  0  0  # atno 17371 bound_to 10713
  140.9181  134.2176  157.4944 LP  0  0  0  0  0  0  0  0  0  0  0  0  # atno 17394 bound_to 11000
  139.8713  134.9780  156.4981 LP  0  0  0  0  0  0  0  0  0  0  0  0  # atno 17395 bound_to 11000

$$$$
