AV-unprocessed.smi:3219|AV-procd|sdf|12296|dock4
  -GOLD-   2272018133D 1   1.00000     0.00000
 Structure written by MMmdl.
 41 42  0  0  0  0  0  0  0  0  2 V2000
  153.3522  141.6545  159.5744 C   0  0  0  0  0  0  0  0  0  0  0  0
  152.7257  142.9274  160.0463 C   0  0  0  0  0  0  0  0  0  0  0  0
  152.1387  143.9508  159.3501 C   0  0  0  0  0  0  0  0  0  0  0  0
  151.9354  144.1012  157.8645 C   0  0  0  0  0  0  0  0  0  0  0  0
  151.2568  142.8673  157.2506 C   0  0  0  0  0  0  0  0  0  0  0  0
  149.8309  142.7966  157.6264 N   0  3  0  0  0  0  0  0  0  0  0  0
  149.2505  141.4416  157.5671 C   0  0  0  0  0  0  0  0  0  0  0  0
  148.3864  141.2597  156.3062 C   0  0  1  0  0  0  0  0  0  0  0  0
  147.1538  142.1955  156.3111 C   0  0  0  0  0  0  0  0  0  0  0  0
  146.4505  142.2451  154.9663 C   0  0  0  0  0  0  0  0  0  0  0  0
  146.9996  141.7928  153.8268 C   0  0  0  0  0  0  0  0  0  0  0  0
  148.3889  141.1873  153.7547 C   0  0  0  0  0  0  0  0  0  0  0  0
  149.2141  141.4706  155.0238 C   0  0  0  0  0  0  0  0  0  0  0  0
  151.7404  144.8643  160.3668 C   0  0  0  0  0  0  0  0  0  0  0  0
  152.0441  144.4446  161.5814 N   0  0  0  0  0  0  0  0  0  0  0  0
  152.6517  143.2564  161.3866 N   0  0  0  0  0  0  0  0  0  0  0  0
  153.1255  142.5037  162.5320 C   0  0  0  0  0  0  0  0  0  0  0  0
  153.1820  141.4986  158.5095 H   0  0  0  0  0  0  0  0  0  0  0  0
  152.9387  140.7965  160.1049 H   0  0  0  0  0  0  0  0  0  0  0  0
  154.4290  141.6696  159.7425 H   0  0  0  0  0  0  0  0  0  0  0  0
  151.3207  144.9774  157.6558 H   0  0  0  0  0  0  0  0  0  0  0  0
  152.8821  144.2858  157.3558 H   0  0  0  0  0  0  0  0  0  0  0  0
  151.3458  142.8991  156.1636 H   0  0  0  0  0  0  0  0  0  0  0  0
  151.7594  141.9597  157.5871 H   0  0  0  0  0  0  0  0  0  0  0  0
  149.7231  143.1557  158.5642 H   0  0  0  0  0  0  0  0  0  0  0  0
  150.0496  140.6989  157.5874 H   0  0  0  0  0  0  0  0  0  0  0  0
  148.6456  141.2852  158.4613 H   0  0  0  0  0  0  0  0  0  0  0  0
  148.0290  140.2285  156.2897 H   0  0  0  0  0  0  0  0  0  0  0  0
  146.4376  141.8697  157.0663 H   0  0  0  0  0  0  0  0  0  0  0  0
  147.4458  143.2140  156.5701 H   0  0  0  0  0  0  0  0  0  0  0  0
  145.4627  142.6822  154.9486 H   0  0  0  0  0  0  0  0  0  0  0  0
  146.4416  141.8442  152.9033 H   0  0  0  0  0  0  0  0  0  0  0  0
  148.2818  140.1124  153.6051 H   0  0  0  0  0  0  0  0  0  0  0  0
  148.9076  141.5794  152.8794 H   0  0  0  0  0  0  0  0  0  0  0  0
  149.5769  142.4992  154.9959 H   0  0  0  0  0  0  0  0  0  0  0  0
  150.0995  140.8338  155.0288 H   0  0  0  0  0  0  0  0  0  0  0  0
  151.2356  145.8130  160.2573 H   0  0  0  0  0  0  0  0  0  0  0  0
  154.1915  142.3028  162.4235 H   0  0  0  0  0  0  0  0  0  0  0  0
  152.5886  141.5568  162.5955 H   0  0  0  0  0  0  0  0  0  0  0  0
  152.9644  143.0628  163.4550 H   0  0  0  0  0  0  0  0  0  0  0  0
  149.3117  143.3884  156.9932 H   0  0  0  0  0  0  0  0  0  0  0  0
  1  2  1  0  0  0  0
  1 18  1  0  0  0  0
  1 19  1  0  0  0  0
  1 20  1  0  0  0  0
  2 16  1  0  0  0  0
  2  3  2  0  0  0  0
  3  4  1  0  0  0  0
  3 14  1  0  0  0  0
  4  5  1  0  0  0  0
  4 21  1  0  0  0  0
  4 22  1  0  0  0  0
  5  6  1  0  0  0  0
  5 23  1  0  0  0  0
  5 24  1  0  0  0  0
  6  7  1  0  0  0  0
  6 25  1  0  0  0  0
  6 41  1  0  0  0  0
  7  8  1  0  0  0  0
  7 26  1  0  0  0  0
  7 27  1  0  0  0  0
  8 13  1  0  0  0  0
  8  9  1  0  0  0  0
  8 28  1  0  0  0  0
  9 10  1  0  0  0  0
  9 29  1  0  0  0  0
  9 30  1  0  0  0  0
 10 11  2  0  0  0  0
 10 31  1  0  0  0  0
 11 12  1  0  0  0  0
 11 32  1  0  0  0  0
 12 13  1  0  0  0  0
 12 33  1  0  0  0  0
 12 34  1  0  0  0  0
 13 35  1  0  0  0  0
 13 36  1  0  0  0  0
 14 15  2  0  0  0  0
 14 37  1  0  0  0  0
 15 16  1  0  0  0  0
 16 17  1  0  0  0  0
 17 38  1  0  0  0  0
 17 39  1  0  0  0  0
 17 40  1  0  0  0  0
M  CHG  1   6   1
M  END
> <s_m_source_file>
AV-unprocessed.smi

> <i_m_source_file_index>
3219

> <i_lp_mmshare_version>
43012

> <i_f3d_flags>
0

> <s_epik_input>
W0NIM11uMW5bY0hdYyhjMVtDSDNdKVtDSDJdW0NIMl1bTkhdW0NIMl1bQ0BASF0yW0NIMl1bQ0hdPVtDSF1bQ0gyXVtDSDJdMg==

> <s_epik_cmdline>
J2VwaWtfcHl0aG9uJywgJy1waCcsICc3LjAnLCAnLXRuJywgJzgnLCAnLW1hJywgJzIwMCcsICctbWV0YWxfYmluZGluZycsICctaW1hZScsICc8aW5maWxlLm1hZT4nLCAnLW9tYWUnLCAnPG91dGZpbGUubWFlPic=

> <r_lp_tautomer_probability>
1

> <r_epik_Ionization_Penalty>
0.000661401

> <r_epik_Ionization_Penalty_Charging>
0.00057791

> <r_epik_Ionization_Penalty_Neutral>
8.34914e-05

> <r_epik_State_Penalty>
-0

> <r_epik_Charging_Adjusted_Penalty>
0.00057791

> <i_epik_Tot_Q>
1

> <i_epik_Tot_abs_Q>
1

> <r_epik_Metal_State_Penalty>
-0

> <b_epik_Metal_Only>
0

> <s_lp_Force_Field>
OPLS_2005

> <r_lp_Energy>
9.67125

> <b_lp_Chiralities_Consistent>
1

> <s_lp_Variant>
AV-unprocessed.smi:3219-2

> <Gold.Version>
5.8.1

> <Gold.Id.Protein>
6NUR|6NUR_protein|mol2

> <Gold.PLP.Fitness>
51.4101

> <Gold.PLP.PLP>
-46.4457

> <Gold.PLP.part.hbond>
-1.0000

> <Gold.PLP.part.metal>
0.0000

> <Gold.PLP.part.buried>
-3.7312

> <Gold.PLP.part.nonpolar>
-41.8207

> <Gold.PLP.part.repulsive>
0.4673

> <Gold.PLP.ligand.clash>
0.0000

> <Gold.PLP.ligand.torsion>
0.5339

> <Gold.PLP.Chemscore.Hbond>
2.0000

> <Gold.PLP.Chemscore.CHOScore>
0.0000

> <Gold.PLP.Chemscore.Metal>
0.0000

> <Gold.Chemscore.Hbonds>
donor molecule, donor type, donor heavy atom, donor atom, acceptor molecule, acceptor atom, score
      L1  H     6    41       P1  8028  2.00

> <Gold.PLP.Chemscore.Internal.Correction>
0.0323

> <Gold.Rescore>
     Score         DG    S(hbond)    S(metal)    S(lipo)     H(rot)  DE(clash)    DE(int)     intcor
     17.84     -18.43       0.90        0.00     117.02       1.46       0.00       0.60       ----

> <Gold.Chemscore.Fitness>
17.8351

> <Gold.Chemscore.DG>
-18.4344

> <Gold.Chemscore.ZeroCoef>
-5.4800

> <Gold.Chemscore.Hbond>
0.8982

> <Gold.Chemscore.Metal>
0.0000

> <Gold.Chemscore.Lipo>
117.0179

> <Gold.Chemscore.Internal_Hbond>
0.0000

> <Gold.Chemscore.DEClash>
0.0038

> <Gold.Chemscore.DEInternal>
0.5955

> <Gold.Chemscore.Rot>
1.4597

> <Gold.Chemscore.Internal.Correction>
   9.000000E+99

> <Gold.Chemscore.Hbonds>
donor molecule, donor type, donor heavy atom, donor atom, acceptor molecule, acceptor atom, score
      L1  H     6    41       P1  8028  0.90

> <Gold.Chemscore.Hbond.Weighted>
-3.0000

> <Gold.Chemscore.Metal.Weighted>
-0.0000

> <Gold.Chemscore.Lipo.Weighted>
-13.6911

> <Gold.Chemscore.Internal_Hbond.Weighted>
0.0000

> <Gold.Chemscore.DEClash.Weighted>
0.0038

> <Gold.Chemscore.DEInternal.Weighted>
0.5955

> <Gold.Chemscore.Rot.Weighted>
3.7368

> <Gold.Chemscore.Internal.Correction.Weighted>
   9.000000E+99

> <Gold.Protein.RotatedTorsions>
[ 6907 6896 6895 6894 ] final -164.09 input  -60.11 | X-H torsion
[ 7974 7965 7964 7962 ] final  159.20 input  175.53 | X-H torsion
[ 8008 7997 7996 7995 ] final  -31.01 input   59.86 | X-H torsion
[ 10167 10162 10161 10158 ] final -141.42 input  -65.29 | X-H torsion
[ 10718 10713 10712 10709 ] final  115.06 input   66.30 | X-H torsion
[ 10763 10752 10751 10750 ] final   55.78 input  -60.55 | X-H torsion
[ 11005 11000 10999 10996 ] final -100.19 input  -57.11 | X-H torsion

> <Gold.Protein.ActiveResidues>
 VAL166  LYS551  ARG553  GLY616  TRP617  ASP618  TYR619  PRO620  LYS621  CYS622 
 ASP623  PHE694  ASN695  SER759  ASP760  ASP761  ALA762  ILE779  LEU786  VAL792 
 PHE793  MET794  SER795  GLU796  ALA797  LYS798  CYS799  TRP800  GLU811  SER814 

> <Gold.Protein.RotatedAtoms>
  151.4063  133.3741  159.2738 H   0  0  0  0  0  0  0  0  0  0  0  0  # atno 6907 bound_to 6896
  150.9396  134.8807  159.7614 H   0  0  0  0  0  0  0  0  0  0  0  0  # atno 6908 bound_to 6896
  152.5065  134.4013  159.9469 H   0  0  0  0  0  0  0  0  0  0  0  0  # atno 6909 bound_to 6896
  144.7803  139.7585  143.6262 H   0  0  0  0  0  0  0  0  0  0  0  0  # atno 7974 bound_to 7965
  154.4229  140.1776  156.1498 H   0  0  0  0  0  0  0  0  0  0  0  0  # atno 8008 bound_to 7997
  155.9924  140.3367  155.6742 H   0  0  0  0  0  0  0  0  0  0  0  0  # atno 8009 bound_to 7997
  155.6354  140.0674  157.2626 H   0  0  0  0  0  0  0  0  0  0  0  0  # atno 8010 bound_to 7997
  139.8187  143.7604  152.2665 H   0  0  0  0  0  0  0  0  0  0  0  0  # atno 10167 bound_to 10162
  157.6245  131.1007  150.7275 H   0  0  0  0  0  0  0  0  0  0  0  0  # atno 10718 bound_to 10713
  152.9822  135.5699  154.5122 H   0  0  0  0  0  0  0  0  0  0  0  0  # atno 10763 bound_to 10752
  154.4624  135.2782  155.1705 H   0  0  0  0  0  0  0  0  0  0  0  0  # atno 10764 bound_to 10752
  154.3287  135.6254  153.5595 H   0  0  0  0  0  0  0  0  0  0  0  0  # atno 10765 bound_to 10752
  141.1280  133.8380  157.1070 H   0  0  0  0  0  0  0  0  0  0  0  0  # atno 11005 bound_to 11000
  146.2007  139.5300  142.9745 LP  0  0  0  0  0  0  0  0  0  0  0  0  # atno 17320 bound_to 7965
  145.6069  141.0346  143.1988 LP  0  0  0  0  0  0  0  0  0  0  0  0  # atno 17321 bound_to 7965
  139.7775  144.7456  151.0135 LP  0  0  0  0  0  0  0  0  0  0  0  0  # atno 17342 bound_to 10162
  140.7814  143.4578  151.0321 LP  0  0  0  0  0  0  0  0  0  0  0  0  # atno 17343 bound_to 10162
  156.7626  130.4803  149.5434 LP  0  0  0  0  0  0  0  0  0  0  0  0  # atno 17370 bound_to 10713
  156.1408  130.6243  151.0465 LP  0  0  0  0  0  0  0  0  0  0  0  0  # atno 17371 bound_to 10713
  140.0298  134.9906  157.0758 LP  0  0  0  0  0  0  0  0  0  0  0  0  # atno 17394 bound_to 11000
  140.4303  134.1787  155.7168 LP  0  0  0  0  0  0  0  0  0  0  0  0  # atno 17395 bound_to 11000

$$$$
