AV-unprocessed.smi:819|AV-procd|sdf|3834|dock5
  -GOLD-   22720 1273D 1   1.00000     0.00000
 Structure written by MMmdl.
 40 41  0  0  0  0  0  0  0  0  1 V2000
  145.6567  146.9708  160.0957 C   0  0  0  0  0  0  0  0  0  0  0  0
  146.0329  145.4797  160.0678 C   0  0  2  0  0  0  0  0  0  0  0  0
  147.3830  145.3585  159.5203 N   0  0  0  0  0  0  0  0  0  0  0  0
  148.4000  144.7167  160.1154 C   0  0  0  0  0  0  0  0  0  0  0  0
  148.3073  144.1779  161.2184 O   0  0  0  0  0  0  0  0  0  0  0  0
  149.4997  144.7240  159.3428 N   0  0  0  0  0  0  0  0  0  0  0  0
  150.7681  144.1406  159.6084 C   0  0  0  0  0  0  0  0  0  0  0  0
  151.2240  144.1282  160.9426 C   0  0  0  0  0  0  0  0  0  0  0  0
  152.4704  143.5434  161.2367 C   0  0  0  0  0  0  0  0  0  0  0  0
  153.2126  142.9820  160.1798 C   0  0  0  0  0  0  0  0  0  0  0  0
  152.7851  142.9708  158.8998 N   0  0  0  0  0  0  0  0  0  0  0  0
  151.5892  143.5350  158.6246 C   0  0  0  0  0  0  0  0  0  0  0  0
  145.0322  144.7366  159.1690 C   0  0  0  0  0  0  0  0  0  0  0  0
  144.1906  143.9824  159.6601 O   0  0  0  0  0  0  0  0  0  0  0  0
  145.1353  144.9668  157.8516 N   0  0  0  0  0  0  0  0  0  0  0  0
  144.2627  144.3981  156.8285 C   0  0  0  0  0  0  0  0  0  0  0  0
  145.0856  143.6458  155.7648 C   0  0  0  0  0  0  0  0  0  0  0  0
  144.5685  144.1293  154.4088 C   0  0  0  0  0  0  0  0  0  0  0  0
  144.0993  145.5565  154.6716 C   0  0  0  0  0  0  0  0  0  0  0  0
  143.4874  145.4964  156.0712 C   0  0  0  0  0  0  0  0  0  0  0  0
  144.6492  147.1170  160.4879 H   0  0  0  0  0  0  0  0  0  0  0  0
  145.6957  147.4210  159.1024 H   0  0  0  0  0  0  0  0  0  0  0  0
  146.3375  147.5311  160.7371 H   0  0  0  0  0  0  0  0  0  0  0  0
  146.0054  145.0790  161.0832 H   0  0  0  0  0  0  0  0  0  0  0  0
  147.5421  145.7647  158.6101 H   0  0  0  0  0  0  0  0  0  0  0  0
  149.3957  145.1369  158.4275 H   0  0  0  0  0  0  0  0  0  0  0  0
  150.6304  144.5652  161.7324 H   0  0  0  0  0  0  0  0  0  0  0  0
  152.8483  143.5247  162.2481 H   0  0  0  0  0  0  0  0  0  0  0  0
  154.1726  142.5244  160.3684 H   0  0  0  0  0  0  0  0  0  0  0  0
  151.2912  143.4720  157.5898 H   0  0  0  0  0  0  0  0  0  0  0  0
  145.8534  145.6031  157.5370 H   0  0  0  0  0  0  0  0  0  0  0  0
  143.5564  143.7094  157.2961 H   0  0  0  0  0  0  0  0  0  0  0  0
  146.1442  143.8975  155.8478 H   0  0  0  0  0  0  0  0  0  0  0  0
  145.0039  142.5634  155.8697 H   0  0  0  0  0  0  0  0  0  0  0  0
  145.3253  144.0728  153.6259 H   0  0  0  0  0  0  0  0  0  0  0  0
  143.7208  143.5170  154.0986 H   0  0  0  0  0  0  0  0  0  0  0  0
  144.9566  146.2311  154.6734 H   0  0  0  0  0  0  0  0  0  0  0  0
  143.3947  145.9140  153.9201 H   0  0  0  0  0  0  0  0  0  0  0  0
  142.4394  145.2052  155.9928 H   0  0  0  0  0  0  0  0  0  0  0  0
  143.5109  146.4687  156.5654 H   0  0  0  0  0  0  0  0  0  0  0  0
  1  2  1  0  0  0  0
  1 21  1  0  0  0  0
  1 22  1  0  0  0  0
  1 23  1  0  0  0  0
  2  3  1  0  0  0  0
  2 13  1  0  0  0  0
  2 24  1  0  0  0  0
  3  4  1  0  0  0  0
  3 25  1  0  0  0  0
  4  5  2  0  0  0  0
  4  6  1  0  0  0  0
  6  7  1  0  0  0  0
  6 26  1  0  0  0  0
  7 12  1  0  0  0  0
  7  8  2  0  0  0  0
  8  9  1  0  0  0  0
  8 27  1  0  0  0  0
  9 10  2  0  0  0  0
  9 28  1  0  0  0  0
 10 11  1  0  0  0  0
 10 29  1  0  0  0  0
 11 12  2  0  0  0  0
 12 30  1  0  0  0  0
 13 14  2  0  0  0  0
 13 15  1  0  0  0  0
 15 16  1  0  0  0  0
 15 31  1  0  0  0  0
 16 20  1  0  0  0  0
 16 17  1  0  0  0  0
 16 32  1  0  0  0  0
 17 18  1  0  0  0  0
 17 33  1  0  0  0  0
 17 34  1  0  0  0  0
 18 19  1  0  0  0  0
 18 35  1  0  0  0  0
 18 36  1  0  0  0  0
 19 20  1  0  0  0  0
 19 37  1  0  0  0  0
 19 38  1  0  0  0  0
 20 39  1  0  0  0  0
 20 40  1  0  0  0  0
M  END
> <s_m_source_file>
AV-unprocessed.smi

> <i_m_source_file_index>
819

> <i_lp_mmshare_version>
43012

> <i_f3d_flags>
0

> <s_epik_input>
W0NIMl0xW0NIMl1bQ0gyXVtDSDJdW0NIXTFbTkhdQyg9TylbQ0BIXShbQ0gzXSlbTkhdQyg9TylbTkhdYzJbY0hdW2NIXVtjSF1uW2NIXTI=

> <s_epik_cmdline>
J2VwaWtfcHl0aG9uJywgJy1waCcsICc3LjAnLCAnLXRuJywgJzgnLCAnLW1hJywgJzIwMCcsICctbWV0YWxfYmluZGluZycsICctaW1hZScsICc8aW5maWxlLm1hZT4nLCAnLW9tYWUnLCAnPG91dGZpbGUubWFlPic=

> <r_epik_Ionization_Penalty>
0.00416979

> <r_epik_Ionization_Penalty_Charging>
0

> <r_epik_Ionization_Penalty_Neutral>
0.00416979

> <r_epik_State_Penalty>
0.00297037

> <r_epik_Charging_Adjusted_Penalty>
0.00297037

> <i_epik_Tot_Q>
0

> <i_epik_Tot_abs_Q>
0

> <r_epik_Metal_State_Penalty>
-0

> <b_epik_Metal_Only>
0

> <s_lp_Force_Field>
OPLS_2005

> <r_lp_Energy>
20.2836

> <b_lp_Chiralities_Consistent>
1

> <s_lp_Variant>
AV-unprocessed.smi:819-1

> <Gold.Version>
5.8.1

> <Gold.Id.Protein>
6NUR|6NUR_protein|mol2

> <Gold.PLP.Fitness>
41.6247

> <Gold.PLP.PLP>
-32.7410

> <Gold.PLP.part.hbond>
-3.4411

> <Gold.PLP.part.metal>
0.0000

> <Gold.PLP.part.buried>
-5.9454

> <Gold.PLP.part.nonpolar>
-25.5039

> <Gold.PLP.part.repulsive>
0.5251

> <Gold.PLP.ligand.clash>
0.0000

> <Gold.PLP.ligand.torsion>
0.5706

> <Gold.PLP.Chemscore.Hbond>
3.3372

> <Gold.PLP.Chemscore.CHOScore>
0.0000

> <Gold.PLP.Chemscore.Metal>
0.0000

> <Gold.Chemscore.Hbonds>
donor molecule, donor type, donor heavy atom, donor atom, acceptor molecule, acceptor atom, score
      L1  H     3    25       P1  8029  0.60
      L1  H     6    26       P1  8029  0.75
      L1  H    15    31       P1  8029  0.98
      P1  H  6933  6944       L1     5  0.99

> <Gold.PLP.Chemscore.Internal.Correction>
0.0134

> <Gold.Rescore>
     Score         DG    S(hbond)    S(metal)    S(lipo)     H(rot)  DE(clash)    DE(int)     intcor
     19.55     -22.09       2.98        0.00      90.05       1.52       0.81       1.72       ----

> <Gold.Chemscore.Fitness>
19.5495

> <Gold.Chemscore.DG>
-22.0851

> <Gold.Chemscore.ZeroCoef>
-5.4800

> <Gold.Chemscore.Hbond>
2.9842

> <Gold.Chemscore.Metal>
0.0000

> <Gold.Chemscore.Lipo>
90.0470

> <Gold.Chemscore.Internal_Hbond>
0.0000

> <Gold.Chemscore.DEClash>
0.8143

> <Gold.Chemscore.DEInternal>
1.7213

> <Gold.Chemscore.Rot>
1.5225

> <Gold.Chemscore.Internal.Correction>
   9.000000E+99

> <Gold.Chemscore.Hbonds>
donor molecule, donor type, donor heavy atom, donor atom, acceptor molecule, acceptor atom, score
      L1  H     3    25       P1  8029  0.60
      L1  H     6    26       P1  8029  0.49
      L1  H    15    31       P1  8029  0.40
      P1  H  6933  6944       L1     5  0.94

> <Gold.Chemscore.Hbond.Weighted>
-9.9673

> <Gold.Chemscore.Metal.Weighted>
-0.0000

> <Gold.Chemscore.Lipo.Weighted>
-10.5355

> <Gold.Chemscore.Internal_Hbond.Weighted>
0.0000

> <Gold.Chemscore.DEClash.Weighted>
0.8143

> <Gold.Chemscore.DEInternal.Weighted>
1.7213

> <Gold.Chemscore.Rot.Weighted>
3.8977

> <Gold.Chemscore.Internal.Correction.Weighted>
   9.000000E+99

> <Gold.Protein.RotatedTorsions>
[ 6907 6896 6895 6894 ] final   39.80 input  -60.11 | X-H torsion
[ 7974 7965 7964 7962 ] final  -99.19 input  175.53 | X-H torsion
[ 8008 7997 7996 7995 ] final   14.19 input   59.86 | X-H torsion
[ 10167 10162 10161 10158 ] final   89.53 input  -65.29 | X-H torsion
[ 10718 10713 10712 10709 ] final   57.58 input   66.30 | X-H torsion
[ 10763 10752 10751 10750 ] final -158.80 input  -60.55 | X-H torsion
[ 11005 11000 10999 10996 ] final  -95.41 input  -57.11 | X-H torsion

> <Gold.Protein.ActiveResidues>
 VAL166  LYS551  ARG553  GLY616  TRP617  ASP618  TYR619  PRO620  LYS621  CYS622 
 ASP623  PHE694  ASN695  SER759  ASP760  ASP761  ALA762  ILE779  LEU786  VAL792 
 PHE793  MET794  SER795  GLU796  ALA797  LYS798  CYS799  TRP800  GLU811  SER814 

> <Gold.Protein.RotatedAtoms>
  152.1742  134.8808  160.0531 H   0  0  0  0  0  0  0  0  0  0  0  0  # atno 6907 bound_to 6896
  151.9757  133.3735  159.4096 H   0  0  0  0  0  0  0  0  0  0  0  0  # atno 6908 bound_to 6896
  150.6907  134.4016  159.5165 H   0  0  0  0  0  0  0  0  0  0  0  0  # atno 6909 bound_to 6896
  145.3107  140.9399  143.2771 H   0  0  0  0  0  0  0  0  0  0  0  0  # atno 7974 bound_to 7965
  154.8451  140.2921  155.5634 H   0  0  0  0  0  0  0  0  0  0  0  0  # atno 8008 bound_to 7997
  156.3014  140.2506  156.3331 H   0  0  0  0  0  0  0  0  0  0  0  0  # atno 8009 bound_to 7997
  154.9083  140.0389  157.1921 H   0  0  0  0  0  0  0  0  0  0  0  0  # atno 8010 bound_to 7997
  139.8564  144.6567  150.9109 H   0  0  0  0  0  0  0  0  0  0  0  0  # atno 10167 bound_to 10162
  157.5526  130.8776  149.8986 H   0  0  0  0  0  0  0  0  0  0  0  0  # atno 10718 bound_to 10713
  154.7527  135.3096  154.8527 H   0  0  0  0  0  0  0  0  0  0  0  0  # atno 10763 bound_to 10752
  153.9310  135.6785  153.4750 H   0  0  0  0  0  0  0  0  0  0  0  0  # atno 10764 bound_to 10752
  153.1124  135.4860  154.8986 H   0  0  0  0  0  0  0  0  0  0  0  0  # atno 10765 bound_to 10752
  141.1442  133.8024  157.0431 H   0  0  0  0  0  0  0  0  0  0  0  0  # atno 11005 bound_to 11000
  144.9018  139.4640  143.6629 LP  0  0  0  0  0  0  0  0  0  0  0  0  # atno 17320 bound_to 7965
  146.3119  139.7776  142.9013 LP  0  0  0  0  0  0  0  0  0  0  0  0  # atno 17321 bound_to 7965
  140.7781  143.3782  151.1524 LP  0  0  0  0  0  0  0  0  0  0  0  0  # atno 17342 bound_to 10162
  139.7416  143.8916  152.3051 LP  0  0  0  0  0  0  0  0  0  0  0  0  # atno 17343 bound_to 10162
  156.0590  130.3703  150.1025 LP  0  0  0  0  0  0  0  0  0  0  0  0  # atno 17370 bound_to 10713
  156.9197  130.9679  151.3550 LP  0  0  0  0  0  0  0  0  0  0  0  0  # atno 17371 bound_to 10713
  140.0680  134.9718  157.1418 LP  0  0  0  0  0  0  0  0  0  0  0  0  # atno 17394 bound_to 11000
  140.3752  134.2347  155.7175 LP  0  0  0  0  0  0  0  0  0  0  0  0  # atno 17395 bound_to 11000

$$$$
