AV-unprocessed.smi:2605|AV-procd|sdf|10194|dock6
  -GOLD-   2272014203D 1   1.00000     0.00000
 Structure written by MMmdl.
 26 27  0  0  0  0  0  0  0  0  2 V2000
  151.8713  140.0732  157.7665 C   0  0  0  0  0  0  0  0  0  0  0  0
  151.0878  139.7800  156.6322 C   0  0  0  0  0  0  0  0  0  0  0  0
  150.4437  140.8423  155.9643 C   0  0  0  0  0  0  0  0  0  0  0  0
  149.5822  140.5699  154.7414 C   0  0  1  0  0  0  0  0  0  0  0  0
  149.5342  139.0599  154.4146 C   0  0  0  0  0  0  0  0  0  0  0  0
  148.7269  138.8180  153.2011 N   0  3  0  0  0  0  0  0  0  0  0  0
  147.3737  139.3918  153.3388 C   0  0  0  0  0  0  0  0  0  0  0  0
  147.4695  140.8911  153.6745 C   0  0  0  0  0  0  0  0  0  0  0  0
  148.2190  141.0719  154.9138 N   0  0  0  0  0  0  0  0  0  0  0  0
  150.6097  142.1505  156.4689 C   0  0  0  0  0  0  0  0  0  0  0  0
  151.4151  142.3355  157.6104 C   0  0  0  0  0  0  0  0  0  0  0  0
  152.0359  141.3224  158.2512 N   0  0  0  0  0  0  0  0  0  0  0  0
  152.3788  139.2823  158.2988 H   0  0  0  0  0  0  0  0  0  0  0  0
  150.9888  138.7613  156.2867 H   0  0  0  0  0  0  0  0  0  0  0  0
  150.0303  141.1022  153.9006 H   0  0  0  0  0  0  0  0  0  0  0  0
  150.5404  138.6749  154.2463 H   0  0  0  0  0  0  0  0  0  0  0  0
  149.1115  138.4947  155.2470 H   0  0  0  0  0  0  0  0  0  0  0  0
  149.1850  139.2547  152.4141 H   0  0  0  0  0  0  0  0  0  0  0  0
  146.8277  139.2452  152.4067 H   0  0  0  0  0  0  0  0  0  0  0  0
  146.8278  138.8576  154.1181 H   0  0  0  0  0  0  0  0  0  0  0  0
  147.9480  141.4432  152.8642 H   0  0  0  0  0  0  0  0  0  0  0  0
  146.4713  141.3107  153.8015 H   0  0  0  0  0  0  0  0  0  0  0  0
  148.2487  142.0519  155.1593 H   0  0  0  0  0  0  0  0  0  0  0  0
  150.1337  142.9965  155.9951 H   0  0  0  0  0  0  0  0  0  0  0  0
  151.5636  143.3238  158.0197 H   0  0  0  0  0  0  0  0  0  0  0  0
  148.6571  137.8242  153.0353 H   0  0  0  0  0  0  0  0  0  0  0  0
  1 12  1  0  0  0  0
  1  2  2  0  0  0  0
  1 13  1  0  0  0  0
  2  3  1  0  0  0  0
  2 14  1  0  0  0  0
  3  4  1  0  0  0  0
  3 10  2  0  0  0  0
  4  9  1  0  0  0  0
  4  5  1  0  0  0  0
  4 15  1  0  0  0  0
  5  6  1  0  0  0  0
  5 16  1  0  0  0  0
  5 17  1  0  0  0  0
  6  7  1  0  0  0  0
  6 18  1  0  0  0  0
  6 26  1  0  0  0  0
  7  8  1  0  0  0  0
  7 19  1  0  0  0  0
  7 20  1  0  0  0  0
  8  9  1  0  0  0  0
  8 21  1  0  0  0  0
  8 22  1  0  0  0  0
  9 23  1  0  0  0  0
 10 11  1  0  0  0  0
 10 24  1  0  0  0  0
 11 12  2  0  0  0  0
 11 25  1  0  0  0  0
M  CHG  1   6   1
M  END
> <s_m_source_file>
AV-unprocessed.smi

> <i_m_source_file_index>
2605

> <i_lp_mmshare_version>
43012

> <i_f3d_flags>
0

> <s_epik_input>
W2NIXTFbY0hdbltjSF1bY0hdYzFbQ0BASF0yW0NIMl1bTkhdW0NIMl1bQ0gyXVtOSF0y

> <s_epik_cmdline>
J2VwaWtfcHl0aG9uJywgJy1waCcsICc3LjAnLCAnLXRuJywgJzgnLCAnLW1hJywgJzIwMCcsICctbWV0YWxfYmluZGluZycsICctaW1hZScsICc8aW5maWxlLm1hZT4nLCAnLW9tYWUnLCAnPG91dGZpbGUubWFlPic=

> <r_epik_Ionization_Penalty>
0.0197506

> <r_epik_Ionization_Penalty_Charging>
0.010317

> <r_epik_Ionization_Penalty_Neutral>
0.00943359

> <r_epik_State_Penalty>
0.319455

> <r_epik_Charging_Adjusted_Penalty>
0.329772

> <i_epik_Tot_Q>
1

> <i_epik_Tot_abs_Q>
1

> <r_epik_Metal_State_Penalty>
0.318246

> <b_epik_Metal_Only>
0

> <s_lp_Force_Field>
OPLS_2005

> <r_lp_Energy>
9.79217

> <b_lp_Chiralities_Consistent>
1

> <s_lp_Variant>
AV-unprocessed.smi:2605-2

> <Gold.Version>
5.8.1

> <Gold.Id.Protein>
6NUR|6NUR_protein|mol2

> <Gold.PLP.Fitness>
31.3358

> <Gold.PLP.PLP>
-22.4342

> <Gold.PLP.part.hbond>
-1.9740

> <Gold.PLP.part.metal>
0.0000

> <Gold.PLP.part.buried>
-2.3317

> <Gold.PLP.part.nonpolar>
-19.0348

> <Gold.PLP.part.repulsive>
0.0826

> <Gold.PLP.ligand.clash>
0.0000

> <Gold.PLP.ligand.torsion>
0.0157

> <Gold.PLP.Chemscore.Hbond>
2.9753

> <Gold.PLP.Chemscore.CHOScore>
0.0000

> <Gold.PLP.Chemscore.Metal>
0.0000

> <Gold.Chemscore.Hbonds>
donor molecule, donor type, donor heavy atom, donor atom, acceptor molecule, acceptor atom, score
      L1  H     6    18       P1  7957  0.99
      L1  H     6    26       P1  7948  1.95

> <Gold.PLP.Chemscore.Internal.Correction>
0.0074

> <Gold.Rescore>
     Score         DG    S(hbond)    S(metal)    S(lipo)     H(rot)  DE(clash)    DE(int)     intcor
     16.33     -16.37       1.82        0.00      63.11       1.00       0.03       0.01       ----

> <Gold.Chemscore.Fitness>
16.3296

> <Gold.Chemscore.DG>
-16.3668

> <Gold.Chemscore.ZeroCoef>
-5.4800

> <Gold.Chemscore.Hbond>
1.8151

> <Gold.Chemscore.Metal>
0.0000

> <Gold.Chemscore.Lipo>
63.1138

> <Gold.Chemscore.Internal_Hbond>
0.0000

> <Gold.Chemscore.DEClash>
0.0272

> <Gold.Chemscore.DEInternal>
0.0100

> <Gold.Chemscore.Rot>
1.0000

> <Gold.Chemscore.Internal.Correction>
   9.000000E+99

> <Gold.Chemscore.Hbonds>
donor molecule, donor type, donor heavy atom, donor atom, acceptor molecule, acceptor atom, score
      L1  H     6    18       P1  7957  0.93
      L1  H     6    26       P1  7948  0.91

> <Gold.Chemscore.Hbond.Weighted>
-6.0625

> <Gold.Chemscore.Metal.Weighted>
-0.0000

> <Gold.Chemscore.Lipo.Weighted>
-7.3843

> <Gold.Chemscore.Internal_Hbond.Weighted>
0.0000

> <Gold.Chemscore.DEClash.Weighted>
0.0272

> <Gold.Chemscore.DEInternal.Weighted>
0.0100

> <Gold.Chemscore.Rot.Weighted>
2.5600

> <Gold.Chemscore.Internal.Correction.Weighted>
   9.000000E+99

> <Gold.Protein.RotatedTorsions>
[ 6907 6896 6895 6894 ] final  145.99 input  -60.11 | X-H torsion
[ 7974 7965 7964 7962 ] final  156.96 input  175.53 | X-H torsion
[ 8008 7997 7996 7995 ] final  -31.09 input   59.86 | X-H torsion
[ 10167 10162 10161 10158 ] final   16.50 input  -65.29 | X-H torsion
[ 10718 10713 10712 10709 ] final   78.61 input   66.30 | X-H torsion
[ 10763 10752 10751 10750 ] final  138.47 input  -60.55 | X-H torsion
[ 11005 11000 10999 10996 ] final  123.48 input  -57.11 | X-H torsion

> <Gold.Protein.ActiveResidues>
 VAL166  LYS551  ARG553  GLY616  TRP617  ASP618  TYR619  PRO620  LYS621  CYS622 
 ASP623  PHE694  ASN695  SER759  ASP760  ASP761  ALA762  ILE779  LEU786  VAL792 
 PHE793  MET794  SER795  GLU796  ALA797  LYS798  CYS799  TRP800  GLU811  SER814 

> <Gold.Protein.RotatedAtoms>
  152.1737  133.4661  159.4922 H   0  0  0  0  0  0  0  0  0  0  0  0  # atno 6907 bound_to 6896
  150.6923  134.1920  159.4298 H   0  0  0  0  0  0  0  0  0  0  0  0  # atno 6908 bound_to 6896
  151.9828  135.0019  160.0609 H   0  0  0  0  0  0  0  0  0  0  0  0  # atno 6909 bound_to 6896
  144.7931  139.7276  143.6213 H   0  0  0  0  0  0  0  0  0  0  0  0  # atno 7974 bound_to 7965
  154.4226  140.1774  156.1511 H   0  0  0  0  0  0  0  0  0  0  0  0  # atno 8008 bound_to 7997
  155.9914  140.3368  155.6732 H   0  0  0  0  0  0  0  0  0  0  0  0  # atno 8009 bound_to 7997
  155.6367  140.0675  157.2622 H   0  0  0  0  0  0  0  0  0  0  0  0  # atno 8010 bound_to 7997
  140.5793  143.9012  150.6776 H   0  0  0  0  0  0  0  0  0  0  0  0  # atno 10167 bound_to 10162
  157.6750  130.9876  150.1811 H   0  0  0  0  0  0  0  0  0  0  0  0  # atno 10718 bound_to 10713
  153.8902  135.3034  155.3447 H   0  0  0  0  0  0  0  0  0  0  0  0  # atno 10763 bound_to 10752
  154.7720  135.4881  153.9671 H   0  0  0  0  0  0  0  0  0  0  0  0  # atno 10764 bound_to 10752
  153.1302  135.6802  153.9289 H   0  0  0  0  0  0  0  0  0  0  0  0  # atno 10765 bound_to 10752
  139.9314  134.9641  156.8265 H   0  0  0  0  0  0  0  0  0  0  0  0  # atno 11005 bound_to 11000
  146.2190  139.5602  142.9631 LP  0  0  0  0  0  0  0  0  0  0  0  0  # atno 17320 bound_to 7965
  145.5742  141.0390  143.2157 LP  0  0  0  0  0  0  0  0  0  0  0  0  # atno 17321 bound_to 7965
  140.2507  143.3595  152.1408 LP  0  0  0  0  0  0  0  0  0  0  0  0  # atno 17342 bound_to 10162
  139.5160  144.6971  151.5598 LP  0  0  0  0  0  0  0  0  0  0  0  0  # atno 17343 bound_to 10162
  156.2543  130.3704  149.8198 LP  0  0  0  0  0  0  0  0  0  0  0  0  # atno 17370 bound_to 10713
  156.5962  130.8527  151.3420 LP  0  0  0  0  0  0  0  0  0  0  0  0  # atno 17371 bound_to 10713
  140.6191  134.0010  155.7610 LP  0  0  0  0  0  0  0  0  0  0  0  0  # atno 17394 bound_to 11000
  141.0905  133.9924  157.3245 LP  0  0  0  0  0  0  0  0  0  0  0  0  # atno 17395 bound_to 11000

$$$$
