AV-unprocessed.smi:2973|AV-procd|sdf|11342|dock5
  -GOLD-   2272016253D 1   1.00000     0.00000
 Structure written by MMmdl.
 50 52  0  0  0  0  0  0  0  0  2 V2000
  149.8738  140.6443  157.4060 C   0  0  0  0  0  0  0  0  0  0  0  0
  151.2491  140.7805  158.0934 C   0  0  1  0  0  0  0  0  0  0  0  0
  151.1411  141.7151  159.3181 C   0  0  0  0  0  0  0  0  0  0  0  0
  152.5025  141.9353  159.9965 C   0  0  0  0  0  0  0  0  0  0  0  0
  153.1469  140.6021  160.4009 C   0  0  0  0  0  0  0  0  0  0  0  0
  153.2768  139.6669  159.1885 C   0  0  0  0  0  0  0  0  0  0  0  0
  151.9148  139.4272  158.4931 C   0  0  1  0  0  0  0  0  0  0  0  0
  151.0464  138.6086  159.3231 N   0  0  0  0  0  0  0  0  0  0  0  0
  150.7718  137.4177  158.7765 C   0  0  0  0  0  0  0  0  0  0  0  0
  150.0787  136.5437  159.2939 O   0  0  0  0  0  0  0  0  0  0  0  0
  151.3885  137.3479  157.5828 N   0  0  0  0  0  0  0  0  0  0  0  0
  151.3481  136.1759  156.6950 C   0  0  0  0  0  0  0  0  0  0  0  0
  149.9638  135.8603  156.1010 C   0  0  0  0  0  0  0  0  0  0  0  0
  149.0370  136.6459  156.2954 O   0  0  0  0  0  0  0  0  0  0  0  0
  149.8191  134.7346  155.3809 N   0  0  0  0  0  0  0  0  0  0  0  0
  148.5873  134.3009  154.7351 C   0  0  0  0  0  0  0  0  0  0  0  0
  148.8374  133.1209  153.7813 C   0  0  0  0  0  0  0  0  0  0  0  0
  147.6324  132.8230  152.9112 C   0  0  0  0  0  0  0  0  0  0  0  0
  146.9592  131.5828  152.9578 C   0  0  0  0  0  0  0  0  0  0  0  0
  145.8381  131.3764  152.1270 C   0  0  0  0  0  0  0  0  0  0  0  0
  145.4145  132.4127  151.2692 C   0  0  0  0  0  0  0  0  0  0  0  0
  146.1243  133.6307  151.2630 C   0  0  0  0  0  0  0  0  0  0  0  0
  147.1934  133.7902  152.0738 N   0  3  0  0  0  0  0  0  0  0  0  0
  152.0799  138.4665  157.3223 C   0  0  0  0  0  0  0  0  0  0  0  0
  152.7596  138.7039  156.3237 O   0  0  0  0  0  0  0  0  0  0  0  0
  149.1422  140.1677  158.0589 H   0  0  0  0  0  0  0  0  0  0  0  0
  149.9338  140.0593  156.4882 H   0  0  0  0  0  0  0  0  0  0  0  0
  149.4786  141.6231  157.1331 H   0  0  0  0  0  0  0  0  0  0  0  0
  151.9104  141.2709  157.3768 H   0  0  0  0  0  0  0  0  0  0  0  0
  150.7323  142.6795  159.0149 H   0  0  0  0  0  0  0  0  0  0  0  0
  150.4380  141.3001  160.0413 H   0  0  0  0  0  0  0  0  0  0  0  0
  153.1668  142.4708  159.3169 H   0  0  0  0  0  0  0  0  0  0  0  0
  152.3818  142.5707  160.8744 H   0  0  0  0  0  0  0  0  0  0  0  0
  154.1299  140.7824  160.8368 H   0  0  0  0  0  0  0  0  0  0  0  0
  152.5491  140.1240  161.1779 H   0  0  0  0  0  0  0  0  0  0  0  0
  153.9788  140.1081  158.4789 H   0  0  0  0  0  0  0  0  0  0  0  0
  153.7205  138.7208  159.5035 H   0  0  0  0  0  0  0  0  0  0  0  0
  150.7042  138.9145  160.2225 H   0  0  0  0  0  0  0  0  0  0  0  0
  152.0511  136.3094  155.8711 H   0  0  0  0  0  0  0  0  0  0  0  0
  151.6988  135.2950  157.2354 H   0  0  0  0  0  0  0  0  0  0  0  0
  150.6270  134.1391  155.2691 H   0  0  0  0  0  0  0  0  0  0  0  0
  147.8842  134.0059  155.5147 H   0  0  0  0  0  0  0  0  0  0  0  0
  148.1304  135.1380  154.2043 H   0  0  0  0  0  0  0  0  0  0  0  0
  149.6914  133.3283  153.1348 H   0  0  0  0  0  0  0  0  0  0  0  0
  149.0953  132.2283  154.3531 H   0  0  0  0  0  0  0  0  0  0  0  0
  147.2947  130.7992  153.6215 H   0  0  0  0  0  0  0  0  0  0  0  0
  145.3086  130.4350  152.1487 H   0  0  0  0  0  0  0  0  0  0  0  0
  144.5577  132.2745  150.6260 H   0  0  0  0  0  0  0  0  0  0  0  0
  145.8705  134.4762  150.6404 H   0  0  0  0  0  0  0  0  0  0  0  0
  147.6915  134.6806  152.0544 H   0  0  0  0  0  0  0  0  0  0  0  0
  1  2  1  0  0  0  0
  1 26  1  0  0  0  0
  1 27  1  0  0  0  0
  1 28  1  0  0  0  0
  2  7  1  0  0  0  0
  2  3  1  0  0  0  0
  2 29  1  0  0  0  0
  3  4  1  0  0  0  0
  3 30  1  0  0  0  0
  3 31  1  0  0  0  0
  4  5  1  0  0  0  0
  4 32  1  0  0  0  0
  4 33  1  0  0  0  0
  5  6  1  0  0  0  0
  5 34  1  0  0  0  0
  5 35  1  0  0  0  0
  6  7  1  0  0  0  0
  6 36  1  0  0  0  0
  6 37  1  0  0  0  0
  7 24  1  0  0  0  0
  7  8  1  0  0  0  0
  8  9  1  0  0  0  0
  8 38  1  0  0  0  0
  9 10  2  0  0  0  0
  9 11  1  0  0  0  0
 11 12  1  0  0  0  0
 11 24  1  0  0  0  0
 12 13  1  0  0  0  0
 12 39  1  0  0  0  0
 12 40  1  0  0  0  0
 13 14  2  0  0  0  0
 13 15  1  0  0  0  0
 15 16  1  0  0  0  0
 15 41  1  0  0  0  0
 16 17  1  0  0  0  0
 16 42  1  0  0  0  0
 16 43  1  0  0  0  0
 17 18  1  0  0  0  0
 17 44  1  0  0  0  0
 17 45  1  0  0  0  0
 18 23  1  0  0  0  0
 18 19  2  0  0  0  0
 19 20  1  0  0  0  0
 19 46  1  0  0  0  0
 20 21  2  0  0  0  0
 20 47  1  0  0  0  0
 21 22  1  0  0  0  0
 21 48  1  0  0  0  0
 22 23  2  0  0  0  0
 22 49  1  0  0  0  0
 23 50  1  0  0  0  0
 24 25  2  0  0  0  0
M  CHG  1  23   1
M  END
> <s_m_source_file>
AV-unprocessed.smi

> <i_m_source_file_index>
2973

> <i_lp_mmshare_version>
43012

> <i_f3d_flags>
0

> <s_epik_input>
W0NIMl0xW0NIMl1bQ0gyXVtDSDJdW0NAQEhdKFtDSDNdKVtDQF0xMltOSF1DKD1PKU4oQzI9TylbQ0gyXUMoPU8pW05IXVtDSDJdW0NIMl1jM1tjSF1bY0hdW2NIXVtjSF1uMw==

> <s_epik_cmdline>
J2VwaWtfcHl0aG9uJywgJy1waCcsICc3LjAnLCAnLXRuJywgJzgnLCAnLW1hJywgJzIwMCcsICctbWV0YWxfYmluZGluZycsICctaW1hZScsICc8aW5maWxlLm1hZT4nLCAnLW9tYWUnLCAnPG91dGZpbGUubWFlPic=

> <r_lp_tautomer_probability>
1

> <r_epik_Ionization_Penalty>
1.90043

> <r_epik_Ionization_Penalty_Charging>
1.90039

> <r_epik_Ionization_Penalty_Neutral>
4.65525e-05

> <r_epik_State_Penalty>
2.02162

> <r_epik_Charging_Adjusted_Penalty>
3.922

> <i_epik_Tot_Q>
1

> <i_epik_Tot_abs_Q>
1

> <r_epik_Metal_State_Penalty>
2.06631

> <b_epik_Metal_Only>
0

> <s_lp_Force_Field>
OPLS_2005

> <r_lp_Energy>
28.0299

> <b_lp_Chiralities_Consistent>
1

> <s_lp_Variant>
AV-unprocessed.smi:2973-6

> <Gold.Version>
5.8.1

> <Gold.Id.Protein>
6NUR|6NUR_protein|mol2

> <Gold.PLP.Fitness>
51.0906

> <Gold.PLP.PLP>
-39.3591

> <Gold.PLP.part.hbond>
-3.0000

> <Gold.PLP.part.metal>
0.0000

> <Gold.PLP.part.buried>
-4.3357

> <Gold.PLP.part.nonpolar>
-31.2719

> <Gold.PLP.part.repulsive>
0.2856

> <Gold.PLP.ligand.clash>
0.0000

> <Gold.PLP.ligand.torsion>
0.1537

> <Gold.PLP.Chemscore.Hbond>
4.0000

> <Gold.PLP.Chemscore.CHOScore>
0.0000

> <Gold.PLP.Chemscore.Metal>
0.0000

> <Gold.Chemscore.Hbonds>
donor molecule, donor type, donor heavy atom, donor atom, acceptor molecule, acceptor atom, score
      L1  H    23    50       P1  7948  2.00
      P1  H  6896  6909       L1    10  1.00
      P1  H  7997  8010       L1    25  0.80

> <Gold.PLP.Chemscore.Internal.Correction>
0.0390

> <Gold.Rescore>
     Score         DG    S(hbond)    S(metal)    S(lipo)     H(rot)  DE(clash)    DE(int)     intcor
     20.74     -21.05       2.89        0.00      93.50       1.96       0.00       0.30       ----

> <Gold.Chemscore.Fitness>
20.7435

> <Gold.Chemscore.DG>
-21.0468

> <Gold.Chemscore.ZeroCoef>
-5.4800

> <Gold.Chemscore.Hbond>
2.8908

> <Gold.Chemscore.Metal>
0.0000

> <Gold.Chemscore.Lipo>
93.4962

> <Gold.Chemscore.Internal_Hbond>
0.0000

> <Gold.Chemscore.DEClash>
0.0013

> <Gold.Chemscore.DEInternal>
0.3019

> <Gold.Chemscore.Rot>
1.9638

> <Gold.Chemscore.Internal.Correction>
   9.000000E+99

> <Gold.Chemscore.Hbonds>
donor molecule, donor type, donor heavy atom, donor atom, acceptor molecule, acceptor atom, score
      L1  H    23    50       P1  7948  0.60
      P1  H  6896  6909       L1    10  0.91
      P1  H  7997  8010       L1    25  0.78

> <Gold.Chemscore.Hbond.Weighted>
-9.6552

> <Gold.Chemscore.Metal.Weighted>
-0.0000

> <Gold.Chemscore.Lipo.Weighted>
-10.9391

> <Gold.Chemscore.Internal_Hbond.Weighted>
0.0000

> <Gold.Chemscore.DEClash.Weighted>
0.0013

> <Gold.Chemscore.DEInternal.Weighted>
0.3019

> <Gold.Chemscore.Rot.Weighted>
5.0274

> <Gold.Chemscore.Internal.Correction.Weighted>
   9.000000E+99

> <Gold.Protein.RotatedTorsions>
[ 6907 6896 6895 6894 ] final   85.10 input  -60.11 | X-H torsion
[ 7974 7965 7964 7962 ] final -143.24 input  175.53 | X-H torsion
[ 8008 7997 7996 7995 ] final   77.89 input   59.86 | X-H torsion
[ 10167 10162 10161 10158 ] final -106.77 input  -65.29 | X-H torsion
[ 10718 10713 10712 10709 ] final -150.41 input   66.30 | X-H torsion
[ 10763 10752 10751 10750 ] final   50.28 input  -60.55 | X-H torsion
[ 11005 11000 10999 10996 ] final  161.65 input  -57.11 | X-H torsion

> <Gold.Protein.ActiveResidues>
 VAL166  LYS551  ARG553  GLY616  TRP617  ASP618  TYR619  PRO620  LYS621  CYS622 
 ASP623  PHE694  ASN695  SER759  ASP760  ASP761  ALA762  ILE779  LEU786  VAL792 
 PHE793  MET794  SER795  GLU796  ALA797  LYS798  CYS799  TRP800  GLU811  SER814 

> <Gold.Protein.RotatedAtoms>
  152.5367  134.2638  159.8945 H   0  0  0  0  0  0  0  0  0  0  0  0  # atno 6907 bound_to 6896
  151.2597  133.4301  159.2623 H   0  0  0  0  0  0  0  0  0  0  0  0  # atno 6908 bound_to 6896
  151.0464  134.9657  159.8245 H   0  0  0  0  0  0  0  0  0  0  0  0  # atno 6909 bound_to 6896
  144.8384  140.5859  143.5468 H   0  0  0  0  0  0  0  0  0  0  0  0  # atno 7974 bound_to 7965
  155.8481  140.3459  155.5675 H   0  0  0  0  0  0  0  0  0  0  0  0  # atno 8008 bound_to 7997
  155.8068  140.0893  157.1946 H   0  0  0  0  0  0  0  0  0  0  0  0  # atno 8009 bound_to 7997
  154.4007  140.1455  156.3327 H   0  0  0  0  0  0  0  0  0  0  0  0  # atno 8010 bound_to 7997
  140.1842  143.3943  152.1258 H   0  0  0  0  0  0  0  0  0  0  0  0  # atno 10167 bound_to 10162
  156.4458  130.8144  151.2374 H   0  0  0  0  0  0  0  0  0  0  0  0  # atno 10718 bound_to 10713
  152.9785  135.5884  154.4226 H   0  0  0  0  0  0  0  0  0  0  0  0  # atno 10763 bound_to 10752
  154.3848  135.2767  155.2191 H   0  0  0  0  0  0  0  0  0  0  0  0  # atno 10764 bound_to 10752
  154.4089  135.6086  153.5995 H   0  0  0  0  0  0  0  0  0  0  0  0  # atno 10765 bound_to 10752
  140.2179  134.8218  157.3189 H   0  0  0  0  0  0  0  0  0  0  0  0  # atno 11005 bound_to 11000
  145.4745  139.1500  143.3795 LP  0  0  0  0  0  0  0  0  0  0  0  0  # atno 17320 bound_to 7965
  146.2680  140.4880  142.8826 LP  0  0  0  0  0  0  0  0  0  0  0  0  # atno 17321 bound_to 7965
  139.5283  144.7129  151.5147 LP  0  0  0  0  0  0  0  0  0  0  0  0  # atno 17342 bound_to 10162
  140.6499  143.8717  150.6775 LP  0  0  0  0  0  0  0  0  0  0  0  0  # atno 17343 bound_to 10162
  157.7505  131.0153  150.3501 LP  0  0  0  0  0  0  0  0  0  0  0  0  # atno 17370 bound_to 10713
  156.3868  130.3890  149.7059 LP  0  0  0  0  0  0  0  0  0  0  0  0  # atno 17371 bound_to 10713
  140.1881  134.4406  155.7732 LP  0  0  0  0  0  0  0  0  0  0  0  0  # atno 17394 bound_to 11000
  141.2224  133.7014  156.7981 LP  0  0  0  0  0  0  0  0  0  0  0  0  # atno 17395 bound_to 11000

$$$$
