AV-unprocessed.smi:1247|AV-procd|sdf|5248|dock3
  -GOLD-   22720 4353D 1   1.00000     0.00000
 Structure written by MMmdl.
 47 48  0  0  0  0  0  0  0  0  2 V2000
  143.4116  132.8274  148.5474 C   0  0  0  0  0  0  0  0  0  0  0  0
  144.4144  133.3523  149.5323 C   0  0  0  0  0  0  0  0  0  0  0  0
  144.5400  134.6809  150.0324 C   0  0  0  0  0  0  0  0  0  0  0  0
  145.6062  134.5828  150.8843 C   0  0  0  0  0  0  0  0  0  0  0  0
  146.1832  135.5500  151.6464 N   0  0  0  0  0  0  0  0  0  0  0  0
  145.6038  136.6111  152.2351 C   0  0  0  0  0  0  0  0  0  0  0  0
  144.4076  136.8968  152.1773 O   0  0  0  0  0  0  0  0  0  0  0  0
  146.5005  137.3446  152.9105 N   0  0  0  0  0  0  0  0  0  0  0  0
  146.1811  138.5469  153.6719 C   0  0  0  0  0  0  0  0  0  0  0  0
  147.1286  139.7100  153.3202 C   0  0  0  0  0  0  0  0  0  0  0  0
  148.2122  139.8729  154.3209 N   0  3  1  0  0  0  0  0  0  0  0  0
  149.3081  138.8937  154.1370 C   0  0  0  0  0  0  0  0  0  0  0  0
  150.3519  139.0376  155.2592 C   0  0  1  0  0  0  0  0  0  0  0  0
  151.5465  138.0989  155.0575 C   0  0  0  0  0  0  0  0  0  0  0  0
  150.8443  140.3748  155.2797 O   0  0  0  0  0  0  0  0  0  0  0  0
  149.8463  141.3793  155.4596 C   0  0  2  0  0  0  0  0  0  0  0  0
  149.2847  141.3947  156.8925 C   0  0  0  0  0  0  0  0  0  0  0  0
  148.7595  141.2514  154.3740 C   0  0  0  0  0  0  0  0  0  0  0  0
  146.0623  133.2828  150.8780 N   0  0  0  0  0  0  0  0  0  0  0  0
  147.1632  132.6869  151.6098 C   0  0  0  0  0  0  0  0  0  0  0  0
  145.3237  132.5262  150.0375 N   0  0  0  0  0  0  0  0  0  0  0  0
  142.7196  133.6099  148.2351 H   0  0  0  0  0  0  0  0  0  0  0  0
  142.8230  132.0179  148.9795 H   0  0  0  0  0  0  0  0  0  0  0  0
  143.9032  132.4438  147.6532 H   0  0  0  0  0  0  0  0  0  0  0  0
  143.9376  135.5437  149.7921 H   0  0  0  0  0  0  0  0  0  0  0  0
  147.1780  135.4497  151.7856 H   0  0  0  0  0  0  0  0  0  0  0  0
  147.4645  137.0440  152.9094 H   0  0  0  0  0  0  0  0  0  0  0  0
  145.1381  138.8124  153.4974 H   0  0  0  0  0  0  0  0  0  0  0  0
  146.2653  138.3086  154.7326 H   0  0  0  0  0  0  0  0  0  0  0  0
  147.5681  139.5025  152.3434 H   0  0  0  0  0  0  0  0  0  0  0  0
  146.5827  140.6492  153.2172 H   0  0  0  0  0  0  0  0  0  0  0  0
  148.9034  137.8808  154.1449 H   0  0  0  0  0  0  0  0  0  0  0  0
  149.7733  139.0456  153.1613 H   0  0  0  0  0  0  0  0  0  0  0  0
  149.8937  138.7988  156.2193 H   0  0  0  0  0  0  0  0  0  0  0  0
  151.2291  137.0560  155.0447 H   0  0  0  0  0  0  0  0  0  0  0  0
  152.2727  138.2143  155.8624 H   0  0  0  0  0  0  0  0  0  0  0  0
  152.0576  138.3056  154.1166 H   0  0  0  0  0  0  0  0  0  0  0  0
  150.3515  142.3341  155.3111 H   0  0  0  0  0  0  0  0  0  0  0  0
  148.6351  142.2573  157.0433 H   0  0  0  0  0  0  0  0  0  0  0  0
  150.0904  141.4588  157.6242 H   0  0  0  0  0  0  0  0  0  0  0  0
  148.6974  140.5049  157.1179 H   0  0  0  0  0  0  0  0  0  0  0  0
  149.1876  141.5006  153.4016 H   0  0  0  0  0  0  0  0  0  0  0  0
  147.9689  141.9775  154.5611 H   0  0  0  0  0  0  0  0  0  0  0  0
  147.1299  133.0060  152.6520 H   0  0  0  0  0  0  0  0  0  0  0  0
  148.1085  133.0039  151.1685 H   0  0  0  0  0  0  0  0  0  0  0  0
  147.1015  131.5983  151.5748 H   0  0  0  0  0  0  0  0  0  0  0  0
  147.8054  139.6768  155.2243 H   0  0  0  0  0  0  0  0  0  0  0  0
  1  2  1  0  0  0  0
  1 22  1  0  0  0  0
  1 23  1  0  0  0  0
  1 24  1  0  0  0  0
  2 21  2  0  0  0  0
  2  3  1  0  0  0  0
  3  4  2  0  0  0  0
  3 25  1  0  0  0  0
  4  5  1  0  0  0  0
  4 19  1  0  0  0  0
  5  6  1  0  0  0  0
  5 26  1  0  0  0  0
  6  7  2  0  0  0  0
  6  8  1  0  0  0  0
  8  9  1  0  0  0  0
  8 27  1  0  0  0  0
  9 10  1  0  0  0  0
  9 28  1  0  0  0  0
  9 29  1  0  0  0  0
 10 11  1  0  0  0  0
 10 30  1  0  0  0  0
 10 31  1  0  0  0  0
 11 18  1  0  0  0  0
 11 12  1  0  0  0  0
 11 47  1  0  0  0  0
 12 13  1  0  0  0  0
 12 32  1  0  0  0  0
 12 33  1  0  0  0  0
 13 14  1  0  0  0  0
 13 15  1  0  0  0  0
 13 34  1  0  0  0  0
 14 35  1  0  0  0  0
 14 36  1  0  0  0  0
 14 37  1  0  0  0  0
 15 16  1  0  0  0  0
 16 17  1  0  0  0  0
 16 18  1  0  0  0  0
 16 38  1  0  0  0  0
 17 39  1  0  0  0  0
 17 40  1  0  0  0  0
 17 41  1  0  0  0  0
 18 42  1  0  0  0  0
 18 43  1  0  0  0  0
 19 20  1  0  0  0  0
 19 21  1  0  0  0  0
 20 44  1  0  0  0  0
 20 45  1  0  0  0  0
 20 46  1  0  0  0  0
M  CHG  1  11   1
M  END
> <s_m_source_file>
AV-unprocessed.smi

> <i_m_source_file_index>
1247

> <i_lp_mmshare_version>
43012

> <i_f3d_flags>
0

> <s_epik_input>
W0NIM11jMVtjSF1jKG4objEpW0NIM10pW05IXUMoPU8pW05IXVtDSDJdW0NIMl1OMltDSDJdW0NAQEhdKFtDSDNdKU9bQ0BASF0oW0NIM10pW0NIMl0y

> <s_epik_cmdline>
J2VwaWtfcHl0aG9uJywgJy1waCcsICc3LjAnLCAnLXRuJywgJzgnLCAnLW1hJywgJzIwMCcsICctbWV0YWxfYmluZGluZycsICctaW1hZScsICc8aW5maWxlLm1hZT4nLCAnLW9tYWUnLCAnPG91dGZpbGUubWFlPic=

> <r_lp_tautomer_probability>
1

> <r_epik_Ionization_Penalty>
0.663902

> <r_epik_Ionization_Penalty_Charging>
0.663826

> <r_epik_Ionization_Penalty_Neutral>
7.65444e-05

> <r_epik_State_Penalty>
0.683414

> <r_epik_Charging_Adjusted_Penalty>
1.34724

> <i_epik_Tot_Q>
1

> <i_epik_Tot_abs_Q>
1

> <r_epik_Metal_State_Penalty>
0.683419

> <b_epik_Metal_Only>
0

> <s_lp_Force_Field>
OPLS_2005

> <r_lp_Energy>
18.4757

> <b_lp_Chiralities_Consistent>
1

> <s_lp_Variant>
AV-unprocessed.smi:1247-6

> <Gold.Version>
5.8.1

> <Gold.Id.Protein>
6NUR|6NUR_protein|mol2

> <Gold.PLP.Fitness>
43.8586

> <Gold.PLP.PLP>
-36.5030

> <Gold.PLP.part.hbond>
-3.0000

> <Gold.PLP.part.metal>
0.0000

> <Gold.PLP.part.buried>
1.6646

> <Gold.PLP.part.nonpolar>
-34.7996

> <Gold.PLP.part.repulsive>
0.7388

> <Gold.PLP.ligand.clash>
0.0000

> <Gold.PLP.ligand.torsion>
0.7759

> <Gold.PLP.Chemscore.Hbond>
2.9600

> <Gold.PLP.Chemscore.CHOScore>
0.0000

> <Gold.PLP.Chemscore.Metal>
0.0000

> <Gold.Chemscore.Hbonds>
donor molecule, donor type, donor heavy atom, donor atom, acceptor molecule, acceptor atom, score
      L1  H     5    26       P1  7948  1.00
      L1  H     8    27       P1  7948  0.93
      P1  H  7989  7998       L1    15  1.00

> <Gold.PLP.Chemscore.Internal.Correction>
0.0273

> <Gold.Rescore>
     Score         DG    S(hbond)    S(metal)    S(lipo)     H(rot)  DE(clash)    DE(int)     intcor
     18.30     -21.38       2.69        0.00      92.48       1.52       1.83       1.25       ----

> <Gold.Chemscore.Fitness>
18.2951

> <Gold.Chemscore.DG>
-21.3780

> <Gold.Chemscore.ZeroCoef>
-5.4800

> <Gold.Chemscore.Hbond>
2.6869

> <Gold.Chemscore.Metal>
0.0000

> <Gold.Chemscore.Lipo>
92.4836

> <Gold.Chemscore.Internal_Hbond>
0.0000

> <Gold.Chemscore.DEClash>
1.8321

> <Gold.Chemscore.DEInternal>
1.2509

> <Gold.Chemscore.Rot>
1.5221

> <Gold.Chemscore.Internal.Correction>
   9.000000E+99

> <Gold.Chemscore.Hbonds>
donor molecule, donor type, donor heavy atom, donor atom, acceptor molecule, acceptor atom, score
      L1  H     5    26       P1  7948  0.95
      L1  H     8    27       P1  7948  0.87
      P1  H  7989  7998       L1    15  0.25

> <Gold.Chemscore.Hbond.Weighted>
-8.9741

> <Gold.Chemscore.Metal.Weighted>
-0.0000

> <Gold.Chemscore.Lipo.Weighted>
-10.8206

> <Gold.Chemscore.Internal_Hbond.Weighted>
0.0000

> <Gold.Chemscore.DEClash.Weighted>
1.8321

> <Gold.Chemscore.DEInternal.Weighted>
1.2509

> <Gold.Chemscore.Rot.Weighted>
3.8967

> <Gold.Chemscore.Internal.Correction.Weighted>
   9.000000E+99

> <Gold.Protein.RotatedTorsions>
[ 6907 6896 6895 6894 ] final   11.73 input  -60.11 | X-H torsion
[ 7974 7965 7964 7962 ] final  -42.06 input  175.53 | X-H torsion
[ 8008 7997 7996 7995 ] final  106.44 input   59.86 | X-H torsion
[ 10167 10162 10161 10158 ] final -127.56 input  -65.29 | X-H torsion
[ 10718 10713 10712 10709 ] final  144.49 input   66.30 | X-H torsion
[ 10763 10752 10751 10750 ] final  179.88 input  -60.55 | X-H torsion
[ 11005 11000 10999 10996 ] final    0.47 input  -57.11 | X-H torsion

> <Gold.Protein.ActiveResidues>
 VAL166  LYS551  ARG553  GLY616  TRP617  ASP618  TYR619  PRO620  LYS621  CYS622 
 ASP623  PHE694  ASN695  SER759  ASP760  ASP761  ALA762  ILE779  LEU786  VAL792 
 PHE793  MET794  SER795  GLU796  ALA797  LYS798  CYS799  TRP800  GLU811  SER814 

> <Gold.Protein.RotatedAtoms>
  151.7590  135.0814  160.0342 H   0  0  0  0  0  0  0  0  0  0  0  0  # atno 6907 bound_to 6896
  152.3366  133.6014  159.5855 H   0  0  0  0  0  0  0  0  0  0  0  0  # atno 6908 bound_to 6896
  150.7454  133.9703  159.3585 H   0  0  0  0  0  0  0  0  0  0  0  0  # atno 6909 bound_to 6896
  146.0152  140.6917  142.9205 H   0  0  0  0  0  0  0  0  0  0  0  0  # atno 7974 bound_to 7965
  156.1743  140.3113  155.9030 H   0  0  0  0  0  0  0  0  0  0  0  0  # atno 8008 bound_to 7997
  155.3521  140.0471  157.3063 H   0  0  0  0  0  0  0  0  0  0  0  0  # atno 8009 bound_to 7997
  154.5273  140.2219  155.8877 H   0  0  0  0  0  0  0  0  0  0  0  0  # atno 8010 bound_to 7997
  139.9596  143.5965  152.2449 H   0  0  0  0  0  0  0  0  0  0  0  0  # atno 10167 bound_to 10162
  157.3566  131.0959  151.0953 H   0  0  0  0  0  0  0  0  0  0  0  0  # atno 10718 bound_to 10713
  154.5264  135.2797  155.1218 H   0  0  0  0  0  0  0  0  0  0  0  0  # atno 10763 bound_to 10752
  154.2756  135.6295  153.5330 H   0  0  0  0  0  0  0  0  0  0  0  0  # atno 10764 bound_to 10752
  152.9947  135.5639  154.5766 H   0  0  0  0  0  0  0  0  0  0  0  0  # atno 10765 bound_to 10752
  140.6262  133.9616  155.8250 H   0  0  0  0  0  0  0  0  0  0  0  0  # atno 11005 bound_to 11000
  144.6968  140.3468  143.7189 LP  0  0  0  0  0  0  0  0  0  0  0  0  # atno 17320 bound_to 7965
  145.7280  139.1728  143.2446 LP  0  0  0  0  0  0  0  0  0  0  0  0  # atno 17321 bound_to 7965
  139.6564  144.7662  151.2047 LP  0  0  0  0  0  0  0  0  0  0  0  0  # atno 17342 bound_to 10162
  140.7557  143.6079  150.8635 LP  0  0  0  0  0  0  0  0  0  0  0  0  # atno 17343 bound_to 10162
  157.2108  130.6437  149.5773 LP  0  0  0  0  0  0  0  0  0  0  0  0  # atno 17370 bound_to 10713
  155.9730  130.4660  150.6275 LP  0  0  0  0  0  0  0  0  0  0  0  0  # atno 17371 bound_to 10713
  141.0707  134.0209  157.3530 LP  0  0  0  0  0  0  0  0  0  0  0  0  # atno 17394 bound_to 11000
  139.9134  135.0193  156.7783 LP  0  0  0  0  0  0  0  0  0  0  0  0  # atno 17395 bound_to 11000

$$$$
