AV-unprocessed.smi:876|AV-procd|sdf|4025|dock2
  -GOLD-   22720 1513D 1   1.00000     0.00000
 Structure written by MMmdl.
 40 41  0  0  0  0  0  0  0  0  1 V2000
  153.6218  142.2360  161.8519 C   0  0  0  0  0  0  0  0  0  0  0  0
  153.4509  141.4952  160.6082 N   0  0  0  0  0  0  0  0  0  0  0  0
  154.3102  140.3516  160.3190 C   0  0  0  0  0  0  0  0  0  0  0  0
  152.4335  141.8591  159.6966 C   0  0  0  0  0  0  0  0  0  0  0  0
  152.0881  143.2156  159.4754 C   0  0  0  0  0  0  0  0  0  0  0  0
  151.0685  143.5285  158.5556 C   0  0  0  0  0  0  0  0  0  0  0  0
  150.4184  142.4781  157.8680 C   0  0  0  0  0  0  0  0  0  0  0  0
  149.3653  142.6577  156.9306 N   0  0  0  0  0  0  0  0  0  0  0  0
  148.6610  141.7247  156.2674 C   0  0  0  0  0  0  0  0  0  0  0  0
  148.8033  140.5073  156.3800 O   0  0  0  0  0  0  0  0  0  0  0  0
  147.7499  142.2893  155.4628 N   0  0  0  0  0  0  0  0  0  0  0  0
  146.8172  141.5559  154.6144 C   0  0  2  0  0  0  0  0  0  0  0  0
  146.0399  140.5569  155.4262 C   0  0  0  0  0  0  0  0  0  0  0  0
  146.1925  139.3090  154.9896 C   0  0  0  0  0  0  0  0  0  0  0  0
  147.1229  139.2111  153.8075 C   0  0  1  0  0  0  0  0  0  0  0  0
  146.4677  138.5393  152.5882 C   0  0  0  0  0  0  0  0  0  0  0  0
  147.3076  138.6338  151.4564 O   0  0  0  0  0  0  0  0  0  0  0  0
  147.5302  140.6841  153.5469 C   0  0  0  0  0  0  0  0  0  0  0  0
  150.8203  141.1610  158.1632 C   0  0  0  0  0  0  0  0  0  0  0  0
  151.7966  140.8569  159.0428 N   0  0  0  0  0  0  0  0  0  0  0  0
  146.1115  142.2447  154.1463 H   0  0  0  0  0  0  0  0  0  0  0  0
  148.0007  138.6403  154.1142 H   0  0  0  0  0  0  0  0  0  0  0  0
  152.7096  142.2006  162.4482 H   0  0  0  0  0  0  0  0  0  0  0  0
  153.8662  143.2788  161.6470 H   0  0  0  0  0  0  0  0  0  0  0  0
  154.4280  141.8183  162.4552 H   0  0  0  0  0  0  0  0  0  0  0  0
  154.8319  140.4929  159.3721 H   0  0  0  0  0  0  0  0  0  0  0  0
  153.7208  139.4363  160.2569 H   0  0  0  0  0  0  0  0  0  0  0  0
  155.0628  140.2124  161.0950 H   0  0  0  0  0  0  0  0  0  0  0  0
  152.5813  144.0234  159.9944 H   0  0  0  0  0  0  0  0  0  0  0  0
  150.8013  144.5634  158.4101 H   0  0  0  0  0  0  0  0  0  0  0  0
  149.0782  143.6145  156.7848 H   0  0  0  0  0  0  0  0  0  0  0  0
  147.6947  143.2970  155.4357 H   0  0  0  0  0  0  0  0  0  0  0  0
  145.4217  140.8509  156.2617 H   0  0  0  0  0  0  0  0  0  0  0  0
  145.7241  138.4384  155.4247 H   0  0  0  0  0  0  0  0  0  0  0  0
  146.2547  137.4888  152.7906 H   0  0  0  0  0  0  0  0  0  0  0  0
  145.5188  139.0229  152.3544 H   0  0  0  0  0  0  0  0  0  0  0  0
  147.9808  139.2728  151.6340 H   0  0  0  0  0  0  0  0  0  0  0  0
  147.2334  141.0065  152.5480 H   0  0  0  0  0  0  0  0  0  0  0  0
  148.6151  140.7884  153.5959 H   0  0  0  0  0  0  0  0  0  0  0  0
  150.3471  140.3209  157.6760 H   0  0  0  0  0  0  0  0  0  0  0  0
  1  2  1  0  0  0  0
  1 23  1  0  0  0  0
  1 24  1  0  0  0  0
  1 25  1  0  0  0  0
  2  3  1  0  0  0  0
  2  4  1  0  0  0  0
  3 26  1  0  0  0  0
  3 27  1  0  0  0  0
  3 28  1  0  0  0  0
  4 20  1  0  0  0  0
  4  5  2  0  0  0  0
  5  6  1  0  0  0  0
  5 29  1  0  0  0  0
  6  7  2  0  0  0  0
  6 30  1  0  0  0  0
  7  8  1  0  0  0  0
  7 19  1  0  0  0  0
  8  9  1  0  0  0  0
  8 31  1  0  0  0  0
  9 10  2  0  0  0  0
  9 11  1  0  0  0  0
 11 12  1  0  0  0  0
 11 32  1  0  0  0  0
 12 21  1  0  0  0  0
 12 18  1  0  0  0  0
 12 13  1  0  0  0  0
 13 14  2  0  0  0  0
 13 33  1  0  0  0  0
 14 15  1  0  0  0  0
 14 34  1  0  0  0  0
 15 22  1  0  0  0  0
 15 16  1  0  0  0  0
 15 18  1  0  0  0  0
 16 17  1  0  0  0  0
 16 35  1  0  0  0  0
 16 36  1  0  0  0  0
 17 37  1  0  0  0  0
 18 38  1  0  0  0  0
 18 39  1  0  0  0  0
 19 20  2  0  0  0  0
 19 40  1  0  0  0  0
M  END
> <s_m_source_file>
AV-unprocessed.smi

> <i_m_source_file_index>
876

> <i_lp_mmshare_version>
43012

> <i_f3d_flags>
0

> <s_epik_input>
W0NIM11OKFtDSDNdKWMxW2NIXVtjSF1jKFtjSF1uMSlbTkhdQyg9TylbTkhdW0NAQEhdMltDSF09W0NIXVtDQEBIXShbQ0gyXTIpW0NIMl1bT0hd

> <s_epik_cmdline>
J2VwaWtfcHl0aG9uJywgJy1waCcsICc3LjAnLCAnLXRuJywgJzgnLCAnLW1hJywgJzIwMCcsICctbWV0YWxfYmluZGluZycsICctaW1hZScsICc8aW5maWxlLm1hZT4nLCAnLW9tYWUnLCAnPG91dGZpbGUubWFlPic=

> <r_lp_tautomer_probability>
1

> <r_epik_Ionization_Penalty>
0.617998

> <r_epik_Ionization_Penalty_Charging>
0

> <r_epik_Ionization_Penalty_Neutral>
0.617998

> <r_epik_State_Penalty>
0.632637

> <r_epik_Charging_Adjusted_Penalty>
0.632637

> <i_epik_Tot_Q>
0

> <i_epik_Tot_abs_Q>
0

> <r_epik_Metal_State_Penalty>
0.305596

> <b_epik_Metal_Only>
0

> <s_lp_Force_Field>
OPLS_2005

> <r_lp_Energy>
20.6099

> <b_lp_Chiralities_Consistent>
1

> <s_lp_Variant>
AV-unprocessed.smi:876-7

> <Gold.Version>
5.8.1

> <Gold.Id.Protein>
6NUR|6NUR_protein|mol2

> <Gold.PLP.Fitness>
48.2700

> <Gold.PLP.PLP>
-38.4997

> <Gold.PLP.part.hbond>
-4.8450

> <Gold.PLP.part.metal>
0.0000

> <Gold.PLP.part.buried>
-3.1440

> <Gold.PLP.part.nonpolar>
-30.9272

> <Gold.PLP.part.repulsive>
0.1317

> <Gold.PLP.ligand.clash>
0.0000

> <Gold.PLP.ligand.torsion>
0.5710

> <Gold.PLP.Chemscore.Hbond>
3.6288

> <Gold.PLP.Chemscore.CHOScore>
0.0000

> <Gold.PLP.Chemscore.Metal>
0.0000

> <Gold.Chemscore.Hbonds>
donor molecule, donor type, donor heavy atom, donor atom, acceptor molecule, acceptor atom, score
      L1  H     8    31       P1  8028  0.88
      L1  H    11    32       P1  8028  0.77
      L1  H    17    37       P1  7957  0.94
      P1  H  7954  7966       L1    17  0.75

> <Gold.PLP.Chemscore.Internal.Correction>
0.0260

> <Gold.Rescore>
     Score         DG    S(hbond)    S(metal)    S(lipo)     H(rot)  DE(clash)    DE(int)     intcor
     14.97     -18.88       2.57        0.00      80.55       1.80       0.26       3.65       ----

> <Gold.Chemscore.Fitness>
14.9702

> <Gold.Chemscore.DG>
-18.8819

> <Gold.Chemscore.ZeroCoef>
-5.4800

> <Gold.Chemscore.Hbond>
2.5690

> <Gold.Chemscore.Metal>
0.0000

> <Gold.Chemscore.Lipo>
80.5502

> <Gold.Chemscore.Internal_Hbond>
0.0000

> <Gold.Chemscore.DEClash>
0.2632

> <Gold.Chemscore.DEInternal>
3.6485

> <Gold.Chemscore.Rot>
1.7980

> <Gold.Chemscore.Internal.Correction>
   9.000000E+99

> <Gold.Chemscore.Hbonds>
donor molecule, donor type, donor heavy atom, donor atom, acceptor molecule, acceptor atom, score
      L1  H     8    31       P1  8028  0.66
      L1  H    11    32       P1  8028  0.23
      L1  H    17    37       P1  7957  0.89
      P1  H  7954  7966       L1    17  0.09

> <Gold.Chemscore.Hbond.Weighted>
-8.5803

> <Gold.Chemscore.Metal.Weighted>
-0.0000

> <Gold.Chemscore.Lipo.Weighted>
-9.4244

> <Gold.Chemscore.Internal_Hbond.Weighted>
0.0000

> <Gold.Chemscore.DEClash.Weighted>
0.2632

> <Gold.Chemscore.DEInternal.Weighted>
3.6485

> <Gold.Chemscore.Rot.Weighted>
4.6029

> <Gold.Chemscore.Internal.Correction.Weighted>
   9.000000E+99

> <Gold.Protein.RotatedTorsions>
[ 6907 6896 6895 6894 ] final -148.49 input  -60.11 | X-H torsion
[ 7974 7965 7964 7962 ] final  -86.20 input  175.53 | X-H torsion
[ 8008 7997 7996 7995 ] final -113.94 input   59.86 | X-H torsion
[ 10167 10162 10161 10158 ] final   34.66 input  -65.29 | X-H torsion
[ 10718 10713 10712 10709 ] final   83.33 input   66.30 | X-H torsion
[ 10763 10752 10751 10750 ] final   46.01 input  -60.55 | X-H torsion
[ 11005 11000 10999 10996 ] final  -30.98 input  -57.11 | X-H torsion

> <Gold.Protein.ActiveResidues>
 VAL166  LYS551  ARG553  GLY616  TRP617  ASP618  TYR619  PRO620  LYS621  CYS622 
 ASP623  PHE694  ASN695  SER759  ASP760  ASP761  ALA762  ILE779  LEU786  VAL792 
 PHE793  MET794  SER795  GLU796  ALA797  LYS798  CYS799  TRP800  GLU811  SER814 

> <Gold.Protein.RotatedAtoms>
  151.1706  133.4787  159.2593 H   0  0  0  0  0  0  0  0  0  0  0  0  # atno 6907 bound_to 6896
  151.1360  135.0155  159.8614 H   0  0  0  0  0  0  0  0  0  0  0  0  # atno 6908 bound_to 6896
  152.5461  134.1604  159.8608 H   0  0  0  0  0  0  0  0  0  0  0  0  # atno 6909 bound_to 6896
  145.4831  140.9556  143.1853 H   0  0  0  0  0  0  0  0  0  0  0  0  # atno 7974 bound_to 7965
  155.0285  140.0393  157.2465 H   0  0  0  0  0  0  0  0  0  0  0  0  # atno 8008 bound_to 7997
  154.7317  140.2732  155.6427 H   0  0  0  0  0  0  0  0  0  0  0  0  # atno 8009 bound_to 7997
  156.2843  140.2683  156.2019 H   0  0  0  0  0  0  0  0  0  0  0  0  # atno 8010 bound_to 7997
  140.4294  144.1346  150.6157 H   0  0  0  0  0  0  0  0  0  0  0  0  # atno 10167 bound_to 10162
  157.6876  131.0086  150.2507 H   0  0  0  0  0  0  0  0  0  0  0  0  # atno 10718 bound_to 10713
  152.9816  135.6021  154.3531 H   0  0  0  0  0  0  0  0  0  0  0  0  # atno 10763 bound_to 10752
  154.3218  135.2769  155.2517 H   0  0  0  0  0  0  0  0  0  0  0  0  # atno 10764 bound_to 10752
  154.4680  135.5949  153.6357 H   0  0  0  0  0  0  0  0  0  0  0  0  # atno 10765 bound_to 10752
  140.9429  133.7267  156.1103 H   0  0  0  0  0  0  0  0  0  0  0  0  # atno 11005 bound_to 11000
  144.7877  139.6392  143.7127 LP  0  0  0  0  0  0  0  0  0  0  0  0  # atno 17320 bound_to 7965
  146.2329  139.5849  142.9543 LP  0  0  0  0  0  0  0  0  0  0  0  0  # atno 17321 bound_to 7965
  140.4444  143.2513  151.9431 LP  0  0  0  0  0  0  0  0  0  0  0  0  # atno 17342 bound_to 10162
  139.4784  144.5623  151.8219 LP  0  0  0  0  0  0  0  0  0  0  0  0  # atno 17343 bound_to 10162
  156.3104  130.3771  149.7667 LP  0  0  0  0  0  0  0  0  0  0  0  0  # atno 17370 bound_to 10713
  156.5269  130.8240  151.3223 LP  0  0  0  0  0  0  0  0  0  0  0  0  # atno 17371 bound_to 10713
  140.7709  134.3834  157.5508 LP  0  0  0  0  0  0  0  0  0  0  0  0  # atno 17394 bound_to 11000
  139.8825  134.9021  156.2825 LP  0  0  0  0  0  0  0  0  0  0  0  0  # atno 17395 bound_to 11000

$$$$
