#       Name:                AV-unprocessed.smi:250
#       Creating user name   scv26
#       Creation time:       Thu Mar 26 21:05:10 2020


#       File generated by GOLD software.
#

@<TRIPOS>MOLECULE
AV-unprocessed.smi:250
    65    69     1
SMALL
NO_CHARGES


@<TRIPOS>ATOM
      1 ****        -7.5431   0.7943  -0.9907 C.3            1 S1                 0.0000
      2 ****        -6.3438   0.2105  -0.4044 N.am           1 S1                 0.0000
      3 ****        -6.2748  -0.6558   0.6284 C.2            1 S1                 0.0000
      4 ****        -7.2255  -1.1355   1.2430 O.2            1 S1                 0.0000
      5 ****        -4.9791  -0.9102   0.8809 N.am           1 S1                 0.0000
      6 ****        -4.1571  -0.3942  -0.1893 C.3            1 S1                 0.0000
      7 ****        -2.7499   0.1381   0.0710 C.3            1 S1                 0.0000
      8 ****        -2.2350   0.6648  -1.2047 N.pl3          1 S1                 0.0000
      9 ****        -0.8965   0.8939  -1.2294 C.ar           1 S1                 0.0000
     10 ****        -0.4327   2.1458  -1.4901 N.ar           1 S1                 0.0000
     11 ****         0.8803   2.3914  -1.5094 C.ar           1 S1                 0.0000
     12 ****         1.8897   1.5455  -1.2991 N.ar           1 S1                 0.0000
     13 ****         1.4348   0.2859  -1.0430 C.ar           1 S1                 0.0000
     14 ****         0.0717  -0.1245  -0.9947 C.ar           1 S1                 0.0000
     15 ****         0.0011  -1.4881  -0.7344 N.2            1 S1                 0.0000
     16 ****         1.2473  -1.8586  -0.6246 C.2            1 S1                 0.0000
     17 ****         2.1754  -0.8534  -0.7779 N.pl3          1 S1                 0.0000
     18 ****         3.6241  -0.9868  -0.7080 C.3            1 S1                 0.0000
     19 ****         4.2339  -0.7848   0.7115 C.3            1 S1                 0.0000
     20 ****         3.6170  -1.7869   1.7294 C.3            1 S1                 0.0000
     21 ****         3.7969  -3.1319   1.3331 O.3            1 S1                 0.0000
     22 ****         5.7704  -0.9585   0.6109 C.3            1 S1                 0.0000
     23 ****         6.5133  -0.4978   1.8779 C.3            1 S1                 0.0000
     24 ****         6.1911   0.8572   2.1621 O.3            1 S1                 0.0000
     25 ****         4.8081   1.0509   2.4274 C.3            1 S1                 0.0000
     26 ****         3.9732   0.6652   1.1922 C.3            1 S1                 0.0000
     27 ****        -3.0968   1.5955  -1.9661 C.3            1 S1                 0.0000
     28 ****        -4.5668   1.1099  -2.0877 C.3            1 S1                 0.0000
     29 ****        -5.0232   0.7424  -0.6756 C.3            1 S1                 0.0000
     30 ****        -4.0981  -1.1883  -0.9384 H              1 S1                 0.0000
     31 ****        -4.9084   1.6184  -0.0315 H              1 S1                 0.0000
     32 ****        -8.4538   0.3447  -0.5929 H              1 S1                 0.0000
     33 ****        -7.5409   0.6490  -2.0710 H              1 S1                 0.0000
     34 ****        -7.5773   1.8652  -0.7898 H              1 S1                 0.0000
     35 ****        -4.6417  -1.5448   1.5901 H              1 S1                 0.0000
     36 ****        -2.7644   0.9336   0.8173 H              1 S1                 0.0000
     37 ****        -2.1247  -0.6616   0.4648 H              1 S1                 0.0000
     38 ****         1.1625   3.4121  -1.7220 H              1 S1                 0.0000
     39 ****         1.5259  -2.8826  -0.4226 H              1 S1                 0.0000
     40 ****         3.8878  -1.9717  -1.0957 H              1 S1                 0.0000
     41 ****         4.0591  -0.2734  -1.4093 H              1 S1                 0.0000
     42 ****         4.0565  -1.6768   2.7192 H              1 S1                 0.0000
     43 ****         2.5501  -1.6047   1.8573 H              1 S1                 0.0000
     44 ****         3.4229  -3.6928   1.9956 H              1 S1                 0.0000
     45 ****         6.0291  -1.9937   0.3863 H              1 S1                 0.0000
     46 ****         6.1463  -0.3714  -0.2283 H              1 S1                 0.0000
     47 ****         6.2802  -1.1309   2.7345 H              1 S1                 0.0000
     48 ****         7.5895  -0.5720   1.7217 H              1 S1                 0.0000
     49 ****         4.5101   0.4826   3.3087 H              1 S1                 0.0000
     50 ****         4.6463   2.1016   2.6683 H              1 S1                 0.0000
     51 ****         4.2200   1.3625   0.3906 H              1 S1                 0.0000
     52 ****         2.9150   0.8150   1.4093 H              1 S1                 0.0000
     53 ****        -3.0826   2.5673  -1.4703 H              1 S1                 0.0000
     54 ****        -2.6840   1.7442  -2.9648 H              1 S1                 0.0000
     55 ****        -5.1924   1.8966  -2.5101 H              1 S1                 0.0000
     56 ****        -4.6359   0.2503  -2.7555 H              1 S1                 0.0000
     57 ****        -8.1608  -0.8892   0.9888 LP             1 S1                 0.0000
     58 ****        -7.0635  -1.7721   1.9970 LP             1 S1                 0.0000
     59 ****        -1.0792   2.8875  -1.6686 LP             1 S1                 0.0000
     60 ****         2.8558   1.8020  -1.3258 LP             1 S1                 0.0000
     61 ****        -0.8180  -2.0557  -0.6504 LP             1 S1                 0.0000
     62 ****         4.7729  -3.3276   1.2373 LP             1 S1                 0.0000
     63 ****         3.3378  -3.2902   0.4589 LP             1 S1                 0.0000
     64 ****         6.4470   1.4182   1.3749 LP             1 S1                 0.0000
     65 ****         6.7139   1.1486   2.9632 LP             1 S1                 0.0000
@<TRIPOS>BOND
    1    1    2 1     
    2    1   32 1     
    3    1   33 1     
    4    1   34 1     
    5    2   29 1     
    6    2    3 am    
    7    3    4 2     
    8    3    5 am    
    9    5    6 1     
   10    5   35 1     
   11    6   30 1     
   12    6   29 1     
   13    6    7 1     
   14    7    8 1     
   15    7   36 1     
   16    7   37 1     
   17    8    9 1     
   18    8   27 1     
   19    9   14 ar    
   20    9   10 ar    
   21   10   11 ar    
   22   11   12 ar    
   23   11   38 1     
   24   12   13 ar    
   25   13   17 1     
   26   13   14 ar    
   27   14   15 1     
   28   15   16 2     
   29   16   17 1     
   30   16   39 1     
   31   17   18 1     
   32   18   19 1     
   33   18   40 1     
   34   18   41 1     
   35   19   26 1     
   36   19   20 1     
   37   19   22 1     
   38   20   21 1     
   39   20   42 1     
   40   20   43 1     
   41   21   44 1     
   42   22   23 1     
   43   22   45 1     
   44   22   46 1     
   45   23   24 1     
   46   23   47 1     
   47   23   48 1     
   48   24   25 1     
   49   25   26 1     
   50   25   49 1     
   51   25   50 1     
   52   26   51 1     
   53   26   52 1     
   54   27   28 1     
   55   27   53 1     
   56   27   54 1     
   57   28   29 1     
   58   28   55 1     
   59   28   56 1     
   60   29   31 1     
   61    4   57 1     
   62    4   58 1     
   63   10   59 1     
   64   12   60 1     
   65   15   61 1     
   66   21   62 1     
   67   21   63 1     
   68   24   64 1     
   69   24   65 1     
@<TRIPOS>SUBSTRUCTURE
      1 S1             1
@<TRIPOS>SET
LONE_PAIRS      STATIC     ATOMS    <user>   **** ""
9 57 58 59 60 61 62 63 64 65
DONOR_HYDROGENS      STATIC     ATOMS    <user>   **** ""
2 35 44
ATOM$BLUE        STATIC     ATOMS    COLORGROUP SYSTEM
9 57 58 59 60 61 62 63 64 65
ATOM$RED        STATIC     ATOMS    COLORGROUP SYSTEM
2 35 44
