AV-unprocessed.smi:2234|AV-procd|sdf|9042|dock6
  -GOLD-   2272012253D 1   1.00000     0.00000
 Structure written by MMmdl.
 21 22  0  0  0  0  0  0  0  0  2 V2000
  152.9980  139.3209  154.8525 O   0  0  0  0  0  0  0  0  0  0  0  0
  151.9622  139.6993  155.4439 C   0  0  0  0  0  0  0  0  0  0  0  0
  150.8937  140.0317  154.8851 O   0  5  0  0  0  0  0  0  0  0  0  0
  152.0160  139.7896  156.9745 C   0  0  2  0  0  0  0  0  0  0  0  0
  151.9108  141.2090  157.5015 C   0  0  0  0  0  0  0  0  0  0  0  0
  152.7242  141.0940  158.7485 C   0  0  0  0  0  0  0  0  0  0  0  0
  152.6439  142.0361  159.8911 C   0  0  0  0  0  0  0  0  0  0  0  0
  153.2704  141.7375  161.1217 C   0  0  0  0  0  0  0  0  0  0  0  0
  153.1643  142.6588  162.1818 C   0  0  0  0  0  0  0  0  0  0  0  0
  152.4327  143.8438  161.9709 C   0  0  0  0  0  0  0  0  0  0  0  0
  151.8258  144.1417  160.8026 N   0  0  0  0  0  0  0  0  0  0  0  0
  151.9309  143.2538  159.7897 C   0  0  0  0  0  0  0  0  0  0  0  0
  153.4705  140.0701  158.7185 N   0  0  0  0  0  0  0  0  0  0  0  0
  153.2721  139.3763  157.4989 O   0  0  0  0  0  0  0  0  0  0  0  0
  151.2323  139.1626  157.4039 H   0  0  0  0  0  0  0  0  0  0  0  0
  152.3598  141.9499  156.8376 H   0  0  0  0  0  0  0  0  0  0  0  0
  150.8789  141.4876  157.7157 H   0  0  0  0  0  0  0  0  0  0  0  0
  153.8227  140.8205  161.2658 H   0  0  0  0  0  0  0  0  0  0  0  0
  153.6320  142.4604  163.1348 H   0  0  0  0  0  0  0  0  0  0  0  0
  152.3308  144.5712  162.7627 H   0  0  0  0  0  0  0  0  0  0  0  0
  151.4290  143.5345  158.8753 H   0  0  0  0  0  0  0  0  0  0  0  0
  1  2  2  0  0  0  0
  2  3  1  0  0  0  0
  2  4  1  0  0  0  0
  4 14  1  0  0  0  0
  4  5  1  0  0  0  0
  4 15  1  0  0  0  0
  5  6  1  0  0  0  0
  5 16  1  0  0  0  0
  5 17  1  0  0  0  0
  6  7  1  0  0  0  0
  6 13  2  0  0  0  0
  7 12  1  0  0  0  0
  7  8  2  0  0  0  0
  8  9  1  0  0  0  0
  8 18  1  0  0  0  0
  9 10  2  0  0  0  0
  9 19  1  0  0  0  0
 10 11  1  0  0  0  0
 10 20  1  0  0  0  0
 11 12  2  0  0  0  0
 12 21  1  0  0  0  0
 13 14  1  0  0  0  0
M  CHG  1   3  -1
M  END
> <s_m_source_file>
AV-unprocessed.smi

> <i_m_source_file_index>
2234

> <i_lp_mmshare_version>
43012

> <i_f3d_flags>
0

> <s_epik_input>
Tz1DKFtPSF0pW0NAQEhdMVtDSDJdQyg9Tk8xKWMyW2NIXVtjSF1bY0hdbltjSF0y

> <s_epik_cmdline>
J2VwaWtfcHl0aG9uJywgJy1waCcsICc3LjAnLCAnLXRuJywgJzgnLCAnLW1hJywgJzIwMCcsICctbWV0YWxfYmluZGluZycsICctaW1hZScsICc8aW5maWxlLm1hZT4nLCAnLW9tYWUnLCAnPG91dGZpbGUubWFlPic=

> <r_lp_tautomer_probability>
1

> <r_epik_Ionization_Penalty>
0.000239258

> <r_epik_Ionization_Penalty_Charging>
3.09051e-05

> <r_epik_Ionization_Penalty_Neutral>
0.000208353

> <r_epik_State_Penalty>
-0

> <r_epik_Charging_Adjusted_Penalty>
3.09051e-05

> <i_epik_Tot_Q>
-1

> <i_epik_Tot_abs_Q>
1

> <r_epik_Metal_State_Penalty>
-0

> <b_epik_Metal_Only>
0

> <s_epik_Chemistry_Notes>
This compound has an imine and may undergo hydrolysis.

> <s_lp_Force_Field>
OPLS_2005

> <r_lp_Energy>
16.9969

> <b_lp_Chiralities_Consistent>
1

> <s_lp_Variant>
AV-unprocessed.smi:2234-1

> <Gold.Version>
5.8.1

> <Gold.Id.Protein>
6NUR|6NUR_protein|mol2

> <Gold.PLP.Fitness>
41.8248

> <Gold.PLP.PLP>
-32.9626

> <Gold.PLP.part.hbond>
-4.5486

> <Gold.PLP.part.metal>
0.0000

> <Gold.PLP.part.buried>
-4.7524

> <Gold.PLP.part.nonpolar>
-23.2525

> <Gold.PLP.part.repulsive>
0.1846

> <Gold.PLP.ligand.clash>
0.0000

> <Gold.PLP.ligand.torsion>
0.0832

> <Gold.PLP.Chemscore.Hbond>
3.0000

> <Gold.PLP.Chemscore.CHOScore>
0.0000

> <Gold.PLP.Chemscore.Metal>
0.0000

> <Gold.Chemscore.Hbonds>
donor molecule, donor type, donor heavy atom, donor atom, acceptor molecule, acceptor atom, score
      P1  H  7989  7998       L1     3  0.85
      P1  H  7997  8008       L1     1  2.00

> <Gold.PLP.Chemscore.Internal.Correction>
0.0285

> <Gold.Rescore>
     Score         DG    S(hbond)    S(metal)    S(lipo)     H(rot)  DE(clash)    DE(int)     intcor
     17.20     -17.74       1.71        0.00      77.85       1.00       0.25       0.29       ----

> <Gold.Chemscore.Fitness>
17.1998

> <Gold.Chemscore.DG>
-17.7363

> <Gold.Chemscore.ZeroCoef>
-5.4800

> <Gold.Chemscore.Hbond>
1.7088

> <Gold.Chemscore.Metal>
0.0000

> <Gold.Chemscore.Lipo>
77.8538

> <Gold.Chemscore.Internal_Hbond>
0.0000

> <Gold.Chemscore.DEClash>
0.2471

> <Gold.Chemscore.DEInternal>
0.2894

> <Gold.Chemscore.Rot>
1.0000

> <Gold.Chemscore.Internal.Correction>
   9.000000E+99

> <Gold.Chemscore.Hbonds>
donor molecule, donor type, donor heavy atom, donor atom, acceptor molecule, acceptor atom, score
      P1  H  7989  7998       L1     3  0.15
      P1  H  7997  8008       L1     1  0.44

> <Gold.Chemscore.Hbond.Weighted>
-5.7074

> <Gold.Chemscore.Metal.Weighted>
-0.0000

> <Gold.Chemscore.Lipo.Weighted>
-9.1089

> <Gold.Chemscore.Internal_Hbond.Weighted>
0.0000

> <Gold.Chemscore.DEClash.Weighted>
0.2471

> <Gold.Chemscore.DEInternal.Weighted>
0.2894

> <Gold.Chemscore.Rot.Weighted>
2.5600

> <Gold.Chemscore.Internal.Correction.Weighted>
   9.000000E+99

> <Gold.Protein.RotatedTorsions>
[ 6907 6896 6895 6894 ] final  -91.44 input  -60.11 | X-H torsion
[ 7974 7965 7964 7962 ] final  -84.21 input  175.53 | X-H torsion
[ 8008 7997 7996 7995 ] final  -13.23 input   59.86 | X-H torsion
[ 10167 10162 10161 10158 ] final  148.47 input  -65.29 | X-H torsion
[ 10718 10713 10712 10709 ] final   94.19 input   66.30 | X-H torsion
[ 10763 10752 10751 10750 ] final    8.71 input  -60.55 | X-H torsion
[ 11005 11000 10999 10996 ] final   82.02 input  -57.11 | X-H torsion

> <Gold.Protein.ActiveResidues>
 VAL166  LYS551  ARG553  GLY616  TRP617  ASP618  TYR619  PRO620  LYS621  CYS622 
 ASP623  PHE694  ASN695  SER759  ASP760  ASP761  ALA762  ILE779  LEU786  VAL792 
 PHE793  MET794  SER795  GLU796  ALA797  LYS798  CYS799  TRP800  GLU811  SER814 

> <Gold.Protein.RotatedAtoms>
  150.6893  134.2276  159.4421 H   0  0  0  0  0  0  0  0  0  0  0  0  # atno 6907 bound_to 6896
  152.0228  134.9810  160.0580 H   0  0  0  0  0  0  0  0  0  0  0  0  # atno 6908 bound_to 6896
  152.1380  133.4412  159.4790 H   0  0  0  0  0  0  0  0  0  0  0  0  # atno 6909 bound_to 6896
  145.5097  140.9541  143.1714 H   0  0  0  0  0  0  0  0  0  0  0  0  # atno 7974 bound_to 7965
  154.5310  140.2255  155.8805 H   0  0  0  0  0  0  0  0  0  0  0  0  # atno 8008 bound_to 7997
  156.1763  140.3110  155.9030 H   0  0  0  0  0  0  0  0  0  0  0  0  # atno 8009 bound_to 7997
  155.3452  140.0452  157.3036 H   0  0  0  0  0  0  0  0  0  0  0  0  # atno 8010 bound_to 7997
  139.4874  144.5676  151.7114 H   0  0  0  0  0  0  0  0  0  0  0  0  # atno 10167 bound_to 10162
  157.6950  131.0504  150.4149 H   0  0  0  0  0  0  0  0  0  0  0  0  # atno 10718 bound_to 10713
  153.2220  135.6882  153.7989 H   0  0  0  0  0  0  0  0  0  0  0  0  # atno 10763 bound_to 10752
  153.7185  135.3271  155.3262 H   0  0  0  0  0  0  0  0  0  0  0  0  # atno 10764 bound_to 10752
  154.8274  135.4607  154.1071 H   0  0  0  0  0  0  0  0  0  0  0  0  # atno 10765 bound_to 10752
  139.9078  134.8040  156.2119 H   0  0  0  0  0  0  0  0  0  0  0  0  # atno 11005 bound_to 11000
  144.7734  139.6683  143.7185 LP  0  0  0  0  0  0  0  0  0  0  0  0  # atno 17320 bound_to 7965
  146.2174  139.5575  142.9641 LP  0  0  0  0  0  0  0  0  0  0  0  0  # atno 17321 bound_to 7965
  140.5258  144.0808  150.6037 LP  0  0  0  0  0  0  0  0  0  0  0  0  # atno 17342 bound_to 10162
  140.3782  143.2817  152.0201 LP  0  0  0  0  0  0  0  0  0  0  0  0  # atno 17343 bound_to 10162
  156.4529  130.4015  149.6624 LP  0  0  0  0  0  0  0  0  0  0  0  0  # atno 17370 bound_to 10713
  156.3767  130.7558  151.2547 LP  0  0  0  0  0  0  0  0  0  0  0  0  # atno 17371 bound_to 10713
  141.0460  133.6913  156.1683 LP  0  0  0  0  0  0  0  0  0  0  0  0  # atno 17394 bound_to 11000
  140.6884  134.4693  157.5589 LP  0  0  0  0  0  0  0  0  0  0  0  0  # atno 17395 bound_to 11000

$$$$
