AV-unprocessed.smi:2799|AV-procd|sdf|10791|dock1
  -GOLD-   2272015223D 1   1.00000     0.00000
 Structure written by MMmdl.
 52 53  0  0  0  0  0  0  0  0  2 V2000
  148.4954  141.4552  153.8981 C   0  0  0  0  0  0  0  0  0  0  0  0
  146.9831  141.2490  153.7258 C   0  0  0  0  0  0  0  0  0  0  0  0
  146.2656  142.6058  153.6260 C   0  0  0  0  0  0  0  0  0  0  0  0
  146.4237  140.3803  154.8747 C   0  0  0  0  0  0  0  0  0  0  0  0
  145.3588  139.4234  154.4616 N   0  3  2  0  0  0  0  0  0  0  0  0
  144.4959  139.0256  155.6075 C   0  0  0  0  0  0  0  0  0  0  0  0
  143.2617  138.2401  155.1371 C   0  0  0  0  0  0  0  0  0  0  0  0
  143.6683  137.0228  154.3008 C   0  0  0  0  0  0  0  0  0  0  0  0
  144.5660  137.4702  153.1400 C   0  0  0  0  0  0  0  0  0  0  0  0
  145.8043  138.2581  153.6313 C   0  0  2  0  0  0  0  0  0  0  0  0
  146.8774  137.3815  154.3327 C   0  0  0  0  0  0  0  0  0  0  0  0
  147.2248  136.1974  153.5513 N   0  0  0  0  0  0  0  0  0  0  0  0
  146.4967  135.0740  153.4715 C   0  0  0  0  0  0  0  0  0  0  0  0
  145.4277  134.9181  154.0606 O   0  0  0  0  0  0  0  0  0  0  0  0
  147.0808  134.1813  152.6515 N   0  0  0  0  0  0  0  0  0  0  0  0
  146.6604  132.8854  152.3052 C   0  0  0  0  0  0  0  0  0  0  0  0
  145.7310  132.6053  151.3571 C   0  0  0  0  0  0  0  0  0  0  0  0
  145.3492  131.2429  151.0725 C   0  0  0  0  0  0  0  0  0  0  0  0
  145.9279  130.2589  151.7748 C   0  0  0  0  0  0  0  0  0  0  0  0
  146.8848  130.5265  152.7684 N   0  0  0  0  0  0  0  0  0  0  0  0
  147.4601  129.3833  153.4816 C   0  0  0  0  0  0  0  0  0  0  0  0
  147.2857  131.7952  153.0793 C   0  0  0  0  0  0  0  0  0  0  0  0
  148.1258  132.0021  153.9587 O   0  0  0  0  0  0  0  0  0  0  0  0
  148.7220  141.9861  154.8235 H   0  0  0  0  0  0  0  0  0  0  0  0
  148.9103  142.0348  153.0729 H   0  0  0  0  0  0  0  0  0  0  0  0
  149.0224  140.5009  153.9245 H   0  0  0  0  0  0  0  0  0  0  0  0
  146.8542  140.7236  152.7801 H   0  0  0  0  0  0  0  0  0  0  0  0
  146.3643  143.1760  154.5503 H   0  0  0  0  0  0  0  0  0  0  0  0
  145.2017  142.4827  153.4222 H   0  0  0  0  0  0  0  0  0  0  0  0
  146.6810  143.2097  152.8187 H   0  0  0  0  0  0  0  0  0  0  0  0
  147.2291  139.8435  155.3761 H   0  0  0  0  0  0  0  0  0  0  0  0
  146.0084  141.0506  155.6288 H   0  0  0  0  0  0  0  0  0  0  0  0
  145.0695  138.4392  156.3257 H   0  0  0  0  0  0  0  0  0  0  0  0
  144.1588  139.9169  156.1382 H   0  0  0  0  0  0  0  0  0  0  0  0
  142.6718  137.9215  155.9971 H   0  0  0  0  0  0  0  0  0  0  0  0
  142.6178  138.8919  154.5450 H   0  0  0  0  0  0  0  0  0  0  0  0
  144.1905  136.2987  154.9262 H   0  0  0  0  0  0  0  0  0  0  0  0
  142.7813  136.5181  153.9166 H   0  0  0  0  0  0  0  0  0  0  0  0
  144.8558  136.6105  152.5363 H   0  0  0  0  0  0  0  0  0  0  0  0
  143.9836  138.1083  152.4738 H   0  0  0  0  0  0  0  0  0  0  0  0
  146.2635  138.6563  152.7275 H   0  0  0  0  0  0  0  0  0  0  0  0
  147.8033  137.9423  154.4536 H   0  0  0  0  0  0  0  0  0  0  0  0
  146.5632  137.1024  155.3387 H   0  0  0  0  0  0  0  0  0  0  0  0
  148.0881  136.2365  153.0288 H   0  0  0  0  0  0  0  0  0  0  0  0
  147.9200  134.4867  152.1800 H   0  0  0  0  0  0  0  0  0  0  0  0
  145.2351  133.3829  150.7990 H   0  0  0  0  0  0  0  0  0  0  0  0
  144.6152  131.0220  150.3117 H   0  0  0  0  0  0  0  0  0  0  0  0
  145.6960  129.2150  151.6210 H   0  0  0  0  0  0  0  0  0  0  0  0
  148.5400  129.3433  153.3316 H   0  0  0  0  0  0  0  0  0  0  0  0
  147.0503  128.4287  153.1490 H   0  0  0  0  0  0  0  0  0  0  0  0
  147.2676  129.4630  154.5527 H   0  0  0  0  0  0  0  0  0  0  0  0
  144.7522  139.9576  153.8559 H   0  0  0  0  0  0  0  0  0  0  0  0
  1  2  1  0  0  0  0
  1 24  1  0  0  0  0
  1 25  1  0  0  0  0
  1 26  1  0  0  0  0
  2  3  1  0  0  0  0
  2  4  1  0  0  0  0
  2 27  1  0  0  0  0
  3 28  1  0  0  0  0
  3 29  1  0  0  0  0
  3 30  1  0  0  0  0
  4  5  1  0  0  0  0
  4 31  1  0  0  0  0
  4 32  1  0  0  0  0
  5 10  1  0  0  0  0
  5  6  1  0  0  0  0
  5 52  1  0  0  0  0
  6  7  1  0  0  0  0
  6 33  1  0  0  0  0
  6 34  1  0  0  0  0
  7  8  1  0  0  0  0
  7 35  1  0  0  0  0
  7 36  1  0  0  0  0
  8  9  1  0  0  0  0
  8 37  1  0  0  0  0
  8 38  1  0  0  0  0
  9 10  1  0  0  0  0
  9 39  1  0  0  0  0
  9 40  1  0  0  0  0
 10 11  1  0  0  0  0
 10 41  1  0  0  0  0
 11 12  1  0  0  0  0
 11 42  1  0  0  0  0
 11 43  1  0  0  0  0
 12 13  1  0  0  0  0
 12 44  1  0  0  0  0
 13 14  2  0  0  0  0
 13 15  1  0  0  0  0
 15 16  1  0  0  0  0
 15 45  1  0  0  0  0
 16 22  1  0  0  0  0
 16 17  2  0  0  0  0
 17 18  1  0  0  0  0
 17 46  1  0  0  0  0
 18 19  2  0  0  0  0
 18 47  1  0  0  0  0
 19 20  1  0  0  0  0
 19 48  1  0  0  0  0
 20 21  1  0  0  0  0
 20 22  1  0  0  0  0
 21 49  1  0  0  0  0
 21 50  1  0  0  0  0
 21 51  1  0  0  0  0
 22 23  2  0  0  0  0
M  CHG  1   5   1
M  END
> <s_m_source_file>
AV-unprocessed.smi

> <i_m_source_file_index>
2799

> <i_lp_mmshare_version>
43012

> <i_f3d_flags>
0

> <s_epik_input>
W0NIM11bQ0hdKFtDSDNdKVtDSDJdTjFbQ0gyXVtDSDJdW0NIMl1bQ0gyXVtDQEhdMVtDSDJdW05IXUMoPU8pW05IXWMyW2NIXVtjSF1bY0hdbihbQ0gzXSljMj1P

> <s_epik_cmdline>
J2VwaWtfcHl0aG9uJywgJy1waCcsICc3LjAnLCAnLXRuJywgJzgnLCAnLW1hJywgJzIwMCcsICctbWV0YWxfYmluZGluZycsICctaW1hZScsICc8aW5maWxlLm1hZT4nLCAnLW9tYWUnLCAnPG91dGZpbGUubWFlPic=

> <r_lp_tautomer_probability>
1

> <r_epik_Ionization_Penalty>
0.0010885

> <r_epik_Ionization_Penalty_Charging>
0.00106921

> <r_epik_Ionization_Penalty_Neutral>
1.92865e-05

> <r_epik_State_Penalty>
0.000697184

> <r_epik_Charging_Adjusted_Penalty>
0.0017664

> <i_epik_Tot_Q>
1

> <i_epik_Tot_abs_Q>
1

> <r_epik_Metal_State_Penalty>
-0

> <b_epik_Metal_Only>
0

> <s_lp_Force_Field>
OPLS_2005

> <r_lp_Energy>
36.9818

> <b_lp_Chiralities_Consistent>
1

> <s_lp_Variant>
AV-unprocessed.smi:2799-3

> <Gold.Version>
5.8.1

> <Gold.Id.Protein>
6NUR|6NUR_protein|mol2

> <Gold.PLP.Fitness>
41.3329

> <Gold.PLP.PLP>
-32.6598

> <Gold.PLP.part.hbond>
-2.8272

> <Gold.PLP.part.metal>
0.0000

> <Gold.PLP.part.buried>
-2.5847

> <Gold.PLP.part.nonpolar>
-26.5729

> <Gold.PLP.part.repulsive>
0.1401

> <Gold.PLP.ligand.clash>
0.0000

> <Gold.PLP.ligand.torsion>
1.5352

> <Gold.PLP.Chemscore.Hbond>
3.8320

> <Gold.PLP.Chemscore.CHOScore>
0.0000

> <Gold.PLP.Chemscore.Metal>
0.0000

> <Gold.Chemscore.Hbonds>
donor molecule, donor type, donor heavy atom, donor atom, acceptor molecule, acceptor atom, score
      L1  H     5    52       P1 10175  2.00
      L1  H    12    44       P1  7948  0.80
      L1  H    15    45       P1  7948  0.80

> <Gold.PLP.Chemscore.Internal.Correction>
0.2476

> <Gold.Rescore>
     Score         DG    S(hbond)    S(metal)    S(lipo)     H(rot)  DE(clash)    DE(int)     intcor
     16.39     -17.76       2.45        0.00      69.20       1.57       0.03       1.33       ----

> <Gold.Chemscore.Fitness>
16.3896

> <Gold.Chemscore.DG>
-17.7550

> <Gold.Chemscore.ZeroCoef>
-5.4800

> <Gold.Chemscore.Hbond>
2.4536

> <Gold.Chemscore.Metal>
0.0000

> <Gold.Chemscore.Lipo>
69.1976

> <Gold.Chemscore.Internal_Hbond>
0.0000

> <Gold.Chemscore.DEClash>
0.0304

> <Gold.Chemscore.DEInternal>
1.3349

> <Gold.Chemscore.Rot>
1.5688

> <Gold.Chemscore.Internal.Correction>
   9.000000E+99

> <Gold.Chemscore.Hbonds>
donor molecule, donor type, donor heavy atom, donor atom, acceptor molecule, acceptor atom, score
      L1  H     5    52       P1 10175  1.00
      L1  H    12    44       P1  7948  0.78
      L1  H    15    45       P1  7948  0.23

> <Gold.Chemscore.Hbond.Weighted>
-8.1949

> <Gold.Chemscore.Metal.Weighted>
-0.0000

> <Gold.Chemscore.Lipo.Weighted>
-8.0961

> <Gold.Chemscore.Internal_Hbond.Weighted>
0.0000

> <Gold.Chemscore.DEClash.Weighted>
0.0304

> <Gold.Chemscore.DEInternal.Weighted>
1.3349

> <Gold.Chemscore.Rot.Weighted>
4.0161

> <Gold.Chemscore.Internal.Correction.Weighted>
   9.000000E+99

> <Gold.Protein.RotatedTorsions>
[ 6907 6896 6895 6894 ] final  -71.99 input  -60.11 | X-H torsion
[ 7974 7965 7964 7962 ] final  -10.28 input  175.53 | X-H torsion
[ 8008 7997 7996 7995 ] final   27.25 input   59.86 | X-H torsion
[ 10167 10162 10161 10158 ] final  -92.04 input  -65.29 | X-H torsion
[ 10718 10713 10712 10709 ] final  -70.81 input   66.30 | X-H torsion
[ 10763 10752 10751 10750 ] final -178.47 input  -60.55 | X-H torsion
[ 11005 11000 10999 10996 ] final  150.85 input  -57.11 | X-H torsion

> <Gold.Protein.ActiveResidues>
 VAL166  LYS551  ARG553  GLY616  TRP617  ASP618  TYR619  PRO620  LYS621  CYS622 
 ASP623  PHE694  ASN695  SER759  ASP760  ASP761  ALA762  ILE779  LEU786  VAL792 
 PHE793  MET794  SER795  GLU796  ALA797  LYS798  CYS799  TRP800  GLU811  SER814 

> <Gold.Protein.RotatedAtoms>
  150.7189  134.5228  159.5661 H   0  0  0  0  0  0  0  0  0  0  0  0  # atno 6907 bound_to 6896
  152.2780  134.7858  160.0411 H   0  0  0  0  0  0  0  0  0  0  0  0  # atno 6908 bound_to 6896
  151.8514  133.3405  159.3711 H   0  0  0  0  0  0  0  0  0  0  0  0  # atno 6909 bound_to 6896
  146.2225  140.2741  142.8358 H   0  0  0  0  0  0  0  0  0  0  0  0  # atno 7974 bound_to 7965
  155.0400  140.3168  155.4728 H   0  0  0  0  0  0  0  0  0  0  0  0  # atno 8008 bound_to 7997
  156.2857  140.2165  156.5467 H   0  0  0  0  0  0  0  0  0  0  0  0  # atno 8009 bound_to 7997
  154.7298  140.0482  157.0704 H   0  0  0  0  0  0  0  0  0  0  0  0  # atno 8010 bound_to 7997
  140.3388  143.2954  151.9859 H   0  0  0  0  0  0  0  0  0  0  0  0  # atno 10167 bound_to 10162
  156.0391  130.4339  150.2351 H   0  0  0  0  0  0  0  0  0  0  0  0  # atno 10718 bound_to 10713
  154.5472  135.2810  155.1042 H   0  0  0  0  0  0  0  0  0  0  0  0  # atno 10763 bound_to 10752
  154.2501  135.6341  153.5241 H   0  0  0  0  0  0  0  0  0  0  0  0  # atno 10764 bound_to 10752
  152.9993  135.5580  154.6028 H   0  0  0  0  0  0  0  0  0  0  0  0  # atno 10765 bound_to 10752
  140.1167  134.8890  157.2014 H   0  0  0  0  0  0  0  0  0  0  0  0  # atno 11005 bound_to 11000
  144.9246  140.7907  143.5727 LP  0  0  0  0  0  0  0  0  0  0  0  0  # atno 17320 bound_to 7965
  145.2680  139.1966  143.4857 LP  0  0  0  0  0  0  0  0  0  0  0  0  # atno 17321 bound_to 7965
  139.4844  144.6174  151.7320 LP  0  0  0  0  0  0  0  0  0  0  0  0  # atno 17342 bound_to 10162
  140.5329  144.0702  150.6060 LP  0  0  0  0  0  0  0  0  0  0  0  0  # atno 17343 bound_to 10162
  157.0448  131.0045  151.3272 LP  0  0  0  0  0  0  0  0  0  0  0  0  # atno 17370 bound_to 10713
  157.5183  130.7982  149.7781 LP  0  0  0  0  0  0  0  0  0  0  0  0  # atno 17371 bound_to 10713
  140.3019  134.3122  155.7287 LP  0  0  0  0  0  0  0  0  0  0  0  0  # atno 17394 bound_to 11000
  141.2142  133.7597  156.9653 LP  0  0  0  0  0  0  0  0  0  0  0  0  # atno 17395 bound_to 11000

$$$$
