AV-unprocessed.smi:1842|AV-procd|sdf|7499|dock9
  -GOLD-   22720 9203D 1   1.00000     0.00000
 Structure written by MMmdl.
 38 39  0  0  0  0  0  0  0  0  1 V2000
  152.5533  139.8397  156.3007 O   0  0  0  0  0  0  0  0  0  0  0  0
  151.5059  140.0474  156.9130 C   0  0  0  0  0  0  0  0  0  0  0  0
  151.4030  141.2237  157.8853 C   0  0  0  0  0  0  0  0  0  0  0  0
  152.6617  141.3592  158.7610 C   0  0  0  0  0  0  0  0  0  0  0  0
  152.3729  141.9618  160.1471 C   0  0  0  0  0  0  0  0  0  0  0  0
  152.0719  143.4636  160.1391 C   0  0  0  0  0  0  0  0  0  0  0  0
  152.3105  143.9215  161.5817 C   0  0  0  0  0  0  0  0  0  0  0  0
  153.2816  142.9042  162.1999 C   0  0  0  0  0  0  0  0  0  0  0  0
  153.5538  141.8551  161.1155 C   0  0  0  0  0  0  0  0  0  0  0  0
  150.4073  139.2900  156.7751 N   0  0  0  0  0  0  0  0  0  0  0  0
  150.2684  138.1609  155.8602 C   0  0  0  0  0  0  0  0  0  0  0  0
  150.0549  138.6050  154.3998 C   0  0  0  0  0  0  0  0  0  0  0  0
  148.8662  139.4216  154.2394 N   0  0  0  0  0  0  0  0  0  0  0  0
  147.6904  139.0736  153.5881 C   0  0  0  0  0  0  0  0  0  0  0  0
  146.8466  140.1560  153.6964 C   0  0  0  0  0  0  0  0  0  0  0  0
  147.4788  141.1749  154.4056 N   0  0  0  0  0  0  0  0  0  0  0  0
  148.6710  140.6682  154.6919 C   0  0  0  0  0  0  0  0  0  0  0  0
  151.2330  142.1456  157.3271 H   0  0  0  0  0  0  0  0  0  0  0  0
  150.5252  141.0744  158.5148 H   0  0  0  0  0  0  0  0  0  0  0  0
  153.1136  140.3754  158.8968 H   0  0  0  0  0  0  0  0  0  0  0  0
  153.4071  141.9666  158.2447 H   0  0  0  0  0  0  0  0  0  0  0  0
  151.5237  141.4408  160.5926 H   0  0  0  0  0  0  0  0  0  0  0  0
  152.7675  143.9789  159.4750 H   0  0  0  0  0  0  0  0  0  0  0  0
  151.0613  143.6888  159.7974 H   0  0  0  0  0  0  0  0  0  0  0  0
  152.7026  144.9384  161.6183 H   0  0  0  0  0  0  0  0  0  0  0  0
  151.3707  143.9143  162.1351 H   0  0  0  0  0  0  0  0  0  0  0  0
  154.2063  143.3758  162.5344 H   0  0  0  0  0  0  0  0  0  0  0  0
  152.8211  142.4367  163.0711 H   0  0  0  0  0  0  0  0  0  0  0  0
  153.6667  140.8514  161.5263 H   0  0  0  0  0  0  0  0  0  0  0  0
  154.4814  142.1042  160.5977 H   0  0  0  0  0  0  0  0  0  0  0  0
  149.5944  139.5331  157.3228 H   0  0  0  0  0  0  0  0  0  0  0  0
  151.1493  137.5213  155.9323 H   0  0  0  0  0  0  0  0  0  0  0  0
  149.4227  137.5577  156.1914 H   0  0  0  0  0  0  0  0  0  0  0  0
  150.9178  139.1620  154.0320 H   0  0  0  0  0  0  0  0  0  0  0  0
  149.9563  137.7296  153.7572 H   0  0  0  0  0  0  0  0  0  0  0  0
  147.5545  138.1114  153.1166 H   0  0  0  0  0  0  0  0  0  0  0  0
  145.8408  140.2789  153.3224 H   0  0  0  0  0  0  0  0  0  0  0  0
  149.4186  141.2144  155.2488 H   0  0  0  0  0  0  0  0  0  0  0  0
  1  2  2  0  0  0  0
  2  3  1  0  0  0  0
  2 10  1  0  0  0  0
  3  4  1  0  0  0  0
  3 18  1  0  0  0  0
  3 19  1  0  0  0  0
  4  5  1  0  0  0  0
  4 20  1  0  0  0  0
  4 21  1  0  0  0  0
  5  9  1  0  0  0  0
  5  6  1  0  0  0  0
  5 22  1  0  0  0  0
  6  7  1  0  0  0  0
  6 23  1  0  0  0  0
  6 24  1  0  0  0  0
  7  8  1  0  0  0  0
  7 25  1  0  0  0  0
  7 26  1  0  0  0  0
  8  9  1  0  0  0  0
  8 27  1  0  0  0  0
  8 28  1  0  0  0  0
  9 29  1  0  0  0  0
  9 30  1  0  0  0  0
 10 11  1  0  0  0  0
 10 31  1  0  0  0  0
 11 12  1  0  0  0  0
 11 32  1  0  0  0  0
 11 33  1  0  0  0  0
 12 13  1  0  0  0  0
 12 34  1  0  0  0  0
 12 35  1  0  0  0  0
 13 17  1  0  0  0  0
 13 14  1  0  0  0  0
 14 15  2  0  0  0  0
 14 36  1  0  0  0  0
 15 16  1  0  0  0  0
 15 37  1  0  0  0  0
 16 17  2  0  0  0  0
 17 38  1  0  0  0  0
M  END
> <s_m_source_file>
AV-unprocessed.smi

> <i_m_source_file_index>
1842

> <i_lp_mmshare_version>
43012

> <i_f3d_flags>
0

> <s_epik_input>
W0NIMl0xW0NIMl1bQ0gyXVtDSDJdW0NIXTFbQ0gyXVtDSDJdQyg9TylbTkhdW0NIMl1bQ0gyXW4yW2NIXVtjSF1uW2NIXTI=

> <s_epik_cmdline>
J2VwaWtfcHl0aG9uJywgJy1waCcsICc3LjAnLCAnLXRuJywgJzgnLCAnLW1hJywgJzIwMCcsICctbWV0YWxfYmluZGluZycsICctaW1hZScsICc8aW5maWxlLm1hZT4nLCAnLW9tYWUnLCAnPG91dGZpbGUubWFlPic=

> <r_lp_tautomer_probability>
1

> <r_epik_Ionization_Penalty>
0.595716

> <r_epik_Ionization_Penalty_Charging>
0.595716

> <r_epik_Ionization_Penalty_Neutral>
2.42503e-08

> <r_epik_State_Penalty>
0.60967

> <r_epik_Charging_Adjusted_Penalty>
1.20539

> <i_epik_Tot_Q>
0

> <i_epik_Tot_abs_Q>
0

> <r_epik_Metal_State_Penalty>
0.299956

> <b_epik_Metal_Only>
0

> <s_lp_Force_Field>
OPLS_2005

> <r_lp_Energy>
23.0444

> <b_lp_Chiralities_Consistent>
1

> <s_lp_Variant>
AV-unprocessed.smi:1842-2

> <Gold.Version>
5.8.1

> <Gold.Id.Protein>
6NUR|6NUR_protein|mol2

> <Gold.PLP.Fitness>
44.5842

> <Gold.PLP.PLP>
-36.9033

> <Gold.PLP.part.hbond>
-1.0000

> <Gold.PLP.part.metal>
0.0000

> <Gold.PLP.part.buried>
-1.9003

> <Gold.PLP.part.nonpolar>
-34.1053

> <Gold.PLP.part.repulsive>
0.1610

> <Gold.PLP.ligand.clash>
0.0000

> <Gold.PLP.ligand.torsion>
0.6800

> <Gold.PLP.Chemscore.Hbond>
1.0000

> <Gold.PLP.Chemscore.CHOScore>
2.0000

> <Gold.PLP.Chemscore.Metal>
0.0000

> <Gold.Chemscore.Hbonds>
donor molecule, donor type, donor heavy atom, donor atom, acceptor molecule, acceptor atom, score
      P1  H  7997  8010       L1     1  1.00
      L1  C    14    36       P1  7948  0.71
      L1  C    15    37       P1 10175  1.00

> <Gold.PLP.Chemscore.Internal.Correction>
0.0409

> <Gold.Rescore>
     Score         DG    S(hbond)    S(metal)    S(lipo)     H(rot)  DE(clash)    DE(int)     intcor
     13.83     -14.61       1.00        0.00      96.56       2.15       0.11       0.67       ----

> <Gold.Chemscore.Fitness>
13.8295

> <Gold.Chemscore.DG>
-14.6110

> <Gold.Chemscore.ZeroCoef>
-5.4800

> <Gold.Chemscore.Hbond>
0.9981

> <Gold.Chemscore.Metal>
0.0000

> <Gold.Chemscore.Lipo>
96.5591

> <Gold.Chemscore.Internal_Hbond>
0.0000

> <Gold.Chemscore.DEClash>
0.1116

> <Gold.Chemscore.DEInternal>
0.6699

> <Gold.Chemscore.Rot>
2.1484

> <Gold.Chemscore.Internal.Correction>
   9.000000E+99

> <Gold.Chemscore.Hbonds>
donor molecule, donor type, donor heavy atom, donor atom, acceptor molecule, acceptor atom, score
      P1  H  7997  8010       L1     1  0.97

> <Gold.Chemscore.Hbond.Weighted>
-3.3336

> <Gold.Chemscore.Metal.Weighted>
-0.0000

> <Gold.Chemscore.Lipo.Weighted>
-11.2974

> <Gold.Chemscore.Internal_Hbond.Weighted>
0.0000

> <Gold.Chemscore.DEClash.Weighted>
0.1116

> <Gold.Chemscore.DEInternal.Weighted>
0.6699

> <Gold.Chemscore.Rot.Weighted>
5.5000

> <Gold.Chemscore.Internal.Correction.Weighted>
   9.000000E+99

> <Gold.Protein.RotatedTorsions>
[ 6907 6896 6895 6894 ] final   33.35 input  -60.11 | X-H torsion
[ 7974 7965 7964 7962 ] final   23.14 input  175.53 | X-H torsion
[ 8008 7997 7996 7995 ] final   60.69 input   59.86 | X-H torsion
[ 10167 10162 10161 10158 ] final   23.07 input  -65.29 | X-H torsion
[ 10718 10713 10712 10709 ] final   30.72 input   66.30 | X-H torsion
[ 10763 10752 10751 10750 ] final  178.32 input  -60.55 | X-H torsion
[ 11005 11000 10999 10996 ] final   11.65 input  -57.11 | X-H torsion

> <Gold.Protein.ActiveResidues>
 VAL166  LYS551  ARG553  GLY616  TRP617  ASP618  TYR619  PRO620  LYS621  CYS622 
 ASP623  PHE694  ASN695  SER759  ASP760  ASP761  ALA762  ILE779  LEU786  VAL792 
 PHE793  MET794  SER795  GLU796  ALA797  LYS798  CYS799  TRP800  GLU811  SER814 

> <Gold.Protein.RotatedAtoms>
  152.0872  134.9431  160.0572 H   0  0  0  0  0  0  0  0  0  0  0  0  # atno 6907 bound_to 6896
  152.0697  133.4096  159.4462 H   0  0  0  0  0  0  0  0  0  0  0  0  # atno 6908 bound_to 6896
  150.6836  134.3026  159.4756 H   0  0  0  0  0  0  0  0  0  0  0  0  # atno 6909 bound_to 6896
  146.1997  139.7786  142.8770 H   0  0  0  0  0  0  0  0  0  0  0  0  # atno 7974 bound_to 7965
  155.5863  140.3492  155.4554 H   0  0  0  0  0  0  0  0  0  0  0  0  # atno 8008 bound_to 7997
  156.0335  140.1280  157.0258 H   0  0  0  0  0  0  0  0  0  0  0  0  # atno 8009 bound_to 7997
  154.4362  140.1038  156.6119 H   0  0  0  0  0  0  0  0  0  0  0  0  # atno 8010 bound_to 7997
  140.5298  143.9861  150.6459 H   0  0  0  0  0  0  0  0  0  0  0  0  # atno 10167 bound_to 10162
  157.2633  130.7172  149.6465 H   0  0  0  0  0  0  0  0  0  0  0  0  # atno 10718 bound_to 10713
  154.5061  135.2786  155.1381 H   0  0  0  0  0  0  0  0  0  0  0  0  # atno 10763 bound_to 10752
  154.2994  135.6251  153.5422 H   0  0  0  0  0  0  0  0  0  0  0  0  # atno 10764 bound_to 10752
  152.9910  135.5693  154.5516 H   0  0  0  0  0  0  0  0  0  0  0  0  # atno 10765 bound_to 10752
  140.5008  134.0748  155.7793 H   0  0  0  0  0  0  0  0  0  0  0  0  # atno 11005 bound_to 11000
  145.3524  141.0310  143.3331 LP  0  0  0  0  0  0  0  0  0  0  0  0  # atno 17320 bound_to 7965
  144.8657  139.5111  143.6791 LP  0  0  0  0  0  0  0  0  0  0  0  0  # atno 17321 bound_to 7965
  140.3233  143.3123  152.0762 LP  0  0  0  0  0  0  0  0  0  0  0  0  # atno 17342 bound_to 10162
  139.4950  144.6559  151.6573 LP  0  0  0  0  0  0  0  0  0  0  0  0  # atno 17343 bound_to 10162
  155.9664  130.4391  150.5243 LP  0  0  0  0  0  0  0  0  0  0  0  0  # atno 17370 bound_to 10713
  157.3152  131.0671  151.1972 LP  0  0  0  0  0  0  0  0  0  0  0  0  # atno 17371 bound_to 10713
  141.1436  133.9094  157.2268 LP  0  0  0  0  0  0  0  0  0  0  0  0  # atno 17394 bound_to 11000
  139.9714  135.0127  156.9522 LP  0  0  0  0  0  0  0  0  0  0  0  0  # atno 17395 bound_to 11000

$$$$
