AV-unprocessed.smi:1332|AV-procd|sdf|5489|dock3
  -GOLD-   22720 5 63D 1   1.00000     0.00000
 Structure written by MMmdl.
 40 41  0  0  0  0  0  0  0  0  1 V2000
  151.8220  145.3740  159.6708 C   0  0  0  0  0  0  0  0  0  0  0  0
  152.6220  144.0752  159.5253 C   0  0  0  0  0  0  0  0  0  0  0  0
  151.7487  142.8962  159.0752 C   0  0  0  0  0  0  0  0  0  0  0  0
  151.2762  143.0288  157.6158 C   0  0  0  0  0  0  0  0  0  0  0  0
  150.3968  141.8558  157.1405 C   0  0  0  0  0  0  0  0  0  0  0  0
  149.6746  142.1933  155.9201 N   0  0  0  0  0  0  0  0  0  0  0  0
  149.5558  141.3930  154.8486 C   0  0  0  0  0  0  0  0  0  0  0  0
  150.2016  140.3555  154.7025 O   0  0  0  0  0  0  0  0  0  0  0  0
  148.5193  141.8055  153.7988 C   0  0  0  0  0  0  0  0  0  0  0  0
  147.1428  141.8518  154.4061 C   0  0  0  0  0  0  0  0  0  0  0  0
  146.4839  140.8186  155.0264 C   0  0  0  0  0  0  0  0  0  0  0  0
  144.8832  141.2775  155.5413 S   0  0  0  0  0  0  0  0  0  0  0  0
  145.1696  142.8872  154.8858 C   0  0  0  0  0  0  0  0  0  0  0  0
  144.1984  143.9310  154.9112 N   0  0  0  0  0  0  0  0  0  0  0  0
  144.2608  145.0440  153.9722 C   0  0  0  0  0  0  0  0  0  0  0  0
  143.0691  145.9152  154.3581 C   0  0  0  0  0  0  0  0  0  0  0  0
  142.5043  145.1844  155.4680 N   0  0  0  0  0  0  0  0  0  0  0  0
  143.1631  144.0626  155.7664 C   0  0  0  0  0  0  0  0  0  0  0  0
  142.8506  143.3031  156.6819 O   0  0  0  0  0  0  0  0  0  0  0  0
  146.3889  143.0305  154.3554 N   0  0  0  0  0  0  0  0  0  0  0  0
  152.4592  146.1864  160.0209 H   0  0  0  0  0  0  0  0  0  0  0  0
  151.0093  145.2568  160.3872 H   0  0  0  0  0  0  0  0  0  0  0  0
  151.3868  145.6770  158.7183 H   0  0  0  0  0  0  0  0  0  0  0  0
  153.4328  144.2273  158.8120 H   0  0  0  0  0  0  0  0  0  0  0  0
  153.0919  143.8365  160.4800 H   0  0  0  0  0  0  0  0  0  0  0  0
  152.3180  141.9752  159.2001 H   0  0  0  0  0  0  0  0  0  0  0  0
  150.8812  142.8111  159.7307 H   0  0  0  0  0  0  0  0  0  0  0  0
  150.7188  143.9591  157.5013 H   0  0  0  0  0  0  0  0  0  0  0  0
  152.1445  143.1163  156.9612 H   0  0  0  0  0  0  0  0  0  0  0  0
  151.0177  140.9823  156.9409 H   0  0  0  0  0  0  0  0  0  0  0  0
  149.6963  141.5646  157.9247 H   0  0  0  0  0  0  0  0  0  0  0  0
  149.1153  143.0337  155.9435 H   0  0  0  0  0  0  0  0  0  0  0  0
  148.7987  142.7782  153.3925 H   0  0  0  0  0  0  0  0  0  0  0  0
  148.5438  141.1011  152.9664 H   0  0  0  0  0  0  0  0  0  0  0  0
  146.8376  139.8129  155.1993 H   0  0  0  0  0  0  0  0  0  0  0  0
  145.1999  145.5887  154.0786 H   0  0  0  0  0  0  0  0  0  0  0  0
  144.1791  144.6859  152.9453 H   0  0  0  0  0  0  0  0  0  0  0  0
  143.3752  146.9139  154.6710 H   0  0  0  0  0  0  0  0  0  0  0  0
  142.3443  146.0013  153.5478 H   0  0  0  0  0  0  0  0  0  0  0  0
  141.6881  145.5055  155.9682 H   0  0  0  0  0  0  0  0  0  0  0  0
  1  2  1  0  0  0  0
  1 21  1  0  0  0  0
  1 22  1  0  0  0  0
  1 23  1  0  0  0  0
  2  3  1  0  0  0  0
  2 24  1  0  0  0  0
  2 25  1  0  0  0  0
  3  4  1  0  0  0  0
  3 26  1  0  0  0  0
  3 27  1  0  0  0  0
  4  5  1  0  0  0  0
  4 28  1  0  0  0  0
  4 29  1  0  0  0  0
  5  6  1  0  0  0  0
  5 30  1  0  0  0  0
  5 31  1  0  0  0  0
  6  7  1  0  0  0  0
  6 32  1  0  0  0  0
  7  8  2  0  0  0  0
  7  9  1  0  0  0  0
  9 10  1  0  0  0  0
  9 33  1  0  0  0  0
  9 34  1  0  0  0  0
 10 20  1  0  0  0  0
 10 11  2  0  0  0  0
 11 12  1  0  0  0  0
 11 35  1  0  0  0  0
 12 13  1  0  0  0  0
 13 14  1  0  0  0  0
 13 20  2  0  0  0  0
 14 18  1  0  0  0  0
 14 15  1  0  0  0  0
 15 16  1  0  0  0  0
 15 36  1  0  0  0  0
 15 37  1  0  0  0  0
 16 17  1  0  0  0  0
 16 38  1  0  0  0  0
 16 39  1  0  0  0  0
 17 18  1  0  0  0  0
 17 40  1  0  0  0  0
 18 19  2  0  0  0  0
M  END
> <s_m_source_file>
AV-unprocessed.smi

> <i_m_source_file_index>
1332

> <i_lp_mmshare_version>
43012

> <i_f3d_flags>
0

> <s_epik_input>
W0NIM11bQ0gyXVtDSDJdW0NIMl1bQ0gyXVtOSF1DKD1PKVtDSDJdYzFbY0hdc2MobjEpTjJbQ0gyXVtDSDJdW05IXUMyPU8=

> <s_epik_cmdline>
J2VwaWtfcHl0aG9uJywgJy1waCcsICc3LjAnLCAnLXRuJywgJzgnLCAnLW1hJywgJzIwMCcsICctbWV0YWxfYmluZGluZycsICctaW1hZScsICc8aW5maWxlLm1hZT4nLCAnLW9tYWUnLCAnPG91dGZpbGUubWFlPic=

> <r_lp_tautomer_probability>
1

> <r_epik_Ionization_Penalty>
0.00012022

> <r_epik_Ionization_Penalty_Charging>
0

> <r_epik_Ionization_Penalty_Neutral>
0.00012022

> <r_epik_State_Penalty>
-0

> <r_epik_Charging_Adjusted_Penalty>
0

> <i_epik_Tot_Q>
0

> <i_epik_Tot_abs_Q>
0

> <r_epik_Metal_State_Penalty>
-0

> <b_epik_Metal_Only>
0

> <s_lp_Force_Field>
OPLS_2005

> <r_lp_Energy>
29.098

> <b_lp_Chiralities_Consistent>
1

> <s_lp_Variant>
AV-unprocessed.smi:1332-1

> <Gold.Version>
5.8.1

> <Gold.Id.Protein>
6NUR|6NUR_protein|mol2

> <Gold.PLP.Fitness>
44.3098

> <Gold.PLP.PLP>
-39.1292

> <Gold.PLP.part.hbond>
-2.0000

> <Gold.PLP.part.metal>
0.0000

> <Gold.PLP.part.buried>
-3.0991

> <Gold.PLP.part.nonpolar>
-34.6362

> <Gold.PLP.part.repulsive>
0.4758

> <Gold.PLP.ligand.clash>
0.0000

> <Gold.PLP.ligand.torsion>
0.4263

> <Gold.PLP.Chemscore.Hbond>
2.0000

> <Gold.PLP.Chemscore.CHOScore>
0.0000

> <Gold.PLP.Chemscore.Metal>
0.0000

> <Gold.Chemscore.Hbonds>
donor molecule, donor type, donor heavy atom, donor atom, acceptor molecule, acceptor atom, score
      L1  H     6    32       P1  8028  1.00
      P1  H  7989  7998       L1     8  1.00

> <Gold.PLP.Chemscore.Internal.Correction>
0.0332

> <Gold.Rescore>
     Score         DG    S(hbond)    S(metal)    S(lipo)     H(rot)  DE(clash)    DE(int)     intcor
     14.60     -15.23       1.56        0.00      85.29       2.13       0.08       0.56       ----

> <Gold.Chemscore.Fitness>
14.6024

> <Gold.Chemscore.DG>
-15.2340

> <Gold.Chemscore.ZeroCoef>
-5.4800

> <Gold.Chemscore.Hbond>
1.5618

> <Gold.Chemscore.Metal>
0.0000

> <Gold.Chemscore.Lipo>
85.2901

> <Gold.Chemscore.Internal_Hbond>
0.0000

> <Gold.Chemscore.DEClash>
0.0759

> <Gold.Chemscore.DEInternal>
0.5557

> <Gold.Chemscore.Rot>
2.1256

> <Gold.Chemscore.Internal.Correction>
   9.000000E+99

> <Gold.Chemscore.Hbonds>
donor molecule, donor type, donor heavy atom, donor atom, acceptor molecule, acceptor atom, score
      L1  H     6    32       P1  8028  0.96
      P1  H  7989  7998       L1     8  0.38

> <Gold.Chemscore.Hbond.Weighted>
-5.2166

> <Gold.Chemscore.Metal.Weighted>
-0.0000

> <Gold.Chemscore.Lipo.Weighted>
-9.9789

> <Gold.Chemscore.Internal_Hbond.Weighted>
0.0000

> <Gold.Chemscore.DEClash.Weighted>
0.0759

> <Gold.Chemscore.DEInternal.Weighted>
0.5557

> <Gold.Chemscore.Rot.Weighted>
5.4415

> <Gold.Chemscore.Internal.Correction.Weighted>
   9.000000E+99

> <Gold.Protein.RotatedTorsions>
[ 6907 6896 6895 6894 ] final -177.13 input  -60.11 | X-H torsion
[ 7974 7965 7964 7962 ] final -171.98 input  175.53 | X-H torsion
[ 8008 7997 7996 7995 ] final  -55.68 input   59.86 | X-H torsion
[ 10167 10162 10161 10158 ] final -147.39 input  -65.29 | X-H torsion
[ 10718 10713 10712 10709 ] final  139.11 input   66.30 | X-H torsion
[ 10763 10752 10751 10750 ] final   14.59 input  -60.55 | X-H torsion
[ 11005 11000 10999 10996 ] final -176.56 input  -57.11 | X-H torsion

> <Gold.Protein.ActiveResidues>
 VAL166  LYS551  ARG553  GLY616  TRP617  ASP618  TYR619  PRO620  LYS621  CYS622 
 ASP623  PHE694  ASN695  SER759  ASP760  ASP761  ALA762  ILE779  LEU786  VAL792 
 PHE793  MET794  SER795  GLU796  ALA797  LYS798  CYS799  TRP800  GLU811  SER814 

> <Gold.Protein.RotatedAtoms>
  151.6161  133.3343  159.3077 H   0  0  0  0  0  0  0  0  0  0  0  0  # atno 6907 bound_to 6896
  150.8131  134.7300  159.6717 H   0  0  0  0  0  0  0  0  0  0  0  0  # atno 6908 bound_to 6896
  152.4227  134.5930  160.0031 H   0  0  0  0  0  0  0  0  0  0  0  0  # atno 6909 bound_to 6896
  144.7151  140.1841  143.6355 H   0  0  0  0  0  0  0  0  0  0  0  0  # atno 7974 bound_to 7965
  154.4203  140.1147  156.5516 H   0  0  0  0  0  0  0  0  0  0  0  0  # atno 8008 bound_to 7997
  155.6404  140.3496  155.4694 H   0  0  0  0  0  0  0  0  0  0  0  0  # atno 8009 bound_to 7997
  155.9875  140.1172  157.0659 H   0  0  0  0  0  0  0  0  0  0  0  0  # atno 8010 bound_to 7997
  139.7626  143.8354  152.2610 H   0  0  0  0  0  0  0  0  0  0  0  0  # atno 10167 bound_to 10162
  157.4180  131.1035  151.0384 H   0  0  0  0  0  0  0  0  0  0  0  0  # atno 10718 bound_to 10713
  153.1607  135.6795  153.8746 H   0  0  0  0  0  0  0  0  0  0  0  0  # atno 10763 bound_to 10752
  153.8142  135.3139  155.3405 H   0  0  0  0  0  0  0  0  0  0  0  0  # atno 10764 bound_to 10752
  154.7930  135.4823  154.0186 H   0  0  0  0  0  0  0  0  0  0  0  0  # atno 10765 bound_to 10752
  140.4507  134.6346  157.4800 H   0  0  0  0  0  0  0  0  0  0  0  0  # atno 11005 bound_to 11000
  145.8829  139.2333  143.1594 LP  0  0  0  0  0  0  0  0  0  0  0  0  # atno 17320 bound_to 7965
  145.9977  140.8547  143.0034 LP  0  0  0  0  0  0  0  0  0  0  0  0  # atno 17321 bound_to 7965
  139.8365  144.7230  150.9384 LP  0  0  0  0  0  0  0  0  0  0  0  0  # atno 17342 bound_to 10162
  140.7808  143.4022  151.1130 LP  0  0  0  0  0  0  0  0  0  0  0  0  # atno 17343 bound_to 10162
  157.1325  130.6108  149.5533 LP  0  0  0  0  0  0  0  0  0  0  0  0  # atno 17370 bound_to 10713
  155.9871  130.4909  150.7111 LP  0  0  0  0  0  0  0  0  0  0  0  0  # atno 17371 bound_to 10713
  140.0009  134.6838  155.9532 LP  0  0  0  0  0  0  0  0  0  0  0  0  # atno 17394 bound_to 11000
  141.1665  133.6537  156.4499 LP  0  0  0  0  0  0  0  0  0  0  0  0  # atno 17395 bound_to 11000

$$$$
