AV-unprocessed.smi:972|AV-procd|sdf|4296|dock8
  -GOLD-   22720 2203D 1   1.00000     0.00000
 Structure written by MMmdl.
 51 53  0  0  0  0  0  0  0  0  2 V2000
  147.1005  142.2146  156.6242 C   0  0  0  0  0  0  0  0  0  0  0  0
  146.0760  141.9862  155.4875 C   0  0  0  0  0  0  0  0  0  0  0  0
  144.6792  142.1047  156.1415 C   0  0  0  0  0  0  0  0  0  0  0  0
  146.2396  143.0820  154.4186 C   0  0  0  0  0  0  0  0  0  0  0  0
  146.2675  140.6044  154.8380 C   0  0  0  0  0  0  0  0  0  0  0  0
  145.4255  139.6322  155.2122 N   0  0  0  0  0  0  0  0  0  0  0  0
  145.6575  138.3842  154.7526 C   0  0  0  0  0  0  0  0  0  0  0  0
  146.7736  138.0901  153.9326 C   0  0  0  0  0  0  0  0  0  0  0  0
  147.0912  136.8136  153.3925 N   0  0  0  0  0  0  0  0  0  0  0  0
  146.3971  135.6657  153.4764 C   0  0  0  0  0  0  0  0  0  0  0  0
  145.3395  135.5119  154.0858 O   0  0  0  0  0  0  0  0  0  0  0  0
  147.0140  134.6772  152.8124 N   0  0  0  0  0  0  0  0  0  0  0  0
  146.5204  133.3074  152.6976 C   0  0  2  0  0  0  0  0  0  0  0  0
  147.6106  132.2914  153.0881 C   0  0  0  0  0  0  0  0  0  0  0  0
  147.1256  130.8477  152.8731 C   0  0  0  0  0  0  0  0  0  0  0  0
  146.6865  130.6346  151.4717 N   0  3  1  0  0  0  0  0  0  0  0  0
  146.3188  129.2258  151.2108 C   0  0  0  0  0  0  0  0  0  0  0  0
  145.7174  128.5221  152.4051 C   0  0  0  0  0  0  0  0  0  0  0  0
  147.1426  128.2286  151.9919 C   0  0  0  0  0  0  0  0  0  0  0  0
  145.6056  131.5754  151.0853 C   0  0  0  0  0  0  0  0  0  0  0  0
  146.0564  133.0361  151.2568 C   0  0  0  0  0  0  0  0  0  0  0  0
  147.6119  139.1818  153.6294 C   0  0  0  0  0  0  0  0  0  0  0  0
  147.3680  140.4241  154.0960 N   0  0  0  0  0  0  0  0  0  0  0  0
  146.9384  143.1734  157.1178 H   0  0  0  0  0  0  0  0  0  0  0  0
  148.1266  142.2218  156.2548 H   0  0  0  0  0  0  0  0  0  0  0  0
  147.0287  141.4380  157.3863 H   0  0  0  0  0  0  0  0  0  0  0  0
  144.5210  141.3230  156.8855 H   0  0  0  0  0  0  0  0  0  0  0  0
  143.8762  142.0302  155.4072 H   0  0  0  0  0  0  0  0  0  0  0  0
  144.5559  143.0648  156.6440 H   0  0  0  0  0  0  0  0  0  0  0  0
  146.1092  144.0772  154.8450 H   0  0  0  0  0  0  0  0  0  0  0  0
  145.5066  142.9680  153.6192 H   0  0  0  0  0  0  0  0  0  0  0  0
  147.2301  143.0462  153.9635 H   0  0  0  0  0  0  0  0  0  0  0  0
  144.9320  137.6439  155.0492 H   0  0  0  0  0  0  0  0  0  0  0  0
  147.9691  136.7645  152.8964 H   0  0  0  0  0  0  0  0  0  0  0  0
  147.8816  134.8916  152.3428 H   0  0  0  0  0  0  0  0  0  0  0  0
  145.6628  133.1827  153.3619 H   0  0  0  0  0  0  0  0  0  0  0  0
  148.5097  132.4643  152.4947 H   0  0  0  0  0  0  0  0  0  0  0  0
  147.8986  132.4267  154.1312 H   0  0  0  0  0  0  0  0  0  0  0  0
  147.9324  130.1542  153.1139 H   0  0  0  0  0  0  0  0  0  0  0  0
  146.3018  130.6224  153.5522 H   0  0  0  0  0  0  0  0  0  0  0  0
  145.9764  128.9931  150.2039 H   0  0  0  0  0  0  0  0  0  0  0  0
  145.5670  129.0934  153.3195 H   0  0  0  0  0  0  0  0  0  0  0  0
  144.9741  127.7513  152.2117 H   0  0  0  0  0  0  0  0  0  0  0  0
  147.3377  127.2644  151.5270 H   0  0  0  0  0  0  0  0  0  0  0  0
  147.9379  128.6046  152.6333 H   0  0  0  0  0  0  0  0  0  0  0  0
  145.3228  131.4014  150.0464 H   0  0  0  0  0  0  0  0  0  0  0  0
  144.7188  131.3820  151.6912 H   0  0  0  0  0  0  0  0  0  0  0  0
  145.2376  133.7074  150.9942 H   0  0  0  0  0  0  0  0  0  0  0  0
  146.8674  133.2484  150.5581 H   0  0  0  0  0  0  0  0  0  0  0  0
  148.4910  139.0591  153.0138 H   0  0  0  0  0  0  0  0  0  0  0  0
  147.4798  130.8409  150.8814 H   0  0  0  0  0  0  0  0  0  0  0  0
  1  2  1  0  0  0  0
  1 24  1  0  0  0  0
  1 25  1  0  0  0  0
  1 26  1  0  0  0  0
  2  3  1  0  0  0  0
  2  4  1  0  0  0  0
  2  5  1  0  0  0  0
  3 27  1  0  0  0  0
  3 28  1  0  0  0  0
  3 29  1  0  0  0  0
  4 30  1  0  0  0  0
  4 31  1  0  0  0  0
  4 32  1  0  0  0  0
  5 23  1  0  0  0  0
  5  6  2  0  0  0  0
  6  7  1  0  0  0  0
  7  8  2  0  0  0  0
  7 33  1  0  0  0  0
  8  9  1  0  0  0  0
  8 22  1  0  0  0  0
  9 10  1  0  0  0  0
  9 34  1  0  0  0  0
 10 11  2  0  0  0  0
 10 12  1  0  0  0  0
 12 13  1  0  0  0  0
 12 35  1  0  0  0  0
 13 21  1  0  0  0  0
 13 14  1  0  0  0  0
 13 36  1  0  0  0  0
 14 15  1  0  0  0  0
 14 37  1  0  0  0  0
 14 38  1  0  0  0  0
 15 16  1  0  0  0  0
 15 39  1  0  0  0  0
 15 40  1  0  0  0  0
 16 17  1  0  0  0  0
 16 20  1  0  0  0  0
 16 51  1  0  0  0  0
 17 19  1  0  0  0  0
 17 18  1  0  0  0  0
 17 41  1  0  0  0  0
 18 19  1  0  0  0  0
 18 42  1  0  0  0  0
 18 43  1  0  0  0  0
 19 44  1  0  0  0  0
 19 45  1  0  0  0  0
 20 21  1  0  0  0  0
 20 46  1  0  0  0  0
 20 47  1  0  0  0  0
 21 48  1  0  0  0  0
 21 49  1  0  0  0  0
 22 23  2  0  0  0  0
 22 50  1  0  0  0  0
M  CHG  1  16   1
M  END
> <s_m_source_file>
AV-unprocessed.smi

> <i_m_source_file_index>
972

> <i_lp_mmshare_version>
43012

> <i_f3d_flags>
0

> <s_epik_input>
W0NIM11DKFtDSDNdKShbQ0gzXSljMW5bY0hdYyhbY0hdbjEpW05IXUMoPU8pW05IXVtDSF0yW0NIMl1bQ0gyXU4oW0NIMl1bQ0gyXTIpW0NIXTNbQ0gyXVtDSDJdMw==

> <s_epik_cmdline>
J2VwaWtfcHl0aG9uJywgJy1waCcsICc3LjAnLCAnLXRuJywgJzgnLCAnLW1hJywgJzIwMCcsICctbWV0YWxfYmluZGluZycsICctaW1hZScsICc8aW5maWxlLm1hZT4nLCAnLW9tYWUnLCAnPG91dGZpbGUubWFlPic=

> <r_lp_tautomer_probability>
1

> <r_epik_Ionization_Penalty>
0.123264

> <r_epik_Ionization_Penalty_Charging>
0.123242

> <r_epik_Ionization_Penalty_Neutral>
2.24743e-05

> <r_epik_State_Penalty>
0.112739

> <r_epik_Charging_Adjusted_Penalty>
0.235981

> <i_epik_Tot_Q>
1

> <i_epik_Tot_abs_Q>
1

> <r_epik_Metal_State_Penalty>
0.112739

> <b_epik_Metal_Only>
0

> <s_lp_Force_Field>
OPLS_2005

> <r_lp_Energy>
25.9284

> <b_lp_Chiralities_Consistent>
1

> <s_lp_Variant>
AV-unprocessed.smi:972-1

> <Gold.Version>
5.8.1

> <Gold.Id.Protein>
6NUR|6NUR_protein|mol2

> <Gold.PLP.Fitness>
43.2034

> <Gold.PLP.PLP>
-32.5866

> <Gold.PLP.part.hbond>
-2.8203

> <Gold.PLP.part.metal>
0.0000

> <Gold.PLP.part.buried>
-3.1783

> <Gold.PLP.part.nonpolar>
-26.5952

> <Gold.PLP.part.repulsive>
0.3227

> <Gold.PLP.ligand.clash>
0.0000

> <Gold.PLP.ligand.torsion>
1.2102

> <Gold.PLP.Chemscore.Hbond>
2.8800

> <Gold.PLP.Chemscore.CHOScore>
1.0000

> <Gold.PLP.Chemscore.Metal>
0.0000

> <Gold.Chemscore.Hbonds>
donor molecule, donor type, donor heavy atom, donor atom, acceptor molecule, acceptor atom, score
      L1  H     9    34       P1  7948  0.98
      L1  H    12    35       P1  7948  0.90
      L1  H    16    51       P1 10747  1.00
      L1  C    22    50       P1  7957  1.00

> <Gold.PLP.Chemscore.Internal.Correction>
1.3973

> <Gold.Rescore>
     Score         DG    S(hbond)    S(metal)    S(lipo)     H(rot)  DE(clash)    DE(int)     intcor
     19.07     -21.35       2.89        0.00      82.10       1.32       0.02       2.26       ----

> <Gold.Chemscore.Fitness>
19.0727

> <Gold.Chemscore.DG>
-21.3489

> <Gold.Chemscore.ZeroCoef>
-5.4800

> <Gold.Chemscore.Hbond>
2.8876

> <Gold.Chemscore.Metal>
0.0000

> <Gold.Chemscore.Lipo>
82.0971

> <Gold.Chemscore.Internal_Hbond>
0.0000

> <Gold.Chemscore.DEClash>
0.0212

> <Gold.Chemscore.DEInternal>
2.2550

> <Gold.Chemscore.Rot>
1.3207

> <Gold.Chemscore.Internal.Correction>
   9.000000E+99

> <Gold.Chemscore.Hbonds>
donor molecule, donor type, donor heavy atom, donor atom, acceptor molecule, acceptor atom, score
      L1  H     9    34       P1  7948  0.91
      L1  H    12    35       P1  7948  0.69
      L1  H    16    51       P1 10747  0.99

> <Gold.Chemscore.Hbond.Weighted>
-9.6444

> <Gold.Chemscore.Metal.Weighted>
-0.0000

> <Gold.Chemscore.Lipo.Weighted>
-9.6054

> <Gold.Chemscore.Internal_Hbond.Weighted>
0.0000

> <Gold.Chemscore.DEClash.Weighted>
0.0212

> <Gold.Chemscore.DEInternal.Weighted>
2.2550

> <Gold.Chemscore.Rot.Weighted>
3.3809

> <Gold.Chemscore.Internal.Correction.Weighted>
   9.000000E+99

> <Gold.Protein.RotatedTorsions>
[ 6907 6896 6895 6894 ] final -109.95 input  -60.11 | X-H torsion
[ 7974 7965 7964 7962 ] final  -19.70 input  175.53 | X-H torsion
[ 8008 7997 7996 7995 ] final  -22.78 input   59.86 | X-H torsion
[ 10167 10162 10161 10158 ] final  157.18 input  -65.29 | X-H torsion
[ 10718 10713 10712 10709 ] final  -87.17 input   66.30 | X-H torsion
[ 10763 10752 10751 10750 ] final -163.59 input  -60.55 | X-H torsion
[ 11005 11000 10999 10996 ] final -155.93 input  -57.11 | X-H torsion

> <Gold.Protein.ActiveResidues>
 VAL166  LYS551  ARG553  GLY616  TRP617  ASP618  TYR619  PRO620  LYS621  CYS622 
 ASP623  PHE694  ASN695  SER759  ASP760  ASP761  ALA762  ILE779  LEU786  VAL792 
 PHE793  MET794  SER795  GLU796  ALA797  LYS798  CYS799  TRP800  GLU811  SER814 

> <Gold.Protein.RotatedAtoms>
  150.7594  133.9453  159.3468 H   0  0  0  0  0  0  0  0  0  0  0  0  # atno 6907 bound_to 6896
  151.7365  135.0861  160.0318 H   0  0  0  0  0  0  0  0  0  0  0  0  # atno 6908 bound_to 6896
  152.3556  133.6195  159.6013 H   0  0  0  0  0  0  0  0  0  0  0  0  # atno 6909 bound_to 6896
  146.1827  140.4099  142.8488 H   0  0  0  0  0  0  0  0  0  0  0  0  # atno 7974 bound_to 7965
  154.4623  140.1998  156.0210 H   0  0  0  0  0  0  0  0  0  0  0  0  # atno 8008 bound_to 7997
  156.0863  140.3264  155.7730 H   0  0  0  0  0  0  0  0  0  0  0  0  # atno 8009 bound_to 7997
  155.5029  140.0555  157.2927 H   0  0  0  0  0  0  0  0  0  0  0  0  # atno 8010 bound_to 7997
  139.4822  144.4941  151.8265 H   0  0  0  0  0  0  0  0  0  0  0  0  # atno 10167 bound_to 10162
  155.9986  130.4790  150.4825 H   0  0  0  0  0  0  0  0  0  0  0  0  # atno 10718 bound_to 10713
  154.7108  135.3006  154.9200 H   0  0  0  0  0  0  0  0  0  0  0  0  # atno 10763 bound_to 10752
  154.0102  135.6696  153.4769 H   0  0  0  0  0  0  0  0  0  0  0  0  # atno 10764 bound_to 10752
  153.0753  135.5038  154.8305 H   0  0  0  0  0  0  0  0  0  0  0  0  # atno 10765 bound_to 10752
  140.6811  134.4144  157.5226 H   0  0  0  0  0  0  0  0  0  0  0  0  # atno 11005 bound_to 11000
  144.8343  140.6757  143.6270 LP  0  0  0  0  0  0  0  0  0  0  0  0  # atno 17320 bound_to 7965
  145.4028  139.1594  143.4168 LP  0  0  0  0  0  0  0  0  0  0  0  0  # atno 17321 bound_to 7965
  140.4428  144.1963  150.5892 LP  0  0  0  0  0  0  0  0  0  0  0  0  # atno 17342 bound_to 10162
  140.4666  143.2428  151.9147 LP  0  0  0  0  0  0  0  0  0  0  0  0  # atno 17343 bound_to 10162
  157.2829  131.0610  151.2185 LP  0  0  0  0  0  0  0  0  0  0  0  0  # atno 17370 bound_to 10713
  157.3225  130.6944  149.6277 LP  0  0  0  0  0  0  0  0  0  0  0  0  # atno 17371 bound_to 10713
  139.8951  134.8690  156.2145 LP  0  0  0  0  0  0  0  0  0  0  0  0  # atno 17394 bound_to 11000
  141.0317  133.6985  156.1441 LP  0  0  0  0  0  0  0  0  0  0  0  0  # atno 17395 bound_to 11000

$$$$
