AV-unprocessed.smi:517|AV-procd|sdf|2791|dock4
  -GOLD-   2262023263D 1   1.00000     0.00000
 Structure written by MMmdl.
 36 37  0  0  0  0  0  0  0  0  2 V2000
  150.6575  135.1270  155.3157 C   0  0  0  0  0  0  0  0  0  0  0  0
  150.4945  136.6456  155.2242 C   0  0  0  0  0  0  0  0  0  0  0  0
  151.7664  137.2312  155.0071 O   0  0  0  0  0  0  0  0  0  0  0  0
  151.7425  138.6470  155.0952 C   0  0  0  0  0  0  0  0  0  0  0  0
  151.1833  139.0640  156.4625 C   0  0  0  0  0  0  0  0  0  0  0  0
  150.8939  140.5049  156.5236 N   0  0  0  0  0  0  0  0  0  0  0  0
  150.0228  141.2709  155.8018 C   0  0  0  0  0  0  0  0  0  0  0  0
  149.1078  140.8212  154.7039 C   0  0  1  0  0  0  0  0  0  0  0  0
  147.9145  141.7737  154.5481 C   0  0  0  0  0  0  0  0  0  0  0  0
  149.7819  140.7354  153.4668 O   0  0  0  0  0  0  0  0  0  0  0  0
  150.1454  142.5512  156.2564 N   0  3  0  0  0  0  0  0  0  0  0  0
  151.0809  142.6017  157.2896 C   0  0  0  0  0  0  0  0  0  0  0  0
  151.5283  143.6684  158.0630 C   0  0  0  0  0  0  0  0  0  0  0  0
  152.4941  143.3744  159.0477 C   0  0  0  0  0  0  0  0  0  0  0  0
  152.9781  142.0629  159.2329 C   0  0  0  0  0  0  0  0  0  0  0  0
  152.5178  140.9902  158.4411 C   0  0  0  0  0  0  0  0  0  0  0  0
  151.5636  141.2897  157.4691 C   0  0  0  0  0  0  0  0  0  0  0  0
  149.6957  134.6419  155.4841 H   0  0  0  0  0  0  0  0  0  0  0  0
  151.3193  134.8530  156.1376 H   0  0  0  0  0  0  0  0  0  0  0  0
  151.0790  134.7221  154.3954 H   0  0  0  0  0  0  0  0  0  0  0  0
  149.8194  136.8969  154.4049 H   0  0  0  0  0  0  0  0  0  0  0  0
  150.0547  137.0302  156.1457 H   0  0  0  0  0  0  0  0  0  0  0  0
  152.7505  139.0452  154.9695 H   0  0  0  0  0  0  0  0  0  0  0  0
  151.1249  139.0633  154.2980 H   0  0  0  0  0  0  0  0  0  0  0  0
  150.2771  138.5070  156.7015 H   0  0  0  0  0  0  0  0  0  0  0  0
  151.8977  138.8281  157.2507 H   0  0  0  0  0  0  0  0  0  0  0  0
  148.7234  139.8289  154.9362 H   0  0  0  0  0  0  0  0  0  0  0  0
  147.3472  141.8421  155.4765 H   0  0  0  0  0  0  0  0  0  0  0  0
  147.2324  141.4238  153.7724 H   0  0  0  0  0  0  0  0  0  0  0  0
  148.2345  142.7806  154.2778 H   0  0  0  0  0  0  0  0  0  0  0  0
  149.3156  140.1283  152.9126 H   0  0  0  0  0  0  0  0  0  0  0  0
  151.1571  144.6733  157.9243 H   0  0  0  0  0  0  0  0  0  0  0  0
  152.8700  144.1700  159.6745 H   0  0  0  0  0  0  0  0  0  0  0  0
  153.7170  141.8752  159.9985 H   0  0  0  0  0  0  0  0  0  0  0  0
  152.8934  139.9892  158.5934 H   0  0  0  0  0  0  0  0  0  0  0  0
  149.6174  143.3304  155.8852 H   0  0  0  0  0  0  0  0  0  0  0  0
  1  2  1  0  0  0  0
  1 18  1  0  0  0  0
  1 19  1  0  0  0  0
  1 20  1  0  0  0  0
  2  3  1  0  0  0  0
  2 21  1  0  0  0  0
  2 22  1  0  0  0  0
  3  4  1  0  0  0  0
  4  5  1  0  0  0  0
  4 23  1  0  0  0  0
  4 24  1  0  0  0  0
  5  6  1  0  0  0  0
  5 25  1  0  0  0  0
  5 26  1  0  0  0  0
  6 17  1  0  0  0  0
  6  7  1  0  0  0  0
  7  8  1  0  0  0  0
  7 11  2  0  0  0  0
  8  9  1  0  0  0  0
  8 10  1  0  0  0  0
  8 27  1  0  0  0  0
  9 28  1  0  0  0  0
  9 29  1  0  0  0  0
  9 30  1  0  0  0  0
 10 31  1  0  0  0  0
 11 12  1  0  0  0  0
 11 36  1  0  0  0  0
 12 17  2  0  0  0  0
 12 13  1  0  0  0  0
 13 14  2  0  0  0  0
 13 32  1  0  0  0  0
 14 15  1  0  0  0  0
 14 33  1  0  0  0  0
 15 16  2  0  0  0  0
 15 34  1  0  0  0  0
 16 17  1  0  0  0  0
 16 35  1  0  0  0  0
M  CHG  1  11   1
M  END
> <s_m_source_file>
AV-unprocessed.smi

> <i_m_source_file_index>
517

> <i_lp_mmshare_version>
43012

> <i_f3d_flags>
0

> <s_epik_input>
W0NIM11bQ0gyXU9bQ0gyXVtDSDJdbihjKG4xKVtDQEhdKFtDSDNdKVtPSF0pYyhjMTIpW2NIXVtjSF1bY0hdW2NIXTI=

> <s_epik_cmdline>
J2VwaWtfcHl0aG9uJywgJy1waCcsICc3LjAnLCAnLXRuJywgJzgnLCAnLW1hJywgJzIwMCcsICctbWV0YWxfYmluZGluZycsICctaW1hZScsICc8aW5maWxlLm1hZT4nLCAnLW9tYWUnLCAnPG91dGZpbGUubWFlPic=

> <r_epik_Ionization_Penalty>
1.46962

> <r_epik_Ionization_Penalty_Charging>
1.46959

> <r_epik_Ionization_Penalty_Neutral>
2.92192e-05

> <r_epik_State_Penalty>
1.55729

> <r_epik_Charging_Adjusted_Penalty>
3.02688

> <i_epik_Tot_Q>
1

> <i_epik_Tot_abs_Q>
1

> <r_epik_Metal_State_Penalty>
5.60569

> <b_epik_Metal_Only>
0

> <s_lp_Force_Field>
OPLS_2005

> <r_lp_Energy>
10.1165

> <b_lp_Chiralities_Consistent>
1

> <s_lp_Variant>
AV-unprocessed.smi:517-4

> <Gold.Version>
5.8.1

> <Gold.Id.Protein>
6NUR|6NUR_protein|mol2

> <Gold.PLP.Fitness>
52.5433

> <Gold.PLP.PLP>
-39.5213

> <Gold.PLP.part.hbond>
-4.0852

> <Gold.PLP.part.metal>
0.0000

> <Gold.PLP.part.buried>
-3.6494

> <Gold.PLP.part.nonpolar>
-31.4994

> <Gold.PLP.part.repulsive>
0.2122

> <Gold.PLP.ligand.clash>
0.0000

> <Gold.PLP.ligand.torsion>
0.7176

> <Gold.PLP.Chemscore.Hbond>
4.8073

> <Gold.PLP.Chemscore.CHOScore>
0.0000

> <Gold.PLP.Chemscore.Metal>
0.0000

> <Gold.Chemscore.Hbonds>
donor molecule, donor type, donor heavy atom, donor atom, acceptor molecule, acceptor atom, score
      L1  H    10    31       P1  7957  0.43
      L1  H    11    36       P1  8028  2.00
      P1  H  7989  7998       L1    10  0.37
      P1  H  8011  8017       L1    10  1.00
      P1  H 10752 10765       L1     3  0.96

> <Gold.PLP.Chemscore.Internal.Correction>
0.0355

> <Gold.Rescore>
     Score         DG    S(hbond)    S(metal)    S(lipo)     H(rot)  DE(clash)    DE(int)     intcor
     20.58     -21.29       3.05        0.00      95.72       2.18       0.02       0.69       ----

> <Gold.Chemscore.Fitness>
20.5838

> <Gold.Chemscore.DG>
-21.2904

> <Gold.Chemscore.ZeroCoef>
-5.4800

> <Gold.Chemscore.Hbond>
3.0513

> <Gold.Chemscore.Metal>
0.0000

> <Gold.Chemscore.Lipo>
95.7186

> <Gold.Chemscore.Internal_Hbond>
0.0000

> <Gold.Chemscore.DEClash>
0.0160

> <Gold.Chemscore.DEInternal>
0.6907

> <Gold.Chemscore.Rot>
2.1797

> <Gold.Chemscore.Internal.Correction>
   9.000000E+99

> <Gold.Chemscore.Hbonds>
donor molecule, donor type, donor heavy atom, donor atom, acceptor molecule, acceptor atom, score
      L1  H    10    31       P1  7957  0.44
      L1  H    11    36       P1  8028  0.98
      P1  H  7989  7998       L1    10  0.35
      P1  H  8011  8017       L1    10  0.30
      P1  H 10752 10765       L1     3  0.39

> <Gold.Chemscore.Hbond.Weighted>
-10.1915

> <Gold.Chemscore.Metal.Weighted>
-0.0000

> <Gold.Chemscore.Lipo.Weighted>
-11.1991

> <Gold.Chemscore.Internal_Hbond.Weighted>
0.0000

> <Gold.Chemscore.DEClash.Weighted>
0.0160

> <Gold.Chemscore.DEInternal.Weighted>
0.6907

> <Gold.Chemscore.Rot.Weighted>
5.5801

> <Gold.Chemscore.Internal.Correction.Weighted>
   9.000000E+99

> <Gold.Protein.RotatedTorsions>
[ 6907 6896 6895 6894 ] final  -49.36 input  -60.11 | X-H torsion
[ 7974 7965 7964 7962 ] final  -75.00 input  175.53 | X-H torsion
[ 8008 7997 7996 7995 ] final   99.33 input   59.86 | X-H torsion
[ 10167 10162 10161 10158 ] final  101.47 input  -65.29 | X-H torsion
[ 10718 10713 10712 10709 ] final   13.60 input   66.30 | X-H torsion
[ 10763 10752 10751 10750 ] final  171.92 input  -60.55 | X-H torsion
[ 11005 11000 10999 10996 ] final  -95.17 input  -57.11 | X-H torsion

> <Gold.Protein.ActiveResidues>
 VAL166  LYS551  ARG553  GLY616  TRP617  ASP618  TYR619  PRO620  LYS621  CYS622 
 ASP623  PHE694  ASN695  SER759  ASP760  ASP761  ALA762  ILE779  LEU786  VAL792 
 PHE793  MET794  SER795  GLU796  ALA797  LYS798  CYS799  TRP800  GLU811  SER814 

> <Gold.Protein.RotatedAtoms>
  150.8813  134.8204  159.7226 H   0  0  0  0  0  0  0  0  0  0  0  0  # atno 6907 bound_to 6896
  152.4779  134.4792  159.9670 H   0  0  0  0  0  0  0  0  0  0  0  0  # atno 6908 bound_to 6896
  151.4866  133.3495  159.2882 H   0  0  0  0  0  0  0  0  0  0  0  0  # atno 6909 bound_to 6896
  145.6317  140.9336  143.1083 H   0  0  0  0  0  0  0  0  0  0  0  0  # atno 7974 bound_to 7965
  156.1094  140.3230  155.8052 H   0  0  0  0  0  0  0  0  0  0  0  0  # atno 8008 bound_to 7997
  155.4699  140.0546  157.2998 H   0  0  0  0  0  0  0  0  0  0  0  0  # atno 8009 bound_to 7997
  154.4750  140.2028  155.9916 H   0  0  0  0  0  0  0  0  0  0  0  0  # atno 8010 bound_to 7997
  139.7435  144.7004  151.0539 H   0  0  0  0  0  0  0  0  0  0  0  0  # atno 10167 bound_to 10162
  157.0270  130.6177  149.5729 H   0  0  0  0  0  0  0  0  0  0  0  0  # atno 10718 bound_to 10713
  154.4187  135.2757  155.1989 H   0  0  0  0  0  0  0  0  0  0  0  0  # atno 10763 bound_to 10752
  154.3944  135.6059  153.5865 H   0  0  0  0  0  0  0  0  0  0  0  0  # atno 10764 bound_to 10752
  152.9832  135.5911  154.4480 H   0  0  0  0  0  0  0  0  0  0  0  0  # atno 10765 bound_to 10752
  141.1450  133.8007  157.0398 H   0  0  0  0  0  0  0  0  0  0  0  0  # atno 11005 bound_to 11000
  144.7191  139.8092  143.7388 LP  0  0  0  0  0  0  0  0  0  0  0  0  # atno 17320 bound_to 7965
  146.1351  139.4395  143.0144 LP  0  0  0  0  0  0  0  0  0  0  0  0  # atno 17321 bound_to 7965
  140.7789  143.4895  150.9912 LP  0  0  0  0  0  0  0  0  0  0  0  0  # atno 17342 bound_to 10162
  139.8583  143.7348  152.3175 LP  0  0  0  0  0  0  0  0  0  0  0  0  # atno 17343 bound_to 10162
  156.0082  130.5171  150.7902 LP  0  0  0  0  0  0  0  0  0  0  0  0  # atno 17370 bound_to 10713
  157.5206  131.0931  151.0083 LP  0  0  0  0  0  0  0  0  0  0  0  0  # atno 17371 bound_to 10713
  140.0700  134.9707  157.1451 LP  0  0  0  0  0  0  0  0  0  0  0  0  # atno 17394 bound_to 11000
  140.3724  134.2375  155.7177 LP  0  0  0  0  0  0  0  0  0  0  0  0  # atno 17395 bound_to 11000

$$$$
