AV-unprocessed.smi:3311|AV-procd|sdf|12722|dock2
  -GOLD-   2272019 63D 1   1.00000     0.00000
 Structure written by MMmdl.
 44 45  0  0  0  0  0  0  0  0  2 V2000
  144.3846  135.4701  153.0025 C   0  0  0  0  0  0  0  0  0  0  0  0
  145.7963  135.5682  152.4011 C   0  0  1  0  0  0  0  0  0  0  0  0
  146.6656  136.3022  153.3487 N   0  3  0  0  0  0  0  0  0  0  0  0
  146.2086  137.6649  153.6984 C   0  0  0  0  0  0  0  0  0  0  0  0
  147.3123  138.7215  153.4752 C   0  0  0  0  0  0  0  0  0  0  0  0
  147.7368  138.6094  152.1284 O   0  0  0  0  0  0  0  0  0  0  0  0
  146.7905  140.1568  153.7378 C   0  0  0  0  0  0  0  0  0  0  0  0
  147.8974  141.2223  153.6568 C   0  0  0  0  0  0  0  0  0  0  0  0
  149.0641  140.8904  154.5970 C   0  0  0  0  0  0  0  0  0  0  0  0
  149.6248  139.4919  154.3030 C   0  0  0  0  0  0  0  0  0  0  0  0
  148.5255  138.4173  154.3857 C   0  0  0  0  0  0  0  0  0  0  0  0
  146.4121  134.1795  152.0801 C   0  0  1  0  0  0  0  0  0  0  0  0
  146.6059  133.2973  153.3279 C   0  0  0  0  0  0  0  0  0  0  0  0
  145.6239  133.4619  151.0835 N   0  0  0  0  0  0  0  0  0  0  0  0
  145.9290  132.2762  150.4467 C   0  0  0  0  0  0  0  0  0  0  0  0
  144.9042  131.9974  149.5885 C   0  0  0  0  0  0  0  0  0  0  0  0
  144.0026  133.0817  149.7743 C   0  0  0  0  0  0  0  0  0  0  0  0
  144.4360  133.9564  150.6671 N   0  0  0  0  0  0  0  0  0  0  0  0
  143.6760  135.0325  152.2998 H   0  0  0  0  0  0  0  0  0  0  0  0
  144.0022  136.4574  153.2634 H   0  0  0  0  0  0  0  0  0  0  0  0
  144.3783  134.8624  153.9080 H   0  0  0  0  0  0  0  0  0  0  0  0
  145.7161  136.1379  151.4735 H   0  0  0  0  0  0  0  0  0  0  0  0
  146.7498  135.7676  154.2016 H   0  0  0  0  0  0  0  0  0  0  0  0
  145.3402  137.9190  153.0896 H   0  0  0  0  0  0  0  0  0  0  0  0
  145.8756  137.6675  154.7374 H   0  0  0  0  0  0  0  0  0  0  0  0
  148.3834  139.2787  151.9614 H   0  0  0  0  0  0  0  0  0  0  0  0
  145.9958  140.4137  153.0365 H   0  0  0  0  0  0  0  0  0  0  0  0
  146.3401  140.1980  154.7307 H   0  0  0  0  0  0  0  0  0  0  0  0
  148.2631  141.2997  152.6322 H   0  0  0  0  0  0  0  0  0  0  0  0
  147.4867  142.2003  153.9089 H   0  0  0  0  0  0  0  0  0  0  0  0
  149.8515  141.6373  154.4907 H   0  0  0  0  0  0  0  0  0  0  0  0
  148.7266  140.9413  155.6332 H   0  0  0  0  0  0  0  0  0  0  0  0
  150.0804  139.4814  153.3123 H   0  0  0  0  0  0  0  0  0  0  0  0
  150.4228  139.2590  155.0088 H   0  0  0  0  0  0  0  0  0  0  0  0
  148.1888  138.3468  155.4211 H   0  0  0  0  0  0  0  0  0  0  0  0
  148.9483  137.4419  154.1407 H   0  0  0  0  0  0  0  0  0  0  0  0
  147.3984  134.3418  151.6417 H   0  0  0  0  0  0  0  0  0  0  0  0
  147.3382  133.7230  154.0133 H   0  0  0  0  0  0  0  0  0  0  0  0
  146.9679  132.3064  153.0516 H   0  0  0  0  0  0  0  0  0  0  0  0
  145.6719  133.1670  153.8757 H   0  0  0  0  0  0  0  0  0  0  0  0
  146.8412  131.7355  150.6519 H   0  0  0  0  0  0  0  0  0  0  0  0
  144.8112  131.1470  148.9293 H   0  0  0  0  0  0  0  0  0  0  0  0
  143.0535  133.2588  149.2900 H   0  0  0  0  0  0  0  0  0  0  0  0
  147.5815  136.3804  152.9310 H   0  0  0  0  0  0  0  0  0  0  0  0
  1  2  1  0  0  0  0
  1 19  1  0  0  0  0
  1 20  1  0  0  0  0
  1 21  1  0  0  0  0
  2  3  1  0  0  0  0
  2 12  1  0  0  0  0
  2 22  1  0  0  0  0
  3  4  1  0  0  0  0
  3 23  1  0  0  0  0
  3 44  1  0  0  0  0
  4  5  1  0  0  0  0
  4 24  1  0  0  0  0
  4 25  1  0  0  0  0
  5 11  1  0  0  0  0
  5  6  1  0  0  0  0
  5  7  1  0  0  0  0
  6 26  1  0  0  0  0
  7  8  1  0  0  0  0
  7 27  1  0  0  0  0
  7 28  1  0  0  0  0
  8  9  1  0  0  0  0
  8 29  1  0  0  0  0
  8 30  1  0  0  0  0
  9 10  1  0  0  0  0
  9 31  1  0  0  0  0
  9 32  1  0  0  0  0
 10 11  1  0  0  0  0
 10 33  1  0  0  0  0
 10 34  1  0  0  0  0
 11 35  1  0  0  0  0
 11 36  1  0  0  0  0
 12 13  1  0  0  0  0
 12 14  1  0  0  0  0
 12 37  1  0  0  0  0
 13 38  1  0  0  0  0
 13 39  1  0  0  0  0
 13 40  1  0  0  0  0
 14 18  1  0  0  0  0
 14 15  1  0  0  0  0
 15 16  2  0  0  0  0
 15 41  1  0  0  0  0
 16 17  1  0  0  0  0
 16 42  1  0  0  0  0
 17 18  2  0  0  0  0
 17 43  1  0  0  0  0
M  CHG  1   3   1
M  END
> <s_m_source_file>
AV-unprocessed.smi

> <i_m_source_file_index>
3311

> <i_lp_mmshare_version>
43012

> <i_f3d_flags>
0

> <s_epik_input>
bjFbY0hdW2NIXVtjSF1uMVtDQEBIXShbQ0gzXSlbQ0BIXShbQ0gzXSlbTkhdW0NIMl1DMihbT0hdKVtDSDJdW0NIMl1bQ0gyXVtDSDJdW0NIMl0y

> <s_epik_cmdline>
J2VwaWtfcHl0aG9uJywgJy1waCcsICc3LjAnLCAnLXRuJywgJzgnLCAnLW1hJywgJzIwMCcsICctbWV0YWxfYmluZGluZycsICctaW1hZScsICc8aW5maWxlLm1hZT4nLCAnLW9tYWUnLCAnPG91dGZpbGUubWFlPic=

> <r_lp_tautomer_probability>
1

> <r_epik_Ionization_Penalty>
0.0141403

> <r_epik_Ionization_Penalty_Charging>
0.0141276

> <r_epik_Ionization_Penalty_Neutral>
1.27139e-05

> <r_epik_State_Penalty>
0.0110334

> <r_epik_Charging_Adjusted_Penalty>
0.025161

> <i_epik_Tot_Q>
1

> <i_epik_Tot_abs_Q>
1

> <r_epik_Metal_State_Penalty>
0.0110573

> <b_epik_Metal_Only>
0

> <s_lp_Force_Field>
OPLS_2005

> <r_lp_Energy>
21.4013

> <b_lp_Chiralities_Consistent>
1

> <s_lp_Variant>
AV-unprocessed.smi:3311-4

> <Gold.Version>
5.8.1

> <Gold.Id.Protein>
6NUR|6NUR_protein|mol2

> <Gold.PLP.Fitness>
47.2564

> <Gold.PLP.PLP>
-32.9272

> <Gold.PLP.part.hbond>
-2.9510

> <Gold.PLP.part.metal>
0.0000

> <Gold.PLP.part.buried>
-3.8917

> <Gold.PLP.part.nonpolar>
-26.9337

> <Gold.PLP.part.repulsive>
0.1700

> <Gold.PLP.ligand.clash>
0.0000

> <Gold.PLP.ligand.torsion>
0.4352

> <Gold.PLP.Chemscore.Hbond>
3.0237

> <Gold.PLP.Chemscore.CHOScore>
2.0000

> <Gold.PLP.Chemscore.Metal>
0.0000

> <Gold.Chemscore.Hbonds>
donor molecule, donor type, donor heavy atom, donor atom, acceptor molecule, acceptor atom, score
      L1  H     3    44       P1  7948  2.00
      L1  H     6    26       P1  7957  1.00
      P1  H  7954  7966       L1     6  0.03
      L1  C    15    41       P1 10747  1.00
      L1  C    17    43       P1 10186  1.00

> <Gold.PLP.Chemscore.Internal.Correction>
0.1286

> <Gold.Rescore>
     Score         DG    S(hbond)    S(metal)    S(lipo)     H(rot)  DE(clash)    DE(int)     intcor
     15.39     -17.29       1.98        0.00      91.31       2.14       0.22       1.68       ----

> <Gold.Chemscore.Fitness>
15.3896

> <Gold.Chemscore.DG>
-17.2906

> <Gold.Chemscore.ZeroCoef>
-5.4800

> <Gold.Chemscore.Hbond>
1.9796

> <Gold.Chemscore.Metal>
0.0000

> <Gold.Chemscore.Lipo>
91.3094

> <Gold.Chemscore.Internal_Hbond>
0.0000

> <Gold.Chemscore.DEClash>
0.2173

> <Gold.Chemscore.DEInternal>
1.6837

> <Gold.Chemscore.Rot>
2.1424

> <Gold.Chemscore.Internal.Correction>
   9.000000E+99

> <Gold.Chemscore.Hbonds>
donor molecule, donor type, donor heavy atom, donor atom, acceptor molecule, acceptor atom, score
      L1  H     3    44       P1  7948  1.00
      L1  H     6    26       P1  7957  0.97

> <Gold.Chemscore.Hbond.Weighted>
-6.6120

> <Gold.Chemscore.Metal.Weighted>
-0.0000

> <Gold.Chemscore.Lipo.Weighted>
-10.6832

> <Gold.Chemscore.Internal_Hbond.Weighted>
0.0000

> <Gold.Chemscore.DEClash.Weighted>
0.2173

> <Gold.Chemscore.DEInternal.Weighted>
1.6837

> <Gold.Chemscore.Rot.Weighted>
5.4846

> <Gold.Chemscore.Internal.Correction.Weighted>
   9.000000E+99

> <Gold.Protein.RotatedTorsions>
[ 6907 6896 6895 6894 ] final -117.49 input  -60.11 | X-H torsion
[ 7974 7965 7964 7962 ] final  168.72 input  175.53 | X-H torsion
[ 8008 7997 7996 7995 ] final  114.16 input   59.86 | X-H torsion
[ 10167 10162 10161 10158 ] final  127.38 input  -65.29 | X-H torsion
[ 10718 10713 10712 10709 ] final  -41.07 input   66.30 | X-H torsion
[ 10763 10752 10751 10750 ] final  -41.20 input  -60.55 | X-H torsion
[ 11005 11000 10999 10996 ] final  -18.70 input  -57.11 | X-H torsion

> <Gold.Protein.ActiveResidues>
 VAL166  LYS551  ARG553  GLY616  TRP617  ASP618  TYR619  PRO620  LYS621  CYS622 
 ASP623  PHE694  ASN695  SER759  ASP760  ASP761  ALA762  ILE779  LEU786  VAL792 
 PHE793  MET794  SER795  GLU796  ALA797  LYS798  CYS799  TRP800  GLU811  SER814 

> <Gold.Protein.RotatedAtoms>
  150.8141  133.8369  159.3168 H   0  0  0  0  0  0  0  0  0  0  0  0  # atno 6907 bound_to 6896
  151.6146  135.1035  160.0098 H   0  0  0  0  0  0  0  0  0  0  0  0  # atno 6908 bound_to 6896
  152.4232  133.7111  159.6536 H   0  0  0  0  0  0  0  0  0  0  0  0  # atno 6909 bound_to 6896
  144.7379  139.8948  143.6405 H   0  0  0  0  0  0  0  0  0  0  0  0  # atno 7974 bound_to 7965
  156.2304  140.2965  156.0174 H   0  0  0  0  0  0  0  0  0  0  0  0  # atno 8008 bound_to 7997
  155.2241  140.0416  157.2970 H   0  0  0  0  0  0  0  0  0  0  0  0  # atno 8009 bound_to 7997
  154.5986  140.2421  155.7831 H   0  0  0  0  0  0  0  0  0  0  0  0  # atno 8010 bound_to 7997
  139.5581  144.6863  151.4123 H   0  0  0  0  0  0  0  0  0  0  0  0  # atno 10167 bound_to 10162
  156.2744  130.4210  149.8403 H   0  0  0  0  0  0  0  0  0  0  0  0  # atno 10718 bound_to 10713
  153.9586  135.6742  153.4745 H   0  0  0  0  0  0  0  0  0  0  0  0  # atno 10763 bound_to 10752
  153.0849  135.4904  154.8574 H   0  0  0  0  0  0  0  0  0  0  0  0  # atno 10764 bound_to 10752
  154.7285  135.3133  154.8890 H   0  0  0  0  0  0  0  0  0  0  0  0  # atno 10765 bound_to 10752
  140.8294  133.8008  155.9742 H   0  0  0  0  0  0  0  0  0  0  0  0  # atno 11005 bound_to 11000
  146.1115  139.4120  143.0285 LP  0  0  0  0  0  0  0  0  0  0  0  0  # atno 17320 bound_to 7965
  145.7436  140.9999  143.1288 LP  0  0  0  0  0  0  0  0  0  0  0  0  # atno 17321 bound_to 7965
  140.6857  143.7979  150.7183 LP  0  0  0  0  0  0  0  0  0  0  0  0  # atno 17342 bound_to 10162
  140.1446  143.4411  152.2171 LP  0  0  0  0  0  0  0  0  0  0  0  0  # atno 17343 bound_to 10162
  156.5873  130.8491  151.3399 LP  0  0  0  0  0  0  0  0  0  0  0  0  # atno 17370 bound_to 10713
  157.7294  130.9671  150.1787 LP  0  0  0  0  0  0  0  0  0  0  0  0  # atno 17371 bound_to 10713
  140.9015  134.2373  157.5039 LP  0  0  0  0  0  0  0  0  0  0  0  0  # atno 17394 bound_to 11000
  139.8705  134.9708  156.4716 LP  0  0  0  0  0  0  0  0  0  0  0  0  # atno 17395 bound_to 11000

$$$$
