AV-unprocessed.smi:2119|AV-procd|sdf|8630|dock7
  -GOLD-   2272011373D 1   1.00000     0.00000
 Structure written by MMmdl.
 47 49  0  0  0  0  0  0  0  0  1 V2000
  145.2688  135.4355  154.0822 O   0  0  0  0  0  0  0  0  0  0  0  0
  146.3224  135.3191  153.4569 C   0  0  0  0  0  0  0  0  0  0  0  0
  147.4487  135.9690  153.7814 N   0  0  0  0  0  0  0  0  0  0  0  0
  147.5914  136.8963  154.9013 C   0  0  0  0  0  0  0  0  0  0  0  0
  148.4139  138.1775  154.5539 C   0  0  2  0  0  0  0  0  0  0  0  0
  149.8758  138.0029  155.0910 C   0  0  2  0  0  0  0  0  0  0  0  0
  150.8958  139.0040  154.5622 C   0  0  0  0  0  0  0  0  0  0  0  0
  152.2445  138.3233  154.8218 C   0  0  0  0  0  0  0  0  0  0  0  0
  151.9397  137.0097  155.2794 O   0  0  0  0  0  0  0  0  0  0  0  0
  150.6239  136.6902  154.8601 C   0  0  0  0  0  0  0  0  0  0  0  0
  147.7817  139.4590  154.9605 N   0  0  0  0  0  0  0  0  0  0  0  0
  147.8013  139.6392  156.4183 C   0  0  0  0  0  0  0  0  0  0  0  0
  147.0561  140.9098  156.8584 C   0  0  0  0  0  0  0  0  0  0  0  0
  147.6550  142.0422  156.2405 O   0  0  0  0  0  0  0  0  0  0  0  0
  147.6563  141.9488  154.8213 C   0  0  0  0  0  0  0  0  0  0  0  0
  148.3829  140.6648  154.3805 C   0  0  0  0  0  0  0  0  0  0  0  0
  146.5013  134.5577  152.3639 N   0  0  0  0  0  0  0  0  0  0  0  0
  145.5671  133.7130  151.7051 C   0  0  0  0  0  0  0  0  0  0  0  0
  144.1611  133.8716  151.7664 C   0  0  0  0  0  0  0  0  0  0  0  0
  143.3429  132.9532  151.0804 C   0  0  0  0  0  0  0  0  0  0  0  0
  143.9578  131.9072  150.3656 C   0  0  0  0  0  0  0  0  0  0  0  0
  145.2954  131.7366  150.3086 N   0  0  0  0  0  0  0  0  0  0  0  0
  146.0732  132.6209  150.9686 C   0  0  0  0  0  0  0  0  0  0  0  0
  148.2672  135.8183  153.2100 H   0  0  0  0  0  0  0  0  0  0  0  0
  146.5841  137.1528  155.2317 H   0  0  0  0  0  0  0  0  0  0  0  0
  148.0552  136.3551  155.7264 H   0  0  0  0  0  0  0  0  0  0  0  0
  148.4820  138.1864  153.4651 H   0  0  0  0  0  0  0  0  0  0  0  0
  149.8445  138.1198  156.1752 H   0  0  0  0  0  0  0  0  0  0  0  0
  150.7598  139.1613  153.4912 H   0  0  0  0  0  0  0  0  0  0  0  0
  150.8241  139.9735  155.0558 H   0  0  0  0  0  0  0  0  0  0  0  0
  152.8371  138.2738  153.9075 H   0  0  0  0  0  0  0  0  0  0  0  0
  152.8285  138.8492  155.5775 H   0  0  0  0  0  0  0  0  0  0  0  0
  150.2116  135.8540  155.4252 H   0  0  0  0  0  0  0  0  0  0  0  0
  150.6774  136.4241  153.8041 H   0  0  0  0  0  0  0  0  0  0  0  0
  147.3804  138.7892  156.9443 H   0  0  0  0  0  0  0  0  0  0  0  0
  148.8353  139.7047  156.7613 H   0  0  0  0  0  0  0  0  0  0  0  0
  145.9993  140.8518  156.5935 H   0  0  0  0  0  0  0  0  0  0  0  0
  147.1107  141.0259  157.9409 H   0  0  0  0  0  0  0  0  0  0  0  0
  146.6302  141.9564  154.4502 H   0  0  0  0  0  0  0  0  0  0  0  0
  148.1528  142.8264  154.4074 H   0  0  0  0  0  0  0  0  0  0  0  0
  149.4361  140.7290  154.6586 H   0  0  0  0  0  0  0  0  0  0  0  0
  148.3392  140.6264  153.2925 H   0  0  0  0  0  0  0  0  0  0  0  0
  147.4047  134.6285  151.9189 H   0  0  0  0  0  0  0  0  0  0  0  0
  143.6940  134.6631  152.3308 H   0  0  0  0  0  0  0  0  0  0  0  0
  142.2672  133.0462  151.1056 H   0  0  0  0  0  0  0  0  0  0  0  0
  143.3592  131.1852  149.8300 H   0  0  0  0  0  0  0  0  0  0  0  0
  147.1382  132.4519  150.9023 H   0  0  0  0  0  0  0  0  0  0  0  0
  1  2  2  0  0  0  0
  2  3  1  0  0  0  0
  2 17  1  0  0  0  0
  3  4  1  0  0  0  0
  3 24  1  0  0  0  0
  4  5  1  0  0  0  0
  4 25  1  0  0  0  0
  4 26  1  0  0  0  0
  5  6  1  0  0  0  0
  5 11  1  0  0  0  0
  5 27  1  0  0  0  0
  6 10  1  0  0  0  0
  6  7  1  0  0  0  0
  6 28  1  0  0  0  0
  7  8  1  0  0  0  0
  7 29  1  0  0  0  0
  7 30  1  0  0  0  0
  8  9  1  0  0  0  0
  8 31  1  0  0  0  0
  8 32  1  0  0  0  0
  9 10  1  0  0  0  0
 10 33  1  0  0  0  0
 10 34  1  0  0  0  0
 11 16  1  0  0  0  0
 11 12  1  0  0  0  0
 12 13  1  0  0  0  0
 12 35  1  0  0  0  0
 12 36  1  0  0  0  0
 13 14  1  0  0  0  0
 13 37  1  0  0  0  0
 13 38  1  0  0  0  0
 14 15  1  0  0  0  0
 15 16  1  0  0  0  0
 15 39  1  0  0  0  0
 15 40  1  0  0  0  0
 16 41  1  0  0  0  0
 16 42  1  0  0  0  0
 17 18  1  0  0  0  0
 17 43  1  0  0  0  0
 18 23  1  0  0  0  0
 18 19  2  0  0  0  0
 19 20  1  0  0  0  0
 19 44  1  0  0  0  0
 20 21  2  0  0  0  0
 20 45  1  0  0  0  0
 21 22  1  0  0  0  0
 21 46  1  0  0  0  0
 22 23  2  0  0  0  0
 23 47  1  0  0  0  0
M  END
> <s_m_source_file>
AV-unprocessed.smi

> <i_m_source_file_index>
2119

> <i_lp_mmshare_version>
43012

> <i_f3d_flags>
0

> <s_epik_input>
W2NIXTFuW2NIXVtjSF1bY0hdYzFbTkhdQyg9TylbTkhdW0NIMl1bQ0BIXShbQ0BASF0yW0NIMl1bQ0gyXU9bQ0gyXTIpTjNbQ0gyXVtDSDJdT1tDSDJdW0NIMl0z

> <s_epik_cmdline>
J2VwaWtfcHl0aG9uJywgJy1waCcsICc3LjAnLCAnLXRuJywgJzgnLCAnLW1hJywgJzIwMCcsICctbWV0YWxfYmluZGluZycsICctaW1hZScsICc8aW5maWxlLm1hZT4nLCAnLW9tYWUnLCAnPG91dGZpbGUubWFlPic=

> <r_epik_Ionization_Penalty>
0.129787

> <r_epik_Ionization_Penalty_Charging>
0

> <r_epik_Ionization_Penalty_Neutral>
0.129787

> <r_epik_State_Penalty>
0.121311

> <r_epik_Charging_Adjusted_Penalty>
0.121311

> <i_epik_Tot_Q>
0

> <i_epik_Tot_abs_Q>
0

> <r_epik_Metal_State_Penalty>
0.117931

> <b_epik_Metal_Only>
0

> <s_lp_Force_Field>
OPLS_2005

> <r_lp_Energy>
59.4027

> <b_lp_Chiralities_Consistent>
1

> <s_lp_Variant>
AV-unprocessed.smi:2119-1

> <Gold.Version>
5.8.1

> <Gold.Id.Protein>
6NUR|6NUR_protein|mol2

> <Gold.PLP.Fitness>
42.6668

> <Gold.PLP.PLP>
-32.5610

> <Gold.PLP.part.hbond>
-2.7069

> <Gold.PLP.part.metal>
0.0000

> <Gold.PLP.part.buried>
-4.3054

> <Gold.PLP.part.nonpolar>
-27.2532

> <Gold.PLP.part.repulsive>
1.0925

> <Gold.PLP.ligand.clash>
0.0000

> <Gold.PLP.ligand.torsion>
1.0877

> <Gold.PLP.Chemscore.Hbond>
2.3646

> <Gold.PLP.Chemscore.CHOScore>
1.6722

> <Gold.PLP.Chemscore.Metal>
0.0000

> <Gold.Chemscore.Hbonds>
donor molecule, donor type, donor heavy atom, donor atom, acceptor molecule, acceptor atom, score
      L1  H     3    24       P1  7948  0.90
      L1  H    17    43       P1  7948  0.42
      P1  H 10752 10765       L1     9  1.00
      L1  C    21    46       P1 10952  0.61
      L1  C    23    47       P1 10747  1.00

> <Gold.PLP.Chemscore.Internal.Correction>
0.1708

> <Gold.Rescore>
     Score         DG    S(hbond)    S(metal)    S(lipo)     H(rot)  DE(clash)    DE(int)     intcor
     15.45     -17.79       2.25        0.00      77.07       1.65       0.01       2.33       ----

> <Gold.Chemscore.Fitness>
15.4451

> <Gold.Chemscore.DG>
-17.7851

> <Gold.Chemscore.ZeroCoef>
-5.4800

> <Gold.Chemscore.Hbond>
2.2496

> <Gold.Chemscore.Metal>
0.0000

> <Gold.Chemscore.Lipo>
77.0720

> <Gold.Chemscore.Internal_Hbond>
0.0000

> <Gold.Chemscore.DEClash>
0.0126

> <Gold.Chemscore.DEInternal>
2.3274

> <Gold.Chemscore.Rot>
1.6508

> <Gold.Chemscore.Internal.Correction>
   9.000000E+99

> <Gold.Chemscore.Hbonds>
donor molecule, donor type, donor heavy atom, donor atom, acceptor molecule, acceptor atom, score
      L1  H     3    24       P1  7948  0.83
      L1  H    17    43       P1  7948  0.29
      P1  H 10752 10765       L1     9  0.41

> <Gold.Chemscore.Hbond.Weighted>
-7.5138

> <Gold.Chemscore.Metal.Weighted>
-0.0000

> <Gold.Chemscore.Lipo.Weighted>
-9.0174

> <Gold.Chemscore.Internal_Hbond.Weighted>
0.0000

> <Gold.Chemscore.DEClash.Weighted>
0.0126

> <Gold.Chemscore.DEInternal.Weighted>
2.3274

> <Gold.Chemscore.Rot.Weighted>
4.2262

> <Gold.Chemscore.Internal.Correction.Weighted>
   9.000000E+99

> <Gold.Protein.RotatedTorsions>
[ 6907 6896 6895 6894 ] final   79.59 input  -60.11 | X-H torsion
[ 7974 7965 7964 7962 ] final  -57.93 input  175.53 | X-H torsion
[ 8008 7997 7996 7995 ] final  -76.53 input   59.86 | X-H torsion
[ 10167 10162 10161 10158 ] final   73.88 input  -65.29 | X-H torsion
[ 10718 10713 10712 10709 ] final    4.45 input   66.30 | X-H torsion
[ 10763 10752 10751 10750 ] final -178.51 input  -60.55 | X-H torsion
[ 11005 11000 10999 10996 ] final -164.22 input  -57.11 | X-H torsion

> <Gold.Protein.ActiveResidues>
 VAL166  LYS551  ARG553  GLY616  TRP617  ASP618  TYR619  PRO620  LYS621  CYS622 
 ASP623  PHE694  ASN695  SER759  ASP760  ASP761  ALA762  ILE779  LEU786  VAL792 
 PHE793  MET794  SER795  GLU796  ALA797  LYS798  CYS799  TRP800  GLU811  SER814 

> <Gold.Protein.RotatedAtoms>
  152.5204  134.3488  159.9243 H   0  0  0  0  0  0  0  0  0  0  0  0  # atno 6907 bound_to 6896
  151.3438  133.3945  159.2681 H   0  0  0  0  0  0  0  0  0  0  0  0  # atno 6908 bound_to 6896
  150.9782  134.9160  159.7886 H   0  0  0  0  0  0  0  0  0  0  0  0  # atno 6909 bound_to 6896
  145.8453  140.8389  143.0013 H   0  0  0  0  0  0  0  0  0  0  0  0  # atno 7974 bound_to 7965
  154.5514  140.0725  156.8673 H   0  0  0  0  0  0  0  0  0  0  0  0  # atno 8008 bound_to 7997
  155.2986  140.3382  155.4230 H   0  0  0  0  0  0  0  0  0  0  0  0  # atno 8009 bound_to 7997
  156.1964  140.1705  156.7975 H   0  0  0  0  0  0  0  0  0  0  0  0  # atno 8010 bound_to 7997
  140.0197  144.5550  150.7591 H   0  0  0  0  0  0  0  0  0  0  0  0  # atno 10167 bound_to 10162
  156.8928  130.5694  149.5649 H   0  0  0  0  0  0  0  0  0  0  0  0  # atno 10718 bound_to 10713
  154.5468  135.2810  155.1045 H   0  0  0  0  0  0  0  0  0  0  0  0  # atno 10763 bound_to 10752
  154.2507  135.6340  153.5243 H   0  0  0  0  0  0  0  0  0  0  0  0  # atno 10764 bound_to 10752
  152.9992  135.5582  154.6022 H   0  0  0  0  0  0  0  0  0  0  0  0  # atno 10765 bound_to 10752
  140.5893  134.5061  157.5190 H   0  0  0  0  0  0  0  0  0  0  0  0  # atno 11005 bound_to 11000
  144.6731  140.0872  143.7467 LP  0  0  0  0  0  0  0  0  0  0  0  0  # atno 17320 bound_to 7965
  145.9419  139.2675  143.1263 LP  0  0  0  0  0  0  0  0  0  0  0  0  # atno 17321 bound_to 7965
  140.7347  143.2732  151.3822 LP  0  0  0  0  0  0  0  0  0  0  0  0  # atno 17342 bound_to 10162
  139.6148  144.1025  152.2334 LP  0  0  0  0  0  0  0  0  0  0  0  0  # atno 17343 bound_to 10162
  156.0620  130.5671  150.9212 LP  0  0  0  0  0  0  0  0  0  0  0  0  # atno 17370 bound_to 10713
  157.6073  131.0938  150.8856 LP  0  0  0  0  0  0  0  0  0  0  0  0  # atno 17371 bound_to 10713
  139.9281  134.8016  156.1009 LP  0  0  0  0  0  0  0  0  0  0  0  0  # atno 17394 bound_to 11000
  141.0945  133.6701  156.2615 LP  0  0  0  0  0  0  0  0  0  0  0  0  # atno 17395 bound_to 11000

$$$$
