#       Name:                AV-unprocessed.smi:1724
#       Creating user name   scv26
#       Creation time:       Fri Mar 27 08:16:06 2020


#       File generated by GOLD software.
#

@<TRIPOS>MOLECULE
AV-unprocessed.smi:1724
    44    45     1
SMALL
NO_CHARGES


@<TRIPOS>ATOM
      1 ****         0.3929   0.9852  -0.8415 O.2            1 S1                 0.0000
      2 ****        -0.1648  -0.1028  -0.9815 C.2            1 S1                 0.0000
      3 ****         0.4988  -1.2662  -1.0512 N.am           1 S1                 0.0000
      4 ****         1.9499  -1.4225  -0.9909 C.3            1 S1                 0.0000
      5 ****         2.4339  -1.9019   0.3934 C.3            1 S1                 0.0000
      6 ****         2.1248  -0.9001   1.5225 C.3            1 S1                 0.0000
      7 ****         2.7179  -1.3923   2.8475 C.3            1 S1                 0.0000
      8 ****         4.2108  -1.7125   2.6827 C.3            1 S1                 0.0000
      9 ****         4.3840  -2.6692   1.6439 O.3            1 S1                 0.0000
     10 ****         3.9483  -2.1955   0.3738 C.3            1 S1                 0.0000
     11 ****        -1.4931  -0.3038  -1.0636 N.am           1 S1                 0.0000
     12 ****        -2.5414   0.6326  -1.0492 C.2            1 S1                 0.0000
     13 ****        -2.3937   1.9716  -1.2287 C.2            1 S1                 0.0000
     14 ****        -3.5263   2.8825  -1.2117 C.2            1 S1                 0.0000
     15 ****        -3.3412   4.3874  -1.3294 C.3            1 S1                 0.0000
     16 ****        -4.2821   5.0445  -0.6499 F              1 S1                 0.0000
     17 ****        -2.1497   4.7621  -0.8633 F              1 S1                 0.0000
     18 ****        -3.4203   4.7543  -2.6078 F              1 S1                 0.0000
     19 ****        -4.7361   2.3319  -1.0016 C.2            1 S1                 0.0000
     20 ****        -4.8997   0.9546  -0.8391 N.am           1 S1                 0.0000
     21 ****        -3.8843   0.0622  -0.8492 C.2            1 S1                 0.0000
     22 ****        -4.1114  -1.1377  -0.6973 O.2            1 S1                 0.0000
     23 ****        -5.8418   0.6172  -0.7028 H              1 S1                 0.0000
     24 ****        -0.0416  -2.1123  -1.1578 H              1 S1                 0.0000
     25 ****         2.2268  -2.1573  -1.7475 H              1 S1                 0.0000
     26 ****         2.4573  -0.4977  -1.2709 H              1 S1                 0.0000
     27 ****         1.9204  -2.8370   0.6232 H              1 S1                 0.0000
     28 ****         2.5422   0.0766   1.2746 H              1 S1                 0.0000
     29 ****         1.0497  -0.7611   1.6365 H              1 S1                 0.0000
     30 ****         2.5764  -0.6417   3.6256 H              1 S1                 0.0000
     31 ****         2.1882  -2.2874   3.1758 H              1 S1                 0.0000
     32 ****         4.7817  -0.8096   2.4604 H              1 S1                 0.0000
     33 ****         4.6113  -2.1223   3.6101 H              1 S1                 0.0000
     34 ****         4.1735  -2.9590  -0.3712 H              1 S1                 0.0000
     35 ****         4.5156  -1.3060   0.0949 H              1 S1                 0.0000
     36 ****        -1.7956  -1.2661  -1.1123 H              1 S1                 0.0000
     37 ****        -1.4244   2.4054  -1.4110 H              1 S1                 0.0000
     38 ****        -5.6567   2.8930  -0.9368 H              1 S1                 0.0000
     39 ****         1.3895   1.0312  -0.7738 LP             1 S1                 0.0000
     40 ****        -0.1506   1.8234  -0.7954 LP             1 S1                 0.0000
     41 ****         3.8603  -3.4891   1.8751 LP             1 S1                 0.0000
     42 ****         5.3550  -2.9003   1.5820 LP             1 S1                 0.0000
     43 ****        -3.3572  -1.7942  -0.7051 LP             1 S1                 0.0000
     44 ****        -5.0502  -1.4562  -0.5660 LP             1 S1                 0.0000
@<TRIPOS>BOND
    1    1    2 2     
    2    2    3 am    
    3    2   11 am    
    4    3    4 1     
    5    3   24 1     
    6    4    5 1     
    7    4   25 1     
    8    4   26 1     
    9    5   10 1     
   10    5    6 1     
   11    5   27 1     
   12    6    7 1     
   13    6   28 1     
   14    6   29 1     
   15    7    8 1     
   16    7   30 1     
   17    7   31 1     
   18    8    9 1     
   19    8   32 1     
   20    8   33 1     
   21    9   10 1     
   22   10   34 1     
   23   10   35 1     
   24   11   12 1     
   25   11   36 1     
   26   12   21 1     
   27   12   13 2     
   28   13   14 1     
   29   13   37 1     
   30   14   15 1     
   31   14   19 2     
   32   15   16 1     
   33   15   17 1     
   34   15   18 1     
   35   19   20 1     
   36   19   38 1     
   37   20   23 1     
   38   20   21 am    
   39   21   22 2     
   40    1   39 1     
   41    1   40 1     
   42    9   41 1     
   43    9   42 1     
   44   22   43 1     
   45   22   44 1     
@<TRIPOS>SUBSTRUCTURE
      1 S1             1
@<TRIPOS>SET
LONE_PAIRS      STATIC     ATOMS    <user>   **** ""
6 39 40 41 42 43 44
DONOR_HYDROGENS      STATIC     ATOMS    <user>   **** ""
3 24 36 23
ATOM$BLUE        STATIC     ATOMS    COLORGROUP SYSTEM
6 39 40 41 42 43 44
ATOM$RED        STATIC     ATOMS    COLORGROUP SYSTEM
3 24 36 23
