AV-unprocessed.smi:213|AV-procd|sdf|1637|dock2
  -GOLD-   2262020 03D 1   1.00000     0.00000
 Structure written by MMmdl.
 59 62  0  0  0  0  0  0  0  0  2 V2000
  147.8128  141.5412  157.6425 C   0  0  0  0  0  0  0  0  0  0  0  0
  148.8095  140.9861  156.6120 C   0  0  2  0  0  0  0  0  0  0  0  0
  150.0722  141.8767  156.5139 C   0  0  0  0  0  0  0  0  0  0  0  0
  150.5018  142.4241  157.8258 N   0  3  0  0  0  0  0  0  0  0  0  0
  151.2010  141.4296  158.6708 C   0  0  0  0  0  0  0  0  0  0  0  0
  151.5178  142.0386  160.0470 C   0  0  0  0  0  0  0  0  0  0  0  0
  152.3019  143.2138  159.8799 O   0  0  0  0  0  0  0  0  0  0  0  0
  151.6177  144.2105  159.1303 C   0  0  0  0  0  0  0  0  0  0  0  0
  151.2979  143.6719  157.7260 C   0  0  0  0  0  0  0  0  0  0  0  0
  148.1676  140.7662  155.3068 N   0  0  0  0  0  0  0  0  0  0  0  0
  148.8244  141.2455  154.0910 C   0  0  0  0  0  0  0  0  0  0  0  0
  147.4028  139.6484  155.1899 C   0  0  0  0  0  0  0  0  0  0  0  0
  147.0450  138.9655  156.3107 N   0  0  0  0  0  0  0  0  0  0  0  0
  146.2502  137.8954  156.2255 C   0  0  0  0  0  0  0  0  0  0  0  0
  145.7034  137.3487  155.1392 N   0  0  0  0  0  0  0  0  0  0  0  0
  146.0720  138.0151  154.0085 C   0  0  0  0  0  0  0  0  0  0  0  0
  146.9092  139.1651  153.9448 C   0  0  0  0  0  0  0  0  0  0  0  0
  147.0558  139.5697  152.6234 N   0  0  0  0  0  0  0  0  0  0  0  0
  146.3433  138.7124  151.9457 C   0  0  0  0  0  0  0  0  0  0  0  0
  145.7264  137.7378  152.6972 N   0  0  0  0  0  0  0  0  0  0  0  0
  144.8829  136.6648  152.1947 C   0  0  0  0  0  0  0  0  0  0  0  0
  145.5774  135.7282  151.1789 C   0  0  2  0  0  0  0  0  0  0  0  0
  145.4399  136.2637  149.8781 O   0  0  0  0  0  0  0  0  0  0  0  0
  145.0962  134.2566  151.2261 C   0  0  1  0  0  0  0  0  0  0  0  0
  143.6443  133.9461  150.8293 C   0  0  0  0  0  0  0  0  0  0  0  0
  143.7100  132.5112  150.3245 C   0  0  0  0  0  0  0  0  0  0  0  0
  145.2068  132.1972  150.2496 C   0  0  0  0  0  0  0  0  0  0  0  0
  145.8532  133.4589  150.3306 O   0  0  0  0  0  0  0  0  0  0  0  0
  148.2666  141.5908  158.6325 H   0  0  0  0  0  0  0  0  0  0  0  0
  146.9329  140.9015  157.7186 H   0  0  0  0  0  0  0  0  0  0  0  0
  147.4774  142.5468  157.3896 H   0  0  0  0  0  0  0  0  0  0  0  0
  149.1262  140.0262  157.0141 H   0  0  0  0  0  0  0  0  0  0  0  0
  150.8838  141.2832  156.0910 H   0  0  0  0  0  0  0  0  0  0  0  0
  149.9065  142.6996  155.8170 H   0  0  0  0  0  0  0  0  0  0  0  0
  150.5764  140.5446  158.7981 H   0  0  0  0  0  0  0  0  0  0  0  0
  152.1202  141.1090  158.1782 H   0  0  0  0  0  0  0  0  0  0  0  0
  150.6000  142.2733  160.5890 H   0  0  0  0  0  0  0  0  0  0  0  0
  152.0745  141.3253  160.6550 H   0  0  0  0  0  0  0  0  0  0  0  0
  150.7067  144.5126  159.6491 H   0  0  0  0  0  0  0  0  0  0  0  0
  152.2502  145.0953  159.0580 H   0  0  0  0  0  0  0  0  0  0  0  0
  152.2225  143.4756  157.1809 H   0  0  0  0  0  0  0  0  0  0  0  0
  150.7534  144.4321  157.1673 H   0  0  0  0  0  0  0  0  0  0  0  0
  148.1425  141.2066  153.2405 H   0  0  0  0  0  0  0  0  0  0  0  0
  149.6999  140.6396  153.8558 H   0  0  0  0  0  0  0  0  0  0  0  0
  149.1464  142.2805  154.1976 H   0  0  0  0  0  0  0  0  0  0  0  0
  146.0117  137.4123  157.1618 H   0  0  0  0  0  0  0  0  0  0  0  0
  146.2572  138.7608  150.8698 H   0  0  0  0  0  0  0  0  0  0  0  0
  144.5029  136.0943  153.0434 H   0  0  0  0  0  0  0  0  0  0  0  0
  144.0107  137.1202  151.7240 H   0  0  0  0  0  0  0  0  0  0  0  0
  146.6426  135.7439  151.4124 H   0  0  0  0  0  0  0  0  0  0  0  0
  144.8243  136.9800  149.9147 H   0  0  0  0  0  0  0  0  0  0  0  0
  145.2852  133.8590  152.2255 H   0  0  0  0  0  0  0  0  0  0  0  0
  142.9486  134.0573  151.6602 H   0  0  0  0  0  0  0  0  0  0  0  0
  143.2949  134.5883  150.0212 H   0  0  0  0  0  0  0  0  0  0  0  0
  143.1993  131.8197  150.9955 H   0  0  0  0  0  0  0  0  0  0  0  0
  143.2415  132.4309  149.3428 H   0  0  0  0  0  0  0  0  0  0  0  0
  145.5124  131.5849  151.0994 H   0  0  0  0  0  0  0  0  0  0  0  0
  145.4802  131.6701  149.3354 H   0  0  0  0  0  0  0  0  0  0  0  0
  149.6529  142.6585  158.3215 H   0  0  0  0  0  0  0  0  0  0  0  0
  1  2  1  0  0  0  0
  1 29  1  0  0  0  0
  1 30  1  0  0  0  0
  1 31  1  0  0  0  0
  2  3  1  0  0  0  0
  2 10  1  0  0  0  0
  2 32  1  0  0  0  0
  3  4  1  0  0  0  0
  3 33  1  0  0  0  0
  3 34  1  0  0  0  0
  4  9  1  0  0  0  0
  4  5  1  0  0  0  0
  4 59  1  0  0  0  0
  5  6  1  0  0  0  0
  5 35  1  0  0  0  0
  5 36  1  0  0  0  0
  6  7  1  0  0  0  0
  6 37  1  0  0  0  0
  6 38  1  0  0  0  0
  7  8  1  0  0  0  0
  8  9  1  0  0  0  0
  8 39  1  0  0  0  0
  8 40  1  0  0  0  0
  9 41  1  0  0  0  0
  9 42  1  0  0  0  0
 10 11  1  0  0  0  0
 10 12  1  0  0  0  0
 11 43  1  0  0  0  0
 11 44  1  0  0  0  0
 11 45  1  0  0  0  0
 12 17  1  0  0  0  0
 12 13  2  0  0  0  0
 13 14  1  0  0  0  0
 14 15  2  0  0  0  0
 14 46  1  0  0  0  0
 15 16  1  0  0  0  0
 16 20  1  0  0  0  0
 16 17  2  0  0  0  0
 17 18  1  0  0  0  0
 18 19  2  0  0  0  0
 19 20  1  0  0  0  0
 19 47  1  0  0  0  0
 20 21  1  0  0  0  0
 21 22  1  0  0  0  0
 21 48  1  0  0  0  0
 21 49  1  0  0  0  0
 22 23  1  0  0  0  0
 22 24  1  0  0  0  0
 22 50  1  0  0  0  0
 23 51  1  0  0  0  0
 24 28  1  0  0  0  0
 24 25  1  0  0  0  0
 24 52  1  0  0  0  0
 25 26  1  0  0  0  0
 25 53  1  0  0  0  0
 25 54  1  0  0  0  0
 26 27  1  0  0  0  0
 26 55  1  0  0  0  0
 26 56  1  0  0  0  0
 27 28  1  0  0  0  0
 27 57  1  0  0  0  0
 27 58  1  0  0  0  0
M  CHG  1   4   1
M  END
> <s_m_source_file>
AV-unprocessed.smi

> <i_m_source_file_index>
213

> <i_lp_mmshare_version>
43012

> <i_f3d_flags>
0

> <s_epik_input>
W0NIMl0xW0NIMl1PW0NIMl1bQ0gyXU4xW0NIMl1bQ0BASF0oW0NIM10pTihbQ0gzXSljKG5bY0hdbjIpYyhjMjMpbltjSF1uM1tDSDJdW0NASF0oW09IXSlbQ0BASF00W0NIMl1bQ0gyXVtDSDJdTzQ=

> <s_epik_cmdline>
J2VwaWtfcHl0aG9uJywgJy1waCcsICc3LjAnLCAnLXRuJywgJzgnLCAnLW1hJywgJzIwMCcsICctbWV0YWxfYmluZGluZycsICctaW1hZScsICc8aW5maWxlLm1hZT4nLCAnLW9tYWUnLCAnPG91dGZpbGUubWFlPic=

> <r_lp_tautomer_probability>
1

> <r_epik_Ionization_Penalty>
0.399679

> <r_epik_Ionization_Penalty_Charging>
0.399433

> <r_epik_Ionization_Penalty_Neutral>
0.000246213

> <r_epik_State_Penalty>
0.286032

> <r_epik_Charging_Adjusted_Penalty>
0.685465

> <i_epik_Tot_Q>
1

> <i_epik_Tot_abs_Q>
1

> <r_epik_Metal_State_Penalty>
0.286072

> <b_epik_Metal_Only>
0

> <s_lp_Force_Field>
OPLS_2005

> <r_lp_Energy>
48.2471

> <b_lp_Chiralities_Consistent>
1

> <s_lp_Variant>
AV-unprocessed.smi:213-5

> <Gold.Version>
5.8.1

> <Gold.Id.Protein>
6NUR|6NUR_protein|mol2

> <Gold.PLP.Fitness>
49.6239

> <Gold.PLP.PLP>
-44.9566

> <Gold.PLP.part.hbond>
-2.0000

> <Gold.PLP.part.metal>
0.0000

> <Gold.PLP.part.buried>
-7.1494

> <Gold.PLP.part.nonpolar>
-38.5856

> <Gold.PLP.part.repulsive>
2.3373

> <Gold.PLP.ligand.clash>
0.0000

> <Gold.PLP.ligand.torsion>
1.2604

> <Gold.PLP.Chemscore.Hbond>
1.0000

> <Gold.PLP.Chemscore.CHOScore>
1.0000

> <Gold.PLP.Chemscore.Metal>
0.0000

> <Gold.Chemscore.Hbonds>
donor molecule, donor type, donor heavy atom, donor atom, acceptor molecule, acceptor atom, score
      L1  H    23    51       P1 10171  1.00
      L1  C    19    47       P1 10171  0.65

> <Gold.PLP.Chemscore.Internal.Correction>
1.1881

> <Gold.Rescore>
     Score         DG    S(hbond)    S(metal)    S(lipo)     H(rot)  DE(clash)    DE(int)     intcor
      9.03     -13.75       0.81        0.00     109.42       2.83       1.45       3.28       ----

> <Gold.Chemscore.Fitness>
9.0320

> <Gold.Chemscore.DG>
-13.7545

> <Gold.Chemscore.ZeroCoef>
-5.4800

> <Gold.Chemscore.Hbond>
0.8099

> <Gold.Chemscore.Metal>
0.0000

> <Gold.Chemscore.Lipo>
109.4219

> <Gold.Chemscore.Internal_Hbond>
0.0000

> <Gold.Chemscore.DEClash>
1.4466

> <Gold.Chemscore.DEInternal>
3.2759

> <Gold.Chemscore.Rot>
2.8254

> <Gold.Chemscore.Internal.Correction>
   9.000000E+99

> <Gold.Chemscore.Hbonds>
donor molecule, donor type, donor heavy atom, donor atom, acceptor molecule, acceptor atom, score
      L1  H    23    51       P1 10171  1.00

> <Gold.Chemscore.Hbond.Weighted>
-2.7051

> <Gold.Chemscore.Metal.Weighted>
-0.0000

> <Gold.Chemscore.Lipo.Weighted>
-12.8024

> <Gold.Chemscore.Internal_Hbond.Weighted>
0.0000

> <Gold.Chemscore.DEClash.Weighted>
1.4466

> <Gold.Chemscore.DEInternal.Weighted>
3.2759

> <Gold.Chemscore.Rot.Weighted>
7.2330

> <Gold.Chemscore.Internal.Correction.Weighted>
   9.000000E+99

> <Gold.Protein.RotatedTorsions>
[ 6907 6896 6895 6894 ] final    2.88 input  -60.11 | X-H torsion
[ 7974 7965 7964 7962 ] final  -75.23 input  175.53 | X-H torsion
[ 8008 7997 7996 7995 ] final  -77.48 input   59.86 | X-H torsion
[ 10167 10162 10161 10158 ] final -141.28 input  -65.29 | X-H torsion
[ 10718 10713 10712 10709 ] final  -57.09 input   66.30 | X-H torsion
[ 10763 10752 10751 10750 ] final   45.10 input  -60.55 | X-H torsion
[ 11005 11000 10999 10996 ] final -176.85 input  -57.11 | X-H torsion

> <Gold.Protein.ActiveResidues>
 VAL166  LYS551  ARG553  GLY616  TRP617  ASP618  TYR619  PRO620  LYS621  CYS622 
 ASP623  PHE694  ASN695  SER759  ASP760  ASP761  ALA762  ILE779  LEU786  VAL792 
 PHE793  MET794  SER795  GLU796  ALA797  LYS798  CYS799  TRP800  GLU811  SER814 

> <Gold.Protein.RotatedAtoms>
  151.6161  135.1036  160.0091 H   0  0  0  0  0  0  0  0  0  0  0  0  # atno 6907 bound_to 6896
  152.4183  133.7069  159.6467 H   0  0  0  0  0  0  0  0  0  0  0  0  # atno 6908 bound_to 6896
  150.8070  133.8418  159.3222 H   0  0  0  0  0  0  0  0  0  0  0  0  # atno 6909 bound_to 6896
  145.6288  140.9343  143.1098 H   0  0  0  0  0  0  0  0  0  0  0  0  # atno 7974 bound_to 7965
  154.5600  140.0710  156.8804 H   0  0  0  0  0  0  0  0  0  0  0  0  # atno 8008 bound_to 7997
  155.2829  140.3373  155.4239 H   0  0  0  0  0  0  0  0  0  0  0  0  # atno 8009 bound_to 7997
  156.2034  140.1730  156.7836 H   0  0  0  0  0  0  0  0  0  0  0  0  # atno 8010 bound_to 7997
  139.8200  143.7587  152.2666 H   0  0  0  0  0  0  0  0  0  0  0  0  # atno 10167 bound_to 10162
  156.1237  130.4164  150.0394 H   0  0  0  0  0  0  0  0  0  0  0  0  # atno 10718 bound_to 10713
  152.9830  135.6050  154.3381 H   0  0  0  0  0  0  0  0  0  0  0  0  # atno 10763 bound_to 10752
  154.3080  135.2771  155.2581 H   0  0  0  0  0  0  0  0  0  0  0  0  # atno 10764 bound_to 10752
  154.4804  135.5918  153.6441 H   0  0  0  0  0  0  0  0  0  0  0  0  # atno 10765 bound_to 10752
  140.4474  134.6375  157.4786 H   0  0  0  0  0  0  0  0  0  0  0  0  # atno 11005 bound_to 11000
  144.7202  139.8057  143.7384 LP  0  0  0  0  0  0  0  0  0  0  0  0  # atno 17320 bound_to 7965
  146.1373  139.4422  143.0131 LP  0  0  0  0  0  0  0  0  0  0  0  0  # atno 17321 bound_to 7965
  139.7762  144.7460  151.0153 LP  0  0  0  0  0  0  0  0  0  0  0  0  # atno 17342 bound_to 10162
  140.7814  143.4591  151.0303 LP  0  0  0  0  0  0  0  0  0  0  0  0  # atno 17343 bound_to 10162
  156.8325  130.9397  151.3636 LP  0  0  0  0  0  0  0  0  0  0  0  0  # atno 17370 bound_to 10713
  157.6420  130.8813  149.9466 LP  0  0  0  0  0  0  0  0  0  0  0  0  # atno 17371 bound_to 10713
  140.0029  134.6808  155.9501 LP  0  0  0  0  0  0  0  0  0  0  0  0  # atno 17394 bound_to 11000
  141.1679  133.6537  156.4545 LP  0  0  0  0  0  0  0  0  0  0  0  0  # atno 17395 bound_to 11000

$$$$
