AV-unprocessed.smi:1978|AV-procd|sdf|8008|dock6
  -GOLD-   2272010193D 1   1.00000     0.00000
 Structure written by MMmdl.
 44 45  0  0  0  0  0  0  0  0  3 V2000
  152.6733  142.4131  160.9226 C   0  0  0  0  0  0  0  0  0  0  0  0
  151.8388  142.1177  159.7240 C   0  0  0  0  0  0  0  0  0  0  0  0
  152.1083  141.5109  158.5298 C   0  0  0  0  0  0  0  0  0  0  0  0
  150.8603  141.5631  157.8538 C   0  0  0  0  0  0  0  0  0  0  0  0
  150.7212  141.0200  156.5492 N   0  0  0  0  0  0  0  0  0  0  0  0
  151.5674  140.2210  155.8739 C   0  0  0  0  0  0  0  0  0  0  0  0
  152.6300  139.8556  156.3906 O   0  0  0  0  0  0  0  0  0  0  0  0
  151.1045  139.9139  154.6307 N   0  5  0  0  0  0  0  0  0  0  0  0
  149.6912  139.7847  154.2719 C   0  0  0  0  0  0  0  0  0  0  0  0
  149.0826  138.4799  154.8536 C   0  0  2  0  0  0  0  0  0  0  0  0
  150.1393  137.3914  155.1829 C   0  0  0  0  0  0  0  0  0  0  0  0
  147.9875  137.9955  153.9544 N   0  3  1  0  0  0  0  0  0  0  0  0
  147.1218  136.8999  154.4840 C   0  0  0  0  0  0  0  0  0  0  0  0
  146.2689  136.2820  153.3650 C   0  0  0  0  0  0  0  0  0  0  0  0
  145.4332  137.3522  152.6529 C   0  0  0  0  0  0  0  0  0  0  0  0
  146.3455  138.4762  152.1403 C   0  0  0  0  0  0  0  0  0  0  0  0
  147.2188  139.0758  153.2627 C   0  0  1  0  0  0  0  0  0  0  0  0
  146.4064  139.9665  154.2257 C   0  0  0  0  0  0  0  0  0  0  0  0
  149.9141  142.1497  158.5722 N   0  0  0  0  0  0  0  0  0  0  0  0
  150.5364  142.5083  159.7738 O   0  0  0  0  0  0  0  0  0  0  0  0
  153.7087  142.1129  160.7598 H   0  0  0  0  0  0  0  0  0  0  0  0
  152.2993  141.8776  161.7953 H   0  0  0  0  0  0  0  0  0  0  0  0
  152.6622  143.4795  161.1482 H   0  0  0  0  0  0  0  0  0  0  0  0
  153.0475  141.0962  158.1956 H   0  0  0  0  0  0  0  0  0  0  0  0
  149.8758  141.2736  156.0602 H   0  0  0  0  0  0  0  0  0  0  0  0
  149.1093  140.6354  154.6305 H   0  0  0  0  0  0  0  0  0  0  0  0
  149.5553  139.7862  153.1902 H   0  0  0  0  0  0  0  0  0  0  0  0
  148.6167  138.7577  155.8003 H   0  0  0  0  0  0  0  0  0  0  0  0
  150.8312  137.7240  155.9586 H   0  0  0  0  0  0  0  0  0  0  0  0
  150.7403  137.1062  154.3177 H   0  0  0  0  0  0  0  0  0  0  0  0
  149.6696  136.4848  155.5631 H   0  0  0  0  0  0  0  0  0  0  0  0
  147.7405  136.1159  154.9219 H   0  0  0  0  0  0  0  0  0  0  0  0
  146.4762  137.2717  155.2798 H   0  0  0  0  0  0  0  0  0  0  0  0
  146.9183  135.7845  152.6437 H   0  0  0  0  0  0  0  0  0  0  0  0
  145.6162  135.5116  153.7764 H   0  0  0  0  0  0  0  0  0  0  0  0
  144.8842  136.9070  151.8227 H   0  0  0  0  0  0  0  0  0  0  0  0
  144.6857  137.7562  153.3363 H   0  0  0  0  0  0  0  0  0  0  0  0
  146.9941  138.0764  151.3597 H   0  0  0  0  0  0  0  0  0  0  0  0
  145.7492  139.2562  151.6656 H   0  0  0  0  0  0  0  0  0  0  0  0
  147.9464  139.7225  152.7698 H   0  0  0  0  0  0  0  0  0  0  0  0
  145.8570  140.7290  153.6735 H   0  0  0  0  0  0  0  0  0  0  0  0
  147.0528  140.4922  154.9279 H   0  0  0  0  0  0  0  0  0  0  0  0
  145.6788  139.3978  154.8041 H   0  0  0  0  0  0  0  0  0  0  0  0
  148.5003  137.5602  153.2007 H   0  0  0  0  0  0  0  0  0  0  0  0
  1  2  1  0  0  0  0
  1 21  1  0  0  0  0
  1 22  1  0  0  0  0
  1 23  1  0  0  0  0
  2 20  1  0  0  0  0
  2  3  2  0  0  0  0
  3  4  1  0  0  0  0
  3 24  1  0  0  0  0
  4  5  1  0  0  0  0
  4 19  2  0  0  0  0
  5  6  1  0  0  0  0
  5 25  1  0  0  0  0
  6  7  2  0  0  0  0
  6  8  1  0  0  0  0
  8  9  1  0  0  0  0
  9 10  1  0  0  0  0
  9 26  1  0  0  0  0
  9 27  1  0  0  0  0
 10 11  1  0  0  0  0
 10 12  1  0  0  0  0
 10 28  1  0  0  0  0
 11 29  1  0  0  0  0
 11 30  1  0  0  0  0
 11 31  1  0  0  0  0
 12 17  1  0  0  0  0
 12 13  1  0  0  0  0
 12 44  1  0  0  0  0
 13 14  1  0  0  0  0
 13 32  1  0  0  0  0
 13 33  1  0  0  0  0
 14 15  1  0  0  0  0
 14 34  1  0  0  0  0
 14 35  1  0  0  0  0
 15 16  1  0  0  0  0
 15 36  1  0  0  0  0
 15 37  1  0  0  0  0
 16 17  1  0  0  0  0
 16 38  1  0  0  0  0
 16 39  1  0  0  0  0
 17 18  1  0  0  0  0
 17 40  1  0  0  0  0
 18 41  1  0  0  0  0
 18 42  1  0  0  0  0
 18 43  1  0  0  0  0
 19 20  1  0  0  0  0
M  CHG  1   8  -1
M  CHG  1  12   1
M  END
> <s_m_source_file>
AV-unprocessed.smi

> <i_m_source_file_index>
1978

> <i_lp_mmshare_version>
43012

> <i_f3d_flags>
0

> <s_epik_input>
W0NIM11jMVtjSF1jKG5vMSlbTkhdQyg9TylbTkhdW0NIMl1bQ0BIXShbQ0gzXSlOMltDSDJdW0NIMl1bQ0gyXVtDSDJdW0NASF0yW0NIM10=

> <s_epik_cmdline>
J2VwaWtfcHl0aG9uJywgJy1waCcsICc3LjAnLCAnLXRuJywgJzgnLCAnLW1hJywgJzIwMCcsICctbWV0YWxfYmluZGluZycsICctaW1hZScsICc8aW5maWxlLm1hZT4nLCAnLW9tYWUnLCAnPG91dGZpbGUubWFlPic=

> <r_epik_Ionization_Penalty>
6.7666

> <r_epik_Ionization_Penalty_Charging>
6.7666

> <r_epik_Ionization_Penalty_Neutral>
5.77131e-06

> <r_epik_State_Penalty>
6.79217

> <r_epik_Charging_Adjusted_Penalty>
13.5588

> <i_epik_Tot_Q>
0

> <i_epik_Tot_abs_Q>
2

> <r_epik_Metal_State_Penalty>
2.72569

> <b_epik_Metal_Only>
1

> <s_lp_Force_Field>
OPLS_2005

> <r_lp_Energy>
20.2617

> <b_lp_Chiralities_Consistent>
1

> <s_lp_Variant>
AV-unprocessed.smi:1978-17

> <Gold.Version>
5.8.1

> <Gold.Id.Protein>
6NUR|6NUR_protein|mol2

> <Gold.PLP.Fitness>
41.5064

> <Gold.PLP.PLP>
-32.2832

> <Gold.PLP.part.hbond>
-4.0000

> <Gold.PLP.part.metal>
0.0000

> <Gold.PLP.part.buried>
-2.5885

> <Gold.PLP.part.nonpolar>
-26.0030

> <Gold.PLP.part.repulsive>
0.2723

> <Gold.PLP.ligand.clash>
0.0000

> <Gold.PLP.ligand.torsion>
1.0387

> <Gold.PLP.Chemscore.Hbond>
3.7000

> <Gold.PLP.Chemscore.CHOScore>
0.0000

> <Gold.PLP.Chemscore.Metal>
0.0000

> <Gold.Chemscore.Hbonds>
donor molecule, donor type, donor heavy atom, donor atom, acceptor molecule, acceptor atom, score
      L1  H    12    44       P1  7948  2.00
      P1  H  7989  7998       L1     8  1.00
      P1  H  7997  8009       L1     7  1.00

> <Gold.PLP.Chemscore.Internal.Correction>
0.2006

> <Gold.Rescore>
     Score         DG    S(hbond)    S(metal)    S(lipo)     H(rot)  DE(clash)    DE(int)     intcor
     14.76     -17.19       2.01        0.00      76.10       1.52       0.14       2.30       ----

> <Gold.Chemscore.Fitness>
14.7610

> <Gold.Chemscore.DG>
-17.1938

> <Gold.Chemscore.ZeroCoef>
-5.4800

> <Gold.Chemscore.Hbond>
2.0056

> <Gold.Chemscore.Metal>
0.0000

> <Gold.Chemscore.Lipo>
76.1003

> <Gold.Chemscore.Internal_Hbond>
0.0000

> <Gold.Chemscore.DEClash>
0.1375

> <Gold.Chemscore.DEInternal>
2.2953

> <Gold.Chemscore.Rot>
1.5190

> <Gold.Chemscore.Internal.Correction>
   9.000000E+99

> <Gold.Chemscore.Hbonds>
donor molecule, donor type, donor heavy atom, donor atom, acceptor molecule, acceptor atom, score
      L1  H    12    44       P1  7948  0.99
      P1  H  7989  7998       L1     8  0.30
      P1  H  7997  8009       L1     7  0.99

> <Gold.Chemscore.Hbond.Weighted>
-6.6987

> <Gold.Chemscore.Metal.Weighted>
-0.0000

> <Gold.Chemscore.Lipo.Weighted>
-8.9037

> <Gold.Chemscore.Internal_Hbond.Weighted>
0.0000

> <Gold.Chemscore.DEClash.Weighted>
0.1375

> <Gold.Chemscore.DEInternal.Weighted>
2.2953

> <Gold.Chemscore.Rot.Weighted>
3.8886

> <Gold.Chemscore.Internal.Correction.Weighted>
   9.000000E+99

> <Gold.Protein.RotatedTorsions>
[ 6907 6896 6895 6894 ] final  -89.01 input  -60.11 | X-H torsion
[ 7974 7965 7964 7962 ] final  152.17 input  175.53 | X-H torsion
[ 8008 7997 7996 7995 ] final -153.94 input   59.86 | X-H torsion
[ 10167 10162 10161 10158 ] final  142.01 input  -65.29 | X-H torsion
[ 10718 10713 10712 10709 ] final   31.22 input   66.30 | X-H torsion
[ 10763 10752 10751 10750 ] final  -42.94 input  -60.55 | X-H torsion
[ 11005 11000 10999 10996 ] final -148.27 input  -57.11 | X-H torsion

> <Gold.Protein.ActiveResidues>
 VAL166  LYS551  ARG553  GLY616  TRP617  ASP618  TYR619  PRO620  LYS621  CYS622 
 ASP623  PHE694  ASN695  SER759  ASP760  ASP761  ALA762  ILE779  LEU786  VAL792 
 PHE793  MET794  SER795  GLU796  ALA797  LYS798  CYS799  TRP800  GLU811  SER814 

> <Gold.Protein.RotatedAtoms>
  150.6871  134.2652  159.4565 H   0  0  0  0  0  0  0  0  0  0  0  0  # atno 6907 bound_to 6896
  152.0579  134.9610  160.0584 H   0  0  0  0  0  0  0  0  0  0  0  0  # atno 6908 bound_to 6896
  152.1049  133.4234  159.4641 H   0  0  0  0  0  0  0  0  0  0  0  0  # atno 6909 bound_to 6896
  144.8241  139.6633  143.6087 H   0  0  0  0  0  0  0  0  0  0  0  0  # atno 7974 bound_to 7965
  155.6786  140.0741  157.2493 H   0  0  0  0  0  0  0  0  0  0  0  0  # atno 8008 bound_to 7997
  154.4110  140.1686  156.2009 H   0  0  0  0  0  0  0  0  0  0  0  0  # atno 8009 bound_to 7997
  155.9555  140.3374  155.6447 H   0  0  0  0  0  0  0  0  0  0  0  0  # atno 8010 bound_to 7997
  139.5005  144.6134  151.6219 H   0  0  0  0  0  0  0  0  0  0  0  0  # atno 10167 bound_to 10162
  157.2697  130.7202  149.6498 H   0  0  0  0  0  0  0  0  0  0  0  0  # atno 10718 bound_to 10713
  153.9874  135.6709  153.4752 H   0  0  0  0  0  0  0  0  0  0  0  0  # atno 10763 bound_to 10752
  153.0721  135.4969  154.8322 H   0  0  0  0  0  0  0  0  0  0  0  0  # atno 10764 bound_to 10752
  154.7129  135.3101  154.9131 H   0  0  0  0  0  0  0  0  0  0  0  0  # atno 10765 bound_to 10752
  140.7630  134.3277  157.5096 H   0  0  0  0  0  0  0  0  0  0  0  0  # atno 11005 bound_to 11000
  146.2546  139.6275  142.9403 LP  0  0  0  0  0  0  0  0  0  0  0  0  # atno 17320 bound_to 7965
  145.5039  141.0437  143.2525 LP  0  0  0  0  0  0  0  0  0  0  0  0  # atno 17321 bound_to 7965
  140.5815  143.9937  150.6271 LP  0  0  0  0  0  0  0  0  0  0  0  0  # atno 17342 bound_to 10162
  140.3088  143.3212  152.0900 LP  0  0  0  0  0  0  0  0  0  0  0  0  # atno 17343 bound_to 10162
  155.9663  130.4371  150.5163 LP  0  0  0  0  0  0  0  0  0  0  0  0  # atno 17370 bound_to 10713
  157.3085  131.0659  151.2018 LP  0  0  0  0  0  0  0  0  0  0  0  0  # atno 17371 bound_to 10713
  139.8768  134.9213  156.3273 LP  0  0  0  0  0  0  0  0  0  0  0  0  # atno 17394 bound_to 11000
  140.9646  133.7367  156.0448 LP  0  0  0  0  0  0  0  0  0  0  0  0  # atno 17395 bound_to 11000

$$$$
