AV-unprocessed.smi:1940|AV-procd|sdf|7839|dock5
  -GOLD-   22720 9583D 1   1.00000     0.00000
 Structure written by MMmdl.
 49 51  0  0  0  0  0  0  0  0  1 V2000
  147.6476  133.0180  152.9459 C   0  0  0  0  0  0  0  0  0  0  0  0
  148.5291  133.3170  154.1673 C   0  0  2  0  0  0  0  0  0  0  0  0
  149.0208  134.6910  154.0741 N   0  0  0  0  0  0  0  0  0  0  0  0
  149.5111  135.4236  155.0846 C   0  0  0  0  0  0  0  0  0  0  0  0
  149.5964  135.0153  156.2418 O   0  0  0  0  0  0  0  0  0  0  0  0
  149.8836  136.6416  154.6548 N   0  0  0  0  0  0  0  0  0  0  0  0
  150.4463  137.7264  155.3828 C   0  0  0  0  0  0  0  0  0  0  0  0
  150.7133  139.0112  154.8532 C   0  0  0  0  0  0  0  0  0  0  0  0
  151.2677  139.9943  155.6954 C   0  0  0  0  0  0  0  0  0  0  0  0
  151.5411  139.6770  157.0461 C   0  0  0  0  0  0  0  0  0  0  0  0
  152.1008  140.6498  157.9022 N   0  0  0  0  0  0  0  0  0  0  0  0
  151.3149  141.8588  158.1616 C   0  0  0  0  0  0  0  0  0  0  0  0
  152.1841  142.9637  158.7855 C   0  0  0  0  0  0  0  0  0  0  0  0
  152.9084  142.4529  160.0393 C   0  0  0  0  0  0  0  0  0  0  0  0
  153.7169  141.1913  159.7018 C   0  0  0  0  0  0  0  0  0  0  0  0
  152.8242  140.1162  159.0583 C   0  0  0  0  0  0  0  0  0  0  0  0
  151.2747  138.4488  157.5531 N   0  0  0  0  0  0  0  0  0  0  0  0
  150.7450  137.5095  156.7427 C   0  0  0  0  0  0  0  0  0  0  0  0
  149.7145  132.3380  154.2775 C   0  0  1  0  0  0  0  0  0  0  0  0
  150.4613  132.3823  155.6119 C   0  0  0  0  0  0  0  0  0  0  0  0
  151.1129  131.0192  155.6396 C   0  0  0  0  0  0  0  0  0  0  0  0
  150.0284  130.1397  155.0236 C   0  0  0  0  0  0  0  0  0  0  0  0
  149.2647  130.9895  154.1704 O   0  0  0  0  0  0  0  0  0  0  0  0
  147.2355  132.0097  152.9958 H   0  0  0  0  0  0  0  0  0  0  0  0
  148.2125  133.1003  152.0166 H   0  0  0  0  0  0  0  0  0  0  0  0
  146.8079  133.7112  152.8887 H   0  0  0  0  0  0  0  0  0  0  0  0
  147.9094  133.1985  155.0580 H   0  0  0  0  0  0  0  0  0  0  0  0
  148.9920  135.1149  153.1583 H   0  0  0  0  0  0  0  0  0  0  0  0
  149.7211  136.8263  153.6759 H   0  0  0  0  0  0  0  0  0  0  0  0
  150.5015  139.2746  153.8297 H   0  0  0  0  0  0  0  0  0  0  0  0
  151.4626  140.9812  155.3027 H   0  0  0  0  0  0  0  0  0  0  0  0
  150.8793  142.2303  157.2331 H   0  0  0  0  0  0  0  0  0  0  0  0
  150.4889  141.6120  158.8301 H   0  0  0  0  0  0  0  0  0  0  0  0
  152.9176  143.3066  158.0544 H   0  0  0  0  0  0  0  0  0  0  0  0
  151.5676  143.8278  159.0342 H   0  0  0  0  0  0  0  0  0  0  0  0
  153.5644  143.2273  160.4379 H   0  0  0  0  0  0  0  0  0  0  0  0
  152.1801  142.2262  160.8190 H   0  0  0  0  0  0  0  0  0  0  0  0
  154.5271  141.4488  159.0183 H   0  0  0  0  0  0  0  0  0  0  0  0
  154.1860  140.7952  160.6028 H   0  0  0  0  0  0  0  0  0  0  0  0
  152.0955  139.7560  159.7856 H   0  0  0  0  0  0  0  0  0  0  0  0
  153.4416  139.2610  158.7869 H   0  0  0  0  0  0  0  0  0  0  0  0
  150.5547  136.5489  157.1989 H   0  0  0  0  0  0  0  0  0  0  0  0
  150.4257  132.5154  153.4685 H   0  0  0  0  0  0  0  0  0  0  0  0
  151.1800  133.2001  155.6729 H   0  0  0  0  0  0  0  0  0  0  0  0
  149.7607  132.4794  156.4425 H   0  0  0  0  0  0  0  0  0  0  0  0
  152.0019  131.0181  155.0076 H   0  0  0  0  0  0  0  0  0  0  0  0
  151.4039  130.7008  156.6408 H   0  0  0  0  0  0  0  0  0  0  0  0
  150.4452  129.2961  154.4730 H   0  0  0  0  0  0  0  0  0  0  0  0
  149.3690  129.7461  155.7977 H   0  0  0  0  0  0  0  0  0  0  0  0
  1  2  1  0  0  0  0
  1 24  1  0  0  0  0
  1 25  1  0  0  0  0
  1 26  1  0  0  0  0
  2  3  1  0  0  0  0
  2 19  1  0  0  0  0
  2 27  1  0  0  0  0
  3  4  1  0  0  0  0
  3 28  1  0  0  0  0
  4  5  2  0  0  0  0
  4  6  1  0  0  0  0
  6  7  1  0  0  0  0
  6 29  1  0  0  0  0
  7 18  1  0  0  0  0
  7  8  2  0  0  0  0
  8  9  1  0  0  0  0
  8 30  1  0  0  0  0
  9 10  2  0  0  0  0
  9 31  1  0  0  0  0
 10 11  1  0  0  0  0
 10 17  1  0  0  0  0
 11 16  1  0  0  0  0
 11 12  1  0  0  0  0
 12 13  1  0  0  0  0
 12 32  1  0  0  0  0
 12 33  1  0  0  0  0
 13 14  1  0  0  0  0
 13 34  1  0  0  0  0
 13 35  1  0  0  0  0
 14 15  1  0  0  0  0
 14 36  1  0  0  0  0
 14 37  1  0  0  0  0
 15 16  1  0  0  0  0
 15 38  1  0  0  0  0
 15 39  1  0  0  0  0
 16 40  1  0  0  0  0
 16 41  1  0  0  0  0
 17 18  2  0  0  0  0
 18 42  1  0  0  0  0
 19 23  1  0  0  0  0
 19 20  1  0  0  0  0
 19 43  1  0  0  0  0
 20 21  1  0  0  0  0
 20 44  1  0  0  0  0
 20 45  1  0  0  0  0
 21 22  1  0  0  0  0
 21 46  1  0  0  0  0
 21 47  1  0  0  0  0
 22 23  1  0  0  0  0
 22 48  1  0  0  0  0
 22 49  1  0  0  0  0
M  END
> <s_m_source_file>
AV-unprocessed.smi

> <i_m_source_file_index>
1940

> <i_lp_mmshare_version>
43012

> <i_f3d_flags>
0

> <s_epik_input>
TzFbQ0gyXVtDSDJdW0NIMl1bQ0BIXTFbQ0BIXShbQ0gzXSlbTkhdQyg9TylbTkhdYzJbY0hdW2NIXWMobltjSF0yKU4zW0NIMl1bQ0gyXVtDSDJdW0NIMl1bQ0gyXTM=

> <s_epik_cmdline>
J2VwaWtfcHl0aG9uJywgJy1waCcsICc3LjAnLCAnLXRuJywgJzgnLCAnLW1hJywgJzIwMCcsICctbWV0YWxfYmluZGluZycsICctaW1hZScsICc8aW5maWxlLm1hZT4nLCAnLW9tYWUnLCAnPG91dGZpbGUubWFlPic=

> <r_lp_tautomer_probability>
1

> <r_epik_Ionization_Penalty>
0.105688

> <r_epik_Ionization_Penalty_Charging>
0

> <r_epik_Ionization_Penalty_Neutral>
0.105688

> <r_epik_State_Penalty>
0.0895745

> <r_epik_Charging_Adjusted_Penalty>
0.0895745

> <i_epik_Tot_Q>
0

> <i_epik_Tot_abs_Q>
0

> <r_epik_Metal_State_Penalty>
0.0765749

> <b_epik_Metal_Only>
0

> <s_lp_Force_Field>
OPLS_2005

> <r_lp_Energy>
32.8596

> <b_lp_Chiralities_Consistent>
1

> <s_lp_Variant>
AV-unprocessed.smi:1940-3

> <Gold.Version>
5.8.1

> <Gold.Id.Protein>
6NUR|6NUR_protein|mol2

> <Gold.PLP.Fitness>
44.8516

> <Gold.PLP.PLP>
-39.7970

> <Gold.PLP.part.hbond>
-2.0000

> <Gold.PLP.part.metal>
0.0000

> <Gold.PLP.part.buried>
-5.4856

> <Gold.PLP.part.nonpolar>
-33.1283

> <Gold.PLP.part.repulsive>
0.1297

> <Gold.PLP.ligand.clash>
0.0000

> <Gold.PLP.ligand.torsion>
0.6813

> <Gold.PLP.Chemscore.Hbond>
2.0000

> <Gold.PLP.Chemscore.CHOScore>
0.0000

> <Gold.PLP.Chemscore.Metal>
0.0000

> <Gold.Chemscore.Hbonds>
donor molecule, donor type, donor heavy atom, donor atom, acceptor molecule, acceptor atom, score
      L1  H     3    28       P1  7948  1.00
      L1  H     6    29       P1  7948  1.00

> <Gold.PLP.Chemscore.Internal.Correction>
0.4173

> <Gold.Rescore>
     Score         DG    S(hbond)    S(metal)    S(lipo)     H(rot)  DE(clash)    DE(int)     intcor
     17.07     -19.29       1.69        0.00      99.05       1.34       0.00       2.22       ----

> <Gold.Chemscore.Fitness>
17.0685

> <Gold.Chemscore.DG>
-19.2865

> <Gold.Chemscore.ZeroCoef>
-5.4800

> <Gold.Chemscore.Hbond>
1.6879

> <Gold.Chemscore.Metal>
0.0000

> <Gold.Chemscore.Lipo>
99.0501

> <Gold.Chemscore.Internal_Hbond>
0.0000

> <Gold.Chemscore.DEClash>
0.0015

> <Gold.Chemscore.DEInternal>
2.2166

> <Gold.Chemscore.Rot>
1.3359

> <Gold.Chemscore.Internal.Correction>
   9.000000E+99

> <Gold.Chemscore.Hbonds>
donor molecule, donor type, donor heavy atom, donor atom, acceptor molecule, acceptor atom, score
      L1  H     3    28       P1  7948  0.26
      L1  H     6    29       P1  7948  0.53

> <Gold.Chemscore.Hbond.Weighted>
-5.6376

> <Gold.Chemscore.Metal.Weighted>
-0.0000

> <Gold.Chemscore.Lipo.Weighted>
-11.5889

> <Gold.Chemscore.Internal_Hbond.Weighted>
0.0000

> <Gold.Chemscore.DEClash.Weighted>
0.0015

> <Gold.Chemscore.DEInternal.Weighted>
2.2166

> <Gold.Chemscore.Rot.Weighted>
3.4199

> <Gold.Chemscore.Internal.Correction.Weighted>
   9.000000E+99

> <Gold.Protein.RotatedTorsions>
[ 6907 6896 6895 6894 ] final  137.39 input  -60.11 | X-H torsion
[ 7974 7965 7964 7962 ] final   33.63 input  175.53 | X-H torsion
[ 8008 7997 7996 7995 ] final  129.78 input   59.86 | X-H torsion
[ 10167 10162 10161 10158 ] final   27.34 input  -65.29 | X-H torsion
[ 10718 10713 10712 10709 ] final    2.91 input   66.30 | X-H torsion
[ 10763 10752 10751 10750 ] final   19.84 input  -60.55 | X-H torsion
[ 11005 11000 10999 10996 ] final  -18.52 input  -57.11 | X-H torsion

> <Gold.Protein.ActiveResidues>
 VAL166  LYS551  ARG553  GLY616  TRP617  ASP618  TYR619  PRO620  LYS621  CYS622 
 ASP623  PHE694  ASN695  SER759  ASP760  ASP761  ALA762  ILE779  LEU786  VAL792 
 PHE793  MET794  SER795  GLU796  ALA797  LYS798  CYS799  TRP800  GLU811  SER814 

> <Gold.Protein.RotatedAtoms>
  152.2786  133.5448  159.5483 H   0  0  0  0  0  0  0  0  0  0  0  0  # atno 6907 bound_to 6896
  150.7187  134.0597  159.3836 H   0  0  0  0  0  0  0  0  0  0  0  0  # atno 6908 bound_to 6896
  151.8508  135.0558  160.0509 H   0  0  0  0  0  0  0  0  0  0  0  0  # atno 6909 bound_to 6896
  146.1407  139.6372  142.9164 H   0  0  0  0  0  0  0  0  0  0  0  0  # atno 7974 bound_to 7965
  156.2942  140.2612  156.2655 H   0  0  0  0  0  0  0  0  0  0  0  0  # atno 8008 bound_to 7997
  154.9747  140.0390  157.2269 H   0  0  0  0  0  0  0  0  0  0  0  0  # atno 8009 bound_to 7997
  154.7827  140.2798  155.6056 H   0  0  0  0  0  0  0  0  0  0  0  0  # atno 8010 bound_to 7997
  140.4946  144.0412  150.6309 H   0  0  0  0  0  0  0  0  0  0  0  0  # atno 10167 bound_to 10162
  156.8701  130.5617  149.5658 H   0  0  0  0  0  0  0  0  0  0  0  0  # atno 10718 bound_to 10713
  153.1128  135.6701  153.9470 H   0  0  0  0  0  0  0  0  0  0  0  0  # atno 10763 bound_to 10752
  153.9009  135.3036  155.3450 H   0  0  0  0  0  0  0  0  0  0  0  0  # atno 10764 bound_to 10752
  154.7547  135.5018  153.9430 H   0  0  0  0  0  0  0  0  0  0  0  0  # atno 10765 bound_to 10752
  140.8276  133.8021  155.9725 H   0  0  0  0  0  0  0  0  0  0  0  0  # atno 11005 bound_to 11000
  145.5052  141.0437  143.2518 LP  0  0  0  0  0  0  0  0  0  0  0  0  # atno 17320 bound_to 7965
  144.7790  139.6568  143.7162 LP  0  0  0  0  0  0  0  0  0  0  0  0  # atno 17321 bound_to 7965
  140.3691  143.2865  152.0298 LP  0  0  0  0  0  0  0  0  0  0  0  0  # atno 17342 bound_to 10162
  139.4858  144.6244  151.7193 LP  0  0  0  0  0  0  0  0  0  0  0  0  # atno 17343 bound_to 10162
  156.0731  130.5759  150.9422 LP  0  0  0  0  0  0  0  0  0  0  0  0  # atno 17370 bound_to 10713
  157.6201  131.0930  150.8638 LP  0  0  0  0  0  0  0  0  0  0  0  0  # atno 17371 bound_to 10713
  140.9032  134.2352  157.5029 LP  0  0  0  0  0  0  0  0  0  0  0  0  # atno 17394 bound_to 11000
  139.8706  134.9716  156.4743 LP  0  0  0  0  0  0  0  0  0  0  0  0  # atno 17395 bound_to 11000

$$$$
