AV-unprocessed.smi:1669|AV-procd|sdf|6686|dock1
  -GOLD-   22720 7403D 1   1.00000     0.00000
 Structure written by MMmdl.
 48 50  0  0  0  0  0  0  0  0  2 V2000
  147.1150  134.7662  154.3662 C   0  0  0  0  0  0  0  0  0  0  0  0
  148.5140  134.3878  154.0575 N   0  3  2  0  0  0  0  0  0  0  0  0
  148.6323  132.9972  153.5480 C   0  0  0  0  0  0  0  0  0  0  0  0
  147.4899  132.6375  152.6153 C   0  0  0  0  0  0  0  0  0  0  0  0
  147.1271  133.5201  151.5757 C   0  0  0  0  0  0  0  0  0  0  0  0
  146.0685  133.1924  150.7066 C   0  0  0  0  0  0  0  0  0  0  0  0
  145.3697  131.9809  150.8727 C   0  0  0  0  0  0  0  0  0  0  0  0
  145.7302  131.0965  151.9080 C   0  0  0  0  0  0  0  0  0  0  0  0
  146.7890  131.4233  152.7774 C   0  0  0  0  0  0  0  0  0  0  0  0
  149.4313  134.6715  155.1904 C   0  0  0  0  0  0  0  0  0  0  0  0
  149.5682  136.1820  155.4651 C   0  0  1  0  0  0  0  0  0  0  0  0
  150.2446  136.3579  156.6948 O   0  0  0  0  0  0  0  0  0  0  0  0
  150.3449  136.8977  154.3429 C   0  0  0  0  0  0  0  0  0  0  0  0
  150.2779  138.3491  154.4560 N   0  0  0  0  0  0  0  0  0  0  0  0
  151.2233  139.2093  154.9139 C   0  0  0  0  0  0  0  0  0  0  0  0
  152.5635  138.7464  155.3980 C   0  0  0  0  0  0  0  0  0  0  0  0
  153.6298  139.3014  154.6585 O   0  0  0  0  0  0  0  0  0  0  0  0
  150.8851  140.4989  154.9058 N   0  0  0  0  0  0  0  0  0  0  0  0
  149.6043  140.4760  154.3895 C   0  0  0  0  0  0  0  0  0  0  0  0
  148.6985  141.5291  154.1301 C   0  0  0  0  0  0  0  0  0  0  0  0
  147.4232  141.2575  153.5927 C   0  0  0  0  0  0  0  0  0  0  0  0
  147.0363  139.9321  153.3064 C   0  0  0  0  0  0  0  0  0  0  0  0
  147.9238  138.8680  153.5570 C   0  0  0  0  0  0  0  0  0  0  0  0
  149.1950  139.1447  154.0953 C   0  0  0  0  0  0  0  0  0  0  0  0
  146.7200  134.1659  155.1869 H   0  0  0  0  0  0  0  0  0  0  0  0
  146.4667  134.6314  153.5006 H   0  0  0  0  0  0  0  0  0  0  0  0
  147.0540  135.8169  154.6517 H   0  0  0  0  0  0  0  0  0  0  0  0
  149.5603  132.8676  152.9913 H   0  0  0  0  0  0  0  0  0  0  0  0
  148.6809  132.2952  154.3821 H   0  0  0  0  0  0  0  0  0  0  0  0
  147.6589  134.4512  151.4429 H   0  0  0  0  0  0  0  0  0  0  0  0
  145.7920  133.8698  149.9120 H   0  0  0  0  0  0  0  0  0  0  0  0
  144.5582  131.7295  150.2056 H   0  0  0  0  0  0  0  0  0  0  0  0
  145.1943  130.1671  152.0343 H   0  0  0  0  0  0  0  0  0  0  0  0
  147.0589  130.7398  153.5693 H   0  0  0  0  0  0  0  0  0  0  0  0
  149.0666  134.1883  156.0987 H   0  0  0  0  0  0  0  0  0  0  0  0
  150.4057  134.2264  154.9827 H   0  0  0  0  0  0  0  0  0  0  0  0
  148.5848  136.6421  155.5566 H   0  0  0  0  0  0  0  0  0  0  0  0
  150.5653  135.5168  156.9848 H   0  0  0  0  0  0  0  0  0  0  0  0
  151.3859  136.5752  154.3303 H   0  0  0  0  0  0  0  0  0  0  0  0
  149.9328  136.6189  153.3723 H   0  0  0  0  0  0  0  0  0  0  0  0
  152.6848  139.0279  156.4448 H   0  0  0  0  0  0  0  0  0  0  0  0
  152.6185  137.6586  155.3597 H   0  0  0  0  0  0  0  0  0  0  0  0
  153.3669  139.3665  153.7536 H   0  0  0  0  0  0  0  0  0  0  0  0
  148.9855  142.5479  154.3448 H   0  0  0  0  0  0  0  0  0  0  0  0
  146.7388  142.0703  153.3980 H   0  0  0  0  0  0  0  0  0  0  0  0
  146.0581  139.7338  152.8935 H   0  0  0  0  0  0  0  0  0  0  0  0
  147.6301  137.8525  153.3377 H   0  0  0  0  0  0  0  0  0  0  0  0
  148.8112  134.9980  153.3088 H   0  0  0  0  0  0  0  0  0  0  0  0
  1  2  1  0  0  0  0
  1 25  1  0  0  0  0
  1 26  1  0  0  0  0
  1 27  1  0  0  0  0
  2  3  1  0  0  0  0
  2 10  1  0  0  0  0
  2 48  1  0  0  0  0
  3  4  1  0  0  0  0
  3 28  1  0  0  0  0
  3 29  1  0  0  0  0
  4  9  1  0  0  0  0
  4  5  2  0  0  0  0
  5  6  1  0  0  0  0
  5 30  1  0  0  0  0
  6  7  2  0  0  0  0
  6 31  1  0  0  0  0
  7  8  1  0  0  0  0
  7 32  1  0  0  0  0
  8  9  2  0  0  0  0
  8 33  1  0  0  0  0
  9 34  1  0  0  0  0
 10 11  1  0  0  0  0
 10 35  1  0  0  0  0
 10 36  1  0  0  0  0
 11 12  1  0  0  0  0
 11 13  1  0  0  0  0
 11 37  1  0  0  0  0
 12 38  1  0  0  0  0
 13 14  1  0  0  0  0
 13 39  1  0  0  0  0
 13 40  1  0  0  0  0
 14 24  1  0  0  0  0
 14 15  1  0  0  0  0
 15 16  1  0  0  0  0
 15 18  2  0  0  0  0
 16 17  1  0  0  0  0
 16 41  1  0  0  0  0
 16 42  1  0  0  0  0
 17 43  1  0  0  0  0
 18 19  1  0  0  0  0
 19 24  2  0  0  0  0
 19 20  1  0  0  0  0
 20 21  2  0  0  0  0
 20 44  1  0  0  0  0
 21 22  1  0  0  0  0
 21 45  1  0  0  0  0
 22 23  2  0  0  0  0
 22 46  1  0  0  0  0
 23 24  1  0  0  0  0
 23 47  1  0  0  0  0
M  CHG  1   2   1
M  END
> <s_m_source_file>
AV-unprocessed.smi

> <i_m_source_file_index>
1669

> <i_lp_mmshare_version>
43012

> <i_f3d_flags>
0

> <s_epik_input>
W2NIXTFbY0hdW2NIXVtjSF1bY0hdYzFbQ0gyXU4oW0NIM10pW0NIMl1bQ0BIXShbT0hdKVtDSDJdbihjKG4yKVtDSDJdW09IXSljKGMyMylbY0hdW2NIXVtjSF1bY0hdMw==

> <s_epik_cmdline>
J2VwaWtfcHl0aG9uJywgJy1waCcsICc3LjAnLCAnLXRuJywgJzgnLCAnLW1hJywgJzIwMCcsICctbWV0YWxfYmluZGluZycsICctaW1hZScsICc8aW5maWxlLm1hZT4nLCAnLW9tYWUnLCAnPG91dGZpbGUubWFlPic=

> <r_epik_Ionization_Penalty>
0.0949884

> <r_epik_Ionization_Penalty_Charging>
0.0475377

> <r_epik_Ionization_Penalty_Neutral>
0.0474507

> <r_epik_State_Penalty>
0.078247

> <r_epik_Charging_Adjusted_Penalty>
0.125785

> <i_epik_Tot_Q>
1

> <i_epik_Tot_abs_Q>
1

> <r_epik_Metal_State_Penalty>
0.0403451

> <b_epik_Metal_Only>
0

> <s_lp_Force_Field>
OPLS_2005

> <r_lp_Energy>
16.6823

> <b_lp_Chiralities_Consistent>
1

> <s_lp_Variant>
AV-unprocessed.smi:1669-4

> <Gold.Version>
5.8.1

> <Gold.Id.Protein>
6NUR|6NUR_protein|mol2

> <Gold.PLP.Fitness>
56.3030

> <Gold.PLP.PLP>
-46.5505

> <Gold.PLP.part.hbond>
-3.5273

> <Gold.PLP.part.metal>
0.0000

> <Gold.PLP.part.buried>
-1.4858

> <Gold.PLP.part.nonpolar>
-41.8150

> <Gold.PLP.part.repulsive>
0.0651

> <Gold.PLP.ligand.clash>
0.0000

> <Gold.PLP.ligand.torsion>
0.6789

> <Gold.PLP.Chemscore.Hbond>
3.5850

> <Gold.PLP.Chemscore.CHOScore>
0.0000

> <Gold.PLP.Chemscore.Metal>
0.0000

> <Gold.Chemscore.Hbonds>
donor molecule, donor type, donor heavy atom, donor atom, acceptor molecule, acceptor atom, score
      L1  H     2    48       P1  7948  2.00
      P1  H  7989  7998       L1    18  0.68
      P1  H  7997  8008       L1    17  1.00

> <Gold.PLP.Chemscore.Internal.Correction>
0.3554

> <Gold.Rescore>
     Score         DG    S(hbond)    S(metal)    S(lipo)     H(rot)  DE(clash)    DE(int)     intcor
     14.58     -15.38       1.55        0.00     109.86       3.17       0.16       0.64       ----

> <Gold.Chemscore.Fitness>
14.5813

> <Gold.Chemscore.DG>
-15.3832

> <Gold.Chemscore.ZeroCoef>
-5.4800

> <Gold.Chemscore.Hbond>
1.5485

> <Gold.Chemscore.Metal>
0.0000

> <Gold.Chemscore.Lipo>
109.8642

> <Gold.Chemscore.Internal_Hbond>
0.0000

> <Gold.Chemscore.DEClash>
0.1579

> <Gold.Chemscore.DEInternal>
0.6441

> <Gold.Chemscore.Rot>
3.1731

> <Gold.Chemscore.Internal.Correction>
   9.000000E+99

> <Gold.Chemscore.Hbonds>
donor molecule, donor type, donor heavy atom, donor atom, acceptor molecule, acceptor atom, score
      L1  H     2    48       P1  7948  0.45
      P1  H  7989  7998       L1    18  0.02
      P1  H  7997  8008       L1    17  0.65

> <Gold.Chemscore.Hbond.Weighted>
-5.1721

> <Gold.Chemscore.Metal.Weighted>
-0.0000

> <Gold.Chemscore.Lipo.Weighted>
-12.8541

> <Gold.Chemscore.Internal_Hbond.Weighted>
0.0000

> <Gold.Chemscore.DEClash.Weighted>
0.1579

> <Gold.Chemscore.DEInternal.Weighted>
0.6441

> <Gold.Chemscore.Rot.Weighted>
8.1230

> <Gold.Chemscore.Internal.Correction.Weighted>
   9.000000E+99

> <Gold.Protein.RotatedTorsions>
[ 6907 6896 6895 6894 ] final   73.83 input  -60.11 | X-H torsion
[ 7974 7965 7964 7962 ] final  -51.21 input  175.53 | X-H torsion
[ 8008 7997 7996 7995 ] final   -3.68 input   59.86 | X-H torsion
[ 10167 10162 10161 10158 ] final  -19.76 input  -65.29 | X-H torsion
[ 10718 10713 10712 10709 ] final  170.63 input   66.30 | X-H torsion
[ 10763 10752 10751 10750 ] final  -68.64 input  -60.55 | X-H torsion
[ 11005 11000 10999 10996 ] final  -91.67 input  -57.11 | X-H torsion

> <Gold.Protein.ActiveResidues>
 VAL166  LYS551  ARG553  GLY616  TRP617  ASP618  TYR619  PRO620  LYS621  CYS622 
 ASP623  PHE694  ASN695  SER759  ASP760  ASP761  ALA762  ILE779  LEU786  VAL792 
 PHE793  MET794  SER795  GLU796  ALA797  LYS798  CYS799  TRP800  GLU811  SER814 

> <Gold.Protein.RotatedAtoms>
  152.4944  134.4362  159.9528 H   0  0  0  0  0  0  0  0  0  0  0  0  # atno 6907 bound_to 6896
  151.4344  133.3655  159.2781 H   0  0  0  0  0  0  0  0  0  0  0  0  # atno 6908 bound_to 6896
  150.9132  134.8572  159.7499 H   0  0  0  0  0  0  0  0  0  0  0  0  # atno 6909 bound_to 6896
  145.9215  140.7829  142.9645 H   0  0  0  0  0  0  0  0  0  0  0  0  # atno 7974 bound_to 7965
  154.6224  140.2503  155.7533 H   0  0  0  0  0  0  0  0  0  0  0  0  # atno 8008 bound_to 7997
  156.2434  140.2924  156.0457 H   0  0  0  0  0  0  0  0  0  0  0  0  # atno 8009 bound_to 7997
  155.1876  140.0390  157.2884 H   0  0  0  0  0  0  0  0  0  0  0  0  # atno 8010 bound_to 7997
  140.7271  143.4787  151.0147 H   0  0  0  0  0  0  0  0  0  0  0  0  # atno 10167 bound_to 10162
  157.0053  131.0188  151.2819 H   0  0  0  0  0  0  0  0  0  0  0  0  # atno 10718 bound_to 10713
  154.3919  135.6050  153.5848 H   0  0  0  0  0  0  0  0  0  0  0  0  # atno 10763 bound_to 10752
  152.9787  135.5886  154.4287 H   0  0  0  0  0  0  0  0  0  0  0  0  # atno 10764 bound_to 10752
  154.4072  135.2843  155.2037 H   0  0  0  0  0  0  0  0  0  0  0  0  # atno 10765 bound_to 10752
  141.1539  133.7770  156.9911 H   0  0  0  0  0  0  0  0  0  0  0  0  # atno 11005 bound_to 11000
  144.6753  140.1983  143.7389 LP  0  0  0  0  0  0  0  0  0  0  0  0  # atno 17320 bound_to 7965
  145.8544  139.2191  143.1753 LP  0  0  0  0  0  0  0  0  0  0  0  0  # atno 17321 bound_to 7965
  139.8484  143.7470  152.3179 LP  0  0  0  0  0  0  0  0  0  0  0  0  # atno 17342 bound_to 10162
  139.7644  144.7496  151.0317 LP  0  0  0  0  0  0  0  0  0  0  0  0  # atno 17343 bound_to 10162
  157.5360  130.8089  149.7973 LP  0  0  0  0  0  0  0  0  0  0  0  0  # atno 17370 bound_to 10713
  156.0156  130.3815  150.2122 LP  0  0  0  0  0  0  0  0  0  0  0  0  # atno 17371 bound_to 10713
  140.1002  134.9540  157.1911 LP  0  0  0  0  0  0  0  0  0  0  0  0  # atno 17394 bound_to 11000
  140.3329  134.2790  155.7225 LP  0  0  0  0  0  0  0  0  0  0  0  0  # atno 17395 bound_to 11000

$$$$
