AV-unprocessed.smi:500|AV-procd|sdf|2740|dock5
  -GOLD-   2262023203D 1   1.00000     0.00000
 Structure written by MMmdl.
 45 47  0  0  0  0  0  0  0  0  3 V2000
  154.5722  137.9622  161.0200 C   0  0  0  0  0  0  0  0  0  0  0  0
  153.2932  137.1686  161.2955 C   0  0  0  0  0  0  0  0  0  0  0  0
  152.7246  136.7748  160.0555 O   0  0  0  0  0  0  0  0  0  0  0  0
  152.0513  137.8167  159.3630 C   0  0  0  0  0  0  0  0  0  0  0  0
  153.0251  138.6859  158.5490 C   0  0  0  0  0  0  0  0  0  0  0  0
  152.3774  139.9220  158.0694 N   0  0  0  0  0  0  0  0  0  0  0  0
  151.6719  140.2005  156.9256 C   0  0  0  0  0  0  0  0  0  0  0  0
  151.3489  139.2825  155.7732 C   0  0  2  0  0  0  0  0  0  0  0  0
  152.6439  138.7958  155.1095 C   0  0  0  0  0  0  0  0  0  0  0  0
  150.5104  139.9366  154.7666 N   0  5  0  0  0  0  0  0  0  0  0  0
  149.2969  139.4657  154.3599 C   0  0  0  0  0  0  0  0  0  0  0  0
  148.9114  138.2995  154.2231 O   0  0  0  0  0  0  0  0  0  0  0  0
  148.3390  140.5572  154.0641 C   0  0  0  0  0  0  0  0  0  0  0  0
  147.1141  140.5119  153.4525 C   0  0  0  0  0  0  0  0  0  0  0  0
  146.6178  141.8447  153.4245 C   0  0  0  0  0  0  0  0  0  0  0  0
  147.5736  142.6137  154.0228 C   0  0  0  0  0  0  0  0  0  0  0  0
  148.6263  141.8481  154.4180 O   0  0  0  0  0  0  0  0  0  0  0  0
  151.3012  141.5117  156.9997 N   0  3  0  0  0  0  0  0  0  0  0  0
  151.7436  142.0709  158.1965 C   0  0  0  0  0  0  0  0  0  0  0  0
  151.5940  143.3543  158.7116 C   0  0  0  0  0  0  0  0  0  0  0  0
  152.1668  143.5985  159.9769 C   0  0  0  0  0  0  0  0  0  0  0  0
  152.8540  142.5868  160.6784 C   0  0  0  0  0  0  0  0  0  0  0  0
  152.9990  141.2893  160.1444 C   0  0  0  0  0  0  0  0  0  0  0  0
  152.4318  141.0563  158.8909 C   0  0  0  0  0  0  0  0  0  0  0  0
  155.0394  138.2835  161.9511 H   0  0  0  0  0  0  0  0  0  0  0  0
  154.3604  138.8524  160.4272 H   0  0  0  0  0  0  0  0  0  0  0  0
  155.2968  137.3590  160.4725 H   0  0  0  0  0  0  0  0  0  0  0  0
  153.5273  136.2911  161.8998 H   0  0  0  0  0  0  0  0  0  0  0  0
  152.5971  137.7853  161.8636 H   0  0  0  0  0  0  0  0  0  0  0  0
  151.3424  137.3466  158.6805 H   0  0  0  0  0  0  0  0  0  0  0  0
  151.4593  138.4208  160.0523 H   0  0  0  0  0  0  0  0  0  0  0  0
  153.9084  138.9583  159.1254 H   0  0  0  0  0  0  0  0  0  0  0  0
  153.3947  138.1308  157.6868 H   0  0  0  0  0  0  0  0  0  0  0  0
  150.8461  138.4058  156.1837 H   0  0  0  0  0  0  0  0  0  0  0  0
  153.2761  138.2730  155.8277 H   0  0  0  0  0  0  0  0  0  0  0  0
  153.2215  139.6263  154.7014 H   0  0  0  0  0  0  0  0  0  0  0  0
  152.4335  138.1030  154.2940 H   0  0  0  0  0  0  0  0  0  0  0  0
  146.6333  139.6235  153.0699 H   0  0  0  0  0  0  0  0  0  0  0  0
  145.6807  142.1956  153.0183 H   0  0  0  0  0  0  0  0  0  0  0  0
  147.6631  143.6679  154.2392 H   0  0  0  0  0  0  0  0  0  0  0  0
  151.0640  144.1277  158.1755 H   0  0  0  0  0  0  0  0  0  0  0  0
  152.0751  144.5803  160.4183 H   0  0  0  0  0  0  0  0  0  0  0  0
  153.2780  142.8096  161.6466 H   0  0  0  0  0  0  0  0  0  0  0  0
  153.5234  140.5214  160.6933 H   0  0  0  0  0  0  0  0  0  0  0  0
  150.7612  141.9718  156.2781 H   0  0  0  0  0  0  0  0  0  0  0  0
  1  2  1  0  0  0  0
  1 25  1  0  0  0  0
  1 26  1  0  0  0  0
  1 27  1  0  0  0  0
  2  3  1  0  0  0  0
  2 28  1  0  0  0  0
  2 29  1  0  0  0  0
  3  4  1  0  0  0  0
  4  5  1  0  0  0  0
  4 30  1  0  0  0  0
  4 31  1  0  0  0  0
  5  6  1  0  0  0  0
  5 32  1  0  0  0  0
  5 33  1  0  0  0  0
  6 24  1  0  0  0  0
  6  7  1  0  0  0  0
  7  8  1  0  0  0  0
  7 18  2  0  0  0  0
  8  9  1  0  0  0  0
  8 10  1  0  0  0  0
  8 34  1  0  0  0  0
  9 35  1  0  0  0  0
  9 36  1  0  0  0  0
  9 37  1  0  0  0  0
 10 11  1  0  0  0  0
 11 12  2  0  0  0  0
 11 13  1  0  0  0  0
 13 17  1  0  0  0  0
 13 14  2  0  0  0  0
 14 15  1  0  0  0  0
 14 38  1  0  0  0  0
 15 16  2  0  0  0  0
 15 39  1  0  0  0  0
 16 17  1  0  0  0  0
 16 40  1  0  0  0  0
 18 19  1  0  0  0  0
 18 45  1  0  0  0  0
 19 24  2  0  0  0  0
 19 20  1  0  0  0  0
 20 21  2  0  0  0  0
 20 41  1  0  0  0  0
 21 22  1  0  0  0  0
 21 42  1  0  0  0  0
 22 23  2  0  0  0  0
 22 43  1  0  0  0  0
 23 24  1  0  0  0  0
 23 44  1  0  0  0  0
M  CHG  1  10  -1
M  CHG  1  18   1
M  END
> <s_m_source_file>
AV-unprocessed.smi

> <i_m_source_file_index>
500

> <i_lp_mmshare_version>
43012

> <i_f3d_flags>
0

> <s_epik_input>
W0NIM11bQ0gyXU9bQ0gyXVtDSDJdbihjKGMxMilbY0hdW2NIXVtjSF1bY0hdMiljKG4xKVtDQEhdKFtDSDNdKVtOSF1DKD1PKWMzW2NIXVtjSF1bY0hdbzM=

> <s_epik_cmdline>
J2VwaWtfcHl0aG9uJywgJy1waCcsICc3LjAnLCAnLXRuJywgJzgnLCAnLW1hJywgJzIwMCcsICctbWV0YWxfYmluZGluZycsICctaW1hZScsICc8aW5maWxlLm1hZT4nLCAnLW9tYWUnLCAnPG91dGZpbGUubWFlPic=

> <r_epik_Ionization_Penalty>
6.22753

> <r_epik_Ionization_Penalty_Charging>
6.22753

> <r_epik_Ionization_Penalty_Neutral>
2.56065e-12

> <r_epik_State_Penalty>
7.17947

> <r_epik_Charging_Adjusted_Penalty>
13.407

> <i_epik_Tot_Q>
0

> <i_epik_Tot_abs_Q>
2

> <r_epik_Metal_State_Penalty>
3.2092

> <b_epik_Metal_Only>
1

> <s_lp_Force_Field>
OPLS_2005

> <r_lp_Energy>
11.6209

> <b_lp_Chiralities_Consistent>
1

> <s_lp_Variant>
AV-unprocessed.smi:500-7

> <Gold.Version>
5.8.1

> <Gold.Id.Protein>
6NUR|6NUR_protein|mol2

> <Gold.PLP.Fitness>
53.8165

> <Gold.PLP.PLP>
-46.4245

> <Gold.PLP.part.hbond>
-2.4474

> <Gold.PLP.part.metal>
0.0000

> <Gold.PLP.part.buried>
-3.6669

> <Gold.PLP.part.nonpolar>
-41.2124

> <Gold.PLP.part.repulsive>
0.7619

> <Gold.PLP.ligand.clash>
0.0000

> <Gold.PLP.ligand.torsion>
0.9374

> <Gold.PLP.Chemscore.Hbond>
2.0000

> <Gold.PLP.Chemscore.CHOScore>
1.0000

> <Gold.PLP.Chemscore.Metal>
0.0000

> <Gold.Chemscore.Hbonds>
donor molecule, donor type, donor heavy atom, donor atom, acceptor molecule, acceptor atom, score
      P1  H  6896  6908       L1     3  1.00
      P1  H  7989  7998       L1    10  1.00
      L1  C    16    40       P1  8028  1.00

> <Gold.PLP.Chemscore.Internal.Correction>
0.2668

> <Gold.Rescore>
     Score         DG    S(hbond)    S(metal)    S(lipo)     H(rot)  DE(clash)    DE(int)     intcor
     19.77     -20.71       1.66        0.00     124.39       1.90       0.05       0.90       ----

> <Gold.Chemscore.Fitness>
19.7656

> <Gold.Chemscore.DG>
-20.7119

> <Gold.Chemscore.ZeroCoef>
-5.4800

> <Gold.Chemscore.Hbond>
1.6587

> <Gold.Chemscore.Metal>
0.0000

> <Gold.Chemscore.Lipo>
124.3943

> <Gold.Chemscore.Internal_Hbond>
0.0000

> <Gold.Chemscore.DEClash>
0.0477

> <Gold.Chemscore.DEInternal>
0.8986

> <Gold.Chemscore.Rot>
1.8993

> <Gold.Chemscore.Internal.Correction>
   9.000000E+99

> <Gold.Chemscore.Hbonds>
donor molecule, donor type, donor heavy atom, donor atom, acceptor molecule, acceptor atom, score
      P1  H  6896  6908       L1     3  0.85
      P1  H  7989  7998       L1    10  0.72

> <Gold.Chemscore.Hbond.Weighted>
-5.5400

> <Gold.Chemscore.Metal.Weighted>
-0.0000

> <Gold.Chemscore.Lipo.Weighted>
-14.5541

> <Gold.Chemscore.Internal_Hbond.Weighted>
0.0000

> <Gold.Chemscore.DEClash.Weighted>
0.0477

> <Gold.Chemscore.DEInternal.Weighted>
0.8986

> <Gold.Chemscore.Rot.Weighted>
4.8622

> <Gold.Chemscore.Internal.Correction.Weighted>
   9.000000E+99

> <Gold.Protein.RotatedTorsions>
[ 6907 6896 6895 6894 ] final  -86.43 input  -60.11 | X-H torsion
[ 7974 7965 7964 7962 ] final -136.70 input  175.53 | X-H torsion
[ 8008 7997 7996 7995 ] final   75.54 input   59.86 | X-H torsion
[ 10167 10162 10161 10158 ] final  113.38 input  -65.29 | X-H torsion
[ 10718 10713 10712 10709 ] final    4.41 input   66.30 | X-H torsion
[ 10763 10752 10751 10750 ] final    4.89 input  -60.55 | X-H torsion
[ 11005 11000 10999 10996 ] final   68.93 input  -57.11 | X-H torsion

> <Gold.Protein.ActiveResidues>
 VAL166  LYS551  ARG553  GLY616  TRP617  ASP618  TYR619  PRO620  LYS621  CYS622 
 ASP623  PHE694  ASN695  SER759  ASP760  ASP761  ALA762  ILE779  LEU786  VAL792 
 PHE793  MET794  SER795  GLU796  ALA797  LYS798  CYS799  TRP800  GLU811  SER814 

> <Gold.Protein.RotatedAtoms>
  150.6867  134.3052  159.4722 H   0  0  0  0  0  0  0  0  0  0  0  0  # atno 6907 bound_to 6896
  152.0943  134.9383  160.0580 H   0  0  0  0  0  0  0  0  0  0  0  0  # atno 6908 bound_to 6896
  152.0686  133.4061  159.4486 H   0  0  0  0  0  0  0  0  0  0  0  0  # atno 6909 bound_to 6896
  144.8905  140.6635  143.5148 H   0  0  0  0  0  0  0  0  0  0  0  0  # atno 7974 bound_to 7965
  155.8144  140.3472  155.5477 H   0  0  0  0  0  0  0  0  0  0  0  0  # atno 8008 bound_to 7997
  155.8407  140.0941  157.1756 H   0  0  0  0  0  0  0  0  0  0  0  0  # atno 8009 bound_to 7997
  154.4005  140.1395  156.3713 H   0  0  0  0  0  0  0  0  0  0  0  0  # atno 8010 bound_to 7997
  139.6466  144.7127  151.2131 H   0  0  0  0  0  0  0  0  0  0  0  0  # atno 10167 bound_to 10162
  156.8922  130.5691  149.5649 H   0  0  0  0  0  0  0  0  0  0  0  0  # atno 10718 bound_to 10713
  153.2658  135.6927  153.7531 H   0  0  0  0  0  0  0  0  0  0  0  0  # atno 10763 bound_to 10752
  153.6572  135.3366  155.3118 H   0  0  0  0  0  0  0  0  0  0  0  0  # atno 10764 bound_to 10752
  154.8447  135.4468  154.1664 H   0  0  0  0  0  0  0  0  0  0  0  0  # atno 10765 bound_to 10752
  139.9683  134.6943  156.0499 H   0  0  0  0  0  0  0  0  0  0  0  0  # atno 11005 bound_to 11000
  145.3792  139.1641  143.4290 LP  0  0  0  0  0  0  0  0  0  0  0  0  # atno 17320 bound_to 7965
  146.3051  140.3871  142.8690 LP  0  0  0  0  0  0  0  0  0  0  0  0  # atno 17321 bound_to 7965
  140.7517  143.6221  150.8503 LP  0  0  0  0  0  0  0  0  0  0  0  0  # atno 17342 bound_to 10162
  139.9864  143.5894  152.2925 LP  0  0  0  0  0  0  0  0  0  0  0  0  # atno 17343 bound_to 10162
  156.0623  130.5673  150.9218 LP  0  0  0  0  0  0  0  0  0  0  0  0  # atno 17370 bound_to 10713
  157.6077  131.0938  150.8850 LP  0  0  0  0  0  0  0  0  0  0  0  0  # atno 17371 bound_to 10713
  141.1363  133.6574  156.3602 LP  0  0  0  0  0  0  0  0  0  0  0  0  # atno 17394 bound_to 11000
  140.5348  134.6177  157.5361 LP  0  0  0  0  0  0  0  0  0  0  0  0  # atno 17395 bound_to 11000

$$$$
