AV-unprocessed.smi:861|AV-procd|sdf|3969|dock2
  -GOLD-   22720 1443D 1   1.00000     0.00000
 Structure written by MMmdl.
 44 45  0  0  0  0  0  0  0  0  2 V2000
  144.6802  132.4709  150.9145 C   0  0  0  0  0  0  0  0  0  0  0  0
  145.7987  131.5478  151.4285 C   0  0  0  0  0  0  0  0  0  0  0  0
  145.2384  130.1463  151.7180 C   0  0  0  0  0  0  0  0  0  0  0  0
  146.5126  132.1190  152.6719 C   0  0  0  0  0  0  0  0  0  0  0  0
  147.0602  133.5473  152.4784 C   0  0  0  0  0  0  0  0  0  0  0  0
  147.9681  133.9664  153.5762 N   0  3  2  0  0  0  0  0  0  0  0  0
  149.1329  133.0603  153.7170 C   0  0  0  0  0  0  0  0  0  0  0  0
  150.0734  133.5592  154.8254 C   0  0  0  0  0  0  0  0  0  0  0  0
  149.3500  133.6737  156.0438 O   0  0  0  0  0  0  0  0  0  0  0  0
  148.2903  134.6207  155.9546 C   0  0  2  0  0  0  0  0  0  0  0  0
  147.6333  134.7411  157.3367 C   0  0  0  0  0  0  0  0  0  0  0  0
  148.5897  135.1626  158.3509 N   0  0  0  0  0  0  0  0  0  0  0  0
  148.1654  135.4738  159.6496 C   0  0  0  0  0  0  0  0  0  0  0  0
  147.7866  134.4262  160.5126 C   0  0  0  0  0  0  0  0  0  0  0  0
  147.3710  134.7686  161.8111 C   0  0  0  0  0  0  0  0  0  0  0  0
  147.3657  136.1345  162.1478 C   0  0  0  0  0  0  0  0  0  0  0  0
  147.7395  137.1001  161.2780 N   0  0  0  0  0  0  0  0  0  0  0  0
  148.1349  136.7724  160.0425 N   0  0  0  0  0  0  0  0  0  0  0  0
  147.2899  134.1381  154.8856 C   0  0  0  0  0  0  0  0  0  0  0  0
  143.9276  132.6480  151.6838 H   0  0  0  0  0  0  0  0  0  0  0  0
  144.1747  132.0302  150.0548 H   0  0  0  0  0  0  0  0  0  0  0  0
  145.0644  133.4387  150.5945 H   0  0  0  0  0  0  0  0  0  0  0  0
  146.5371  131.4397  150.6329 H   0  0  0  0  0  0  0  0  0  0  0  0
  144.4943  130.1735  152.5147 H   0  0  0  0  0  0  0  0  0  0  0  0
  146.0287  129.4597  152.0230 H   0  0  0  0  0  0  0  0  0  0  0  0
  144.7628  129.7222  150.8330 H   0  0  0  0  0  0  0  0  0  0  0  0
  145.8335  132.0949  153.5253 H   0  0  0  0  0  0  0  0  0  0  0  0
  147.3377  131.4539  152.9249 H   0  0  0  0  0  0  0  0  0  0  0  0
  147.5702  133.6395  151.5182 H   0  0  0  0  0  0  0  0  0  0  0  0
  146.2214  134.2422  152.4500 H   0  0  0  0  0  0  0  0  0  0  0  0
  148.7854  132.0519  153.9482 H   0  0  0  0  0  0  0  0  0  0  0  0
  149.6781  133.0039  152.7741 H   0  0  0  0  0  0  0  0  0  0  0  0
  150.8949  132.8564  154.9663 H   0  0  0  0  0  0  0  0  0  0  0  0
  150.5176  134.5195  154.5589 H   0  0  0  0  0  0  0  0  0  0  0  0
  148.6884  135.5948  155.6628 H   0  0  0  0  0  0  0  0  0  0  0  0
  146.8303  135.4782  157.2934 H   0  0  0  0  0  0  0  0  0  0  0  0
  147.1832  133.7906  157.6262 H   0  0  0  0  0  0  0  0  0  0  0  0
  149.5757  135.1511  158.1332 H   0  0  0  0  0  0  0  0  0  0  0  0
  147.8140  133.3947  160.1934 H   0  0  0  0  0  0  0  0  0  0  0  0
  147.0686  134.0140  162.5218 H   0  0  0  0  0  0  0  0  0  0  0  0
  147.0571  136.4595  163.1305 H   0  0  0  0  0  0  0  0  0  0  0  0
  146.4826  134.8646  154.8019 H   0  0  0  0  0  0  0  0  0  0  0  0
  146.8384  133.1923  155.1906 H   0  0  0  0  0  0  0  0  0  0  0  0
  148.3407  134.8683  153.3150 H   0  0  0  0  0  0  0  0  0  0  0  0
  1  2  1  0  0  0  0
  1 20  1  0  0  0  0
  1 21  1  0  0  0  0
  1 22  1  0  0  0  0
  2  3  1  0  0  0  0
  2  4  1  0  0  0  0
  2 23  1  0  0  0  0
  3 24  1  0  0  0  0
  3 25  1  0  0  0  0
  3 26  1  0  0  0  0
  4  5  1  0  0  0  0
  4 27  1  0  0  0  0
  4 28  1  0  0  0  0
  5  6  1  0  0  0  0
  5 29  1  0  0  0  0
  5 30  1  0  0  0  0
  6 19  1  0  0  0  0
  6  7  1  0  0  0  0
  6 44  1  0  0  0  0
  7  8  1  0  0  0  0
  7 31  1  0  0  0  0
  7 32  1  0  0  0  0
  8  9  1  0  0  0  0
  8 33  1  0  0  0  0
  8 34  1  0  0  0  0
  9 10  1  0  0  0  0
 10 11  1  0  0  0  0
 10 19  1  0  0  0  0
 10 35  1  0  0  0  0
 11 12  1  0  0  0  0
 11 36  1  0  0  0  0
 11 37  1  0  0  0  0
 12 13  1  0  0  0  0
 12 38  1  0  0  0  0
 13 18  1  0  0  0  0
 13 14  2  0  0  0  0
 14 15  1  0  0  0  0
 14 39  1  0  0  0  0
 15 16  2  0  0  0  0
 15 40  1  0  0  0  0
 16 17  1  0  0  0  0
 16 41  1  0  0  0  0
 17 18  2  0  0  0  0
 19 42  1  0  0  0  0
 19 43  1  0  0  0  0
M  CHG  1   6   1
M  END
> <s_m_source_file>
AV-unprocessed.smi

> <i_m_source_file_index>
861

> <i_lp_mmshare_version>
43012

> <i_f3d_flags>
0

> <s_epik_input>
W0NIM11bQ0hdKFtDSDNdKVtDSDJdW0NIMl1OMVtDSDJdW0NIMl1PW0NASF0oW0NIMl0xKVtDSDJdW05IXWMyW2NIXVtjSF1bY0hdbm4y

> <s_epik_cmdline>
J2VwaWtfcHl0aG9uJywgJy1waCcsICc3LjAnLCAnLXRuJywgJzgnLCAnLW1hJywgJzIwMCcsICctbWV0YWxfYmluZGluZycsICctaW1hZScsICc8aW5maWxlLm1hZT4nLCAnLW9tYWUnLCAnPG91dGZpbGUubWFlPic=

> <r_lp_tautomer_probability>
0.999978

> <r_epik_Ionization_Penalty>
0.114704

> <r_epik_Ionization_Penalty_Charging>
0.0953451

> <r_epik_Ionization_Penalty_Neutral>
0.0193593

> <r_epik_State_Penalty>
0.104983

> <r_epik_Charging_Adjusted_Penalty>
0.200328

> <i_epik_Tot_Q>
1

> <i_epik_Tot_abs_Q>
1

> <r_epik_Metal_State_Penalty>
0.100113

> <b_epik_Metal_Only>
0

> <s_lp_Force_Field>
OPLS_2005

> <r_lp_Energy>
25.0457

> <b_lp_Chiralities_Consistent>
1

> <s_lp_Variant>
AV-unprocessed.smi:861-4

> <Gold.Version>
5.8.1

> <Gold.Id.Protein>
6NUR|6NUR_protein|mol2

> <Gold.PLP.Fitness>
41.3709

> <Gold.PLP.PLP>
-31.2961

> <Gold.PLP.part.hbond>
-3.0000

> <Gold.PLP.part.metal>
0.0000

> <Gold.PLP.part.buried>
-5.1974

> <Gold.PLP.part.nonpolar>
-22.7252

> <Gold.PLP.part.repulsive>
0.0850

> <Gold.PLP.ligand.clash>
0.0000

> <Gold.PLP.ligand.torsion>
0.7727

> <Gold.PLP.Chemscore.Hbond>
3.8400

> <Gold.PLP.Chemscore.CHOScore>
0.0000

> <Gold.PLP.Chemscore.Metal>
0.0000

> <Gold.Chemscore.Hbonds>
donor molecule, donor type, donor heavy atom, donor atom, acceptor molecule, acceptor atom, score
      L1  H     6    44       P1  7948  1.87
      P1  H  6931  6943       L1    17  1.00
      P1  H  6934  6947       L1    17  0.79

> <Gold.PLP.Chemscore.Internal.Correction>
0.1001

> <Gold.Rescore>
     Score         DG    S(hbond)    S(metal)    S(lipo)     H(rot)  DE(clash)    DE(int)     intcor
     15.67     -16.45       1.81        0.00      79.58       1.71       0.01       0.77       ----

> <Gold.Chemscore.Fitness>
15.6695

> <Gold.Chemscore.DG>
-16.4506

> <Gold.Chemscore.ZeroCoef>
-5.4800

> <Gold.Chemscore.Hbond>
1.8098

> <Gold.Chemscore.Metal>
0.0000

> <Gold.Chemscore.Lipo>
79.5752

> <Gold.Chemscore.Internal_Hbond>
0.0000

> <Gold.Chemscore.DEClash>
0.0108

> <Gold.Chemscore.DEInternal>
0.7703

> <Gold.Chemscore.Rot>
1.7127

> <Gold.Chemscore.Internal.Correction>
   9.000000E+99

> <Gold.Chemscore.Hbonds>
donor molecule, donor type, donor heavy atom, donor atom, acceptor molecule, acceptor atom, score
      L1  H     6    44       P1  7948  0.70
      P1  H  6931  6943       L1    17  0.43
      P1  H  6934  6947       L1    17  0.16

> <Gold.Chemscore.Hbond.Weighted>
-6.0447

> <Gold.Chemscore.Metal.Weighted>
-0.0000

> <Gold.Chemscore.Lipo.Weighted>
-9.3103

> <Gold.Chemscore.Internal_Hbond.Weighted>
0.0000

> <Gold.Chemscore.DEClash.Weighted>
0.0108

> <Gold.Chemscore.DEInternal.Weighted>
0.7703

> <Gold.Chemscore.Rot.Weighted>
4.3844

> <Gold.Chemscore.Internal.Correction.Weighted>
   9.000000E+99

> <Gold.Protein.RotatedTorsions>
[ 6907 6896 6895 6894 ] final  -83.91 input  -60.11 | X-H torsion
[ 7974 7965 7964 7962 ] final  -53.08 input  175.53 | X-H torsion
[ 8008 7997 7996 7995 ] final    9.62 input   59.86 | X-H torsion
[ 10167 10162 10161 10158 ] final  109.10 input  -65.29 | X-H torsion
[ 10718 10713 10712 10709 ] final  103.85 input   66.30 | X-H torsion
[ 10763 10752 10751 10750 ] final   16.23 input  -60.55 | X-H torsion
[ 11005 11000 10999 10996 ] final  174.76 input  -57.11 | X-H torsion

> <Gold.Protein.ActiveResidues>
 VAL166  LYS551  ARG553  GLY616  TRP617  ASP618  TYR619  PRO620  LYS621  CYS622 
 ASP623  PHE694  ASN695  SER759  ASP760  ASP761  ALA762  ILE779  LEU786  VAL792 
 PHE793  MET794  SER795  GLU796  ALA797  LYS798  CYS799  TRP800  GLU811  SER814 

> <Gold.Protein.RotatedAtoms>
  150.6881  134.3440  159.4879 H   0  0  0  0  0  0  0  0  0  0  0  0  # atno 6907 bound_to 6896
  152.1290  134.9147  160.0569 H   0  0  0  0  0  0  0  0  0  0  0  0  # atno 6908 bound_to 6896
  152.0324  133.3908  159.4339 H   0  0  0  0  0  0  0  0  0  0  0  0  # atno 6909 bound_to 6896
  145.9009  140.7995  142.9744 H   0  0  0  0  0  0  0  0  0  0  0  0  # atno 7974 bound_to 7965
  154.7824  140.2821  155.6053 H   0  0  0  0  0  0  0  0  0  0  0  0  # atno 8008 bound_to 7997
  156.2952  140.2620  156.2581 H   0  0  0  0  0  0  0  0  0  0  0  0  # atno 8009 bound_to 7997
  154.9768  140.0375  157.2249 H   0  0  0  0  0  0  0  0  0  0  0  0  # atno 8010 bound_to 7997
  139.6793  144.7119  151.1545 H   0  0  0  0  0  0  0  0  0  0  0  0  # atno 10167 bound_to 10162
  157.6759  131.0789  150.5618 H   0  0  0  0  0  0  0  0  0  0  0  0  # atno 10718 bound_to 10713
  153.1450  135.6767  153.8969 H   0  0  0  0  0  0  0  0  0  0  0  0  # atno 10763 bound_to 10752
  153.8414  135.3105  155.3427 H   0  0  0  0  0  0  0  0  0  0  0  0  # atno 10764 bound_to 10752
  154.7818  135.4884  153.9945 H   0  0  0  0  0  0  0  0  0  0  0  0  # atno 10765 bound_to 10752
  140.3548  134.7164  157.4292 H   0  0  0  0  0  0  0  0  0  0  0  0  # atno 11005 bound_to 11000
  144.6736  140.1675  143.7417 LP  0  0  0  0  0  0  0  0  0  0  0  0  # atno 17320 bound_to 7965
  145.8792  139.2314  143.1615 LP  0  0  0  0  0  0  0  0  0  0  0  0  # atno 17321 bound_to 7965
  140.7646  143.5724  150.8982 LP  0  0  0  0  0  0  0  0  0  0  0  0  # atno 17342 bound_to 10162
  139.9394  143.6399  152.3057 LP  0  0  0  0  0  0  0  0  0  0  0  0  # atno 17343 bound_to 10162
  156.5920  130.4332  149.5932 LP  0  0  0  0  0  0  0  0  0  0  0  0  # atno 17370 bound_to 10713
  156.2575  130.6943  151.1701 LP  0  0  0  0  0  0  0  0  0  0  0  0  # atno 17371 bound_to 10713
  140.0674  134.5910  155.8680 LP  0  0  0  0  0  0  0  0  0  0  0  0  # atno 17394 bound_to 11000
  141.2001  133.6611  156.5882 LP  0  0  0  0  0  0  0  0  0  0  0  0  # atno 17395 bound_to 11000

$$$$
