AV-unprocessed.smi:3025|AV-procd|sdf|11512|dock2
  -GOLD-   2272016453D 1   1.00000     0.00000
 Structure written by MMmdl.
 41 42  0  0  0  0  0  0  0  0  3 V2000
  144.3736  133.7918  150.0526 C   0  0  0  0  0  0  0  0  0  0  0  0
  144.5266  135.2550  150.4824 C   0  0  0  0  0  0  0  0  0  0  0  0
  145.1104  135.3930  151.8986 C   0  0  0  0  0  0  0  0  0  0  0  0
  145.3935  136.8478  152.3274 C   0  0  2  0  0  0  0  0  0  0  0  0
  146.2128  137.6282  151.2771 C   0  0  0  0  0  0  0  0  0  0  0  0
  146.5071  139.0669  151.7356 C   0  0  0  0  0  0  0  0  0  0  0  0
  147.2216  139.1129  153.1028 C   0  0  2  0  0  0  0  0  0  0  0  0
  148.6123  138.6067  153.0319 N   0  3  0  0  0  0  0  0  0  0  0  0
  149.3430  138.5732  154.3149 C   0  0  0  0  0  0  0  0  0  0  0  0
  150.8012  138.1544  154.1012 C   0  0  0  0  0  0  0  0  0  0  0  0
  151.5406  138.0260  155.4128 C   0  0  0  0  0  0  0  0  0  0  0  0
  152.1361  136.9066  155.8704 N   0  5  0  0  0  0  0  0  0  0  0  0
  152.7267  137.1482  157.0243 N   0  0  0  0  0  0  0  0  0  0  0  0
  152.4851  138.4447  157.2513 C   0  0  0  0  0  0  0  0  0  0  0  0
  151.7670  139.0121  156.2758 N   0  0  0  0  0  0  0  0  0  0  0  0
  146.4159  138.3203  154.1489 C   0  0  0  0  0  0  0  0  0  0  0  0
  146.1158  136.8825  153.6893 C   0  0  0  0  0  0  0  0  0  0  0  0
  143.9626  133.7242  149.0451 H   0  0  0  0  0  0  0  0  0  0  0  0
  143.7027  133.2522  150.7217 H   0  0  0  0  0  0  0  0  0  0  0  0
  145.3351  133.2778  150.0544 H   0  0  0  0  0  0  0  0  0  0  0  0
  145.1633  135.7653  149.7604 H   0  0  0  0  0  0  0  0  0  0  0  0
  143.5526  135.7436  150.4374 H   0  0  0  0  0  0  0  0  0  0  0  0
  144.4026  134.9517  152.6017 H   0  0  0  0  0  0  0  0  0  0  0  0
  146.0226  134.8002  151.9796 H   0  0  0  0  0  0  0  0  0  0  0  0
  144.4338  137.3520  152.4520 H   0  0  0  0  0  0  0  0  0  0  0  0
  147.1496  137.1076  151.0745 H   0  0  0  0  0  0  0  0  0  0  0  0
  145.6755  137.6692  150.3300 H   0  0  0  0  0  0  0  0  0  0  0  0
  147.0793  139.5933  150.9723 H   0  0  0  0  0  0  0  0  0  0  0  0
  145.5625  139.6067  151.8153 H   0  0  0  0  0  0  0  0  0  0  0  0
  147.2706  140.1496  153.4391 H   0  0  0  0  0  0  0  0  0  0  0  0
  148.5754  137.6581  152.6872 H   0  0  0  0  0  0  0  0  0  0  0  0
  149.3139  139.5556  154.7859 H   0  0  0  0  0  0  0  0  0  0  0  0
  148.8538  137.8732  154.9935 H   0  0  0  0  0  0  0  0  0  0  0  0
  150.8503  137.1998  153.5759 H   0  0  0  0  0  0  0  0  0  0  0  0
  151.3186  138.8857  153.4791 H   0  0  0  0  0  0  0  0  0  0  0  0
  152.8376  138.9768  158.1262 H   0  0  0  0  0  0  0  0  0  0  0  0
  146.9450  138.3057  155.1026 H   0  0  0  0  0  0  0  0  0  0  0  0
  145.4723  138.8348  154.3362 H   0  0  0  0  0  0  0  0  0  0  0  0
  145.5064  136.3857  154.4451 H   0  0  0  0  0  0  0  0  0  0  0  0
  147.0454  136.3151  153.6278 H   0  0  0  0  0  0  0  0  0  0  0  0
  149.1306  139.1674  152.3708 H   0  0  0  0  0  0  0  0  0  0  0  0
  1  2  1  0  0  0  0
  1 18  1  0  0  0  0
  1 19  1  0  0  0  0
  1 20  1  0  0  0  0
  2  3  1  0  0  0  0
  2 21  1  0  0  0  0
  2 22  1  0  0  0  0
  3  4  1  0  0  0  0
  3 23  1  0  0  0  0
  3 24  1  0  0  0  0
  4 17  1  0  0  0  0
  4  5  1  0  0  0  0
  4 25  1  0  0  0  0
  5  6  1  0  0  0  0
  5 26  1  0  0  0  0
  5 27  1  0  0  0  0
  6  7  1  0  0  0  0
  6 28  1  0  0  0  0
  6 29  1  0  0  0  0
  7  8  1  0  0  0  0
  7 16  1  0  0  0  0
  7 30  1  0  0  0  0
  8  9  1  0  0  0  0
  8 31  1  0  0  0  0
  8 41  1  0  0  0  0
  9 10  1  0  0  0  0
  9 32  1  0  0  0  0
  9 33  1  0  0  0  0
 10 34  1  0  0  0  0
 10 35  1  0  0  0  0
 10 11  1  0  0  0  0
 11 15  2  0  0  0  0
 11 12  1  0  0  0  0
 12 13  1  0  0  0  0
 13 14  2  0  0  0  0
 14 15  1  0  0  0  0
 14 36  1  0  0  0  0
 16 17  1  0  0  0  0
 16 37  1  0  0  0  0
 16 38  1  0  0  0  0
 17 39  1  0  0  0  0
 17 40  1  0  0  0  0
M  CHG  1   8   1
M  CHG  1  12  -1
M  END
> <s_m_source_file>
AV-unprocessed.smi

> <i_m_source_file_index>
3025

> <i_lp_mmshare_version>
43012

> <i_f3d_flags>
0

> <s_epik_input>
W0NIM11bQ0gyXVtDSDJdW0NAQEhdMVtDSDJdW0NIMl1bQ0BIXShbQ0gyXVtDSDJdMSlbTkhdW0NIMl1bQ0gyXWMybm5bY0hdW25IXTI=

> <s_epik_cmdline>
J2VwaWtfcHl0aG9uJywgJy1waCcsICc3LjAnLCAnLXRuJywgJzgnLCAnLW1hJywgJzIwMCcsICctbWV0YWxfYmluZGluZycsICctaW1hZScsICc8aW5maWxlLm1hZT4nLCAnLW9tYWUnLCAnPG91dGZpbGUubWFlPic=

> <r_lp_tautomer_probability>
0.948284

> <r_epik_Ionization_Penalty>
6.65342

> <r_epik_Ionization_Penalty_Charging>
6.65342

> <r_epik_Ionization_Penalty_Neutral>
1.40767e-13

> <r_epik_State_Penalty>
2.88894

> <r_epik_Charging_Adjusted_Penalty>
9.54236

> <i_epik_Tot_Q>
0

> <i_epik_Tot_abs_Q>
2

> <r_epik_Metal_State_Penalty>
0.664188

> <b_epik_Metal_Only>
1

> <s_lp_Force_Field>
OPLS_2005

> <r_lp_Energy>
9.37779

> <b_lp_Chiralities_Consistent>
1

> <s_lp_Variant>
AV-unprocessed.smi:3025-8

> <Gold.Version>
5.8.1

> <Gold.Id.Protein>
6NUR|6NUR_protein|mol2

> <Gold.PLP.Fitness>
42.7724

> <Gold.PLP.PLP>
-27.8420

> <Gold.PLP.part.hbond>
-2.9749

> <Gold.PLP.part.metal>
0.0000

> <Gold.PLP.part.buried>
0.8500

> <Gold.PLP.part.nonpolar>
-26.9994

> <Gold.PLP.part.repulsive>
0.0954

> <Gold.PLP.ligand.clash>
0.0000

> <Gold.PLP.ligand.torsion>
0.0629

> <Gold.PLP.Chemscore.Hbond>
5.0000

> <Gold.PLP.Chemscore.CHOScore>
0.0000

> <Gold.PLP.Chemscore.Metal>
0.0000

> <Gold.Chemscore.Hbonds>
donor molecule, donor type, donor heavy atom, donor atom, acceptor molecule, acceptor atom, score
      L1  H     8    31       P1  7948  2.00
      L1  H     8    41       P1  7957  1.00
      P1  H 10752 10764       L1    12  2.00

> <Gold.PLP.Chemscore.Internal.Correction>
0.0562

> <Gold.Rescore>
     Score         DG    S(hbond)    S(metal)    S(lipo)     H(rot)  DE(clash)    DE(int)     intcor
     15.60     -16.73       2.89        0.00      68.40       2.50       1.05       0.07       ----

> <Gold.Chemscore.Fitness>
15.6041

> <Gold.Chemscore.DG>
-16.7266

> <Gold.Chemscore.ZeroCoef>
-5.4800

> <Gold.Chemscore.Hbond>
2.8887

> <Gold.Chemscore.Metal>
0.0000

> <Gold.Chemscore.Lipo>
68.4048

> <Gold.Chemscore.Internal_Hbond>
0.0000

> <Gold.Chemscore.DEClash>
1.0483

> <Gold.Chemscore.DEInternal>
0.0741

> <Gold.Chemscore.Rot>
2.5019

> <Gold.Chemscore.Internal.Correction>
   9.000000E+99

> <Gold.Chemscore.Hbonds>
donor molecule, donor type, donor heavy atom, donor atom, acceptor molecule, acceptor atom, score
      L1  H     8    31       P1  7948  0.99
      L1  H     8    41       P1  7957  0.95
      P1  H 10752 10764       L1    12  0.77

> <Gold.Chemscore.Hbond.Weighted>
-9.6481

> <Gold.Chemscore.Metal.Weighted>
-0.0000

> <Gold.Chemscore.Lipo.Weighted>
-8.0034

> <Gold.Chemscore.Internal_Hbond.Weighted>
0.0000

> <Gold.Chemscore.DEClash.Weighted>
1.0483

> <Gold.Chemscore.DEInternal.Weighted>
0.0741

> <Gold.Chemscore.Rot.Weighted>
6.4049

> <Gold.Chemscore.Internal.Correction.Weighted>
   9.000000E+99

> <Gold.Protein.RotatedTorsions>
[ 6907 6896 6895 6894 ] final  -80.34 input  -60.11 | X-H torsion
[ 7974 7965 7964 7962 ] final -113.09 input  175.53 | X-H torsion
[ 8008 7997 7996 7995 ] final    4.09 input   59.86 | X-H torsion
[ 10167 10162 10161 10158 ] final   36.84 input  -65.29 | X-H torsion
[ 10718 10713 10712 10709 ] final   70.88 input   66.30 | X-H torsion
[ 10763 10752 10751 10750 ] final  -42.43 input  -60.55 | X-H torsion
[ 11005 11000 10999 10996 ] final  169.60 input  -57.11 | X-H torsion

> <Gold.Protein.ActiveResidues>
 VAL166  LYS551  ARG553  GLY616  TRP617  ASP618  TYR619  PRO620  LYS621  CYS622 
 ASP623  PHE694  ASN695  SER759  ASP760  ASP761  ALA762  ILE779  LEU786  VAL792 
 PHE793  MET794  SER795  GLU796  ALA797  LYS798  CYS799  TRP800  GLU811  SER814 

> <Gold.Protein.RotatedAtoms>
  150.6931  134.3984  159.5107 H   0  0  0  0  0  0  0  0  0  0  0  0  # atno 6907 bound_to 6896
  152.1761  134.8791  160.0539 H   0  0  0  0  0  0  0  0  0  0  0  0  # atno 6908 bound_to 6896
  151.9799  133.3719  159.4140 H   0  0  0  0  0  0  0  0  0  0  0  0  # atno 6909 bound_to 6896
  145.1361  140.8752  143.3729 H   0  0  0  0  0  0  0  0  0  0  0  0  # atno 7974 bound_to 7965
  154.7117  140.2694  155.6623 H   0  0  0  0  0  0  0  0  0  0  0  0  # atno 8008 bound_to 7997
  156.2797  140.2752  156.1685 H   0  0  0  0  0  0  0  0  0  0  0  0  # atno 8009 bound_to 7997
  155.0626  140.0371  157.2572 H   0  0  0  0  0  0  0  0  0  0  0  0  # atno 8010 bound_to 7997
  140.4090  144.1619  150.6138 H   0  0  0  0  0  0  0  0  0  0  0  0  # atno 10167 bound_to 10162
  157.6423  130.9500  150.0712 H   0  0  0  0  0  0  0  0  0  0  0  0  # atno 10718 bound_to 10713
  153.9790  135.6719  153.4749 H   0  0  0  0  0  0  0  0  0  0  0  0  # atno 10763 bound_to 10752
  153.0757  135.4950  154.8396 H   0  0  0  0  0  0  0  0  0  0  0  0  # atno 10764 bound_to 10752
  154.7175  135.3110  154.9061 H   0  0  0  0  0  0  0  0  0  0  0  0  # atno 10765 bound_to 10752
  140.2994  134.7607  157.3904 H   0  0  0  0  0  0  0  0  0  0  0  0  # atno 11005 bound_to 11000
  145.0582  139.3126  143.5894 LP  0  0  0  0  0  0  0  0  0  0  0  0  # atno 17320 bound_to 7965
  146.3509  140.0015  142.8676 LP  0  0  0  0  0  0  0  0  0  0  0  0  # atno 17321 bound_to 7965
  140.4659  143.2431  151.9156 LP  0  0  0  0  0  0  0  0  0  0  0  0  # atno 17342 bound_to 10162
  139.4783  144.5420  151.8514 LP  0  0  0  0  0  0  0  0  0  0  0  0  # atno 17343 bound_to 10162
  156.1715  130.3646  149.9158 LP  0  0  0  0  0  0  0  0  0  0  0  0  # atno 17370 bound_to 10713
  156.7132  130.8978  151.3611 LP  0  0  0  0  0  0  0  0  0  0  0  0  # atno 17371 bound_to 10713
  140.1122  134.5330  155.8256 LP  0  0  0  0  0  0  0  0  0  0  0  0  # atno 17394 bound_to 11000
  141.2131  133.6728  156.6711 LP  0  0  0  0  0  0  0  0  0  0  0  0  # atno 17395 bound_to 11000

$$$$
