#       Name:                AV-unprocessed.smi:652
#       Creating user name   scv26
#       Creation time:       Fri Mar 27 00:13:51 2020


#       File generated by GOLD software.
#

@<TRIPOS>MOLECULE
AV-unprocessed.smi:652
    54    55     1
SMALL
NO_CHARGES


@<TRIPOS>ATOM
      1 ****         0.7546  -7.2661   6.4957 C.3            1 S1                 0.0000
      2 ****         1.9769  -7.3664   5.5697 C.3            1 S1                 0.0000
      3 ****         3.2483  -7.7313   6.3475 C.3            1 S1                 0.0000
      4 ****         2.1855  -6.1065   4.8616 N.am           1 S1                 0.0000
      5 ****         1.5672  -5.7367   3.7289 C.2            1 S1                 0.0000
      6 ****         0.7359  -6.4385   3.1522 O.2            1 S1                 0.0000
      7 ****         1.9553  -4.3671   3.1641 C.3            1 S1                 0.0000
      8 ****         0.7924  -3.6776   2.4225 C.3            1 S1                 0.0000
      9 ****         1.0617  -2.3049   1.9954 N.3            1 S1                 0.0000
     10 ****        -0.1545  -1.6626   1.5090 C.3            1 S1                 0.0000
     11 ****         0.0988  -0.2122   1.0646 C.3            1 S1                 0.0000
     12 ****         1.1107  -0.1877   0.0632 O.3            1 S1                 0.0000
     13 ****         2.3341  -0.7790   0.4945 C.3            1 S1                 0.0000
     14 ****         3.3721  -0.6578  -0.6324 C.3            1 S1                 0.0000
     15 ****         2.9624  -1.3612  -1.8396 N.pl3          1 S1                 0.0000
     16 ****         3.7375  -1.2870  -3.0040 C.ar           1 S1                 0.0000
     17 ****         3.4124  -1.9399  -4.2154 C.ar           1 S1                 0.0000
     18 ****         4.2801  -1.7838  -5.3098 C.ar           1 S1                 0.0000
     19 ****         5.4218  -0.9837  -5.1271 C.ar           1 S1                 0.0000
     20 ****         5.7148  -0.3671  -3.9605 N.ar           1 S1                 0.0000
     21 ****         4.8647  -0.5358  -2.9320 N.pl3          1 S1                 1.0000
     22 ****         2.0851  -2.2313   0.9558 C.3            1 S1                 0.0000
     23 ****         0.5859  -8.2053   7.0232 H              1 S1                 0.0000
     24 ****        -0.1518  -7.0401   5.9332 H              1 S1                 0.0000
     25 ****         0.8861  -6.4837   7.2440 H              1 S1                 0.0000
     26 ****         1.7962  -8.1587   4.8408 H              1 S1                 0.0000
     27 ****         3.1321  -8.6864   6.8609 H              1 S1                 0.0000
     28 ****         3.4865  -6.9770   7.0982 H              1 S1                 0.0000
     29 ****         4.1059  -7.8199   5.6798 H              1 S1                 0.0000
     30 ****         2.8534  -5.4655   5.2649 H              1 S1                 0.0000
     31 ****         2.2960  -3.7267   3.9791 H              1 S1                 0.0000
     32 ****         2.8062  -4.5136   2.4992 H              1 S1                 0.0000
     33 ****         0.4993  -4.2774   1.5592 H              1 S1                 0.0000
     34 ****        -0.0714  -3.6716   3.0893 H              1 S1                 0.0000
     35 ****        -0.5636  -2.2299   0.6714 H              1 S1                 0.0000
     36 ****        -0.9150  -1.6701   2.2907 H              1 S1                 0.0000
     37 ****        -0.8135   0.2255   0.6593 H              1 S1                 0.0000
     38 ****         0.4011   0.4040   1.9127 H              1 S1                 0.0000
     39 ****         2.7029  -0.2039   1.3457 H              1 S1                 0.0000
     40 ****         3.5319   0.3951  -0.8683 H              1 S1                 0.0000
     41 ****         4.3269  -1.0601  -0.2917 H              1 S1                 0.0000
     42 ****         2.0265  -1.7387  -1.8830 H              1 S1                 0.0000
     43 ****         2.5250  -2.5464  -4.3179 H              1 S1                 0.0000
     44 ****         4.0785  -2.2611  -6.2574 H              1 S1                 0.0000
     45 ****         6.1199  -0.8336  -5.9375 H              1 S1                 0.0000
     46 ****         3.0241  -2.6451   1.3220 H              1 S1                 0.0000
     47 ****         1.7833  -2.8445   0.1054 H              1 S1                 0.0000
     48 ****         5.0795  -0.0745  -2.0477 H              1 S1                 0.0000
     49 ****         0.4915  -7.3333   3.5258 LP             1 S1                 0.0000
     50 ****         0.3052  -6.1137   2.3101 LP             1 S1                 0.0000
     51 ****         1.4020  -1.8243   2.8036 LP             1 S1                 0.0000
     52 ****         1.2877   0.7639  -0.1881 LP             1 S1                 0.0000
     53 ****         0.7796  -0.6877  -0.7370 LP             1 S1                 0.0000
     54 ****         6.5360   0.1956  -3.8653 LP             1 S1                 0.0000
@<TRIPOS>BOND
    1    1    2 1     
    2    1   23 1     
    3    1   24 1     
    4    1   25 1     
    5    2    3 1     
    6    2    4 1     
    7    2   26 1     
    8    3   27 1     
    9    3   28 1     
   10    3   29 1     
   11    4    5 am    
   12    4   30 1     
   13    5    6 2     
   14    5    7 1     
   15    7    8 1     
   16    7   31 1     
   17    7   32 1     
   18    8    9 1     
   19    8   33 1     
   20    8   34 1     
   21    9   22 1     
   22    9   10 1     
   23   10   11 1     
   24   10   35 1     
   25   10   36 1     
   26   11   12 1     
   27   11   37 1     
   28   11   38 1     
   29   12   13 1     
   30   13   14 1     
   31   13   22 1     
   32   13   39 1     
   33   14   15 1     
   34   14   40 1     
   35   14   41 1     
   36   15   16 1     
   37   15   42 1     
   38   16   21 ar    
   39   16   17 ar    
   40   17   18 ar    
   41   17   43 1     
   42   18   19 ar    
   43   18   44 1     
   44   19   20 ar    
   45   19   45 1     
   46   20   21 ar    
   47   21   48 1     
   48   22   46 1     
   49   22   47 1     
   50    6   49 1     
   51    6   50 1     
   52    9   51 1     
   53   12   52 1     
   54   12   53 1     
   55   20   54 1     
@<TRIPOS>SUBSTRUCTURE
      1 S1             1
@<TRIPOS>SET
LONE_PAIRS      STATIC     ATOMS    <user>   **** ""
6 49 50 51 52 53 54
DONOR_HYDROGENS      STATIC     ATOMS    <user>   **** ""
3 30 42 48
ATOM$BLUE        STATIC     ATOMS    COLORGROUP SYSTEM
6 49 50 51 52 53 54
ATOM$RED        STATIC     ATOMS    COLORGROUP SYSTEM
3 30 42 48
