AV-unprocessed.smi:2645|AV-procd|sdf|10280|dock10
  -GOLD-   2272014293D 1   1.00000     0.00000
 Structure written by MMmdl.
 50 52  0  0  0  0  0  0  0  0  2 V2000
  147.2399  132.4638  154.1124 O   0  0  0  0  0  0  0  0  0  0  0  0
  147.5442  133.4642  153.4619 C   0  0  0  0  0  0  0  0  0  0  0  0
  148.5708  134.2647  153.7851 N   0  0  0  0  0  0  0  0  0  0  0  0
  149.4626  134.0511  154.9194 C   0  0  0  0  0  0  0  0  0  0  0  0
  150.6467  135.0381  154.9057 C   0  0  0  0  0  0  0  0  0  0  0  0
  150.2232  136.4326  154.6242 N   0  3  0  0  0  0  0  0  0  0  0  0
  149.0774  136.8514  155.4775 C   0  0  0  0  0  0  0  0  0  0  0  0
  148.6500  138.3021  155.1863 C   0  0  0  0  0  0  0  0  0  0  0  0
  149.8134  139.1794  155.3441 N   0  0  0  0  0  0  0  0  0  0  0  0
  149.9147  140.0986  156.3351 C   0  0  0  0  0  0  0  0  0  0  0  0
  148.9844  140.3267  157.1092 O   0  0  0  0  0  0  0  0  0  0  0  0
  151.2519  140.8467  156.5270 C   0  0  0  0  0  0  0  0  0  0  0  0
  151.9045  140.7441  157.9201 C   0  0  0  0  0  0  0  0  0  0  0  0
  151.3901  142.1490  158.2477 C   0  0  0  0  0  0  0  0  0  0  0  0
  151.0947  142.3591  156.7594 C   0  0  0  0  0  0  0  0  0  0  0  0
  150.8610  138.8404  154.3771 C   0  0  0  0  0  0  0  0  0  0  0  0
  151.3501  137.4077  154.6539 C   0  0  0  0  0  0  0  0  0  0  0  0
  146.9129  133.8968  152.3560 N   0  0  0  0  0  0  0  0  0  0  0  0
  145.7804  133.3272  151.7147 C   0  0  0  0  0  0  0  0  0  0  0  0
  145.6444  131.9289  151.8687 C   0  0  0  0  0  0  0  0  0  0  0  0
  144.5539  131.2689  151.2693 C   0  0  0  0  0  0  0  0  0  0  0  0
  143.6276  132.0248  150.5288 C   0  0  0  0  0  0  0  0  0  0  0  0
  143.8374  133.4120  150.4230 C   0  0  0  0  0  0  0  0  0  0  0  0
  144.8811  134.0468  150.9974 N   0  0  0  0  0  0  0  0  0  0  0  0
  148.7571  135.0649  153.1979 H   0  0  0  0  0  0  0  0  0  0  0  0
  148.8844  134.1306  155.8402 H   0  0  0  0  0  0  0  0  0  0  0  0
  149.8325  133.0265  154.8725 H   0  0  0  0  0  0  0  0  0  0  0  0
  151.1275  135.0010  155.8846 H   0  0  0  0  0  0  0  0  0  0  0  0
  151.4048  134.7375  154.1810 H   0  0  0  0  0  0  0  0  0  0  0  0
  148.2327  136.1822  155.3102 H   0  0  0  0  0  0  0  0  0  0  0  0
  149.3565  136.7541  156.5280 H   0  0  0  0  0  0  0  0  0  0  0  0
  148.2709  138.3860  154.1669 H   0  0  0  0  0  0  0  0  0  0  0  0
  147.8176  138.5761  155.8356 H   0  0  0  0  0  0  0  0  0  0  0  0
  151.9727  140.6003  155.7465 H   0  0  0  0  0  0  0  0  0  0  0  0
  151.5220  139.9676  158.5835 H   0  0  0  0  0  0  0  0  0  0  0  0
  152.9929  140.6992  157.8627 H   0  0  0  0  0  0  0  0  0  0  0  0
  150.4857  142.1343  158.8574 H   0  0  0  0  0  0  0  0  0  0  0  0
  152.1438  142.8217  158.6584 H   0  0  0  0  0  0  0  0  0  0  0  0
  151.8636  142.9415  156.2503 H   0  0  0  0  0  0  0  0  0  0  0  0
  150.0998  142.7608  156.5626 H   0  0  0  0  0  0  0  0  0  0  0  0
  150.4456  138.9008  153.3699 H   0  0  0  0  0  0  0  0  0  0  0  0
  151.7022  139.5315  154.3788 H   0  0  0  0  0  0  0  0  0  0  0  0
  151.8388  137.3685  155.6289 H   0  0  0  0  0  0  0  0  0  0  0  0
  152.1020  137.1416  153.9123 H   0  0  0  0  0  0  0  0  0  0  0  0
  147.2847  134.7280  151.9205 H   0  0  0  0  0  0  0  0  0  0  0  0
  146.3652  131.3626  152.4408 H   0  0  0  0  0  0  0  0  0  0  0  0
  144.4317  130.2010  151.3763 H   0  0  0  0  0  0  0  0  0  0  0  0
  142.7788  131.5548  150.0546 H   0  0  0  0  0  0  0  0  0  0  0  0
  143.1499  134.0288  149.8631 H   0  0  0  0  0  0  0  0  0  0  0  0
  149.8696  136.4363  153.6783 H   0  0  0  0  0  0  0  0  0  0  0  0
  1  2  2  0  0  0  0
  2  3  1  0  0  0  0
  2 18  1  0  0  0  0
  3  4  1  0  0  0  0
  3 25  1  0  0  0  0
  4  5  1  0  0  0  0
  4 26  1  0  0  0  0
  4 27  1  0  0  0  0
  5  6  1  0  0  0  0
  5 28  1  0  0  0  0
  5 29  1  0  0  0  0
  6 17  1  0  0  0  0
  6  7  1  0  0  0  0
  6 50  1  0  0  0  0
  7  8  1  0  0  0  0
  7 30  1  0  0  0  0
  7 31  1  0  0  0  0
  8  9  1  0  0  0  0
  8 32  1  0  0  0  0
  8 33  1  0  0  0  0
  9 10  1  0  0  0  0
  9 16  1  0  0  0  0
 10 11  2  0  0  0  0
 10 12  1  0  0  0  0
 12 15  1  0  0  0  0
 12 13  1  0  0  0  0
 12 34  1  0  0  0  0
 13 14  1  0  0  0  0
 13 35  1  0  0  0  0
 13 36  1  0  0  0  0
 14 15  1  0  0  0  0
 14 37  1  0  0  0  0
 14 38  1  0  0  0  0
 15 39  1  0  0  0  0
 15 40  1  0  0  0  0
 16 17  1  0  0  0  0
 16 41  1  0  0  0  0
 16 42  1  0  0  0  0
 17 43  1  0  0  0  0
 17 44  1  0  0  0  0
 18 19  1  0  0  0  0
 18 45  1  0  0  0  0
 19 24  1  0  0  0  0
 19 20  2  0  0  0  0
 20 21  1  0  0  0  0
 20 46  1  0  0  0  0
 21 22  2  0  0  0  0
 21 47  1  0  0  0  0
 22 23  1  0  0  0  0
 22 48  1  0  0  0  0
 23 24  2  0  0  0  0
 23 49  1  0  0  0  0
M  CHG  1   6   1
M  END
> <s_m_source_file>
AV-unprocessed.smi

> <i_m_source_file_index>
2645

> <i_lp_mmshare_version>
43012

> <i_f3d_flags>
0

> <s_epik_input>
bjFbY0hdW2NIXVtjSF1bY0hdYzFbTkhdQyg9TylbTkhdW0NIMl1bQ0gyXU4yW0NIMl1bQ0gyXU4oW0NIMl1bQ0gyXTIpQyg9TylbQ0hdM1tDSDJdW0NIMl1bQ0gyXTM=

> <s_epik_cmdline>
J2VwaWtfcHl0aG9uJywgJy1waCcsICc3LjAnLCAnLXRuJywgJzgnLCAnLW1hJywgJzIwMCcsICctbWV0YWxfYmluZGluZycsICctaW1hZScsICc8aW5maWxlLm1hZT4nLCAnLW9tYWUnLCAnPG91dGZpbGUubWFlPic=

> <r_epik_Ionization_Penalty>
0.58203

> <r_epik_Ionization_Penalty_Charging>
0.581996

> <r_epik_Ionization_Penalty_Neutral>
3.43439e-05

> <r_epik_State_Penalty>
0.594836

> <r_epik_Charging_Adjusted_Penalty>
1.17683

> <i_epik_Tot_Q>
1

> <i_epik_Tot_abs_Q>
1

> <r_epik_Metal_State_Penalty>
0.594839

> <b_epik_Metal_Only>
0

> <s_lp_Force_Field>
OPLS_2005

> <r_lp_Energy>
52.325

> <b_lp_Chiralities_Consistent>
1

> <s_lp_Variant>
AV-unprocessed.smi:2645-2

> <Gold.Version>
5.8.1

> <Gold.Id.Protein>
6NUR|6NUR_protein|mol2

> <Gold.PLP.Fitness>
54.2063

> <Gold.PLP.PLP>
-40.0616

> <Gold.PLP.part.hbond>
-3.1356

> <Gold.PLP.part.metal>
0.0000

> <Gold.PLP.part.buried>
-5.0421

> <Gold.PLP.part.nonpolar>
-32.6956

> <Gold.PLP.part.repulsive>
0.3499

> <Gold.PLP.ligand.clash>
0.0000

> <Gold.PLP.ligand.torsion>
0.4978

> <Gold.PLP.Chemscore.Hbond>
3.9280

> <Gold.PLP.Chemscore.CHOScore>
0.9771

> <Gold.PLP.Chemscore.Metal>
0.0000

> <Gold.Chemscore.Hbonds>
donor molecule, donor type, donor heavy atom, donor atom, acceptor molecule, acceptor atom, score
      L1  H     3    25       P1  7948  1.00
      L1  H     6    50       P1  7948  2.00
      L1  H    18    45       P1  7948  0.54
      L1  C    23    49       P1 10186  1.00

> <Gold.PLP.Chemscore.Internal.Correction>
0.4251

> <Gold.Rescore>
     Score         DG    S(hbond)    S(metal)    S(lipo)     H(rot)  DE(clash)    DE(int)     intcor
     16.64     -18.76       2.03        0.00      94.64       1.79       0.03       2.09       ----

> <Gold.Chemscore.Fitness>
16.6368

> <Gold.Chemscore.DG>
-18.7628

> <Gold.Chemscore.ZeroCoef>
-5.4800

> <Gold.Chemscore.Hbond>
2.0329

> <Gold.Chemscore.Metal>
0.0000

> <Gold.Chemscore.Lipo>
94.6449

> <Gold.Chemscore.Internal_Hbond>
0.0000

> <Gold.Chemscore.DEClash>
0.0318

> <Gold.Chemscore.DEInternal>
2.0941

> <Gold.Chemscore.Rot>
1.7894

> <Gold.Chemscore.Internal.Correction>
   9.000000E+99

> <Gold.Chemscore.Hbonds>
donor molecule, donor type, donor heavy atom, donor atom, acceptor molecule, acceptor atom, score
      L1  H     3    25       P1  7948  0.50
      L1  H     6    50       P1  7948  0.25
      L1  H    18    45       P1  7948  0.44

> <Gold.Chemscore.Hbond.Weighted>
-6.7900

> <Gold.Chemscore.Metal.Weighted>
-0.0000

> <Gold.Chemscore.Lipo.Weighted>
-11.0735

> <Gold.Chemscore.Internal_Hbond.Weighted>
0.0000

> <Gold.Chemscore.DEClash.Weighted>
0.0318

> <Gold.Chemscore.DEInternal.Weighted>
2.0941

> <Gold.Chemscore.Rot.Weighted>
4.5807

> <Gold.Chemscore.Internal.Correction.Weighted>
   9.000000E+99

> <Gold.Protein.RotatedTorsions>
[ 6907 6896 6895 6894 ] final -103.51 input  -60.11 | X-H torsion
[ 7974 7965 7964 7962 ] final  144.30 input  175.53 | X-H torsion
[ 8008 7997 7996 7995 ] final  -89.32 input   59.86 | X-H torsion
[ 10167 10162 10161 10158 ] final  108.31 input  -65.29 | X-H torsion
[ 10718 10713 10712 10709 ] final -137.12 input   66.30 | X-H torsion
[ 10763 10752 10751 10750 ] final -123.45 input  -60.55 | X-H torsion
[ 11005 11000 10999 10996 ] final   13.82 input  -57.11 | X-H torsion

> <Gold.Protein.ActiveResidues>
 VAL166  LYS551  ARG553  GLY616  TRP617  ASP618  TYR619  PRO620  LYS621  CYS622 
 ASP623  PHE694  ASN695  SER759  ASP760  ASP761  ALA762  ILE779  LEU786  VAL792 
 PHE793  MET794  SER795  GLU796  ALA797  LYS798  CYS799  TRP800  GLU811  SER814 

> <Gold.Protein.RotatedAtoms>
  150.7244  134.0418  159.3768 H   0  0  0  0  0  0  0  0  0  0  0  0  # atno 6907 bound_to 6896
  151.8392  135.0593  160.0455 H   0  0  0  0  0  0  0  0  0  0  0  0  # atno 6908 bound_to 6896
  152.2875  133.5493  159.5573 H   0  0  0  0  0  0  0  0  0  0  0  0  # atno 6909 bound_to 6896
  144.8847  139.5646  143.5826 H   0  0  0  0  0  0  0  0  0  0  0  0  # atno 7974 bound_to 7965
  154.6852  140.0543  157.0307 H   0  0  0  0  0  0  0  0  0  0  0  0  # atno 8008 bound_to 7997
  155.0894  140.3218  155.4559 H   0  0  0  0  0  0  0  0  0  0  0  0  # atno 8009 bound_to 7997
  156.2709  140.2050  156.6022 H   0  0  0  0  0  0  0  0  0  0  0  0  # atno 8010 bound_to 7997
  139.6856  144.7114  151.1438 H   0  0  0  0  0  0  0  0  0  0  0  0  # atno 10167 bound_to 10162
  156.2846  130.7340  151.1347 H   0  0  0  0  0  0  0  0  0  0  0  0  # atno 10718 bound_to 10713
  154.8708  135.4098  154.2945 H   0  0  0  0  0  0  0  0  0  0  0  0  # atno 10763 bound_to 10752
  153.3815  135.7011  153.6567 H   0  0  0  0  0  0  0  0  0  0  0  0  # atno 10764 bound_to 10752
  153.5387  135.3652  155.2680 H   0  0  0  0  0  0  0  0  0  0  0  0  # atno 10765 bound_to 10752
  140.4765  134.0978  155.7742 H   0  0  0  0  0  0  0  0  0  0  0  0  # atno 11005 bound_to 11000
  146.3017  139.7448  142.9086 LP  0  0  0  0  0  0  0  0  0  0  0  0  # atno 17320 bound_to 7965
  145.3890  141.0369  143.3135 LP  0  0  0  0  0  0  0  0  0  0  0  0  # atno 17321 bound_to 7965
  140.7666  143.5634  150.9074 LP  0  0  0  0  0  0  0  0  0  0  0  0  # atno 17342 bound_to 10162
  139.9308  143.6495  152.3076 LP  0  0  0  0  0  0  0  0  0  0  0  0  # atno 17343 bound_to 10162
  157.7324  131.0599  150.5627 LP  0  0  0  0  0  0  0  0  0  0  0  0  # atno 17370 bound_to 10713
  156.5737  130.4286  149.6008 LP  0  0  0  0  0  0  0  0  0  0  0  0  # atno 17371 bound_to 10713
  141.1552  133.8896  157.1996 LP  0  0  0  0  0  0  0  0  0  0  0  0  # atno 17394 bound_to 11000
  139.9853  135.0084  156.9847 LP  0  0  0  0  0  0  0  0  0  0  0  0  # atno 17395 bound_to 11000

$$$$
