AV-unprocessed.smi:1177|AV-procd|sdf|4955|dock1
  -GOLD-   22720 3543D 1   1.00000     0.00000
 Structure written by MMmdl.
 31 32  0  0  0  0  0  0  0  0  2 V2000
  146.8047  137.5464  154.0339 O   0  0  0  0  0  0  0  0  0  0  0  0
  145.9332  138.2572  153.5320 C   0  0  0  0  0  0  0  0  0  0  0  0
  144.8848  137.7810  152.8457 N   0  0  0  0  0  0  0  0  0  0  0  0
  144.6276  136.3676  152.5962 C   0  0  0  0  0  0  0  0  0  0  0  0
  144.5547  136.0627  151.0904 C   0  0  0  0  0  0  0  0  0  0  0  0
  144.8070  134.5988  150.7889 C   0  0  0  0  0  0  0  0  0  0  0  0
  146.0492  133.9799  151.0483 C   0  0  0  0  0  0  0  0  0  0  0  0
  146.2154  132.6136  150.7393 C   0  0  0  0  0  0  0  0  0  0  0  0
  145.1390  131.8971  150.1762 C   0  0  0  0  0  0  0  0  0  0  0  0
  143.9211  132.5657  149.9362 C   0  0  0  0  0  0  0  0  0  0  0  0
  143.8005  133.8751  150.2472 N   0  3  0  0  0  0  0  0  0  0  0  0
  145.9182  139.5950  153.5986 N   0  0  0  0  0  0  0  0  0  0  0  0
  146.8977  140.4008  154.2529 C   0  0  0  0  0  0  0  0  0  0  0  0
  146.6898  141.8998  154.2503 C   0  0  0  0  0  0  0  0  0  0  0  0
  147.7641  141.2932  153.3906 C   0  0  0  0  0  0  0  0  0  0  0  0
  144.2185  138.4411  152.4714 H   0  0  0  0  0  0  0  0  0  0  0  0
  145.3985  135.7616  153.0755 H   0  0  0  0  0  0  0  0  0  0  0  0
  143.6839  136.1045  153.0748 H   0  0  0  0  0  0  0  0  0  0  0  0
  143.5761  136.3458  150.6999 H   0  0  0  0  0  0  0  0  0  0  0  0
  145.2865  136.6603  150.5447 H   0  0  0  0  0  0  0  0  0  0  0  0
  146.8656  134.5425  151.4775 H   0  0  0  0  0  0  0  0  0  0  0  0
  147.1578  132.1216  150.9307 H   0  0  0  0  0  0  0  0  0  0  0  0
  145.2461  130.8503  149.9319 H   0  0  0  0  0  0  0  0  0  0  0  0
  143.0470  132.0970  149.5083 H   0  0  0  0  0  0  0  0  0  0  0  0
  145.1556  140.0838  153.1529 H   0  0  0  0  0  0  0  0  0  0  0  0
  147.3732  139.9873  155.1414 H   0  0  0  0  0  0  0  0  0  0  0  0
  145.8070  142.2916  153.7481 H   0  0  0  0  0  0  0  0  0  0  0  0
  147.0051  142.4510  155.1338 H   0  0  0  0  0  0  0  0  0  0  0  0
  148.7972  141.4388  153.7000 H   0  0  0  0  0  0  0  0  0  0  0  0
  147.5981  141.2807  152.3150 H   0  0  0  0  0  0  0  0  0  0  0  0
  142.9101  134.3395  150.0649 H   0  0  0  0  0  0  0  0  0  0  0  0
  1  2  2  0  0  0  0
  2  3  1  0  0  0  0
  2 12  1  0  0  0  0
  3  4  1  0  0  0  0
  3 16  1  0  0  0  0
  4  5  1  0  0  0  0
  4 17  1  0  0  0  0
  4 18  1  0  0  0  0
  5  6  1  0  0  0  0
  5 19  1  0  0  0  0
  5 20  1  0  0  0  0
  6 11  1  0  0  0  0
  6  7  2  0  0  0  0
  7  8  1  0  0  0  0
  7 21  1  0  0  0  0
  8  9  2  0  0  0  0
  8 22  1  0  0  0  0
  9 10  1  0  0  0  0
  9 23  1  0  0  0  0
 10 11  2  0  0  0  0
 10 24  1  0  0  0  0
 11 31  1  0  0  0  0
 12 13  1  0  0  0  0
 12 25  1  0  0  0  0
 13 15  1  0  0  0  0
 13 14  1  0  0  0  0
 13 26  1  0  0  0  0
 14 15  1  0  0  0  0
 14 27  1  0  0  0  0
 14 28  1  0  0  0  0
 15 29  1  0  0  0  0
 15 30  1  0  0  0  0
M  CHG  1  11   1
M  END
> <s_m_source_file>
AV-unprocessed.smi

> <i_m_source_file_index>
1177

> <i_lp_mmshare_version>
43012

> <i_f3d_flags>
0

> <s_epik_input>
W0NIMl0xW0NIMl1bQ0hdMVtOSF1DKD1PKVtOSF1bQ0gyXVtDSDJdYzJbY0hdW2NIXVtjSF1bY0hdbjI=

> <s_epik_cmdline>
J2VwaWtfcHl0aG9uJywgJy1waCcsICc3LjAnLCAnLXRuJywgJzgnLCAnLW1hJywgJzIwMCcsICctbWV0YWxfYmluZGluZycsICctaW1hZScsICc8aW5maWxlLm1hZT4nLCAnLW9tYWUnLCAnPG91dGZpbGUubWFlPic=

> <r_epik_Ionization_Penalty>
1.56288

> <r_epik_Ionization_Penalty_Charging>
1.56282

> <r_epik_Ionization_Penalty_Neutral>
5.89877e-05

> <r_epik_State_Penalty>
1.65797

> <r_epik_Charging_Adjusted_Penalty>
3.22079

> <i_epik_Tot_Q>
1

> <i_epik_Tot_abs_Q>
1

> <r_epik_Metal_State_Penalty>
1.69932

> <b_epik_Metal_Only>
0

> <s_lp_Force_Field>
OPLS_2005

> <r_lp_Energy>
17.5296

> <b_lp_Chiralities_Consistent>
1

> <s_lp_Variant>
AV-unprocessed.smi:1177-2

> <Gold.Version>
5.8.1

> <Gold.Id.Protein>
6NUR|6NUR_protein|mol2

> <Gold.PLP.Fitness>
39.7031

> <Gold.PLP.PLP>
-28.3029

> <Gold.PLP.part.hbond>
-3.3566

> <Gold.PLP.part.metal>
0.0000

> <Gold.PLP.part.buried>
-2.3835

> <Gold.PLP.part.nonpolar>
-23.2773

> <Gold.PLP.part.repulsive>
0.1256

> <Gold.PLP.ligand.clash>
0.0000

> <Gold.PLP.ligand.torsion>
0.1507

> <Gold.PLP.Chemscore.Hbond>
3.8800

> <Gold.PLP.Chemscore.CHOScore>
0.0000

> <Gold.PLP.Chemscore.Metal>
0.0000

> <Gold.Chemscore.Hbonds>
donor molecule, donor type, donor heavy atom, donor atom, acceptor molecule, acceptor atom, score
      L1  H     3    16       P1 10175  0.80
      L1  H    11    31       P1 10186  2.00
      L1  H    12    25       P1 10175  1.00

> <Gold.PLP.Chemscore.Internal.Correction>
0.0616

> <Gold.Rescore>
     Score         DG    S(hbond)    S(metal)    S(lipo)     H(rot)  DE(clash)    DE(int)     intcor
     17.33     -18.56       2.73        0.00      71.11       1.70       1.05       0.18       ----

> <Gold.Chemscore.Fitness>
17.3333

> <Gold.Chemscore.DG>
-18.5582

> <Gold.Chemscore.ZeroCoef>
-5.4800

> <Gold.Chemscore.Hbond>
2.7291

> <Gold.Chemscore.Metal>
0.0000

> <Gold.Chemscore.Lipo>
71.1093

> <Gold.Chemscore.Internal_Hbond>
0.0000

> <Gold.Chemscore.DEClash>
1.0489

> <Gold.Chemscore.DEInternal>
0.1760

> <Gold.Chemscore.Rot>
1.7019

> <Gold.Chemscore.Internal.Correction>
   9.000000E+99

> <Gold.Chemscore.Hbonds>
donor molecule, donor type, donor heavy atom, donor atom, acceptor molecule, acceptor atom, score
      L1  H     3    16       P1 10175  0.75
      L1  H    11    31       P1 10186  0.90
      L1  H    12    25       P1 10175  1.00

> <Gold.Chemscore.Hbond.Weighted>
-9.1152

> <Gold.Chemscore.Metal.Weighted>
-0.0000

> <Gold.Chemscore.Lipo.Weighted>
-8.3198

> <Gold.Chemscore.Internal_Hbond.Weighted>
0.0000

> <Gold.Chemscore.DEClash.Weighted>
1.0489

> <Gold.Chemscore.DEInternal.Weighted>
0.1760

> <Gold.Chemscore.Rot.Weighted>
4.3568

> <Gold.Chemscore.Internal.Correction.Weighted>
   9.000000E+99

> <Gold.Protein.RotatedTorsions>
[ 6907 6896 6895 6894 ] final -164.21 input  -60.11 | X-H torsion
[ 7974 7965 7964 7962 ] final   -2.65 input  175.53 | X-H torsion
[ 8008 7997 7996 7995 ] final   46.93 input   59.86 | X-H torsion
[ 10167 10162 10161 10158 ] final -173.45 input  -65.29 | X-H torsion
[ 10718 10713 10712 10709 ] final   72.75 input   66.30 | X-H torsion
[ 10763 10752 10751 10750 ] final  121.46 input  -60.55 | X-H torsion
[ 11005 11000 10999 10996 ] final  163.84 input  -57.11 | X-H torsion

> <Gold.Protein.ActiveResidues>
 VAL166  LYS551  ARG553  GLY616  TRP617  ASP618  TYR619  PRO620  LYS621  CYS622 
 ASP623  PHE694  ASN695  SER759  ASP760  ASP761  ALA762  ILE779  LEU786  VAL792 
 PHE793  MET794  SER795  GLU796  ALA797  LYS798  CYS799  TRP800  GLU811  SER814 

> <Gold.Protein.RotatedAtoms>
  151.4083  133.3735  159.2740 H   0  0  0  0  0  0  0  0  0  0  0  0  # atno 6907 bound_to 6896
  150.9382  134.8794  159.7606 H   0  0  0  0  0  0  0  0  0  0  0  0  # atno 6908 bound_to 6896
  152.5059  134.4032  159.9475 H   0  0  0  0  0  0  0  0  0  0  0  0  # atno 6909 bound_to 6896
  146.2401  140.1602  142.8333 H   0  0  0  0  0  0  0  0  0  0  0  0  # atno 7974 bound_to 7965
  155.3607  140.3418  155.4241 H   0  0  0  0  0  0  0  0  0  0  0  0  # atno 8008 bound_to 7997
  156.1715  140.1633  156.8473 H   0  0  0  0  0  0  0  0  0  0  0  0  # atno 8009 bound_to 7997
  154.5238  140.0761  156.8203 H   0  0  0  0  0  0  0  0  0  0  0  0  # atno 8010 bound_to 7997
  139.5688  144.1692  152.1352 H   0  0  0  0  0  0  0  0  0  0  0  0  # atno 10167 bound_to 10162
  157.6516  130.9594  150.0973 H   0  0  0  0  0  0  0  0  0  0  0  0  # atno 10718 bound_to 10713
  153.6144  135.3424  155.2989 H   0  0  0  0  0  0  0  0  0  0  0  0  # atno 10763 bound_to 10752
  154.8612  135.4258  154.2275 H   0  0  0  0  0  0  0  0  0  0  0  0  # atno 10764 bound_to 10752
  153.3133  135.7033  153.7168 H   0  0  0  0  0  0  0  0  0  0  0  0  # atno 10765 bound_to 10752
  140.2399  134.8059  157.3400 H   0  0  0  0  0  0  0  0  0  0  0  0  # atno 11005 bound_to 11000
  145.0095  140.8702  143.5232 LP  0  0  0  0  0  0  0  0  0  0  0  0  # atno 17320 bound_to 7965
  145.1634  139.2445  143.5380 LP  0  0  0  0  0  0  0  0  0  0  0  0  # atno 17321 bound_to 7965
  140.1220  144.5365  150.6857 LP  0  0  0  0  0  0  0  0  0  0  0  0  # atno 17342 bound_to 10162
  140.6972  143.2411  151.4967 LP  0  0  0  0  0  0  0  0  0  0  0  0  # atno 17343 bound_to 10162
  156.1905  130.3654  149.8916 LP  0  0  0  0  0  0  0  0  0  0  0  0  # atno 17370 bound_to 10713
  156.6845  130.8871  151.3580 LP  0  0  0  0  0  0  0  0  0  0  0  0  # atno 17371 bound_to 10713
  140.1664  134.4664  155.7860 LP  0  0  0  0  0  0  0  0  0  0  0  0  # atno 17394 bound_to 11000
  141.2211  133.6923  156.7632 LP  0  0  0  0  0  0  0  0  0  0  0  0  # atno 17395 bound_to 11000

$$$$
