#       Name:                AV-unprocessed.smi:2110
#       Creating user name   scv26
#       Creation time:       Fri Mar 27 11:35:35 2020


#       File generated by GOLD software.
#

@<TRIPOS>MOLECULE
AV-unprocessed.smi:2110
    50    51     1
SMALL
NO_CHARGES


@<TRIPOS>ATOM
      1 ****        -0.3651   3.0746   1.8407 C.3            1 S1                 0.0000
      2 ****        -0.9444   2.8156   3.2397 C.3            1 S1                 0.0000
      3 ****        -0.7763   1.4143   3.6741 N.pl3          1 S1                 0.0000
      4 ****        -1.9605   0.5345   3.5937 C.3            1 S1                 0.0000
      5 ****        -2.5607   0.4603   2.1807 C.3            1 S1                 0.0000
      6 ****         0.8100   0.7669   4.0149 S.o2           1 S1                 0.0000
      7 ****         1.6267   1.9245   4.4112 O.2            1 S1                 0.0000
      8 ****         0.6175  -0.3025   5.0105 O.2            1 S1                 0.0000
      9 ****         1.1833   0.2525   2.5148 N.pl3          1 S1                -1.0000
     10 ****         1.0401  -1.1407   2.1238 C.3            1 S1                 0.0000
     11 ****         1.5116  -1.3597   0.6943 C.ar           1 S1                 0.0000
     12 ****         2.8209  -1.8238   0.4333 C.ar           1 S1                 0.0000
     13 ****         3.2269  -2.0075  -0.9011 C.ar           1 S1                 0.0000
     14 ****         2.3698  -1.7399  -1.9085 N.pl3          1 S1                 1.0000
     15 ****         1.1044  -1.2876  -1.7272 C.ar           1 S1                 0.0000
     16 ****         0.3117  -1.0482  -2.8738 N.3            1 S1                 0.0000
     17 ****        -1.0487  -0.5508  -2.6814 C.3            1 S1                 0.0000
     18 ****        -1.8535  -0.6414  -3.9892 C.3            1 S1                 0.0000
     19 ****        -1.1541   0.0240  -5.0339 O.3            1 S1                 0.0000
     20 ****         0.1052  -0.5852  -5.2910 C.3            1 S1                 0.0000
     21 ****         0.9944  -0.4876  -4.0404 C.3            1 S1                 0.0000
     22 ****         0.6508  -1.0899  -0.3974 C.ar           1 S1                 0.0000
     23 ****        -0.5725   4.0967   1.5242 H              1 S1                 0.0000
     24 ****        -0.7913   2.4050   1.0943 H              1 S1                 0.0000
     25 ****         0.7170   2.9452   1.8276 H              1 S1                 0.0000
     26 ****        -0.4583   3.4696   3.9635 H              1 S1                 0.0000
     27 ****        -2.0010   3.0833   3.2611 H              1 S1                 0.0000
     28 ****        -1.6937  -0.4686   3.9249 H              1 S1                 0.0000
     29 ****        -2.7128   0.8955   4.2953 H              1 S1                 0.0000
     30 ****        -3.3777  -0.2603   2.1506 H              1 S1                 0.0000
     31 ****        -1.8197   0.1469   1.4473 H              1 S1                 0.0000
     32 ****        -2.9650   1.4203   1.8607 H              1 S1                 0.0000
     33 ****         1.6072  -1.8045   2.7771 H              1 S1                 0.0000
     34 ****         0.0048  -1.4762   2.1927 H              1 S1                 0.0000
     35 ****         3.5174  -2.0356   1.2337 H              1 S1                 0.0000
     36 ****         4.2068  -2.3570  -1.1915 H              1 S1                 0.0000
     37 ****        -1.5662  -1.1359  -1.9212 H              1 S1                 0.0000
     38 ****        -1.0075   0.4823  -2.3337 H              1 S1                 0.0000
     39 ****        -2.0347  -1.6820  -4.2634 H              1 S1                 0.0000
     40 ****        -2.8293  -0.1731  -3.8611 H              1 S1                 0.0000
     41 ****        -0.0348  -1.6256  -5.5893 H              1 S1                 0.0000
     42 ****         0.5805  -0.0762  -6.1294 H              1 S1                 0.0000
     43 ****         1.2400   0.5553  -3.8357 H              1 S1                 0.0000
     44 ****         1.9320  -1.0043  -4.2442 H              1 S1                 0.0000
     45 ****        -0.3456  -0.7193  -0.2054 H              1 S1                 0.0000
     46 ****         2.6956  -1.8851  -2.8639 H              1 S1                 0.0000
     47 ****         1.5203   0.9134   1.8442 LP             1 S1                 0.0000
     48 ****         0.1464  -2.0023  -3.1237 LP             1 S1                 0.0000
     49 ****        -1.0058   0.9770  -4.7697 LP             1 S1                 0.0000
     50 ****        -1.7067  -0.0088  -5.8668 LP             1 S1                 0.0000
@<TRIPOS>BOND
    1    1    2 1     
    2    1   23 1     
    3    1   24 1     
    4    1   25 1     
    5    2    3 1     
    6    2   26 1     
    7    2   27 1     
    8    3    4 1     
    9    3    6 1     
   10    4    5 1     
   11    4   28 1     
   12    4   29 1     
   13    5   30 1     
   14    5   31 1     
   15    5   32 1     
   16    6    7 2     
   17    6    8 2     
   18    6    9 1     
   19    9   10 1     
   20   10   11 1     
   21   10   33 1     
   22   10   34 1     
   23   11   22 ar    
   24   11   12 ar    
   25   12   13 ar    
   26   12   35 1     
   27   13   14 ar    
   28   13   36 1     
   29   14   15 ar    
   30   14   46 1     
   31   15   16 1     
   32   15   22 ar    
   33   16   21 1     
   34   16   17 1     
   35   17   18 1     
   36   17   37 1     
   37   17   38 1     
   38   18   19 1     
   39   18   39 1     
   40   18   40 1     
   41   19   20 1     
   42   20   21 1     
   43   20   41 1     
   44   20   42 1     
   45   21   43 1     
   46   21   44 1     
   47   22   45 1     
   48    9   47 1     
   49   16   48 1     
   50   19   49 1     
   51   19   50 1     
@<TRIPOS>SUBSTRUCTURE
      1 S1             1
@<TRIPOS>SET
LONE_PAIRS      STATIC     ATOMS    <user>   **** ""
6 7 8 47 48 49 50
DONOR_HYDROGENS      STATIC     ATOMS    <user>   **** ""
1 46
ATOM$BLUE        STATIC     ATOMS    COLORGROUP SYSTEM
6 7 8 47 48 49 50
ATOM$RED        STATIC     ATOMS    COLORGROUP SYSTEM
1 46
