#       Name:                AV-unprocessed.smi:3047
#       Creating user name   scv26
#       Creation time:       Fri Mar 27 17:01:10 2020


#       File generated by GOLD software.
#

@<TRIPOS>MOLECULE
AV-unprocessed.smi:3047
    40    41     1
SMALL
NO_CHARGES


@<TRIPOS>ATOM
      1 ****        -0.6761   3.1367  -0.4402 C.3            1 S1                 0.0000
      2 ****        -2.0103   2.0291  -1.0577 S.o2           1 S1                 0.0000
      3 ****        -3.1128   2.8743  -1.5408 O.2            1 S1                 0.0000
      4 ****        -1.4136   1.0199  -1.9461 O.2            1 S1                 0.0000
      5 ****        -2.5641   1.2266   0.3780 N.pl3          1 S1                 0.0000
      6 ****        -3.4756   1.8636   1.3251 C.3            1 S1                 0.0000
      7 ****        -3.8707   0.7384   2.2768 C.3            1 S1                 0.0000
      8 ****        -2.6379  -0.1613   2.3153 C.3            1 S1                 0.0000
      9 ****        -1.9982  -0.0237   0.9167 C.3            1 S1                 0.0000
     10 ****        -0.4632  -0.0769   0.9707 C.2            1 S1                 0.0000
     11 ****         0.1603   0.5828   1.8031 O.2            1 S1                 0.0000
     12 ****         0.1369  -0.8473   0.0526 N.am           1 S1                 0.0000
     13 ****         1.5784  -0.9689  -0.1052 C.3            1 S1                 0.0000
     14 ****         1.9129  -1.8336  -1.3274 C.3            1 S1                 0.0000
     15 ****         3.3438  -1.9366  -1.5288 N.pl3          1 S1                 0.0000
     16 ****         4.2005  -2.8862  -0.9879 C.2            1 S1                 0.0000
     17 ****         5.4619  -2.5857  -1.4507 C.2            1 S1                 0.0000
     18 ****         5.4048  -1.4615  -2.2715 N.2            1 S1                 0.0000
     19 ****         4.1192  -1.1332  -2.2698 C.2            1 S1                 0.0000
     20 ****        -0.3192   3.7598  -1.2598 H              1 S1                 0.0000
     21 ****         0.1550   2.5474  -0.0571 H              1 S1                 0.0000
     22 ****        -1.0671   3.7739   0.3523 H              1 S1                 0.0000
     23 ****        -2.9459   2.6583   1.8515 H              1 S1                 0.0000
     24 ****        -4.3380   2.2943   0.8159 H              1 S1                 0.0000
     25 ****        -4.1616   1.1011   3.2630 H              1 S1                 0.0000
     26 ****        -4.7148   0.1865   1.8610 H              1 S1                 0.0000
     27 ****        -1.9740   0.1845   3.1089 H              1 S1                 0.0000
     28 ****        -2.9023  -1.1943   2.5437 H              1 S1                 0.0000
     29 ****        -2.3600  -0.8369   0.2852 H              1 S1                 0.0000
     30 ****        -0.4435  -1.3487  -0.6044 H              1 S1                 0.0000
     31 ****         2.0138   0.0251  -0.2210 H              1 S1                 0.0000
     32 ****         2.0064  -1.4076   0.7977 H              1 S1                 0.0000
     33 ****         1.5057  -2.8387  -1.2087 H              1 S1                 0.0000
     34 ****         1.4648  -1.4121  -2.2285 H              1 S1                 0.0000
     35 ****         3.8520  -3.6738  -0.3361 H              1 S1                 0.0000
     36 ****         6.3987  -3.0873  -1.2572 H              1 S1                 0.0000
     37 ****         3.7329  -0.2870  -2.8192 H              1 S1                 0.0000
     38 ****        -0.3322   1.1611   2.4535 LP             1 S1                 0.0000
     39 ****         1.1591   0.5401   1.8286 LP             1 S1                 0.0000
     40 ****         6.1568  -1.0081  -2.7500 LP             1 S1                 0.0000
@<TRIPOS>BOND
    1    1    2 1     
    2    1   20 1     
    3    1   21 1     
    4    1   22 1     
    5    2    3 2     
    6    2    4 2     
    7    2    5 1     
    8    5    9 1     
    9    5    6 1     
   10    6    7 1     
   11    6   23 1     
   12    6   24 1     
   13    7    8 1     
   14    7   25 1     
   15    7   26 1     
   16    8    9 1     
   17    8   27 1     
   18    8   28 1     
   19    9   10 1     
   20    9   29 1     
   21   10   11 2     
   22   10   12 am    
   23   12   13 1     
   24   12   30 1     
   25   13   14 1     
   26   13   31 1     
   27   13   32 1     
   28   14   15 1     
   29   14   33 1     
   30   14   34 1     
   31   15   19 1     
   32   15   16 1     
   33   16   17 2     
   34   16   35 1     
   35   17   18 1     
   36   17   36 1     
   37   18   19 2     
   38   19   37 1     
   39   11   38 1     
   40   11   39 1     
   41   18   40 1     
@<TRIPOS>SUBSTRUCTURE
      1 S1             1
@<TRIPOS>SET
LONE_PAIRS      STATIC     ATOMS    <user>   **** ""
5 3 4 38 39 40
DONOR_HYDROGENS      STATIC     ATOMS    <user>   **** ""
1 30
ATOM$BLUE        STATIC     ATOMS    COLORGROUP SYSTEM
5 3 4 38 39 40
ATOM$RED        STATIC     ATOMS    COLORGROUP SYSTEM
1 30
