AV-unprocessed.smi:2263|AV-procd|sdf|9140|dock6
  -GOLD-   2272012343D 1   1.00000     0.00000
 Structure written by MMmdl.
 40 41  0  0  0  0  0  0  0  0  1 V2000
  149.4612  133.1876  152.8583 C   0  0  0  0  0  0  0  0  0  0  0  0
  150.2387  133.9146  153.9504 C   0  0  0  0  0  0  0  0  0  0  0  0
  150.9551  133.2805  154.7244 O   0  0  0  0  0  0  0  0  0  0  0  0
  150.0860  135.2462  154.0031 N   0  0  0  0  0  0  0  0  0  0  0  0
  150.7291  136.1235  154.9745 C   0  0  0  0  0  0  0  0  0  0  0  0
  151.4858  137.2700  154.2849 C   0  0  0  0  0  0  0  0  0  0  0  0
  150.8888  138.6048  154.5794 C   0  0  0  0  0  0  0  0  0  0  0  0
  151.4746  139.5200  155.3559 N   0  0  0  0  0  0  0  0  0  0  0  0
  150.7005  140.6750  155.5049 C   0  0  0  0  0  0  0  0  0  0  0  0
  151.2084  141.8152  156.3345 C   0  0  0  0  0  0  0  0  0  0  0  0
  150.2457  142.1793  157.4762 C   0  0  0  0  0  0  0  0  0  0  0  0
  150.8505  143.1662  158.4907 C   0  0  0  0  0  0  0  0  0  0  0  0
  151.2108  144.5244  157.8806 C   0  0  0  0  0  0  0  0  0  0  0  0
  152.2616  145.1349  158.8175 C   0  0  0  0  0  0  0  0  0  0  0  0
  152.7946  143.9829  159.6822 C   0  0  0  0  0  0  0  0  0  0  0  0
  152.1703  142.7055  159.1155 C   0  0  0  0  0  0  0  0  0  0  0  0
  149.5057  140.6158  154.8317 C   0  0  0  0  0  0  0  0  0  0  0  0
  149.3073  139.1031  153.9912 S   0  0  0  0  0  0  0  0  0  0  0  0
  148.3961  133.4073  152.9371 H   0  0  0  0  0  0  0  0  0  0  0  0
  149.5932  132.1081  152.9416 H   0  0  0  0  0  0  0  0  0  0  0  0
  149.8075  133.4988  151.8724 H   0  0  0  0  0  0  0  0  0  0  0  0
  149.4777  135.6827  153.3255 H   0  0  0  0  0  0  0  0  0  0  0  0
  149.9875  136.5183  155.6712 H   0  0  0  0  0  0  0  0  0  0  0  0
  151.4218  135.5242  155.5661 H   0  0  0  0  0  0  0  0  0  0  0  0
  152.5301  137.2753  154.6001 H   0  0  0  0  0  0  0  0  0  0  0  0
  151.4875  137.1270  153.2038 H   0  0  0  0  0  0  0  0  0  0  0  0
  152.1840  141.5628  156.7514 H   0  0  0  0  0  0  0  0  0  0  0  0
  151.3723  142.6863  155.6995 H   0  0  0  0  0  0  0  0  0  0  0  0
  149.3232  142.5913  157.0643 H   0  0  0  0  0  0  0  0  0  0  0  0
  149.9629  141.2657  158.0009 H   0  0  0  0  0  0  0  0  0  0  0  0
  150.1313  143.3391  159.2933 H   0  0  0  0  0  0  0  0  0  0  0  0
  151.6507  144.3823  156.8924 H   0  0  0  0  0  0  0  0  0  0  0  0
  150.3390  145.1682  157.7604 H   0  0  0  0  0  0  0  0  0  0  0  0
  153.0606  145.6082  158.2453 H   0  0  0  0  0  0  0  0  0  0  0  0
  151.8159  145.9032  159.4506 H   0  0  0  0  0  0  0  0  0  0  0  0
  153.8839  143.9363  159.6845 H   0  0  0  0  0  0  0  0  0  0  0  0
  152.4717  144.1227  160.7146 H   0  0  0  0  0  0  0  0  0  0  0  0
  152.0311  141.9402  159.8795 H   0  0  0  0  0  0  0  0  0  0  0  0
  152.8229  142.2909  158.3458 H   0  0  0  0  0  0  0  0  0  0  0  0
  148.7317  141.3671  154.7818 H   0  0  0  0  0  0  0  0  0  0  0  0
  1  2  1  0  0  0  0
  1 19  1  0  0  0  0
  1 20  1  0  0  0  0
  1 21  1  0  0  0  0
  2  3  2  0  0  0  0
  2  4  1  0  0  0  0
  4  5  1  0  0  0  0
  4 22  1  0  0  0  0
  5  6  1  0  0  0  0
  5 23  1  0  0  0  0
  5 24  1  0  0  0  0
  6  7  1  0  0  0  0
  6 25  1  0  0  0  0
  6 26  1  0  0  0  0
  7 18  1  0  0  0  0
  7  8  2  0  0  0  0
  8  9  1  0  0  0  0
  9 10  1  0  0  0  0
  9 17  2  0  0  0  0
 10 11  1  0  0  0  0
 10 27  1  0  0  0  0
 10 28  1  0  0  0  0
 11 12  1  0  0  0  0
 11 29  1  0  0  0  0
 11 30  1  0  0  0  0
 12 16  1  0  0  0  0
 12 13  1  0  0  0  0
 12 31  1  0  0  0  0
 13 14  1  0  0  0  0
 13 32  1  0  0  0  0
 13 33  1  0  0  0  0
 14 15  1  0  0  0  0
 14 34  1  0  0  0  0
 14 35  1  0  0  0  0
 15 16  1  0  0  0  0
 15 36  1  0  0  0  0
 15 37  1  0  0  0  0
 16 38  1  0  0  0  0
 16 39  1  0  0  0  0
 17 18  1  0  0  0  0
 17 40  1  0  0  0  0
M  END
> <s_m_source_file>
AV-unprocessed.smi

> <i_m_source_file_index>
2263

> <i_lp_mmshare_version>
43012

> <i_f3d_flags>
0

> <s_epik_input>
W0NIM11DKD1PKVtOSF1bQ0gyXVtDSDJdYzFuYyhbY0hdczEpW0NIMl1bQ0gyXVtDSF0yW0NIMl1bQ0gyXVtDSDJdW0NIMl0y

> <s_epik_cmdline>
J2VwaWtfcHl0aG9uJywgJy1waCcsICc3LjAnLCAnLXRuJywgJzgnLCAnLW1hJywgJzIwMCcsICctbWV0YWxfYmluZGluZycsICctaW1hZScsICc8aW5maWxlLm1hZT4nLCAnLW9tYWUnLCAnPG91dGZpbGUubWFlPic=

> <r_epik_Ionization_Penalty>
0.00116713

> <r_epik_Ionization_Penalty_Charging>
0

> <r_epik_Ionization_Penalty_Neutral>
0.00116713

> <r_epik_State_Penalty>
0.000768465

> <r_epik_Charging_Adjusted_Penalty>
0.000768465

> <i_epik_Tot_Q>
0

> <i_epik_Tot_abs_Q>
0

> <r_epik_Metal_State_Penalty>
-0

> <b_epik_Metal_Only>
0

> <s_lp_Force_Field>
OPLS_2005

> <r_lp_Energy>
10.4461

> <b_lp_Chiralities_Consistent>
1

> <s_lp_Variant>
AV-unprocessed.smi:2263-1

> <Gold.Version>
5.8.1

> <Gold.Id.Protein>
6NUR|6NUR_protein|mol2

> <Gold.PLP.Fitness>
44.2281

> <Gold.PLP.PLP>
-42.1790

> <Gold.PLP.part.hbond>
-1.0000

> <Gold.PLP.part.metal>
0.0000

> <Gold.PLP.part.buried>
-4.0426

> <Gold.PLP.part.nonpolar>
-36.8336

> <Gold.PLP.part.repulsive>
0.0519

> <Gold.PLP.ligand.clash>
0.0000

> <Gold.PLP.ligand.torsion>
0.5131

> <Gold.PLP.Chemscore.Hbond>
1.0000

> <Gold.PLP.Chemscore.CHOScore>
0.0000

> <Gold.PLP.Chemscore.Metal>
0.0000

> <Gold.Chemscore.Hbonds>
donor molecule, donor type, donor heavy atom, donor atom, acceptor molecule, acceptor atom, score
      L1  H     4    22       P1  7948  0.90

> <Gold.PLP.Chemscore.Internal.Correction>
0.0753

> <Gold.Rescore>
     Score         DG    S(hbond)    S(metal)    S(lipo)     H(rot)  DE(clash)    DE(int)     intcor
     16.63     -17.62       0.83        0.00     119.37       1.80       0.39       0.60       ----

> <Gold.Chemscore.Fitness>
16.6283

> <Gold.Chemscore.DG>
-17.6220

> <Gold.Chemscore.ZeroCoef>
-5.4800

> <Gold.Chemscore.Hbond>
0.8311

> <Gold.Chemscore.Metal>
0.0000

> <Gold.Chemscore.Lipo>
119.3748

> <Gold.Chemscore.Internal_Hbond>
0.0000

> <Gold.Chemscore.DEClash>
0.3948

> <Gold.Chemscore.DEInternal>
0.5989

> <Gold.Chemscore.Rot>
1.7972

> <Gold.Chemscore.Internal.Correction>
   9.000000E+99

> <Gold.Chemscore.Hbonds>
donor molecule, donor type, donor heavy atom, donor atom, acceptor molecule, acceptor atom, score
      L1  H     4    22       P1  7948  0.17

> <Gold.Chemscore.Hbond.Weighted>
-2.7760

> <Gold.Chemscore.Metal.Weighted>
-0.0000

> <Gold.Chemscore.Lipo.Weighted>
-13.9668

> <Gold.Chemscore.Internal_Hbond.Weighted>
0.0000

> <Gold.Chemscore.DEClash.Weighted>
0.3948

> <Gold.Chemscore.DEInternal.Weighted>
0.5989

> <Gold.Chemscore.Rot.Weighted>
4.6008

> <Gold.Chemscore.Internal.Correction.Weighted>
   9.000000E+99

> <Gold.Protein.RotatedTorsions>
[ 6907 6896 6895 6894 ] final    0.66 input  -60.11 | X-H torsion
[ 7974 7965 7964 7962 ] final  -68.56 input  175.53 | X-H torsion
[ 8008 7997 7996 7995 ] final  -39.49 input   59.86 | X-H torsion
[ 10167 10162 10161 10158 ] final  175.48 input  -65.29 | X-H torsion
[ 10718 10713 10712 10709 ] final -126.15 input   66.30 | X-H torsion
[ 10763 10752 10751 10750 ] final   46.75 input  -60.55 | X-H torsion
[ 11005 11000 10999 10996 ] final   12.62 input  -57.11 | X-H torsion

> <Gold.Protein.ActiveResidues>
 VAL166  LYS551  ARG553  GLY616  TRP617  ASP618  TYR619  PRO620  LYS621  CYS622 
 ASP623  PHE694  ASN695  SER759  ASP760  ASP761  ALA762  ILE779  LEU786  VAL792 
 PHE793  MET794  SER795  GLU796  ALA797  LYS798  CYS799  TRP800  GLU811  SER814 

> <Gold.Protein.RotatedAtoms>
  151.5800  135.1059  160.0014 H   0  0  0  0  0  0  0  0  0  0  0  0  # atno 6907 bound_to 6896
  152.4358  133.7355  159.6622 H   0  0  0  0  0  0  0  0  0  0  0  0  # atno 6908 bound_to 6896
  150.8256  133.8107  159.3143 H   0  0  0  0  0  0  0  0  0  0  0  0  # atno 6909 bound_to 6896
  145.7150  140.9063  143.0661 H   0  0  0  0  0  0  0  0  0  0  0  0  # atno 7974 bound_to 7965
  154.4022  140.1550  156.2871 H   0  0  0  0  0  0  0  0  0  0  0  0  # atno 8008 bound_to 7997
  155.8818  140.3443  155.5871 H   0  0  0  0  0  0  0  0  0  0  0  0  # atno 8009 bound_to 7997
  155.7658  140.0823  157.2123 H   0  0  0  0  0  0  0  0  0  0  0  0  # atno 8010 bound_to 7997
  139.5179  144.3027  152.0364 H   0  0  0  0  0  0  0  0  0  0  0  0  # atno 10167 bound_to 10162
  156.1739  130.6686  151.0216 H   0  0  0  0  0  0  0  0  0  0  0  0  # atno 10718 bound_to 10713
  152.9807  135.5998  154.3651 H   0  0  0  0  0  0  0  0  0  0  0  0  # atno 10763 bound_to 10752
  154.3329  135.2768  155.2464 H   0  0  0  0  0  0  0  0  0  0  0  0  # atno 10764 bound_to 10752
  154.4580  135.5973  153.6292 H   0  0  0  0  0  0  0  0  0  0  0  0  # atno 10765 bound_to 10752
  140.4899  134.0851  155.7769 H   0  0  0  0  0  0  0  0  0  0  0  0  # atno 11005 bound_to 11000
  144.6932  139.9125  143.7464 LP  0  0  0  0  0  0  0  0  0  0  0  0  # atno 17320 bound_to 7965
  146.0678  139.3668  143.0541 LP  0  0  0  0  0  0  0  0  0  0  0  0  # atno 17321 bound_to 7965
  140.2474  144.4205  150.6235 LP  0  0  0  0  0  0  0  0  0  0  0  0  # atno 17342 bound_to 10162
  140.6249  143.2180  151.6618 LP  0  0  0  0  0  0  0  0  0  0  0  0  # atno 17343 bound_to 10162
  157.6822  131.0835  150.7339 LP  0  0  0  0  0  0  0  0  0  0  0  0  # atno 17370 bound_to 10713
  156.7397  130.4735  149.5480 LP  0  0  0  0  0  0  0  0  0  0  0  0  # atno 17371 bound_to 10713
  141.1489  133.9005  157.2147 LP  0  0  0  0  0  0  0  0  0  0  0  0  # atno 17394 bound_to 11000
  139.9775  135.0109  156.9668 LP  0  0  0  0  0  0  0  0  0  0  0  0  # atno 17395 bound_to 11000

$$$$
