AV-unprocessed.smi:2843|AV-procd|sdf|10937|dock6
  -GOLD-   2272015383D 1   1.00000     0.00000
 Structure written by MMmdl.
 29 29  0  0  0  0  0  0  0  0  1 V2000
  153.2285  142.6620  161.5237 C   0  0  0  0  0  0  0  0  0  0  0  0
  152.4477  142.7563  160.2579 C   0  0  0  0  0  0  0  0  0  0  0  0
  152.7991  142.6979  158.9395 C   0  0  0  0  0  0  0  0  0  0  0  0
  151.5621  142.8525  158.2547 C   0  0  0  0  0  0  0  0  0  0  0  0
  151.3103  142.8675  156.7743 C   0  0  0  0  0  0  0  0  0  0  0  0
  150.2577  141.4268  156.3162 S   0  0  0  0  0  0  0  0  0  0  0  0
  150.9399  140.6417  155.2761 O   0  0  0  0  0  0  0  0  0  0  0  0
  149.7989  140.7693  157.5497 O   0  0  0  0  0  0  0  0  0  0  0  0
  148.8906  142.1787  155.5830 N   0  0  0  0  0  0  0  0  0  0  0  0
  148.4043  141.6277  154.3198 C   0  0  0  0  0  0  0  0  0  0  0  0
  147.7374  140.2662  154.5540 C   0  0  0  0  0  0  0  0  0  0  0  0
  147.0852  139.7096  153.2817 C   0  0  0  0  0  0  0  0  0  0  0  0
  147.9543  138.7862  152.6628 O   0  0  0  0  0  0  0  0  0  0  0  0
  150.5515  142.9999  159.0957 N   0  0  0  0  0  0  0  0  0  0  0  0
  151.1075  142.9379  160.3783 O   0  0  0  0  0  0  0  0  0  0  0  0
  154.2807  142.4632  161.3191 H   0  0  0  0  0  0  0  0  0  0  0  0
  152.8488  141.8567  162.1527 H   0  0  0  0  0  0  0  0  0  0  0  0
  153.1632  143.5925  162.0879 H   0  0  0  0  0  0  0  0  0  0  0  0
  153.7877  142.5597  158.5274 H   0  0  0  0  0  0  0  0  0  0  0  0
  150.7991  143.7794  156.4636 H   0  0  0  0  0  0  0  0  0  0  0  0
  152.2454  142.8033  156.2183 H   0  0  0  0  0  0  0  0  0  0  0  0
  149.0300  143.1861  155.5075 H   0  0  0  0  0  0  0  0  0  0  0  0
  147.6943  142.3270  153.8766 H   0  0  0  0  0  0  0  0  0  0  0  0
  149.2403  141.5284  153.6265 H   0  0  0  0  0  0  0  0  0  0  0  0
  148.4799  139.5563  154.9220 H   0  0  0  0  0  0  0  0  0  0  0  0
  146.9832  140.3601  155.3370 H   0  0  0  0  0  0  0  0  0  0  0  0
  146.1452  139.2096  153.5179 H   0  0  0  0  0  0  0  0  0  0  0  0
  146.8615  140.5135  152.5795 H   0  0  0  0  0  0  0  0  0  0  0  0
  148.6942  139.2578  152.3113 H   0  0  0  0  0  0  0  0  0  0  0  0
  1  2  1  0  0  0  0
  1 16  1  0  0  0  0
  1 17  1  0  0  0  0
  1 18  1  0  0  0  0
  2 15  1  0  0  0  0
  2  3  2  0  0  0  0
  3  4  1  0  0  0  0
  3 19  1  0  0  0  0
  4  5  1  0  0  0  0
  4 14  2  0  0  0  0
  5  6  1  0  0  0  0
  5 20  1  0  0  0  0
  5 21  1  0  0  0  0
  6  7  2  0  0  0  0
  6  8  2  0  0  0  0
  6  9  1  0  0  0  0
  9 10  1  0  0  0  0
  9 22  1  0  0  0  0
 10 11  1  0  0  0  0
 10 23  1  0  0  0  0
 10 24  1  0  0  0  0
 11 12  1  0  0  0  0
 11 25  1  0  0  0  0
 11 26  1  0  0  0  0
 12 13  1  0  0  0  0
 12 27  1  0  0  0  0
 12 28  1  0  0  0  0
 13 29  1  0  0  0  0
 14 15  1  0  0  0  0
M  END
> <s_m_source_file>
AV-unprocessed.smi

> <i_m_source_file_index>
2843

> <i_lp_mmshare_version>
43012

> <i_f3d_flags>
0

> <s_epik_input>
W0NIM11jMVtjSF1jKG5vMSlbQ0gyXVMoPU8pKD1PKVtOSF1bQ0gyXVtDSDJdW0NIMl1bT0hd

> <s_epik_cmdline>
J2VwaWtfcHl0aG9uJywgJy1waCcsICc3LjAnLCAnLXRuJywgJzgnLCAnLW1hJywgJzIwMCcsICctbWV0YWxfYmluZGluZycsICctaW1hZScsICc8aW5maWxlLm1hZT4nLCAnLW9tYWUnLCAnPG91dGZpbGUubWFlPic=

> <r_lp_tautomer_probability>
1

> <r_epik_Ionization_Penalty>
0.000153409

> <r_epik_Ionization_Penalty_Charging>
0

> <r_epik_Ionization_Penalty_Neutral>
0.000153409

> <r_epik_State_Penalty>
-0

> <r_epik_Charging_Adjusted_Penalty>
0

> <i_epik_Tot_Q>
0

> <i_epik_Tot_abs_Q>
0

> <r_epik_Metal_State_Penalty>
0.110712

> <b_epik_Metal_Only>
0

> <s_lp_Force_Field>
OPLS_2005

> <r_lp_Energy>
-3.16936

> <b_lp_Chiralities_Consistent>
1

> <s_lp_Variant>
AV-unprocessed.smi:2843-1

> <Gold.Version>
5.8.1

> <Gold.Id.Protein>
6NUR|6NUR_protein|mol2

> <Gold.PLP.Fitness>
39.1171

> <Gold.PLP.PLP>
-31.4715

> <Gold.PLP.part.hbond>
-5.1160

> <Gold.PLP.part.metal>
0.0000

> <Gold.PLP.part.buried>
-3.9160

> <Gold.PLP.part.nonpolar>
-21.7325

> <Gold.PLP.part.repulsive>
0.2122

> <Gold.PLP.ligand.clash>
0.0000

> <Gold.PLP.ligand.torsion>
0.6047

> <Gold.PLP.Chemscore.Hbond>
2.8960

> <Gold.PLP.Chemscore.CHOScore>
0.0000

> <Gold.PLP.Chemscore.Metal>
0.0000

> <Gold.Chemscore.Hbonds>
donor molecule, donor type, donor heavy atom, donor atom, acceptor molecule, acceptor atom, score
      L1  H     9    22       P1  8028  1.00
      L1  H    13    29       P1  7957  1.00
      P1  H  7989  7998       L1     7  0.90

> <Gold.PLP.Chemscore.Internal.Correction>
0.1670

> <Gold.Rescore>
     Score         DG    S(hbond)    S(metal)    S(lipo)     H(rot)  DE(clash)    DE(int)     intcor
     13.77     -15.94       2.91        0.00      74.03       3.09       0.16       2.02       ----

> <Gold.Chemscore.Fitness>
13.7654

> <Gold.Chemscore.DG>
-15.9432

> <Gold.Chemscore.ZeroCoef>
-5.4800

> <Gold.Chemscore.Hbond>
2.9104

> <Gold.Chemscore.Metal>
0.0000

> <Gold.Chemscore.Lipo>
74.0336

> <Gold.Chemscore.Internal_Hbond>
0.0000

> <Gold.Chemscore.DEClash>
0.1624

> <Gold.Chemscore.DEInternal>
2.0154

> <Gold.Chemscore.Rot>
3.0935

> <Gold.Chemscore.Internal.Correction>
   9.000000E+99

> <Gold.Chemscore.Hbonds>
donor molecule, donor type, donor heavy atom, donor atom, acceptor molecule, acceptor atom, score
      L1  H     9    22       P1  8028  0.94
      L1  H    13    29       P1  7957  0.98
      P1  H  7989  7998       L1     7  0.88

> <Gold.Chemscore.Hbond.Weighted>
-9.7207

> <Gold.Chemscore.Metal.Weighted>
-0.0000

> <Gold.Chemscore.Lipo.Weighted>
-8.6619

> <Gold.Chemscore.Internal_Hbond.Weighted>
0.0000

> <Gold.Chemscore.DEClash.Weighted>
0.1624

> <Gold.Chemscore.DEInternal.Weighted>
2.0154

> <Gold.Chemscore.Rot.Weighted>
7.9195

> <Gold.Chemscore.Internal.Correction.Weighted>
   9.000000E+99

> <Gold.Protein.RotatedTorsions>
[ 6907 6896 6895 6894 ] final    8.86 input  -60.11 | X-H torsion
[ 7974 7965 7964 7962 ] final  107.83 input  175.53 | X-H torsion
[ 8008 7997 7996 7995 ] final  -11.82 input   59.86 | X-H torsion
[ 10167 10162 10161 10158 ] final  -93.00 input  -65.29 | X-H torsion
[ 10718 10713 10712 10709 ] final -159.48 input   66.30 | X-H torsion
[ 10763 10752 10751 10750 ] final   18.75 input  -60.55 | X-H torsion
[ 11005 11000 10999 10996 ] final -168.21 input  -57.11 | X-H torsion

> <Gold.Protein.ActiveResidues>
 VAL166  LYS551  ARG553  GLY616  TRP617  ASP618  TYR619  PRO620  LYS621  CYS622 
 ASP623  PHE694  ASN695  SER759  ASP760  ASP761  ALA762  ILE779  LEU786  VAL792 
 PHE793  MET794  SER795  GLU796  ALA797  LYS798  CYS799  TRP800  GLU811  SER814 

> <Gold.Protein.RotatedAtoms>
  151.7129  135.0909  160.0270 H   0  0  0  0  0  0  0  0  0  0  0  0  # atno 6907 bound_to 6896
  152.3650  133.6341  159.6052 H   0  0  0  0  0  0  0  0  0  0  0  0  # atno 6908 bound_to 6896
  150.7632  133.9278  159.3459 H   0  0  0  0  0  0  0  0  0  0  0  0  # atno 6909 bound_to 6896
  145.2885  139.2608  143.3877 H   0  0  0  0  0  0  0  0  0  0  0  0  # atno 7974 bound_to 7965
  154.5431  140.2292  155.8608 H   0  0  0  0  0  0  0  0  0  0  0  0  # atno 8008 bound_to 7997
  156.1877  140.3085  155.9233 H   0  0  0  0  0  0  0  0  0  0  0  0  # atno 8009 bound_to 7997
  155.3218  140.0441  157.3030 H   0  0  0  0  0  0  0  0  0  0  0  0  # atno 8010 bound_to 7997
  140.3291  143.3005  151.9962 H   0  0  0  0  0  0  0  0  0  0  0  0  # atno 10167 bound_to 10162
  156.5687  130.8679  151.2831 H   0  0  0  0  0  0  0  0  0  0  0  0  # atno 10718 bound_to 10713
  153.1221  135.6721  153.9317 H   0  0  0  0  0  0  0  0  0  0  0  0  # atno 10763 bound_to 10752
  153.8829  135.3056  155.3447 H   0  0  0  0  0  0  0  0  0  0  0  0  # atno 10764 bound_to 10752
  154.7632  135.4977  153.9583 H   0  0  0  0  0  0  0  0  0  0  0  0  # atno 10765 bound_to 10752
  140.5446  134.5489  157.5108 H   0  0  0  0  0  0  0  0  0  0  0  0  # atno 11005 bound_to 11000
  146.3193  140.3370  142.8645 LP  0  0  0  0  0  0  0  0  0  0  0  0  # atno 17320 bound_to 7965
  144.9193  140.7849  143.5758 LP  0  0  0  0  0  0  0  0  0  0  0  0  # atno 17321 bound_to 7965
  139.4860  144.6250  151.7182 LP  0  0  0  0  0  0  0  0  0  0  0  0  # atno 17342 bound_to 10162
  140.5414  144.0573  150.6090 LP  0  0  0  0  0  0  0  0  0  0  0  0  # atno 17343 bound_to 10162
  157.7353  130.9760  150.2074 LP  0  0  0  0  0  0  0  0  0  0  0  0  # atno 17370 bound_to 10713
  156.2734  130.3724  149.8008 LP  0  0  0  0  0  0  0  0  0  0  0  0  # atno 17371 bound_to 10713
  139.9486  134.7657  156.0501 LP  0  0  0  0  0  0  0  0  0  0  0  0  # atno 17394 bound_to 11000
  141.1207  133.6613  156.3208 LP  0  0  0  0  0  0  0  0  0  0  0  0  # atno 17395 bound_to 11000

$$$$
