AV-unprocessed.smi:1144|AV-procd|sdf|4880|dock9
  -GOLD-   22720 3453D 1   1.00000     0.00000
 Structure written by MMmdl.
 34 35  0  0  0  0  0  0  0  0  1 V2000
  146.8785  141.4973  153.4906 C   0  0  0  0  0  0  0  0  0  0  0  0
  147.6919  140.8343  154.4986 N   0  0  0  0  0  0  0  0  0  0  0  0
  148.1051  139.5063  154.0650 C   0  0  0  0  0  0  0  0  0  0  0  0
  148.9837  138.8123  155.1192 C   0  0  0  0  0  0  0  0  0  0  0  0
  150.1048  139.6376  155.4206 O   0  0  0  0  0  0  0  0  0  0  0  0
  149.7367  140.9260  155.9099 C   0  0  1  0  0  0  0  0  0  0  0  0
  151.0174  141.7186  156.2035 C   0  0  0  0  0  0  0  0  0  0  0  0
  150.7554  142.8663  157.0590 N   0  0  0  0  0  0  0  0  0  0  0  0
  151.2929  143.0308  158.3212 C   0  0  0  0  0  0  0  0  0  0  0  0
  150.8760  144.1094  158.9883 N   0  0  0  0  0  0  0  0  0  0  0  0
  151.3823  144.2998  160.2258 C   0  0  0  0  0  0  0  0  0  0  0  0
  152.3097  143.4050  160.7949 C   0  0  0  0  0  0  0  0  0  0  0  0
  152.6804  142.2979  159.9994 C   0  0  0  0  0  0  0  0  0  0  0  0
  153.6720  141.2501  160.4818 C   0  0  0  0  0  0  0  0  0  0  0  0
  154.8205  141.3778  159.8165 F   0  0  0  0  0  0  0  0  0  0  0  0
  153.9223  141.3775  161.7853 F   0  0  0  0  0  0  0  0  0  0  0  0
  153.1807  140.0303  160.2631 F   0  0  0  0  0  0  0  0  0  0  0  0
  152.1667  142.1181  158.7605 N   0  0  0  0  0  0  0  0  0  0  0  0
  148.8674  141.6235  154.8443 C   0  0  0  0  0  0  0  0  0  0  0  0
  145.9897  140.9080  153.2631 H   0  0  0  0  0  0  0  0  0  0  0  0
  147.4373  141.6405  152.5648 H   0  0  0  0  0  0  0  0  0  0  0  0
  146.5478  142.4749  153.8423 H   0  0  0  0  0  0  0  0  0  0  0  0
  147.2266  138.8926  153.8621 H   0  0  0  0  0  0  0  0  0  0  0  0
  148.6591  139.5793  153.1277 H   0  0  0  0  0  0  0  0  0  0  0  0
  148.4145  138.6138  156.0287 H   0  0  0  0  0  0  0  0  0  0  0  0
  149.3379  137.8516  154.7453 H   0  0  0  0  0  0  0  0  0  0  0  0
  149.1595  140.8147  156.8300 H   0  0  0  0  0  0  0  0  0  0  0  0
  151.7626  141.0744  156.6719 H   0  0  0  0  0  0  0  0  0  0  0  0
  151.4463  142.0798  155.2681 H   0  0  0  0  0  0  0  0  0  0  0  0
  150.0945  143.5602  156.7410 H   0  0  0  0  0  0  0  0  0  0  0  0
  151.0447  145.1720  160.7658 H   0  0  0  0  0  0  0  0  0  0  0  0
  152.7090  143.5660  161.7853 H   0  0  0  0  0  0  0  0  0  0  0  0
  149.4659  141.8034  153.9496 H   0  0  0  0  0  0  0  0  0  0  0  0
  148.5571  142.6022  155.2126 H   0  0  0  0  0  0  0  0  0  0  0  0
  1  2  1  0  0  0  0
  1 20  1  0  0  0  0
  1 21  1  0  0  0  0
  1 22  1  0  0  0  0
  2 19  1  0  0  0  0
  2  3  1  0  0  0  0
  3  4  1  0  0  0  0
  3 23  1  0  0  0  0
  3 24  1  0  0  0  0
  4  5  1  0  0  0  0
  4 25  1  0  0  0  0
  4 26  1  0  0  0  0
  5  6  1  0  0  0  0
  6  7  1  0  0  0  0
  6 19  1  0  0  0  0
  6 27  1  0  0  0  0
  7  8  1  0  0  0  0
  7 28  1  0  0  0  0
  7 29  1  0  0  0  0
  8  9  1  0  0  0  0
  8 30  1  0  0  0  0
  9 18  1  0  0  0  0
  9 10  2  0  0  0  0
 10 11  1  0  0  0  0
 11 12  2  0  0  0  0
 11 31  1  0  0  0  0
 12 13  1  0  0  0  0
 12 32  1  0  0  0  0
 13 14  1  0  0  0  0
 13 18  2  0  0  0  0
 14 15  1  0  0  0  0
 14 16  1  0  0  0  0
 14 17  1  0  0  0  0
 19 33  1  0  0  0  0
 19 34  1  0  0  0  0
M  END
> <s_m_source_file>
AV-unprocessed.smi

> <i_m_source_file_index>
1144

> <i_lp_mmshare_version>
43012

> <i_f3d_flags>
0

> <s_epik_input>
W0NIM11OMVtDSDJdW0NIMl1PW0NASF0oW0NIMl0xKVtDSDJdW05IXWMybltjSF1bY0hdYyhuMilDKEYpKEYpRg==

> <s_epik_cmdline>
J2VwaWtfcHl0aG9uJywgJy1waCcsICc3LjAnLCAnLXRuJywgJzgnLCAnLW1hJywgJzIwMCcsICctbWV0YWxfYmluZGluZycsICctaW1hZScsICc8aW5maWxlLm1hZT4nLCAnLW9tYWUnLCAnPG91dGZpbGUubWFlPic=

> <r_lp_tautomer_probability>
1

> <r_epik_Ionization_Penalty>
0.797829

> <r_epik_Ionization_Penalty_Charging>
0

> <r_epik_Ionization_Penalty_Neutral>
0.797829

> <r_epik_State_Penalty>
0.828842

> <r_epik_Charging_Adjusted_Penalty>
0.828842

> <i_epik_Tot_Q>
0

> <i_epik_Tot_abs_Q>
0

> <r_epik_Metal_State_Penalty>
0.828842

> <b_epik_Metal_Only>
0

> <s_lp_Force_Field>
OPLS_2005

> <r_lp_Energy>
13.1173

> <b_lp_Chiralities_Consistent>
1

> <s_lp_Variant>
AV-unprocessed.smi:1144-5

> <Gold.Version>
5.8.1

> <Gold.Id.Protein>
6NUR|6NUR_protein|mol2

> <Gold.PLP.Fitness>
38.8623

> <Gold.PLP.PLP>
-36.8892

> <Gold.PLP.part.hbond>
-1.0000

> <Gold.PLP.part.metal>
0.0000

> <Gold.PLP.part.buried>
-6.5815

> <Gold.PLP.part.nonpolar>
-30.1024

> <Gold.PLP.part.repulsive>
0.2918

> <Gold.PLP.ligand.clash>
0.0000

> <Gold.PLP.ligand.torsion>
0.5148

> <Gold.PLP.Chemscore.Hbond>
1.0000

> <Gold.PLP.Chemscore.CHOScore>
0.0000

> <Gold.PLP.Chemscore.Metal>
0.0000

> <Gold.Chemscore.Hbonds>
donor molecule, donor type, donor heavy atom, donor atom, acceptor molecule, acceptor atom, score
      L1  H     8    30       P1  8028  1.00

> <Gold.PLP.Chemscore.Internal.Correction>
0.0028

> <Gold.Rescore>
     Score         DG    S(hbond)    S(metal)    S(lipo)     H(rot)  DE(clash)    DE(int)     intcor
     14.79     -15.00       1.00        0.00      81.60       1.31       0.05       0.15       ----

> <Gold.Chemscore.Fitness>
14.7856

> <Gold.Chemscore.DG>
-14.9952

> <Gold.Chemscore.ZeroCoef>
-5.4800

> <Gold.Chemscore.Hbond>
0.9983

> <Gold.Chemscore.Metal>
0.0000

> <Gold.Chemscore.Lipo>
81.5999

> <Gold.Chemscore.Internal_Hbond>
0.0000

> <Gold.Chemscore.DEClash>
0.0549

> <Gold.Chemscore.DEInternal>
0.1547

> <Gold.Chemscore.Rot>
1.3149

> <Gold.Chemscore.Internal.Correction>
   9.000000E+99

> <Gold.Chemscore.Hbonds>
donor molecule, donor type, donor heavy atom, donor atom, acceptor molecule, acceptor atom, score
      L1  H     8    30       P1  8028  0.97

> <Gold.Chemscore.Hbond.Weighted>
-3.3342

> <Gold.Chemscore.Metal.Weighted>
-0.0000

> <Gold.Chemscore.Lipo.Weighted>
-9.5472

> <Gold.Chemscore.Internal_Hbond.Weighted>
0.0000

> <Gold.Chemscore.DEClash.Weighted>
0.0549

> <Gold.Chemscore.DEInternal.Weighted>
0.1547

> <Gold.Chemscore.Rot.Weighted>
3.3662

> <Gold.Chemscore.Internal.Correction.Weighted>
   9.000000E+99

> <Gold.Protein.RotatedTorsions>
[ 6907 6896 6895 6894 ] final -174.63 input  -60.11 | X-H torsion
[ 7974 7965 7964 7962 ] final -112.73 input  175.53 | X-H torsion
[ 8008 7997 7996 7995 ] final  178.00 input   59.86 | X-H torsion
[ 10167 10162 10161 10158 ] final  132.98 input  -65.29 | X-H torsion
[ 10718 10713 10712 10709 ] final  158.97 input   66.30 | X-H torsion
[ 10763 10752 10751 10750 ] final   83.96 input  -60.55 | X-H torsion
[ 11005 11000 10999 10996 ] final -130.66 input  -57.11 | X-H torsion

> <Gold.Protein.ActiveResidues>
 VAL166  LYS551  ARG553  GLY616  TRP617  ASP618  TYR619  PRO620  LYS621  CYS622 
 ASP623  PHE694  ASN695  SER759  ASP760  ASP761  ALA762  ILE779  LEU786  VAL792 
 PHE793  MET794  SER795  GLU796  ALA797  LYS798  CYS799  TRP800  GLU811  SER814 

> <Gold.Protein.RotatedAtoms>
  151.5755  133.3384  159.2997 H   0  0  0  0  0  0  0  0  0  0  0  0  # atno 6907 bound_to 6896
  150.8343  134.7612  159.6891 H   0  0  0  0  0  0  0  0  0  0  0  0  # atno 6908 bound_to 6896
  152.4422  134.5575  159.9936 H   0  0  0  0  0  0  0  0  0  0  0  0  # atno 6909 bound_to 6896
  145.1405  140.8775  143.3705 H   0  0  0  0  0  0  0  0  0  0  0  0  # atno 7974 bound_to 7965
  156.0595  140.1344  156.9957 H   0  0  0  0  0  0  0  0  0  0  0  0  # atno 8008 bound_to 7997
  154.4474  140.0994  156.6567 H   0  0  0  0  0  0  0  0  0  0  0  0  # atno 8009 bound_to 7997
  155.5399  140.3460  155.4447 H   0  0  0  0  0  0  0  0  0  0  0  0  # atno 8010 bound_to 7997
  139.5316  144.6637  151.4930 H   0  0  0  0  0  0  0  0  0  0  0  0  # atno 10167 bound_to 10162
  157.1706  131.0609  151.2185 H   0  0  0  0  0  0  0  0  0  0  0  0  # atno 10718 bound_to 10713
  153.1338  135.4672  154.9390 H   0  0  0  0  0  0  0  0  0  0  0  0  # atno 10763 bound_to 10752
  154.7687  135.3152  154.8235 H   0  0  0  0  0  0  0  0  0  0  0  0  # atno 10764 bound_to 10752
  153.8772  135.6898  153.4823 H   0  0  0  0  0  0  0  0  0  0  0  0  # atno 10765 bound_to 10752
  140.9326  134.1299  157.4221 H   0  0  0  0  0  0  0  0  0  0  0  0  # atno 11005 bound_to 11000
  145.0537  139.3161  143.5915 LP  0  0  0  0  0  0  0  0  0  0  0  0  # atno 17320 bound_to 7965
  146.3505  139.9955  142.8681 LP  0  0  0  0  0  0  0  0  0  0  0  0  # atno 17321 bound_to 7965
  140.6498  143.8720  150.6774 LP  0  0  0  0  0  0  0  0  0  0  0  0  # atno 17342 bound_to 10162
  140.2081  143.3905  152.1740 LP  0  0  0  0  0  0  0  0  0  0  0  0  # atno 17343 bound_to 10162
  157.4047  130.7352  149.6793 LP  0  0  0  0  0  0  0  0  0  0  0  0  # atno 17370 bound_to 10713
  155.9739  130.4111  150.3965 LP  0  0  0  0  0  0  0  0  0  0  0  0  # atno 17371 bound_to 10713
  139.8800  135.0010  156.6043 LP  0  0  0  0  0  0  0  0  0  0  0  0  # atno 17394 bound_to 11000
  140.7842  133.8635  155.8592 LP  0  0  0  0  0  0  0  0  0  0  0  0  # atno 17395 bound_to 11000

$$$$
