AV-unprocessed.smi:1254|AV-procd|sdf|5278|dock7
  -GOLD-   22720 4393D 1   1.00000     0.00000
 Structure written by MMmdl.
 45 46  0  0  0  0  0  0  0  0  3 V2000
  149.2637  140.2113  154.5066 C   0  0  0  0  0  0  0  0  0  0  0  0
  150.2495  139.1856  154.9513 C   0  0  0  0  0  0  0  0  0  0  0  0
  150.1285  137.8666  155.2855 C   0  0  0  0  0  0  0  0  0  0  0  0
  151.4581  137.4938  155.6234 C   0  0  0  0  0  0  0  0  0  0  0  0
  151.8592  136.2737  156.0126 N   0  5  0  0  0  0  0  0  0  0  0  0
  150.9487  135.3043  156.2594 C   0  0  0  0  0  0  0  0  0  0  0  0
  150.5832  134.9052  157.3674 O   0  0  0  0  0  0  0  0  0  0  0  0
  150.4273  134.7631  155.1517 N   0  0  0  0  0  0  0  0  0  0  0  0
  149.4277  133.7041  155.1269 C   0  0  0  0  0  0  0  0  0  0  0  0
  148.2409  134.1028  154.2398 C   0  0  1  0  0  0  0  0  0  0  0  0
  147.8704  132.9889  153.2409 C   0  0  0  0  0  0  0  0  0  0  0  0
  146.6766  133.3747  152.4482 N   0  3  1  0  0  0  0  0  0  0  0  0
  146.2864  132.3686  151.4273 C   0  0  0  0  0  0  0  0  0  0  0  0
  145.2675  132.9079  150.4003 C   0  0  0  0  0  0  0  0  0  0  0  0
  143.8248  132.8332  150.9285 C   0  0  0  0  0  0  0  0  0  0  0  0
  145.3906  132.1494  149.0704 C   0  0  0  0  0  0  0  0  0  0  0  0
  145.5538  133.7312  153.3472 C   0  0  0  0  0  0  0  0  0  0  0  0
  145.9894  134.8139  154.3471 C   0  0  0  0  0  0  0  0  0  0  0  0
  147.1175  134.3543  155.0787 O   0  0  0  0  0  0  0  0  0  0  0  0
  152.3138  138.4935  155.4881 N   0  0  0  0  0  0  0  0  0  0  0  0
  151.5452  139.5844  155.0646 O   0  0  0  0  0  0  0  0  0  0  0  0
  148.6560  139.8316  153.6854 H   0  0  0  0  0  0  0  0  0  0  0  0
  149.7652  141.1169  154.1649 H   0  0  0  0  0  0  0  0  0  0  0  0
  148.5959  140.4825  155.3244 H   0  0  0  0  0  0  0  0  0  0  0  0
  149.2322  137.2645  155.2917 H   0  0  0  0  0  0  0  0  0  0  0  0
  150.7483  135.1182  154.2630 H   0  0  0  0  0  0  0  0  0  0  0  0
  149.8930  132.7947  154.7436 H   0  0  0  0  0  0  0  0  0  0  0  0
  149.0863  133.4898  156.1410 H   0  0  0  0  0  0  0  0  0  0  0  0
  148.4980  135.0115  153.6913 H   0  0  0  0  0  0  0  0  0  0  0  0
  148.7182  132.8027  152.5827 H   0  0  0  0  0  0  0  0  0  0  0  0
  147.6698  132.0579  153.7738 H   0  0  0  0  0  0  0  0  0  0  0  0
  147.1832  132.0030  150.9246 H   0  0  0  0  0  0  0  0  0  0  0  0
  145.8444  131.5033  151.9240 H   0  0  0  0  0  0  0  0  0  0  0  0
  145.4928  133.9522  150.1862 H   0  0  0  0  0  0  0  0  0  0  0  0
  143.5424  131.8075  151.1681 H   0  0  0  0  0  0  0  0  0  0  0  0
  143.1166  133.2069  150.1882 H   0  0  0  0  0  0  0  0  0  0  0  0
  143.6973  133.4333  151.8297 H   0  0  0  0  0  0  0  0  0  0  0  0
  145.1711  131.0884  149.1958 H   0  0  0  0  0  0  0  0  0  0  0  0
  146.3974  132.2345  148.6600 H   0  0  0  0  0  0  0  0  0  0  0  0
  144.6997  132.5454  148.3254 H   0  0  0  0  0  0  0  0  0  0  0  0
  144.7087  134.0946  152.7612 H   0  0  0  0  0  0  0  0  0  0  0  0
  145.2160  132.8419  153.8819 H   0  0  0  0  0  0  0  0  0  0  0  0
  146.2257  135.7482  153.8352 H   0  0  0  0  0  0  0  0  0  0  0  0
  145.1801  135.0292  155.0451 H   0  0  0  0  0  0  0  0  0  0  0  0
  146.9143  134.2180  151.9455 H   0  0  0  0  0  0  0  0  0  0  0  0
  1  2  1  0  0  0  0
  1 22  1  0  0  0  0
  1 23  1  0  0  0  0
  1 24  1  0  0  0  0
  2 21  1  0  0  0  0
  2  3  2  0  0  0  0
  3  4  1  0  0  0  0
  3 25  1  0  0  0  0
  4  5  1  0  0  0  0
  4 20  2  0  0  0  0
  5  6  1  0  0  0  0
  6  7  2  0  0  0  0
  6  8  1  0  0  0  0
  8  9  1  0  0  0  0
  8 26  1  0  0  0  0
  9 10  1  0  0  0  0
  9 27  1  0  0  0  0
  9 28  1  0  0  0  0
 10 19  1  0  0  0  0
 10 11  1  0  0  0  0
 10 29  1  0  0  0  0
 11 12  1  0  0  0  0
 11 30  1  0  0  0  0
 11 31  1  0  0  0  0
 12 13  1  0  0  0  0
 12 17  1  0  0  0  0
 12 45  1  0  0  0  0
 13 14  1  0  0  0  0
 13 32  1  0  0  0  0
 13 33  1  0  0  0  0
 14 15  1  0  0  0  0
 14 16  1  0  0  0  0
 14 34  1  0  0  0  0
 15 35  1  0  0  0  0
 15 36  1  0  0  0  0
 15 37  1  0  0  0  0
 16 38  1  0  0  0  0
 16 39  1  0  0  0  0
 16 40  1  0  0  0  0
 17 18  1  0  0  0  0
 17 41  1  0  0  0  0
 17 42  1  0  0  0  0
 18 19  1  0  0  0  0
 18 43  1  0  0  0  0
 18 44  1  0  0  0  0
 20 21  1  0  0  0  0
M  CHG  1   5  -1
M  CHG  1  12   1
M  END
> <s_m_source_file>
AV-unprocessed.smi

> <i_m_source_file_index>
1254

> <i_lp_mmshare_version>
43012

> <i_f3d_flags>
0

> <s_epik_input>
W0NIM11jMVtjSF1jKG5vMSlbTkhdQyg9TylbTkhdW0NIMl1bQ0BASF0yW0NIMl1OKFtDSDJdW0NIMl1PMilbQ0gyXVtDSF0oW0NIM10pW0NIM10=

> <s_epik_cmdline>
J2VwaWtfcHl0aG9uJywgJy1waCcsICc3LjAnLCAnLXRuJywgJzgnLCAnLW1hJywgJzIwMCcsICctbWV0YWxfYmluZGluZycsICctaW1hZScsICc8aW5maWxlLm1hZT4nLCAnLW9tYWUnLCAnPG91dGZpbGUubWFlPic=

> <r_epik_Ionization_Penalty>
6.33139

> <r_epik_Ionization_Penalty_Charging>
6.33128

> <r_epik_Ionization_Penalty_Neutral>
0.000104968

> <r_epik_State_Penalty>
6.32522

> <r_epik_Charging_Adjusted_Penalty>
12.6565

> <i_epik_Tot_Q>
0

> <i_epik_Tot_abs_Q>
2

> <r_epik_Metal_State_Penalty>
2.26285

> <b_epik_Metal_Only>
1

> <s_lp_Force_Field>
OPLS_2005

> <r_lp_Energy>
6.3285

> <b_lp_Chiralities_Consistent>
1

> <s_lp_Variant>
AV-unprocessed.smi:1254-10

> <Gold.Version>
5.8.1

> <Gold.Id.Protein>
6NUR|6NUR_protein|mol2

> <Gold.PLP.Fitness>
39.1071

> <Gold.PLP.PLP>
-32.8051

> <Gold.PLP.part.hbond>
-3.0000

> <Gold.PLP.part.metal>
0.0000

> <Gold.PLP.part.buried>
-5.8746

> <Gold.PLP.part.nonpolar>
-24.9505

> <Gold.PLP.part.repulsive>
0.2102

> <Gold.PLP.ligand.clash>
0.0000

> <Gold.PLP.ligand.torsion>
1.7697

> <Gold.PLP.Chemscore.Hbond>
3.2246

> <Gold.PLP.Chemscore.CHOScore>
0.0000

> <Gold.PLP.Chemscore.Metal>
0.0000

> <Gold.Chemscore.Hbonds>
donor molecule, donor type, donor heavy atom, donor atom, acceptor molecule, acceptor atom, score
      P1  H  6896  6907       L1     7  0.37
      P1  H  7989  7998       L1    21  1.00
      P1  H 10752 10764       L1     5  2.00

> <Gold.PLP.Chemscore.Internal.Correction>
0.1676

> <Gold.Rescore>
     Score         DG    S(hbond)    S(metal)    S(lipo)     H(rot)  DE(clash)    DE(int)     intcor
     15.04     -16.91       2.07        0.00      75.74       1.69       0.03       1.84       ----

> <Gold.Chemscore.Fitness>
15.0392

> <Gold.Chemscore.DG>
-16.9111

> <Gold.Chemscore.ZeroCoef>
-5.4800

> <Gold.Chemscore.Hbond>
2.0667

> <Gold.Chemscore.Metal>
0.0000

> <Gold.Chemscore.Lipo>
75.7378

> <Gold.Chemscore.Internal_Hbond>
0.0000

> <Gold.Chemscore.DEClash>
0.0329

> <Gold.Chemscore.DEInternal>
1.8391

> <Gold.Chemscore.Rot>
1.6926

> <Gold.Chemscore.Internal.Correction>
   9.000000E+99

> <Gold.Chemscore.Hbonds>
donor molecule, donor type, donor heavy atom, donor atom, acceptor molecule, acceptor atom, score
      P1  H  6896  6907       L1     7  0.36
      P1  H  7989  7998       L1    21  0.24
      P1  H 10752 10764       L1     5  0.46

> <Gold.Chemscore.Hbond.Weighted>
-6.9028

> <Gold.Chemscore.Metal.Weighted>
-0.0000

> <Gold.Chemscore.Lipo.Weighted>
-8.8613

> <Gold.Chemscore.Internal_Hbond.Weighted>
0.0000

> <Gold.Chemscore.DEClash.Weighted>
0.0329

> <Gold.Chemscore.DEInternal.Weighted>
1.8391

> <Gold.Chemscore.Rot.Weighted>
4.3330

> <Gold.Chemscore.Internal.Correction.Weighted>
   9.000000E+99

> <Gold.Protein.RotatedTorsions>
[ 6907 6896 6895 6894 ] final -105.56 input  -60.11 | X-H torsion
[ 7974 7965 7964 7962 ] final  -27.97 input  175.53 | X-H torsion
[ 8008 7997 7996 7995 ] final   68.70 input   59.86 | X-H torsion
[ 10167 10162 10161 10158 ] final    0.56 input  -65.29 | X-H torsion
[ 10718 10713 10712 10709 ] final -147.63 input   66.30 | X-H torsion
[ 10763 10752 10751 10750 ] final  -34.31 input  -60.55 | X-H torsion
[ 11005 11000 10999 10996 ] final  162.38 input  -57.11 | X-H torsion

> <Gold.Protein.ActiveResidues>
 VAL166  LYS551  ARG553  GLY616  TRP617  ASP618  TYR619  PRO620  LYS621  CYS622 
 ASP623  PHE694  ASN695  SER759  ASP760  ASP761  ALA762  ILE779  LEU786  VAL792 
 PHE793  MET794  SER795  GLU796  ALA797  LYS798  CYS799  TRP800  GLU811  SER814 

> <Gold.Protein.RotatedAtoms>
  150.7343  134.0108  159.3668 H   0  0  0  0  0  0  0  0  0  0  0  0  # atno 6907 bound_to 6896
  151.8067  135.0691  160.0417 H   0  0  0  0  0  0  0  0  0  0  0  0  # atno 6908 bound_to 6896
  152.3102  133.5708  159.5712 H   0  0  0  0  0  0  0  0  0  0  0  0  # atno 6909 bound_to 6896
  146.1321  140.5222  142.8689 H   0  0  0  0  0  0  0  0  0  0  0  0  # atno 7974 bound_to 7965
  155.7123  140.3494  155.4979 H   0  0  0  0  0  0  0  0  0  0  0  0  # atno 8008 bound_to 7997
  155.9344  140.1090  157.1128 H   0  0  0  0  0  0  0  0  0  0  0  0  # atno 8009 bound_to 7997
  154.4091  140.1225  156.4832 H   0  0  0  0  0  0  0  0  0  0  0  0  # atno 8010 bound_to 7997
  140.6723  143.7014  150.7948 H   0  0  0  0  0  0  0  0  0  0  0  0  # atno 10167 bound_to 10162
  156.4100  130.7977  151.2193 H   0  0  0  0  0  0  0  0  0  0  0  0  # atno 10718 bound_to 10713
  153.8446  135.6854  153.4799 H   0  0  0  0  0  0  0  0  0  0  0  0  # atno 10763 bound_to 10752
  153.1433  135.4648  154.9527 H   0  0  0  0  0  0  0  0  0  0  0  0  # atno 10764 bound_to 10752
  154.7830  135.3275  154.7896 H   0  0  0  0  0  0  0  0  0  0  0  0  # atno 10765 bound_to 10752
  140.2252  134.8166  157.3261 H   0  0  0  0  0  0  0  0  0  0  0  0  # atno 11005 bound_to 11000
  144.7701  140.5618  143.6676 LP  0  0  0  0  0  0  0  0  0  0  0  0  # atno 17320 bound_to 7965
  145.5238  139.1476  143.3537 LP  0  0  0  0  0  0  0  0  0  0  0  0  # atno 17321 bound_to 7965
  140.0702  143.5069  152.2584 LP  0  0  0  0  0  0  0  0  0  0  0  0  # atno 17342 bound_to 10162
  139.5997  144.7578  151.3201 LP  0  0  0  0  0  0  0  0  0  0  0  0  # atno 17343 bound_to 10162
  157.7506  131.0260  150.3945 LP  0  0  0  0  0  0  0  0  0  0  0  0  # atno 17370 bound_to 10713
  156.4241  130.3959  149.6804 LP  0  0  0  0  0  0  0  0  0  0  0  0  # atno 17371 bound_to 10713
  140.1808  134.4492  155.7773 LP  0  0  0  0  0  0  0  0  0  0  0  0  # atno 17394 bound_to 11000
  141.2221  133.6983  156.7865 LP  0  0  0  0  0  0  0  0  0  0  0  0  # atno 17395 bound_to 11000

$$$$
