AV-unprocessed.smi:2553|AV-procd|sdf|10017|dock5
  -GOLD-   2272014 63D 1   1.00000     0.00000
 Structure written by MMmdl.
 29 30  0  0  0  0  0  0  0  0  1 V2000
  146.6184  138.1759  153.3626 O   0  0  0  0  0  0  0  0  0  0  0  0
  147.4893  138.9062  153.8314 C   0  0  0  0  0  0  0  0  0  0  0  0
  148.8176  138.7582  153.4202 N   0  0  0  0  0  0  0  0  0  0  0  0
  149.8972  139.5182  153.8714 C   0  0  0  0  0  0  0  0  0  0  0  0
  151.0304  139.2860  153.4502 O   0  0  0  0  0  0  0  0  0  0  0  0
  149.6118  140.5319  154.8144 N   0  0  0  0  0  0  0  0  0  0  0  0
  150.7119  141.3122  155.3258 C   0  0  0  0  0  0  0  0  0  0  0  0
  151.3695  140.6708  156.5575 C   0  0  0  0  0  0  0  0  0  0  0  0
  152.2971  141.6015  157.0985 O   0  0  0  0  0  0  0  0  0  0  0  0
  151.8434  142.5472  157.9921 C   0  0  0  0  0  0  0  0  0  0  0  0
  150.5105  143.0299  158.0243 C   0  0  0  0  0  0  0  0  0  0  0  0
  150.1248  143.9958  158.9739 C   0  0  0  0  0  0  0  0  0  0  0  0
  151.0613  144.4895  159.9005 C   0  0  0  0  0  0  0  0  0  0  0  0
  150.6878  145.4164  160.8141 F   0  0  0  0  0  0  0  0  0  0  0  0
  152.3864  144.0179  159.8755 C   0  0  0  0  0  0  0  0  0  0  0  0
  152.7752  143.0528  158.9259 C   0  0  0  0  0  0  0  0  0  0  0  0
  154.4091  142.4910  158.9108 Cl  0  0  0  0  0  0  0  0  0  0  0  0
  148.3106  140.7069  155.2597 C   0  0  0  0  0  0  0  0  0  0  0  0
  147.2691  139.9588  154.8225 C   0  0  0  0  0  0  0  0  0  0  0  0
  145.6766  140.2312  155.4334 Cl  0  0  0  0  0  0  0  0  0  0  0  0
  149.0131  138.0355  152.7427 H   0  0  0  0  0  0  0  0  0  0  0  0
  151.4198  141.4695  154.5094 H   0  0  0  0  0  0  0  0  0  0  0  0
  150.3048  142.2950  155.5681 H   0  0  0  0  0  0  0  0  0  0  0  0
  150.6131  140.4009  157.2961 H   0  0  0  0  0  0  0  0  0  0  0  0
  151.8894  139.7595  156.2587 H   0  0  0  0  0  0  0  0  0  0  0  0
  149.7634  142.6739  157.3314 H   0  0  0  0  0  0  0  0  0  0  0  0
  149.1073  144.3576  158.9917 H   0  0  0  0  0  0  0  0  0  0  0  0
  153.1057  144.3977  160.5861 H   0  0  0  0  0  0  0  0  0  0  0  0
  148.1146  141.4715  155.9984 H   0  0  0  0  0  0  0  0  0  0  0  0
  1  2  2  0  0  0  0
  2 19  1  0  0  0  0
  2  3  1  0  0  0  0
  3 21  1  0  0  0  0
  3  4  1  0  0  0  0
  4  5  2  0  0  0  0
  4  6  1  0  0  0  0
  6  7  1  0  0  0  0
  6 18  1  0  0  0  0
  7  8  1  0  0  0  0
  7 22  1  0  0  0  0
  7 23  1  0  0  0  0
  8  9  1  0  0  0  0
  8 24  1  0  0  0  0
  8 25  1  0  0  0  0
  9 10  1  0  0  0  0
 10 16  1  0  0  0  0
 10 11  2  0  0  0  0
 11 12  1  0  0  0  0
 11 26  1  0  0  0  0
 12 13  2  0  0  0  0
 12 27  1  0  0  0  0
 13 14  1  0  0  0  0
 13 15  1  0  0  0  0
 15 16  2  0  0  0  0
 15 28  1  0  0  0  0
 16 17  1  0  0  0  0
 18 19  2  0  0  0  0
 18 29  1  0  0  0  0
 19 20  1  0  0  0  0
M  END
> <s_m_source_file>
AV-unprocessed.smi

> <i_m_source_file_index>
2553

> <i_lp_mmshare_version>
43012

> <i_f3d_flags>
0

> <s_epik_input>
Tz1jMVtuSF1jKD1PKW4oW2NIXWMxQ2wpW0NIMl1bQ0gyXU9jMltjSF1bY0hdYyhGKVtjSF1jMkNs

> <s_epik_cmdline>
J2VwaWtfcHl0aG9uJywgJy1waCcsICc3LjAnLCAnLXRuJywgJzgnLCAnLW1hJywgJzIwMCcsICctbWV0YWxfYmluZGluZycsICctaW1hZScsICc8aW5maWxlLm1hZT4nLCAnLW9tYWUnLCAnPG91dGZpbGUubWFlPic=

> <r_lp_tautomer_probability>
0.999537

> <r_epik_Ionization_Penalty>
0.0476949

> <r_epik_Ionization_Penalty_Charging>
0.0476949

> <r_epik_Ionization_Penalty_Neutral>
0

> <r_epik_State_Penalty>
0.0406325

> <r_epik_Charging_Adjusted_Penalty>
0.0883274

> <i_epik_Tot_Q>
0

> <i_epik_Tot_abs_Q>
0

> <r_epik_Metal_State_Penalty>
2.53375

> <b_epik_Metal_Only>
0

> <s_lp_Force_Field>
OPLS_2005

> <r_lp_Energy>
13.2328

> <b_lp_Chiralities_Consistent>
1

> <s_lp_Variant>
AV-unprocessed.smi:2553-1

> <Gold.Version>
5.8.1

> <Gold.Id.Protein>
6NUR|6NUR_protein|mol2

> <Gold.PLP.Fitness>
53.8397

> <Gold.PLP.PLP>
-49.9301

> <Gold.PLP.part.hbond>
-1.9593

> <Gold.PLP.part.metal>
0.0000

> <Gold.PLP.part.buried>
-2.2910

> <Gold.PLP.part.nonpolar>
-45.2937

> <Gold.PLP.part.repulsive>
0.5374

> <Gold.PLP.ligand.clash>
0.0000

> <Gold.PLP.ligand.torsion>
0.9030

> <Gold.PLP.Chemscore.Hbond>
0.9425

> <Gold.PLP.Chemscore.CHOScore>
0.9549

> <Gold.PLP.Chemscore.Metal>
0.0000

> <Gold.Chemscore.Hbonds>
donor molecule, donor type, donor heavy atom, donor atom, acceptor molecule, acceptor atom, score
      L1  H     3    21       P1  7948  1.00
      P1  H  7989  7998       L1     5  0.76

> <Gold.PLP.Chemscore.Internal.Correction>
0.0233

> <Gold.Rescore>
     Score         DG    S(hbond)    S(metal)    S(lipo)     H(rot)  DE(clash)    DE(int)     intcor
     14.45     -15.39       0.94        0.00     100.10       1.94       0.51       0.43       ----

> <Gold.Chemscore.Fitness>
14.4533

> <Gold.Chemscore.DG>
-15.3904

> <Gold.Chemscore.ZeroCoef>
-5.4800

> <Gold.Chemscore.Hbond>
0.9443

> <Gold.Chemscore.Metal>
0.0000

> <Gold.Chemscore.Lipo>
100.0959

> <Gold.Chemscore.Internal_Hbond>
0.0000

> <Gold.Chemscore.DEClash>
0.5087

> <Gold.Chemscore.DEInternal>
0.4284

> <Gold.Chemscore.Rot>
1.9355

> <Gold.Chemscore.Internal.Correction>
   9.000000E+99

> <Gold.Chemscore.Hbonds>
donor molecule, donor type, donor heavy atom, donor atom, acceptor molecule, acceptor atom, score
      L1  H     3    21       P1  7948  0.97
      P1  H  7989  7998       L1     5  0.17

> <Gold.Chemscore.Hbond.Weighted>
-3.1540

> <Gold.Chemscore.Metal.Weighted>
-0.0000

> <Gold.Chemscore.Lipo.Weighted>
-11.7112

> <Gold.Chemscore.Internal_Hbond.Weighted>
0.0000

> <Gold.Chemscore.DEClash.Weighted>
0.5087

> <Gold.Chemscore.DEInternal.Weighted>
0.4284

> <Gold.Chemscore.Rot.Weighted>
4.9548

> <Gold.Chemscore.Internal.Correction.Weighted>
   9.000000E+99

> <Gold.Protein.RotatedTorsions>
[ 6907 6896 6895 6894 ] final  -51.11 input  -60.11 | X-H torsion
[ 7974 7965 7964 7962 ] final -171.14 input  175.53 | X-H torsion
[ 8008 7997 7996 7995 ] final  172.73 input   59.86 | X-H torsion
[ 10167 10162 10161 10158 ] final  -36.19 input  -65.29 | X-H torsion
[ 10718 10713 10712 10709 ] final    2.30 input   66.30 | X-H torsion
[ 10763 10752 10751 10750 ] final   -9.61 input  -60.55 | X-H torsion
[ 11005 11000 10999 10996 ] final -123.13 input  -57.11 | X-H torsion

> <Gold.Protein.ActiveResidues>
 VAL166  LYS551  ARG553  GLY616  TRP617  ASP618  TYR619  PRO620  LYS621  CYS622 
 ASP623  PHE694  ASN695  SER759  ASP760  ASP761  ALA762  ILE779  LEU786  VAL792 
 PHE793  MET794  SER795  GLU796  ALA797  LYS798  CYS799  TRP800  GLU811  SER814 

> <Gold.Protein.RotatedAtoms>
  150.8643  134.8002  159.7106 H   0  0  0  0  0  0  0  0  0  0  0  0  # atno 6907 bound_to 6896
  152.4669  134.5050  159.9746 H   0  0  0  0  0  0  0  0  0  0  0  0  # atno 6908 bound_to 6896
  151.5148  133.3439  159.2927 H   0  0  0  0  0  0  0  0  0  0  0  0  # atno 6909 bound_to 6896
  144.7161  140.1966  143.6343 H   0  0  0  0  0  0  0  0  0  0  0  0  # atno 7974 bound_to 7965
  156.1146  140.1478  156.9291 H   0  0  0  0  0  0  0  0  0  0  0  0  # atno 8008 bound_to 7997
  154.4791  140.0885  156.7377 H   0  0  0  0  0  0  0  0  0  0  0  0  # atno 8009 bound_to 7997
  155.4536  140.3435  155.4306 H   0  0  0  0  0  0  0  0  0  0  0  0  # atno 8010 bound_to 7997
  140.7148  143.3426  151.2325 H   0  0  0  0  0  0  0  0  0  0  0  0  # atno 10167 bound_to 10162
  156.8609  130.5586  149.5663 H   0  0  0  0  0  0  0  0  0  0  0  0  # atno 10718 bound_to 10713
  153.4573  135.7015  153.6072 H   0  0  0  0  0  0  0  0  0  0  0  0  # atno 10763 bound_to 10752
  153.4381  135.3786  155.2211 H   0  0  0  0  0  0  0  0  0  0  0  0  # atno 10764 bound_to 10752
  154.8728  135.3967  154.3994 H   0  0  0  0  0  0  0  0  0  0  0  0  # atno 10765 bound_to 10752
  140.9942  134.0495  157.3617 H   0  0  0  0  0  0  0  0  0  0  0  0  # atno 11005 bound_to 11000
  145.8718  139.2276  143.1656 LP  0  0  0  0  0  0  0  0  0  0  0  0  # atno 17320 bound_to 7965
  146.0077  140.8463  142.9986 LP  0  0  0  0  0  0  0  0  0  0  0  0  # atno 17321 bound_to 7965
  139.6937  143.9649  152.2872 LP  0  0  0  0  0  0  0  0  0  0  0  0  # atno 17342 bound_to 10162
  139.9319  144.6736  150.8354 LP  0  0  0  0  0  0  0  0  0  0  0  0  # atno 17343 bound_to 10162
  156.0777  130.5795  150.9505 LP  0  0  0  0  0  0  0  0  0  0  0  0  # atno 17370 bound_to 10713
  157.6250  131.0926  150.8550 LP  0  0  0  0  0  0  0  0  0  0  0  0  # atno 17371 bound_to 10713
  139.9007  135.0163  156.7253 LP  0  0  0  0  0  0  0  0  0  0  0  0  # atno 17394 bound_to 11000
  140.6992  133.9322  155.8013 LP  0  0  0  0  0  0  0  0  0  0  0  0  # atno 17395 bound_to 11000

$$$$
