AV-unprocessed.smi:157|AV-procd|sdf|1298|dock9
  -GOLD-   2262018583D 1   1.00000     0.00000
 Structure written by MMmdl.
 35 37  0  0  0  0  0  0  0  0  1 V2000
  151.4064  145.3788  160.9821 O   0  0  0  0  0  0  0  0  0  0  0  0
  151.5738  144.7146  159.7471 C   0  0  0  0  0  0  0  0  0  0  0  0
  152.7420  143.7088  159.8180 C   0  0  2  0  0  0  0  0  0  0  0  0
  152.8464  143.0857  158.5364 O   0  0  0  0  0  0  0  0  0  0  0  0
  152.4382  141.7497  158.5982 C   0  0  2  0  0  0  0  0  0  0  0  0
  151.4434  141.4941  157.5089 N   0  0  0  0  0  0  0  0  0  0  0  0
  150.3639  142.2349  157.2236 C   0  0  0  0  0  0  0  0  0  0  0  0
  149.6366  141.7814  156.2169 N   0  0  0  0  0  0  0  0  0  0  0  0
  150.3104  140.6324  155.8069 C   0  0  0  0  0  0  0  0  0  0  0  0
  151.4347  140.4361  156.5959 C   0  0  0  0  0  0  0  0  0  0  0  0
  152.4438  139.4954  156.6751 N   0  0  0  0  0  0  0  0  0  0  0  0
  152.6448  138.7312  155.6481 C   0  0  0  0  0  0  0  0  0  0  0  0
  151.9369  138.6230  154.4596 N   0  0  0  0  0  0  0  0  0  0  0  0
  150.4905  138.4971  154.4015 C   0  0  0  0  0  0  0  0  0  0  0  0
  149.7492  139.8096  154.6833 C   0  0  2  0  0  0  0  0  0  0  0  0
  149.7765  140.6190  153.5255 O   0  0  0  0  0  0  0  0  0  0  0  0
  151.7915  141.5370  159.9639 C   0  0  0  0  0  0  0  0  0  0  0  0
  152.5641  142.5347  160.7967 C   0  0  2  0  0  0  0  0  0  0  0  0
  151.8823  142.8561  161.9922 O   0  0  0  0  0  0  0  0  0  0  0  0
  153.6709  144.2437  160.0208 H   0  0  0  0  0  0  0  0  0  0  0  0
  153.2847  141.0912  158.4001 H   0  0  0  0  0  0  0  0  0  0  0  0
  148.7020  139.5784  154.8815 H   0  0  0  0  0  0  0  0  0  0  0  0
  153.5414  142.1186  161.0459 H   0  0  0  0  0  0  0  0  0  0  0  0
  151.0360  144.7701  161.6031 H   0  0  0  0  0  0  0  0  0  0  0  0
  150.6425  144.2314  159.4517 H   0  0  0  0  0  0  0  0  0  0  0  0
  151.7880  145.4761  158.9968 H   0  0  0  0  0  0  0  0  0  0  0  0
  150.0988  143.1278  157.7698 H   0  0  0  0  0  0  0  0  0  0  0  0
  153.4880  138.0395  155.6749 H   0  0  0  0  0  0  0  0  0  0  0  0
  152.3755  138.1559  153.6792 H   0  0  0  0  0  0  0  0  0  0  0  0
  150.1925  138.0819  153.4383 H   0  0  0  0  0  0  0  0  0  0  0  0
  150.1998  137.7612  155.1526 H   0  0  0  0  0  0  0  0  0  0  0  0
  149.6334  140.0633  152.7743 H   0  0  0  0  0  0  0  0  0  0  0  0
  150.7321  141.7964  159.9184 H   0  0  0  0  0  0  0  0  0  0  0  0
  151.8949  140.5035  160.2960 H   0  0  0  0  0  0  0  0  0  0  0  0
  152.5105  142.8821  162.6978 H   0  0  0  0  0  0  0  0  0  0  0  0
  1  2  1  0  0  0  0
  1 24  1  0  0  0  0
  2  3  1  0  0  0  0
  2 25  1  0  0  0  0
  2 26  1  0  0  0  0
  3 20  1  0  0  0  0
  3 18  1  0  0  0  0
  3  4  1  0  0  0  0
  4  5  1  0  0  0  0
  5 21  1  0  0  0  0
  5  6  1  0  0  0  0
  5 17  1  0  0  0  0
  6 10  1  0  0  0  0
  6  7  1  0  0  0  0
  7  8  2  0  0  0  0
  7 27  1  0  0  0  0
  8  9  1  0  0  0  0
  9 15  1  0  0  0  0
  9 10  2  0  0  0  0
 10 11  1  0  0  0  0
 11 12  2  0  0  0  0
 12 13  1  0  0  0  0
 12 28  1  0  0  0  0
 13 14  1  0  0  0  0
 13 29  1  0  0  0  0
 14 15  1  0  0  0  0
 14 30  1  0  0  0  0
 14 31  1  0  0  0  0
 15 22  1  0  0  0  0
 15 16  1  0  0  0  0
 16 32  1  0  0  0  0
 17 18  1  0  0  0  0
 17 33  1  0  0  0  0
 17 34  1  0  0  0  0
 18 23  1  0  0  0  0
 18 19  1  0  0  0  0
 19 35  1  0  0  0  0
M  END
> <s_m_source_file>
AV-unprocessed.smi

> <i_m_source_file_index>
157

> <i_lp_mmshare_version>
43012

> <i_f3d_flags>
0

> <s_epik_input>
W09IXVtDSDJdW0NASF0xT1tDQEhdKFtDSDJdW0NAQEhdMVtPSF0pbihbY0hdbjIpYyhjMjMpTj1bQ0hdW05IXVtDSDJdW0NASF0zW09IXQ==

> <s_epik_cmdline>
J2VwaWtfcHl0aG9uJywgJy1waCcsICc3LjAnLCAnLXRuJywgJzgnLCAnLW1hJywgJzIwMCcsICctbWV0YWxfYmluZGluZycsICctaW1hZScsICc8aW5maWxlLm1hZT4nLCAnLW9tYWUnLCAnPG91dGZpbGUubWFlPic=

> <r_lp_tautomer_probability>
1

> <r_epik_Ionization_Penalty>
0.0357149

> <r_epik_Ionization_Penalty_Charging>
0.0355056

> <r_epik_Ionization_Penalty_Neutral>
0.000209255

> <r_epik_State_Penalty>
0.0296046

> <r_epik_Charging_Adjusted_Penalty>
0.0651102

> <i_epik_Tot_Q>
0

> <i_epik_Tot_abs_Q>
0

> <r_epik_Metal_State_Penalty>
3.03559e-05

> <b_epik_Metal_Only>
0

> <s_epik_Chemistry_Notes>
This compound has an imine and may undergo hydrolysis. This compound contains an acetal/aminal-like group ( X-CH(R)-Y where X, Y are N, S, or O) that may be acid/base labile, releasing an aldehyde.

> <s_lp_Force_Field>
OPLS_2005

> <r_lp_Energy>
46.5194

> <b_lp_Chiralities_Consistent>
1

> <s_lp_Variant>
AV-unprocessed.smi:157-8

> <Gold.Version>
5.8.1

> <Gold.Id.Protein>
6NUR|6NUR_protein|mol2

> <Gold.PLP.Fitness>
47.0697

> <Gold.PLP.PLP>
-38.0474

> <Gold.PLP.part.hbond>
-6.3500

> <Gold.PLP.part.metal>
0.0000

> <Gold.PLP.part.buried>
-2.2482

> <Gold.PLP.part.nonpolar>
-29.6844

> <Gold.PLP.part.repulsive>
0.7462

> <Gold.PLP.ligand.clash>
0.0000

> <Gold.PLP.ligand.torsion>
0.1903

> <Gold.PLP.Chemscore.Hbond>
3.0898

> <Gold.PLP.Chemscore.CHOScore>
0.0407

> <Gold.PLP.Chemscore.Metal>
0.0000

> <Gold.Chemscore.Hbonds>
donor molecule, donor type, donor heavy atom, donor atom, acceptor molecule, acceptor atom, score
      L1  H    16    32       P1  7957  0.86
      P1  H  6933  6945       L1    19  0.61
      P1  H  7989  7998       L1    16  0.39
      P1  H  7997  8008       L1    11  0.56
      P1  H  8011  8017       L1    16  0.45
      L1  C     7    27       P1  8028  0.04

> <Gold.PLP.Chemscore.Internal.Correction>
0.0117

> <Gold.Rescore>
     Score         DG    S(hbond)    S(metal)    S(lipo)     H(rot)  DE(clash)    DE(int)     intcor
      7.43      -9.77       1.85        0.00      63.34       3.64       2.11       0.23       ----

> <Gold.Chemscore.Fitness>
7.4333

> <Gold.Chemscore.DG>
-9.7712

> <Gold.Chemscore.ZeroCoef>
-5.4800

> <Gold.Chemscore.Hbond>
1.8532

> <Gold.Chemscore.Metal>
0.0000

> <Gold.Chemscore.Lipo>
63.3368

> <Gold.Chemscore.Internal_Hbond>
0.0000

> <Gold.Chemscore.DEClash>
2.1086

> <Gold.Chemscore.DEInternal>
0.2293

> <Gold.Chemscore.Rot>
3.6362

> <Gold.Chemscore.Internal.Correction>
   9.000000E+99

> <Gold.Chemscore.Hbonds>
donor molecule, donor type, donor heavy atom, donor atom, acceptor molecule, acceptor atom, score
      L1  H    16    32       P1  7957  0.84
      P1  H  6933  6945       L1    19  0.49
      P1  H  7989  7998       L1    16  0.03
      P1  H  7997  8008       L1    11  0.04
      P1  H  8011  8017       L1    16  0.04

> <Gold.Chemscore.Hbond.Weighted>
-6.1895

> <Gold.Chemscore.Metal.Weighted>
-0.0000

> <Gold.Chemscore.Lipo.Weighted>
-7.4104

> <Gold.Chemscore.Internal_Hbond.Weighted>
0.0000

> <Gold.Chemscore.DEClash.Weighted>
2.1086

> <Gold.Chemscore.DEInternal.Weighted>
0.2293

> <Gold.Chemscore.Rot.Weighted>
9.3087

> <Gold.Chemscore.Internal.Correction.Weighted>
   9.000000E+99

> <Gold.Protein.RotatedTorsions>
[ 6907 6896 6895 6894 ] final  -49.14 input  -60.11 | X-H torsion
[ 7974 7965 7964 7962 ] final -106.95 input  175.53 | X-H torsion
[ 8008 7997 7996 7995 ] final  -72.47 input   59.86 | X-H torsion
[ 10167 10162 10161 10158 ] final  -52.37 input  -65.29 | X-H torsion
[ 10718 10713 10712 10709 ] final  108.30 input   66.30 | X-H torsion
[ 10763 10752 10751 10750 ] final  -15.66 input  -60.55 | X-H torsion
[ 11005 11000 10999 10996 ] final  159.12 input  -57.11 | X-H torsion

> <Gold.Protein.ActiveResidues>
 VAL166  LYS551  ARG553  GLY616  TRP617  ASP618  TYR619  PRO620  LYS621  CYS622 
 ASP623  PHE694  ASN695  SER759  ASP760  ASP761  ALA762  ILE779  LEU786  VAL792 
 PHE793  MET794  SER795  GLU796  ALA797  LYS798  CYS799  TRP800  GLU811  SER814 

> <Gold.Protein.RotatedAtoms>
  150.8834  134.8229  159.7241 H   0  0  0  0  0  0  0  0  0  0  0  0  # atno 6907 bound_to 6896
  152.4792  134.4760  159.9660 H   0  0  0  0  0  0  0  0  0  0  0  0  # atno 6908 bound_to 6896
  151.4831  133.3503  159.2877 H   0  0  0  0  0  0  0  0  0  0  0  0  # atno 6909 bound_to 6896
  145.2114  140.9097  143.3312 H   0  0  0  0  0  0  0  0  0  0  0  0  # atno 7974 bound_to 7965
  154.5169  140.0796  156.8098 H   0  0  0  0  0  0  0  0  0  0  0  0  # atno 8008 bound_to 7997
  155.3661  140.3420  155.4224 H   0  0  0  0  0  0  0  0  0  0  0  0  # atno 8009 bound_to 7997
  156.1638  140.1597  156.8555 H   0  0  0  0  0  0  0  0  0  0  0  0  # atno 8010 bound_to 7997
  140.6541  143.2586  151.4638 H   0  0  0  0  0  0  0  0  0  0  0  0  # atno 10167 bound_to 10162
  157.6592  131.0891  150.6284 H   0  0  0  0  0  0  0  0  0  0  0  0  # atno 10718 bound_to 10713
  153.5466  135.7012  153.5611 H   0  0  0  0  0  0  0  0  0  0  0  0  # atno 10763 bound_to 10752
  153.3553  135.3984  155.1677 H   0  0  0  0  0  0  0  0  0  0  0  0  # atno 10764 bound_to 10752
  154.8667  135.3775  154.4975 H   0  0  0  0  0  0  0  0  0  0  0  0  # atno 10765 bound_to 10752
  140.1931  134.8393  157.2934 H   0  0  0  0  0  0  0  0  0  0  0  0  # atno 11005 bound_to 11000
  144.9852  139.3743  143.6242 LP  0  0  0  0  0  0  0  0  0  0  0  0  # atno 17320 bound_to 7965
  146.3397  139.9011  142.8794 LP  0  0  0  0  0  0  0  0  0  0  0  0  # atno 17321 bound_to 7965
  139.5760  144.1817  152.1904 LP  0  0  0  0  0  0  0  0  0  0  0  0  # atno 17342 bound_to 10162
  140.1128  144.5442  150.6913 LP  0  0  0  0  0  0  0  0  0  0  0  0  # atno 17343 bound_to 10162
  156.6588  130.4506  149.5694 LP  0  0  0  0  0  0  0  0  0  0  0  0  # atno 17370 bound_to 10713
  156.2082  130.6662  151.1241 LP  0  0  0  0  0  0  0  0  0  0  0  0  # atno 17371 bound_to 10713
  140.2138  134.4106  155.7599 LP  0  0  0  0  0  0  0  0  0  0  0  0  # atno 17394 bound_to 11000
  141.2226  133.7131  156.8380 LP  0  0  0  0  0  0  0  0  0  0  0  0  # atno 17395 bound_to 11000

$$$$
