AV-unprocessed.smi:466|AV-procd|sdf|2641|dock1
  -GOLD-   2262023 53D 1   1.00000     0.00000
 Structure written by MMmdl.
 43 45  0  0  0  0  0  0  0  0  1 V2000
  154.8701  140.3735  161.1186 C   0  0  0  0  0  0  0  0  0  0  0  0
  153.9100  140.6269  160.1034 O   0  0  0  0  0  0  0  0  0  0  0  0
  153.1309  141.7612  160.2073 C   0  0  0  0  0  0  0  0  0  0  0  0
  153.1698  142.6406  161.3193 C   0  0  0  0  0  0  0  0  0  0  0  0
  152.3441  143.7784  161.3597 C   0  0  0  0  0  0  0  0  0  0  0  0
  151.4723  144.0515  160.2924 C   0  0  0  0  0  0  0  0  0  0  0  0
  151.4259  143.1871  159.1838 C   0  0  0  0  0  0  0  0  0  0  0  0
  152.2531  142.0361  159.1327 C   0  0  0  0  0  0  0  0  0  0  0  0
  152.2589  141.1448  158.0794 O   0  0  0  0  0  0  0  0  0  0  0  0
  151.3172  141.3280  157.0321 C   0  0  0  0  0  0  0  0  0  0  0  0
  151.8734  140.6835  155.7572 C   0  0  0  0  0  0  0  0  0  0  0  0
  150.8735  139.8592  155.0968 N   0  0  0  0  0  0  0  0  0  0  0  0
  150.9219  138.5322  154.8130 C   0  0  0  0  0  0  0  0  0  0  0  0
  152.0927  137.6652  155.1762 C   0  0  0  0  0  0  0  0  0  0  0  0
  151.7068  136.4528  156.0383 C   0  0  0  0  0  0  0  0  0  0  0  0
  152.8329  135.6453  156.3096 O   0  0  0  0  0  0  0  0  0  0  0  0
  149.8522  138.0348  154.1901 N   0  0  0  0  0  0  0  0  0  0  0  0
  149.0368  139.1409  154.0531 C   0  0  0  0  0  0  0  0  0  0  0  0
  147.7557  139.2712  153.4703 C   0  0  0  0  0  0  0  0  0  0  0  0
  147.1088  140.5242  153.4414 C   0  0  0  0  0  0  0  0  0  0  0  0
  147.7323  141.6623  153.9928 C   0  0  0  0  0  0  0  0  0  0  0  0
  149.0078  141.5539  154.5794 C   0  0  0  0  0  0  0  0  0  0  0  0
  149.6482  140.3005  154.6076 C   0  0  0  0  0  0  0  0  0  0  0  0
  155.3899  139.4417  160.8963 H   0  0  0  0  0  0  0  0  0  0  0  0
  154.3981  140.2617  162.0956 H   0  0  0  0  0  0  0  0  0  0  0  0
  155.6190  141.1651  161.1660 H   0  0  0  0  0  0  0  0  0  0  0  0
  153.8262  142.4636  162.1575 H   0  0  0  0  0  0  0  0  0  0  0  0
  152.3800  144.4420  162.2112 H   0  0  0  0  0  0  0  0  0  0  0  0
  150.8377  144.9250  160.3230 H   0  0  0  0  0  0  0  0  0  0  0  0
  150.7448  143.4308  158.3829 H   0  0  0  0  0  0  0  0  0  0  0  0
  150.3672  140.8595  157.2951 H   0  0  0  0  0  0  0  0  0  0  0  0
  151.1400  142.3913  156.8639 H   0  0  0  0  0  0  0  0  0  0  0  0
  152.2385  141.4432  155.0669 H   0  0  0  0  0  0  0  0  0  0  0  0
  152.7327  140.0578  156.0006 H   0  0  0  0  0  0  0  0  0  0  0  0
  152.5330  137.3042  154.2460 H   0  0  0  0  0  0  0  0  0  0  0  0
  152.8755  138.2501  155.6577 H   0  0  0  0  0  0  0  0  0  0  0  0
  151.2395  136.7675  156.9719 H   0  0  0  0  0  0  0  0  0  0  0  0
  150.9792  135.8401  155.5056 H   0  0  0  0  0  0  0  0  0  0  0  0
  152.5370  134.8353  156.6963 H   0  0  0  0  0  0  0  0  0  0  0  0
  147.2708  138.4055  153.0439 H   0  0  0  0  0  0  0  0  0  0  0  0
  146.1300  140.6128  152.9934 H   0  0  0  0  0  0  0  0  0  0  0  0
  147.2312  142.6189  153.9656 H   0  0  0  0  0  0  0  0  0  0  0  0
  149.4881  142.4237  155.0022 H   0  0  0  0  0  0  0  0  0  0  0  0
  1  2  1  0  0  0  0
  1 24  1  0  0  0  0
  1 25  1  0  0  0  0
  1 26  1  0  0  0  0
  2  3  1  0  0  0  0
  3  8  1  0  0  0  0
  3  4  2  0  0  0  0
  4  5  1  0  0  0  0
  4 27  1  0  0  0  0
  5  6  2  0  0  0  0
  5 28  1  0  0  0  0
  6  7  1  0  0  0  0
  6 29  1  0  0  0  0
  7  8  2  0  0  0  0
  7 30  1  0  0  0  0
  8  9  1  0  0  0  0
  9 10  1  0  0  0  0
 10 11  1  0  0  0  0
 10 31  1  0  0  0  0
 10 32  1  0  0  0  0
 11 12  1  0  0  0  0
 11 33  1  0  0  0  0
 11 34  1  0  0  0  0
 12 23  1  0  0  0  0
 12 13  1  0  0  0  0
 13 14  1  0  0  0  0
 13 17  2  0  0  0  0
 14 15  1  0  0  0  0
 14 35  1  0  0  0  0
 14 36  1  0  0  0  0
 15 16  1  0  0  0  0
 15 37  1  0  0  0  0
 15 38  1  0  0  0  0
 16 39  1  0  0  0  0
 17 18  1  0  0  0  0
 18 23  2  0  0  0  0
 18 19  1  0  0  0  0
 19 20  2  0  0  0  0
 19 40  1  0  0  0  0
 20 21  1  0  0  0  0
 20 41  1  0  0  0  0
 21 22  2  0  0  0  0
 21 42  1  0  0  0  0
 22 23  1  0  0  0  0
 22 43  1  0  0  0  0
M  END
> <s_m_source_file>
AV-unprocessed.smi

> <i_m_source_file_index>
466

> <i_lp_mmshare_version>
43012

> <i_f3d_flags>
0

> <s_epik_input>
W0NIM11PYzFbY0hdW2NIXVtjSF1bY0hdYzFPW0NIMl1bQ0gyXW4oYyhuMilbQ0gyXVtDSDJdW09IXSljKGMyMylbY0hdW2NIXVtjSF1bY0hdMw==

> <s_epik_cmdline>
J2VwaWtfcHl0aG9uJywgJy1waCcsICc3LjAnLCAnLXRuJywgJzgnLCAnLW1hJywgJzIwMCcsICctbWV0YWxfYmluZGluZycsICctaW1hZScsICc8aW5maWxlLm1hZT4nLCAnLW9tYWUnLCAnPG91dGZpbGUubWFlPic=

> <r_lp_tautomer_probability>
1

> <r_epik_Ionization_Penalty>
0.20808

> <r_epik_Ionization_Penalty_Charging>
0

> <r_epik_Ionization_Penalty_Neutral>
0.20808

> <r_epik_State_Penalty>
0.198097

> <r_epik_Charging_Adjusted_Penalty>
0.198097

> <i_epik_Tot_Q>
0

> <i_epik_Tot_abs_Q>
0

> <r_epik_Metal_State_Penalty>
0.000235189

> <b_epik_Metal_Only>
0

> <s_lp_Force_Field>
OPLS_2005

> <r_lp_Energy>
20.5556

> <b_lp_Chiralities_Consistent>
1

> <s_lp_Variant>
AV-unprocessed.smi:466-1

> <Gold.Version>
5.8.1

> <Gold.Id.Protein>
6NUR|6NUR_protein|mol2

> <Gold.PLP.Fitness>
52.1388

> <Gold.PLP.PLP>
-49.8907

> <Gold.PLP.part.hbond>
-1.0000

> <Gold.PLP.part.metal>
0.0000

> <Gold.PLP.part.buried>
-4.3773

> <Gold.PLP.part.nonpolar>
-44.3283

> <Gold.PLP.part.repulsive>
0.4447

> <Gold.PLP.ligand.clash>
0.0000

> <Gold.PLP.ligand.torsion>
0.5324

> <Gold.PLP.Chemscore.Hbond>
1.0000

> <Gold.PLP.Chemscore.CHOScore>
0.0000

> <Gold.PLP.Chemscore.Metal>
0.0000

> <Gold.Chemscore.Hbonds>
donor molecule, donor type, donor heavy atom, donor atom, acceptor molecule, acceptor atom, score
      P1  H 10752 10764       L1    16  0.18

> <Gold.PLP.Chemscore.Internal.Correction>
0.3129

> <Gold.Rescore>
     Score         DG    S(hbond)    S(metal)    S(lipo)     H(rot)  DE(clash)    DE(int)     intcor
     17.44     -18.18       0.88        0.00     140.03       2.59       0.24       0.49       ----

> <Gold.Chemscore.Fitness>
17.4431

> <Gold.Chemscore.DG>
-18.1794

> <Gold.Chemscore.ZeroCoef>
-5.4800

> <Gold.Chemscore.Hbond>
0.8833

> <Gold.Chemscore.Metal>
0.0000

> <Gold.Chemscore.Lipo>
140.0320

> <Gold.Chemscore.Internal_Hbond>
0.0000

> <Gold.Chemscore.DEClash>
0.2433

> <Gold.Chemscore.DEInternal>
0.4930

> <Gold.Chemscore.Rot>
2.5916

> <Gold.Chemscore.Internal.Correction>
   9.000000E+99

> <Gold.Chemscore.Hbonds>
donor molecule, donor type, donor heavy atom, donor atom, acceptor molecule, acceptor atom, score
      P1  H 10752 10764       L1    16  0.10

> <Gold.Chemscore.Hbond.Weighted>
-2.9502

> <Gold.Chemscore.Metal.Weighted>
-0.0000

> <Gold.Chemscore.Lipo.Weighted>
-16.3837

> <Gold.Chemscore.Internal_Hbond.Weighted>
0.0000

> <Gold.Chemscore.DEClash.Weighted>
0.2433

> <Gold.Chemscore.DEInternal.Weighted>
0.4930

> <Gold.Chemscore.Rot.Weighted>
6.6346

> <Gold.Chemscore.Internal.Correction.Weighted>
   9.000000E+99

> <Gold.Protein.RotatedTorsions>
[ 6907 6896 6895 6894 ] final -165.20 input  -60.11 | X-H torsion
[ 7974 7965 7964 7962 ] final -165.18 input  175.53 | X-H torsion
[ 8008 7997 7996 7995 ] final   35.85 input   59.86 | X-H torsion
[ 10167 10162 10161 10158 ] final -126.84 input  -65.29 | X-H torsion
[ 10718 10713 10712 10709 ] final -141.39 input   66.30 | X-H torsion
[ 10763 10752 10751 10750 ] final   -8.56 input  -60.55 | X-H torsion
[ 11005 11000 10999 10996 ] final   72.88 input  -57.11 | X-H torsion

> <Gold.Protein.ActiveResidues>
 VAL166  LYS551  ARG553  GLY616  TRP617  ASP618  TYR619  PRO620  LYS621  CYS622 
 ASP623  PHE694  ASN695  SER759  ASP760  ASP761  ALA762  ILE779  LEU786  VAL792 
 PHE793  MET794  SER795  GLU796  ALA797  LYS798  CYS799  TRP800  GLU811  SER814 

> <Gold.Protein.RotatedAtoms>
  151.4238  133.3690  159.2759 H   0  0  0  0  0  0  0  0  0  0  0  0  # atno 6907 bound_to 6896
  150.9274  134.8692  159.7539 H   0  0  0  0  0  0  0  0  0  0  0  0  # atno 6908 bound_to 6896
  152.5011  134.4181  159.9523 H   0  0  0  0  0  0  0  0  0  0  0  0  # atno 6909 bound_to 6896
  144.7277  140.2852  143.6229 H   0  0  0  0  0  0  0  0  0  0  0  0  # atno 7974 bound_to 7965
  155.1778  140.3297  155.4380 H   0  0  0  0  0  0  0  0  0  0  0  0  # atno 8008 bound_to 7997
  156.2487  140.1932  156.6828 H   0  0  0  0  0  0  0  0  0  0  0  0  # atno 8009 bound_to 7997
  154.6292  140.0585  156.9697 H   0  0  0  0  0  0  0  0  0  0  0  0  # atno 8010 bound_to 7997
  139.9671  143.5886  152.2425 H   0  0  0  0  0  0  0  0  0  0  0  0  # atno 10167 bound_to 10162
  156.3335  130.7599  151.1721 H   0  0  0  0  0  0  0  0  0  0  0  0  # atno 10718 bound_to 10713
  153.4423  135.7014  153.6161 H   0  0  0  0  0  0  0  0  0  0  0  0  # atno 10763 bound_to 10752
  153.4531  135.3753  155.2295 H   0  0  0  0  0  0  0  0  0  0  0  0  # atno 10764 bound_to 10752
  154.8727  135.4002  154.3823 H   0  0  0  0  0  0  0  0  0  0  0  0  # atno 10765 bound_to 10752
  139.9468  134.7298  156.0959 H   0  0  0  0  0  0  0  0  0  0  0  0  # atno 11005 bound_to 11000
  145.7909  139.1927  143.2103 LP  0  0  0  0  0  0  0  0  0  0  0  0  # atno 17320 bound_to 7965
  146.0756  140.7821  142.9666 LP  0  0  0  0  0  0  0  0  0  0  0  0  # atno 17321 bound_to 7965
  139.6509  144.7660  151.2150 LP  0  0  0  0  0  0  0  0  0  0  0  0  # atno 17342 bound_to 10162
  140.7534  143.6162  150.8557 LP  0  0  0  0  0  0  0  0  0  0  0  0  # atno 17343 bound_to 10162
  157.7434  131.0474  150.4945 LP  0  0  0  0  0  0  0  0  0  0  0  0  # atno 17370 bound_to 10713
  156.5114  130.4140  149.6299 LP  0  0  0  0  0  0  0  0  0  0  0  0  # atno 17371 bound_to 10713
  141.1121  133.6640  156.3003 LP  0  0  0  0  0  0  0  0  0  0  0  0  # atno 17394 bound_to 11000
  140.5815  134.5741  157.5480 LP  0  0  0  0  0  0  0  0  0  0  0  0  # atno 17395 bound_to 11000

$$$$
