AV-unprocessed.smi:675|AV-procd|sdf|3304|dock9
  -GOLD-   22720 0263D 1   1.00000     0.00000
 Structure written by MMmdl.
 29 30  0  0  0  0  0  0  0  0  1 V2000
  146.7105  139.3056  152.5156 O   0  0  0  0  0  0  0  0  0  0  0  0
  147.6230  139.6727  153.2533 C   0  0  0  0  0  0  0  0  0  0  0  0
  148.7453  138.8577  153.4308 N   0  0  0  0  0  0  0  0  0  0  0  0
  149.8463  139.1537  154.2353 C   0  0  0  0  0  0  0  0  0  0  0  0
  150.7754  138.3509  154.3193 O   0  0  0  0  0  0  0  0  0  0  0  0
  149.8185  140.3900  154.9212 N   0  0  0  0  0  0  0  0  0  0  0  0
  150.9277  140.7207  155.7833 C   0  0  0  0  0  0  0  0  0  0  0  0
  150.5199  140.8703  157.2656 C   0  0  1  0  0  0  0  0  0  0  0  0
  150.6326  139.6125  157.9043 O   0  0  0  0  0  0  0  0  0  0  0  0
  151.3680  141.9384  157.9555 C   0  0  0  0  0  0  0  0  0  0  0  0
  151.1361  143.3087  157.6902 C   0  0  0  0  0  0  0  0  0  0  0  0
  151.9037  144.3031  158.3253 C   0  0  0  0  0  0  0  0  0  0  0  0
  152.9089  143.9393  159.2390 C   0  0  0  0  0  0  0  0  0  0  0  0
  153.1400  142.5804  159.5210 C   0  0  0  0  0  0  0  0  0  0  0  0
  152.3742  141.5802  158.8889 C   0  0  0  0  0  0  0  0  0  0  0  0
  152.6862  139.9278  159.2945 Cl  0  0  0  0  0  0  0  0  0  0  0  0
  148.7217  141.2265  154.7807 C   0  0  0  0  0  0  0  0  0  0  0  0
  147.6556  140.9299  153.9993 C   0  0  0  0  0  0  0  0  0  0  0  0
  146.3258  142.0256  153.8781 Cl  0  0  0  0  0  0  0  0  0  0  0  0
  148.7596  137.9779  152.9357 H   0  0  0  0  0  0  0  0  0  0  0  0
  151.7466  140.0168  155.6179 H   0  0  0  0  0  0  0  0  0  0  0  0
  151.2864  141.6758  155.3948 H   0  0  0  0  0  0  0  0  0  0  0  0
  149.4698  141.1528  157.3365 H   0  0  0  0  0  0  0  0  0  0  0  0
  151.2945  139.6753  158.5757 H   0  0  0  0  0  0  0  0  0  0  0  0
  150.3626  143.6103  156.9993 H   0  0  0  0  0  0  0  0  0  0  0  0
  151.7185  145.3458  158.1127 H   0  0  0  0  0  0  0  0  0  0  0  0
  153.4979  144.7013  159.7278 H   0  0  0  0  0  0  0  0  0  0  0  0
  153.9067  142.3051  160.2304 H   0  0  0  0  0  0  0  0  0  0  0  0
  148.7118  142.1614  155.3232 H   0  0  0  0  0  0  0  0  0  0  0  0
  1  2  2  0  0  0  0
  2 18  1  0  0  0  0
  2  3  1  0  0  0  0
  3 20  1  0  0  0  0
  3  4  1  0  0  0  0
  4  5  2  0  0  0  0
  4  6  1  0  0  0  0
  6  7  1  0  0  0  0
  6 17  1  0  0  0  0
  7  8  1  0  0  0  0
  7 21  1  0  0  0  0
  7 22  1  0  0  0  0
  8  9  1  0  0  0  0
  8 10  1  0  0  0  0
  8 23  1  0  0  0  0
  9 24  1  0  0  0  0
 10 15  1  0  0  0  0
 10 11  2  0  0  0  0
 11 12  1  0  0  0  0
 11 25  1  0  0  0  0
 12 13  2  0  0  0  0
 12 26  1  0  0  0  0
 13 14  1  0  0  0  0
 13 27  1  0  0  0  0
 14 15  2  0  0  0  0
 14 28  1  0  0  0  0
 15 16  1  0  0  0  0
 17 18  2  0  0  0  0
 17 29  1  0  0  0  0
 18 19  1  0  0  0  0
M  END
> <s_m_source_file>
AV-unprocessed.smi

> <i_m_source_file_index>
675

> <i_lp_mmshare_version>
43012

> <i_f3d_flags>
0

> <s_epik_input>
Tz1jMVtuSF1jKD1PKW4oW2NIXWMxQ2wpW0NIMl1bQ0BIXShbT0hdKWMyW2NIXVtjSF1bY0hdW2NIXWMyQ2w=

> <s_epik_cmdline>
J2VwaWtfcHl0aG9uJywgJy1waCcsICc3LjAnLCAnLXRuJywgJzgnLCAnLW1hJywgJzIwMCcsICctbWV0YWxfYmluZGluZycsICctaW1hZScsICc8aW5maWxlLm1hZT4nLCAnLW9tYWUnLCAnPG91dGZpbGUubWFlPic=

> <r_lp_tautomer_probability>
0.999537

> <r_epik_Ionization_Penalty>
0.029206

> <r_epik_Ionization_Penalty_Charging>
0.0292057

> <r_epik_Ionization_Penalty_Neutral>
2.68278e-07

> <r_epik_State_Penalty>
0.0240115

> <r_epik_Charging_Adjusted_Penalty>
0.0532172

> <i_epik_Tot_Q>
0

> <i_epik_Tot_abs_Q>
0

> <r_epik_Metal_State_Penalty>
2.21956

> <b_epik_Metal_Only>
0

> <s_lp_Force_Field>
OPLS_2005

> <r_lp_Energy>
14.2263

> <b_lp_Chiralities_Consistent>
1

> <s_lp_Variant>
AV-unprocessed.smi:675-2

> <Gold.Version>
5.8.1

> <Gold.Id.Protein>
6NUR|6NUR_protein|mol2

> <Gold.PLP.Fitness>
47.6313

> <Gold.PLP.PLP>
-43.2886

> <Gold.PLP.part.hbond>
-1.9330

> <Gold.PLP.part.metal>
0.0000

> <Gold.PLP.part.buried>
-3.1564

> <Gold.PLP.part.nonpolar>
-39.2275

> <Gold.PLP.part.repulsive>
0.6728

> <Gold.PLP.ligand.clash>
0.0075

> <Gold.PLP.ligand.torsion>
0.7640

> <Gold.PLP.Chemscore.Hbond>
0.9588

> <Gold.PLP.Chemscore.CHOScore>
0.9963

> <Gold.PLP.Chemscore.Metal>
0.0000

> <Gold.Chemscore.Hbonds>
donor molecule, donor type, donor heavy atom, donor atom, acceptor molecule, acceptor atom, score
      L1  H     3    20       P1  7948  0.99
      L1  C    17    29       P1  8028  0.88

> <Gold.PLP.Chemscore.Internal.Correction>
0.0131

> <Gold.Rescore>
     Score         DG    S(hbond)    S(metal)    S(lipo)     H(rot)  DE(clash)    DE(int)     intcor
     12.70     -15.80       0.99        0.00     107.69       2.18       0.35       2.76       ----

> <Gold.Chemscore.Fitness>
12.6968

> <Gold.Chemscore.DG>
-15.7987

> <Gold.Chemscore.ZeroCoef>
-5.4800

> <Gold.Chemscore.Hbond>
0.9862

> <Gold.Chemscore.Metal>
0.0000

> <Gold.Chemscore.Lipo>
107.6862

> <Gold.Chemscore.Internal_Hbond>
0.0000

> <Gold.Chemscore.DEClash>
0.3461

> <Gold.Chemscore.DEInternal>
2.7558

> <Gold.Chemscore.Rot>
2.1775

> <Gold.Chemscore.Internal.Correction>
   9.000000E+99

> <Gold.Chemscore.Hbonds>
donor molecule, donor type, donor heavy atom, donor atom, acceptor molecule, acceptor atom, score
      L1  H     3    20       P1  7948  0.92

> <Gold.Chemscore.Hbond.Weighted>
-3.2939

> <Gold.Chemscore.Metal.Weighted>
-0.0000

> <Gold.Chemscore.Lipo.Weighted>
-12.5993

> <Gold.Chemscore.Internal_Hbond.Weighted>
0.0000

> <Gold.Chemscore.DEClash.Weighted>
0.3461

> <Gold.Chemscore.DEInternal.Weighted>
2.7558

> <Gold.Chemscore.Rot.Weighted>
5.5745

> <Gold.Chemscore.Internal.Correction.Weighted>
   9.000000E+99

> <Gold.Protein.RotatedTorsions>
[ 6907 6896 6895 6894 ] final    8.20 input  -60.11 | X-H torsion
[ 7974 7965 7964 7962 ] final   71.50 input  175.53 | X-H torsion
[ 8008 7997 7996 7995 ] final  172.26 input   59.86 | X-H torsion
[ 10167 10162 10161 10158 ] final  139.60 input  -65.29 | X-H torsion
[ 10718 10713 10712 10709 ] final  -35.67 input   66.30 | X-H torsion
[ 10763 10752 10751 10750 ] final -148.32 input  -60.55 | X-H torsion
[ 11005 11000 10999 10996 ] final  -46.83 input  -57.11 | X-H torsion

> <Gold.Protein.ActiveResidues>
 VAL166  LYS551  ARG553  GLY616  TRP617  ASP618  TYR619  PRO620  LYS621  CYS622 
 ASP623  PHE694  ASN695  SER759  ASP760  ASP761  ALA762  ILE779  LEU786  VAL792 
 PHE793  MET794  SER795  GLU796  ALA797  LYS798  CYS799  TRP800  GLU811  SER814 

> <Gold.Protein.RotatedAtoms>
  151.7023  135.0928  160.0252 H   0  0  0  0  0  0  0  0  0  0  0  0  # atno 6907 bound_to 6896
  152.3713  133.6418  159.6098 H   0  0  0  0  0  0  0  0  0  0  0  0  # atno 6908 bound_to 6896
  150.7675  133.9182  159.3431 H   0  0  0  0  0  0  0  0  0  0  0  0  # atno 6909 bound_to 6896
  145.7651  139.2818  143.1354 H   0  0  0  0  0  0  0  0  0  0  0  0  # atno 7974 bound_to 7965
  156.1192  140.1490  156.9229 H   0  0  0  0  0  0  0  0  0  0  0  0  # atno 8008 bound_to 7997
  154.4823  140.0876  156.7447 H   0  0  0  0  0  0  0  0  0  0  0  0  # atno 8009 bound_to 7997
  155.4459  140.3433  155.4297 H   0  0  0  0  0  0  0  0  0  0  0  0  # atno 8010 bound_to 7997
  139.5074  144.6285  151.5877 H   0  0  0  0  0  0  0  0  0  0  0  0  # atno 10167 bound_to 10162
  156.3359  130.4286  149.7831 H   0  0  0  0  0  0  0  0  0  0  0  0  # atno 10718 bound_to 10713
  154.8239  135.3337  154.6955 H   0  0  0  0  0  0  0  0  0  0  0  0  # atno 10763 bound_to 10752
  153.7584  135.6934  153.4935 H   0  0  0  0  0  0  0  0  0  0  0  0  # atno 10764 bound_to 10752
  153.2128  135.4476  155.0349 H   0  0  0  0  0  0  0  0  0  0  0  0  # atno 10765 bound_to 10752
  141.0603  133.6711  156.3210 H   0  0  0  0  0  0  0  0  0  0  0  0  # atno 11005 bound_to 11000
  146.0226  140.8334  142.9916 LP  0  0  0  0  0  0  0  0  0  0  0  0  # atno 17320 bound_to 7965
  144.6823  140.2651  143.7313 LP  0  0  0  0  0  0  0  0  0  0  0  0  # atno 17321 bound_to 7965
  140.6010  143.9610  150.6386 LP  0  0  0  0  0  0  0  0  0  0  0  0  # atno 17342 bound_to 10162
  140.2822  143.3382  152.1141 LP  0  0  0  0  0  0  0  0  0  0  0  0  # atno 17343 bound_to 10162
  156.5086  130.8161  151.3160 LP  0  0  0  0  0  0  0  0  0  0  0  0  # atno 17370 bound_to 10713
  157.7438  130.9921  150.2625 LP  0  0  0  0  0  0  0  0  0  0  0  0  # atno 17371 bound_to 10713
  140.5882  134.5677  157.5494 LP  0  0  0  0  0  0  0  0  0  0  0  0  # atno 17394 bound_to 11000
  139.9426  134.7759  156.0639 LP  0  0  0  0  0  0  0  0  0  0  0  0  # atno 17395 bound_to 11000

$$$$
