AV-unprocessed.smi:266|AV-procd|sdf|2037|dock2
  -GOLD-   2262021253D 1   1.00000     0.00000
 Structure written by MMmdl.
 52 55  0  0  0  0  0  0  0  0  1 V2000
  145.7579  133.6333  162.4219 C   0  0  0  0  0  0  0  0  0  0  0  0
  147.0680  134.3875  162.1352 C   0  0  2  0  0  0  0  0  0  0  0  0
  147.4218  135.0671  163.3415 O   0  0  0  0  0  0  0  0  0  0  0  0
  147.6618  136.4438  163.0871 C   0  0  0  0  0  0  0  0  0  0  0  0
  146.8130  136.7416  161.8610 C   0  0  0  0  0  0  0  0  0  0  0  0
  146.9919  135.4743  161.0325 C   0  0  2  0  0  0  0  0  0  0  0  0
  145.8678  135.3183  160.1843 O   0  0  0  0  0  0  0  0  0  0  0  0
  148.2723  135.4654  160.1541 C   0  0  0  0  0  0  0  0  0  0  0  0
  148.4578  136.6641  159.3499 N   0  0  0  0  0  0  0  0  0  0  0  0
  147.4680  137.4855  158.8607 C   0  0  0  0  0  0  0  0  0  0  0  0
  147.8862  138.5054  158.1634 N   0  0  0  0  0  0  0  0  0  0  0  0
  149.2719  138.3951  158.1893 C   0  0  0  0  0  0  0  0  0  0  0  0
  150.3487  139.1590  157.6493 C   0  0  0  0  0  0  0  0  0  0  0  0
  150.2221  140.2924  156.9168 N   0  0  0  0  0  0  0  0  0  0  0  0
  149.2036  140.1801  155.8818 C   0  0  0  0  0  0  0  0  0  0  0  0
  150.3516  141.5897  157.5800 C   0  0  0  0  0  0  0  0  0  0  0  0
  151.7555  141.8588  158.1633 C   0  0  1  0  0  0  0  0  0  0  0  0
  152.0171  143.3518  158.4492 C   0  0  0  0  0  0  0  0  0  0  0  0
  153.2940  143.4731  159.2872 C   0  0  0  0  0  0  0  0  0  0  0  0
  153.3339  141.9803  160.3478 S   0  0  0  0  0  0  0  0  0  0  0  0
  154.6083  141.2775  160.1351 O   0  0  0  0  0  0  0  0  0  0  0  0
  152.8757  142.3247  161.7022 O   0  0  0  0  0  0  0  0  0  0  0  0
  151.9916  141.0911  159.4721 C   0  0  0  0  0  0  0  0  0  0  0  0
  151.6107  138.7138  157.8747 N   0  0  0  0  0  0  0  0  0  0  0  0
  151.8169  137.6088  158.5964 C   0  0  0  0  0  0  0  0  0  0  0  0
  150.9176  136.8073  159.1694 N   0  0  0  0  0  0  0  0  0  0  0  0
  149.6461  137.2390  158.9330 C   0  0  0  0  0  0  0  0  0  0  0  0
  145.4395  133.0477  161.5592 H   0  0  0  0  0  0  0  0  0  0  0  0
  144.9516  134.3201  162.6814 H   0  0  0  0  0  0  0  0  0  0  0  0
  145.8847  132.9419  163.2553 H   0  0  0  0  0  0  0  0  0  0  0  0
  147.8442  133.6572  161.9019 H   0  0  0  0  0  0  0  0  0  0  0  0
  147.3944  137.0609  163.9451 H   0  0  0  0  0  0  0  0  0  0  0  0
  148.7206  136.5955  162.8744 H   0  0  0  0  0  0  0  0  0  0  0  0
  145.7722  136.8488  162.1712 H   0  0  0  0  0  0  0  0  0  0  0  0
  147.0959  137.6639  161.3557 H   0  0  0  0  0  0  0  0  0  0  0  0
  145.8397  136.0488  159.5853 H   0  0  0  0  0  0  0  0  0  0  0  0
  149.1583  135.3438  160.7786 H   0  0  0  0  0  0  0  0  0  0  0  0
  148.2607  134.6041  159.4847 H   0  0  0  0  0  0  0  0  0  0  0  0
  146.4177  137.2970  159.0304 H   0  0  0  0  0  0  0  0  0  0  0  0
  149.4203  139.3544  155.2031 H   0  0  0  0  0  0  0  0  0  0  0  0
  149.1563  141.0924  155.2865 H   0  0  0  0  0  0  0  0  0  0  0  0
  148.2216  140.0135  156.3265 H   0  0  0  0  0  0  0  0  0  0  0  0
  150.1170  142.3697  156.8550 H   0  0  0  0  0  0  0  0  0  0  0  0
  149.5938  141.6756  158.3584 H   0  0  0  0  0  0  0  0  0  0  0  0
  152.5198  141.5225  157.4625 H   0  0  0  0  0  0  0  0  0  0  0  0
  152.0918  143.9339  157.5301 H   0  0  0  0  0  0  0  0  0  0  0  0
  151.1806  143.7607  159.0177 H   0  0  0  0  0  0  0  0  0  0  0  0
  154.1780  143.4574  158.6495 H   0  0  0  0  0  0  0  0  0  0  0  0
  153.3197  144.3745  159.8998 H   0  0  0  0  0  0  0  0  0  0  0  0
  151.1065  141.1174  160.1085 H   0  0  0  0  0  0  0  0  0  0  0  0
  152.2718  140.0501  159.3103 H   0  0  0  0  0  0  0  0  0  0  0  0
  152.8501  137.3263  158.7349 H   0  0  0  0  0  0  0  0  0  0  0  0
  1  2  1  0  0  0  0
  1 28  1  0  0  0  0
  1 29  1  0  0  0  0
  1 30  1  0  0  0  0
  2  6  1  0  0  0  0
  2  3  1  0  0  0  0
  2 31  1  0  0  0  0
  3  4  1  0  0  0  0
  4  5  1  0  0  0  0
  4 32  1  0  0  0  0
  4 33  1  0  0  0  0
  5  6  1  0  0  0  0
  5 34  1  0  0  0  0
  5 35  1  0  0  0  0
  6  7  1  0  0  0  0
  6  8  1  0  0  0  0
  7 36  1  0  0  0  0
  8  9  1  0  0  0  0
  8 37  1  0  0  0  0
  8 38  1  0  0  0  0
  9 27  1  0  0  0  0
  9 10  1  0  0  0  0
 10 11  2  0  0  0  0
 10 39  1  0  0  0  0
 11 12  1  0  0  0  0
 12 27  2  0  0  0  0
 12 13  1  0  0  0  0
 13 14  1  0  0  0  0
 13 24  2  0  0  0  0
 14 15  1  0  0  0  0
 14 16  1  0  0  0  0
 15 40  1  0  0  0  0
 15 41  1  0  0  0  0
 15 42  1  0  0  0  0
 16 17  1  0  0  0  0
 16 43  1  0  0  0  0
 16 44  1  0  0  0  0
 17 23  1  0  0  0  0
 17 18  1  0  0  0  0
 17 45  1  0  0  0  0
 18 19  1  0  0  0  0
 18 46  1  0  0  0  0
 18 47  1  0  0  0  0
 19 20  1  0  0  0  0
 19 48  1  0  0  0  0
 19 49  1  0  0  0  0
 20 21  2  0  0  0  0
 20 22  2  0  0  0  0
 20 23  1  0  0  0  0
 23 50  1  0  0  0  0
 23 51  1  0  0  0  0
 24 25  1  0  0  0  0
 25 26  2  0  0  0  0
 25 52  1  0  0  0  0
 26 27  1  0  0  0  0
M  END
> <s_m_source_file>
AV-unprocessed.smi

> <i_m_source_file_index>
266

> <i_lp_mmshare_version>
43012

> <i_f3d_flags>
0

> <s_epik_input>
W0NIMl0xW0NIMl1PW0NAQEhdKFtDSDNdKVtDQEBdMShbT0hdKVtDSDJdbihbY0hdbjIpYyhjMjMpbltjSF1uYzNOKFtDSDNdKVtDSDJdW0NAQEhdKFtDSDJdNClbQ0gyXVtDSDJdUzQoPU8pPU8=

> <s_epik_cmdline>
J2VwaWtfcHl0aG9uJywgJy1waCcsICc3LjAnLCAnLXRuJywgJzgnLCAnLW1hJywgJzIwMCcsICctbWV0YWxfYmluZGluZycsICctaW1hZScsICc8aW5maWxlLm1hZT4nLCAnLW9tYWUnLCAnPG91dGZpbGUubWFlPic=

> <r_lp_tautomer_probability>
1

> <r_epik_Ionization_Penalty>
0.00155497

> <r_epik_Ionization_Penalty_Charging>
0

> <r_epik_Ionization_Penalty_Neutral>
0.00155497

> <r_epik_State_Penalty>
-0

> <r_epik_Charging_Adjusted_Penalty>
0

> <i_epik_Tot_Q>
0

> <i_epik_Tot_abs_Q>
0

> <r_epik_Metal_State_Penalty>
-0

> <b_epik_Metal_Only>
0

> <s_lp_Force_Field>
OPLS_2005

> <r_lp_Energy>
32.6677

> <b_lp_Chiralities_Consistent>
1

> <s_lp_Variant>
AV-unprocessed.smi:266-7

> <Gold.Version>
5.8.1

> <Gold.Id.Protein>
6NUR|6NUR_protein|mol2

> <Gold.PLP.Fitness>
49.1609

> <Gold.PLP.PLP>
-48.0623

> <Gold.PLP.part.hbond>
-2.0705

> <Gold.PLP.part.metal>
0.0000

> <Gold.PLP.part.buried>
-8.5499

> <Gold.PLP.part.nonpolar>
-37.5323

> <Gold.PLP.part.repulsive>
0.0815

> <Gold.PLP.ligand.clash>
0.0000

> <Gold.PLP.ligand.torsion>
1.2956

> <Gold.PLP.Chemscore.Hbond>
1.0000

> <Gold.PLP.Chemscore.CHOScore>
0.0000

> <Gold.PLP.Chemscore.Metal>
0.0000

> <Gold.Chemscore.Hbonds>
donor molecule, donor type, donor heavy atom, donor atom, acceptor molecule, acceptor atom, score
      P1  H  6896  6907       L1    26  1.00

> <Gold.PLP.Chemscore.Internal.Correction>
0.6898

> <Gold.Rescore>
     Score         DG    S(hbond)    S(metal)    S(lipo)     H(rot)  DE(clash)    DE(int)     intcor
     12.96     -15.76       1.82        0.00      96.39       2.76       0.58       2.21       ----

> <Gold.Chemscore.Fitness>
12.9644

> <Gold.Chemscore.DG>
-15.7595

> <Gold.Chemscore.ZeroCoef>
-5.4800

> <Gold.Chemscore.Hbond>
1.8193

> <Gold.Chemscore.Metal>
0.0000

> <Gold.Chemscore.Lipo>
96.3929

> <Gold.Chemscore.Internal_Hbond>
0.0000

> <Gold.Chemscore.DEClash>
0.5803

> <Gold.Chemscore.DEInternal>
2.2147

> <Gold.Chemscore.Rot>
2.7637

> <Gold.Chemscore.Internal.Correction>
   9.000000E+99

> <Gold.Chemscore.Hbonds>
donor molecule, donor type, donor heavy atom, donor atom, acceptor molecule, acceptor atom, score
      P1  H  6896  6907       L1    26  0.85

> <Gold.Chemscore.Hbond.Weighted>
-6.0765

> <Gold.Chemscore.Metal.Weighted>
-0.0000

> <Gold.Chemscore.Lipo.Weighted>
-11.2780

> <Gold.Chemscore.Internal_Hbond.Weighted>
0.0000

> <Gold.Chemscore.DEClash.Weighted>
0.5803

> <Gold.Chemscore.DEInternal.Weighted>
2.2147

> <Gold.Chemscore.Rot.Weighted>
7.0750

> <Gold.Chemscore.Internal.Correction.Weighted>
   9.000000E+99

> <Gold.Protein.RotatedTorsions>
[ 6907 6896 6895 6894 ] final  -35.33 input  -60.11 | X-H torsion
[ 7974 7965 7964 7962 ] final  170.23 input  175.53 | X-H torsion
[ 8008 7997 7996 7995 ] final   93.27 input   59.86 | X-H torsion
[ 10167 10162 10161 10158 ] final  163.20 input  -65.29 | X-H torsion
[ 10718 10713 10712 10709 ] final -160.05 input   66.30 | X-H torsion
[ 10763 10752 10751 10750 ] final   40.15 input  -60.55 | X-H torsion
[ 11005 11000 10999 10996 ] final -103.43 input  -57.11 | X-H torsion

> <Gold.Protein.ActiveResidues>
 VAL166  LYS551  ARG553  GLY616  TRP617  ASP618  TYR619  PRO620  LYS621  CYS622 
 ASP623  PHE694  ASN695  SER759  ASP760  ASP761  ALA762  ILE779  LEU786  VAL792 
 PHE793  MET794  SER795  GLU796  ALA797  LYS798  CYS799  TRP800  GLU811  SER814 

> <Gold.Protein.RotatedAtoms>
  151.0412  134.9608  159.8162 H   0  0  0  0  0  0  0  0  0  0  0  0  # atno 6907 bound_to 6896
  152.5364  134.2656  159.8962 H   0  0  0  0  0  0  0  0  0  0  0  0  # atno 6908 bound_to 6896
  151.2668  133.4232  159.2653 H   0  0  0  0  0  0  0  0  0  0  0  0  # atno 6909 bound_to 6896
  144.7330  139.9171  143.6418 H   0  0  0  0  0  0  0  0  0  0  0  0  # atno 7974 bound_to 7965
  156.0448  140.3315  155.7284 H   0  0  0  0  0  0  0  0  0  0  0  0  # atno 8008 bound_to 7997
  155.5690  140.0626  157.2828 H   0  0  0  0  0  0  0  0  0  0  0  0  # atno 8009 bound_to 7997
  154.4409  140.1864  156.0848 H   0  0  0  0  0  0  0  0  0  0  0  0  # atno 8010 bound_to 7997
  139.4870  144.4361  151.9010 H   0  0  0  0  0  0  0  0  0  0  0  0  # atno 10167 bound_to 10162
  156.5766  130.8711  151.2853 H   0  0  0  0  0  0  0  0  0  0  0  0  # atno 10718 bound_to 10713
  152.9945  135.6200  154.2580 H   0  0  0  0  0  0  0  0  0  0  0  0  # atno 10763 bound_to 10752
  154.2316  135.2792  155.2889 H   0  0  0  0  0  0  0  0  0  0  0  0  # atno 10764 bound_to 10752
  154.5444  135.5751  153.6925 H   0  0  0  0  0  0  0  0  0  0  0  0  # atno 10765 bound_to 10752
  141.1146  133.8640  157.1485 H   0  0  0  0  0  0  0  0  0  0  0  0  # atno 11005 bound_to 11000
  146.0957  139.3949  143.0378 LP  0  0  0  0  0  0  0  0  0  0  0  0  # atno 17320 bound_to 7965
  145.7649  140.9920  143.1180 LP  0  0  0  0  0  0  0  0  0  0  0  0  # atno 17321 bound_to 7965
  140.3811  144.2735  150.5908 LP  0  0  0  0  0  0  0  0  0  0  0  0  # atno 17342 bound_to 10162
  140.5232  143.2260  151.8355 LP  0  0  0  0  0  0  0  0  0  0  0  0  # atno 17343 bound_to 10162
  157.7336  130.9733  150.1986 LP  0  0  0  0  0  0  0  0  0  0  0  0  # atno 17370 bound_to 10713
  156.2668  130.3717  149.8073 LP  0  0  0  0  0  0  0  0  0  0  0  0  # atno 17371 bound_to 10713
  140.0060  135.0008  157.0293 LP  0  0  0  0  0  0  0  0  0  0  0  0  # atno 17394 bound_to 11000
  140.4682  134.1414  155.7199 LP  0  0  0  0  0  0  0  0  0  0  0  0  # atno 17395 bound_to 11000

$$$$
