AV-unprocessed.smi:2523|AV-procd|sdf|9920|dock1
  -GOLD-   2272013553D 1   1.00000     0.00000
 Structure written by MMmdl.
 34 36  0  0  0  0  0  0  0  0  1 V2000
  152.7577  136.7095  157.0989 C   0  0  0  0  0  0  0  0  0  0  0  0
  151.8970  137.5514  156.2712 N   0  0  0  0  0  0  0  0  0  0  0  0
  151.2466  136.8797  155.2295 N   0  0  0  0  0  0  0  0  0  0  0  0
  150.4541  137.5048  154.4161 C   0  0  0  0  0  0  0  0  0  0  0  0
  150.2537  138.9373  154.6114 C   0  0  0  0  0  0  0  0  0  0  0  0
  149.4975  139.9478  153.9564 C   0  0  0  0  0  0  0  0  0  0  0  0
  149.6554  141.1397  154.5290 N   0  0  0  0  0  0  0  0  0  0  0  0
  150.5101  140.9412  155.5655 N   0  0  0  0  0  0  0  0  0  0  0  0
  150.8986  142.0676  156.4005 C   0  0  0  0  0  0  0  0  0  0  0  0
  150.0588  142.1700  157.6902 C   0  0  2  0  0  0  0  0  0  0  0  0
  149.0245  143.1218  157.5283 O   0  0  0  0  0  0  0  0  0  0  0  0
  150.9315  142.4821  158.8953 C   0  0  0  0  0  0  0  0  0  0  0  0
  150.7964  143.7154  159.5682 C   0  0  0  0  0  0  0  0  0  0  0  0
  151.6012  144.0044  160.6874 C   0  0  0  0  0  0  0  0  0  0  0  0
  152.5429  143.0614  161.1416 C   0  0  0  0  0  0  0  0  0  0  0  0
  152.6803  141.8278  160.4761 C   0  0  0  0  0  0  0  0  0  0  0  0
  153.8316  140.6699  161.0333 Cl  0  0  0  0  0  0  0  0  0  0  0  0
  151.8769  141.5393  159.3555 C   0  0  0  0  0  0  0  0  0  0  0  0
  150.8713  139.6091  155.6143 C   0  0  0  0  0  0  0  0  0  0  0  0
  151.7765  138.8865  156.5404 C   0  0  0  0  0  0  0  0  0  0  0  0
  152.3580  139.4582  157.4625 O   0  0  0  0  0  0  0  0  0  0  0  0
  152.4306  136.7314  158.1394 H   0  0  0  0  0  0  0  0  0  0  0  0
  153.7902  137.0592  157.0577 H   0  0  0  0  0  0  0  0  0  0  0  0
  152.7480  135.6684  156.7723 H   0  0  0  0  0  0  0  0  0  0  0  0
  149.9485  136.9801  153.6056 H   0  0  0  0  0  0  0  0  0  0  0  0
  148.8507  139.8595  153.0961 H   0  0  0  0  0  0  0  0  0  0  0  0
  151.9536  141.9550  156.6553 H   0  0  0  0  0  0  0  0  0  0  0  0
  150.8294  142.9847  155.8164 H   0  0  0  0  0  0  0  0  0  0  0  0
  149.5700  141.2097  157.8600 H   0  0  0  0  0  0  0  0  0  0  0  0
  149.3250  143.7921  156.9341 H   0  0  0  0  0  0  0  0  0  0  0  0
  150.0752  144.4448  159.2294 H   0  0  0  0  0  0  0  0  0  0  0  0
  151.4957  144.9499  161.1985 H   0  0  0  0  0  0  0  0  0  0  0  0
  153.1579  143.2848  162.0010 H   0  0  0  0  0  0  0  0  0  0  0  0
  151.9849  140.5907  158.8496 H   0  0  0  0  0  0  0  0  0  0  0  0
  1  2  1  0  0  0  0
  1 22  1  0  0  0  0
  1 23  1  0  0  0  0
  1 24  1  0  0  0  0
  2 20  1  0  0  0  0
  2  3  1  0  0  0  0
  3  4  2  0  0  0  0
  4  5  1  0  0  0  0
  4 25  1  0  0  0  0
  5 19  2  0  0  0  0
  5  6  1  0  0  0  0
  6  7  2  0  0  0  0
  6 26  1  0  0  0  0
  7  8  1  0  0  0  0
  8  9  1  0  0  0  0
  8 19  1  0  0  0  0
  9 10  1  0  0  0  0
  9 27  1  0  0  0  0
  9 28  1  0  0  0  0
 10 11  1  0  0  0  0
 10 12  1  0  0  0  0
 10 29  1  0  0  0  0
 11 30  1  0  0  0  0
 12 18  1  0  0  0  0
 12 13  2  0  0  0  0
 13 14  1  0  0  0  0
 13 31  1  0  0  0  0
 14 15  2  0  0  0  0
 14 32  1  0  0  0  0
 15 16  1  0  0  0  0
 15 33  1  0  0  0  0
 16 17  1  0  0  0  0
 16 18  2  0  0  0  0
 18 34  1  0  0  0  0
 19 20  1  0  0  0  0
 20 21  2  0  0  0  0
M  END
> <s_m_source_file>
AV-unprocessed.smi

> <i_m_source_file_index>
2523

> <i_lp_mmshare_version>
43012

> <i_f3d_flags>
0

> <s_epik_input>
W2NIXTFubihbQ0gzXSljKD1PKWMoYzEyKW4obltjSF0yKVtDSDJdW0NASF0oW09IXSljM1tjSF1bY0hdW2NIXWMoQ2wpW2NIXTM=

> <s_epik_cmdline>
J2VwaWtfcHl0aG9uJywgJy1waCcsICc3LjAnLCAnLXRuJywgJzgnLCAnLW1hJywgJzIwMCcsICctbWV0YWxfYmluZGluZycsICctaW1hZScsICc8aW5maWxlLm1hZT4nLCAnLW9tYWUnLCAnPG91dGZpbGUubWFlPic=

> <r_lp_tautomer_probability>
1

> <r_epik_Ionization_Penalty>
8.52698e-06

> <r_epik_Ionization_Penalty_Charging>
1.65421e-10

> <r_epik_Ionization_Penalty_Neutral>
8.52681e-06

> <r_epik_State_Penalty>
-0

> <r_epik_Charging_Adjusted_Penalty>
1.65421e-10

> <i_epik_Tot_Q>
0

> <i_epik_Tot_abs_Q>
0

> <r_epik_Metal_State_Penalty>
-0

> <b_epik_Metal_Only>
0

> <s_lp_Force_Field>
OPLS_2005

> <r_lp_Energy>
27.0285

> <b_lp_Chiralities_Consistent>
1

> <s_lp_Variant>
AV-unprocessed.smi:2523-1

> <Gold.Version>
5.8.1

> <Gold.Id.Protein>
6NUR|6NUR_protein|mol2

> <Gold.PLP.Fitness>
56.6477

> <Gold.PLP.PLP>
-44.0611

> <Gold.PLP.part.hbond>
-4.3812

> <Gold.PLP.part.metal>
0.0000

> <Gold.PLP.part.buried>
-2.1754

> <Gold.PLP.part.nonpolar>
-37.4716

> <Gold.PLP.part.repulsive>
0.1944

> <Gold.PLP.ligand.clash>
0.0000

> <Gold.PLP.ligand.torsion>
1.0475

> <Gold.PLP.Chemscore.Hbond>
2.9920

> <Gold.PLP.Chemscore.CHOScore>
1.8921

> <Gold.PLP.Chemscore.Metal>
0.0000

> <Gold.Chemscore.Hbonds>
donor molecule, donor type, donor heavy atom, donor atom, acceptor molecule, acceptor atom, score
      L1  H    11    30       P1  8028  0.88
      P1  H  7997  8009       L1    21  0.42
      P1  H 10752 10763       L1     3  0.39
      L1  C     4    25       P1  7948  1.00
      L1  C     6    26       P1  7957  0.83

> <Gold.PLP.Chemscore.Internal.Correction>
0.0294

> <Gold.Rescore>
     Score         DG    S(hbond)    S(metal)    S(lipo)     H(rot)  DE(clash)    DE(int)     intcor
     19.94     -22.80       2.57        0.00     116.69       1.93       0.37       2.49       ----

> <Gold.Chemscore.Fitness>
19.9374

> <Gold.Chemscore.DG>
-22.8013

> <Gold.Chemscore.ZeroCoef>
-5.4800

> <Gold.Chemscore.Hbond>
2.5749

> <Gold.Chemscore.Metal>
0.0000

> <Gold.Chemscore.Lipo>
116.6903

> <Gold.Chemscore.Internal_Hbond>
0.0000

> <Gold.Chemscore.DEClash>
0.3709

> <Gold.Chemscore.DEInternal>
2.4931

> <Gold.Chemscore.Rot>
1.9265

> <Gold.Chemscore.Internal.Correction>
   9.000000E+99

> <Gold.Chemscore.Hbonds>
donor molecule, donor type, donor heavy atom, donor atom, acceptor molecule, acceptor atom, score
      L1  H    11    30       P1  8028  0.64
      P1  H  7997  8009       L1    21  0.31
      P1  H 10752 10763       L1     3  0.05

> <Gold.Chemscore.Hbond.Weighted>
-8.6003

> <Gold.Chemscore.Metal.Weighted>
-0.0000

> <Gold.Chemscore.Lipo.Weighted>
-13.6528

> <Gold.Chemscore.Internal_Hbond.Weighted>
0.0000

> <Gold.Chemscore.DEClash.Weighted>
0.3709

> <Gold.Chemscore.DEInternal.Weighted>
2.4931

> <Gold.Chemscore.Rot.Weighted>
4.9317

> <Gold.Chemscore.Internal.Correction.Weighted>
   9.000000E+99

> <Gold.Protein.RotatedTorsions>
[ 6907 6896 6895 6894 ] final   94.57 input  -60.11 | X-H torsion
[ 7974 7965 7964 7962 ] final   30.58 input  175.53 | X-H torsion
[ 8008 7997 7996 7995 ] final  170.09 input   59.86 | X-H torsion
[ 10167 10162 10161 10158 ] final   14.25 input  -65.29 | X-H torsion
[ 10718 10713 10712 10709 ] final -178.60 input   66.30 | X-H torsion
[ 10763 10752 10751 10750 ] final   68.84 input  -60.55 | X-H torsion
[ 11005 11000 10999 10996 ] final  -70.23 input  -57.11 | X-H torsion

> <Gold.Protein.ActiveResidues>
 VAL166  LYS551  ARG553  GLY616  TRP617  ASP618  TYR619  PRO620  LYS621  CYS622 
 ASP623  PHE694  ASN695  SER759  ASP760  ASP761  ALA762  ILE779  LEU786  VAL792 
 PHE793  MET794  SER795  GLU796  ALA797  LYS798  CYS799  TRP800  GLU811  SER814 

> <Gold.Protein.RotatedAtoms>
  152.5449  134.1174  159.8384 H   0  0  0  0  0  0  0  0  0  0  0  0  # atno 6907 bound_to 6896
  151.1234  133.5081  159.2609 H   0  0  0  0  0  0  0  0  0  0  0  0  # atno 6908 bound_to 6896
  151.1754  135.0347  159.8824 H   0  0  0  0  0  0  0  0  0  0  0  0  # atno 6909 bound_to 6896
  146.1603  139.6769  142.9038 H   0  0  0  0  0  0  0  0  0  0  0  0  # atno 7974 bound_to 7965
  156.1397  140.1547  156.8939 H   0  0  0  0  0  0  0  0  0  0  0  0  # atno 8008 bound_to 7997
  154.4977  140.0833  156.7771 H   0  0  0  0  0  0  0  0  0  0  0  0  # atno 8009 bound_to 7997
  155.4101  140.3418  155.4265 H   0  0  0  0  0  0  0  0  0  0  0  0  # atno 8010 bound_to 7997
  140.5948  143.8723  150.6907 H   0  0  0  0  0  0  0  0  0  0  0  0  # atno 10167 bound_to 10162
  156.8468  130.9705  151.3095 H   0  0  0  0  0  0  0  0  0  0  0  0  # atno 10718 bound_to 10713
  153.0256  135.5232  154.7196 H   0  0  0  0  0  0  0  0  0  0  0  0  # atno 10763 bound_to 10752
  154.6255  135.2894  155.0279 H   0  0  0  0  0  0  0  0  0  0  0  0  # atno 10764 bound_to 10752
  154.1250  135.6602  153.4963 H   0  0  0  0  0  0  0  0  0  0  0  0  # atno 10765 bound_to 10752
  141.1570  133.6784  156.6721 H   0  0  0  0  0  0  0  0  0  0  0  0  # atno 11005 bound_to 11000
  145.4605  141.0432  143.2754 LP  0  0  0  0  0  0  0  0  0  0  0  0  # atno 17320 bound_to 7965
  144.8018  139.6127  143.7068 LP  0  0  0  0  0  0  0  0  0  0  0  0  # atno 17321 bound_to 7965
  140.2255  143.3776  152.1608 LP  0  0  0  0  0  0  0  0  0  0  0  0  # atno 17342 bound_to 10162
  139.5251  144.7092  151.5260 LP  0  0  0  0  0  0  0  0  0  0  0  0  # atno 17343 bound_to 10162
  157.6325  130.8741  149.9300 LP  0  0  0  0  0  0  0  0  0  0  0  0  # atno 17370 bound_to 10713
  156.0850  130.3669  150.0505 LP  0  0  0  0  0  0  0  0  0  0  0  0  # atno 17371 bound_to 10713
  140.3167  134.8042  157.4220 LP  0  0  0  0  0  0  0  0  0  0  0  0  # atno 17394 bound_to 11000
  140.1132  134.5318  155.8248 LP  0  0  0  0  0  0  0  0  0  0  0  0  # atno 17395 bound_to 11000

$$$$
