#       Name:                AV-unprocessed.smi:2855
#       Creating user name   scv26
#       Creation time:       Fri Mar 27 15:44:12 2020


#       File generated by GOLD software.
#

@<TRIPOS>MOLECULE
AV-unprocessed.smi:2855
    53    54     1
SMALL
NO_CHARGES


@<TRIPOS>ATOM
      1 ****        -2.4250  -2.2321  -2.6620 C.3            1 S1                 0.0000
      2 ****        -2.1326  -0.7641  -3.0205 C.3            1 S1                 0.0000
      3 ****        -0.8573  -0.6021  -3.8682 C.3            1 S1                 0.0000
      4 ****         0.4267  -0.8103  -3.0477 C.3            1 S1                 0.0000
      5 ****         0.4874   0.1283  -1.8193 C.3            1 S1                 0.0000
      6 ****         1.8188   0.0118  -1.0168 C.3            1 S1                 0.0000
      7 ****         3.0442   0.4393  -1.8426 C.3            1 S1                 0.0000
      8 ****         2.0494  -1.3689  -0.3751 C.3            1 S1                 0.0000
      9 ****        -0.7876  -0.0538  -0.9508 C.3            1 S1                 0.0000
     10 ****        -0.7895   0.8864   0.1678 N.am           1 S1                 0.0000
     11 ****        -1.0211   0.5764   1.4523 C.2            1 S1                 0.0000
     12 ****        -1.3357  -0.5508   1.8356 O.2            1 S1                 0.0000
     13 ****        -0.8918   1.7264   2.4580 C.3            1 S1                 0.0000
     14 ****        -0.0828   1.3503   3.6276 N.am           1 S1                 0.0000
     15 ****        -0.7599   0.9919   4.8064 C.2            1 S1                 0.0000
     16 ****        -0.0995   0.6276   5.9220 C.2            1 S1                 0.0000
     17 ****         1.3576   0.6099   5.8871 C.2            1 S1                 0.0000
     18 ****         1.9772   0.2841   6.8978 O.2            1 S1                 0.0000
     19 ****         1.9687   0.9611   4.7180 N.pl3          1 S1                -1.0000
     20 ****         1.2842   1.3283   3.5906 C.2            1 S1                 0.0000
     21 ****         1.8558   1.6410   2.5452 O.2            1 S1                 0.0000
     22 ****        -2.0715   0.1491  -1.7812 C.3            1 S1                 0.0000
     23 ****        -1.6382  -2.6718  -2.0497 H              1 S1                 0.0000
     24 ****        -2.5208  -2.8413  -3.5611 H              1 S1                 0.0000
     25 ****        -3.3598  -2.3191  -2.1077 H              1 S1                 0.0000
     26 ****        -2.9721  -0.4269  -3.6298 H              1 S1                 0.0000
     27 ****        -0.8763  -1.2923  -4.7123 H              1 S1                 0.0000
     28 ****        -0.8408   0.3998  -4.2992 H              1 S1                 0.0000
     29 ****         0.4891  -1.8513  -2.7313 H              1 S1                 0.0000
     30 ****         1.2818  -0.6400  -3.7007 H              1 S1                 0.0000
     31 ****         0.4540   1.1486  -2.2058 H              1 S1                 0.0000
     32 ****         1.7698   0.7275  -0.1959 H              1 S1                 0.0000
     33 ****         3.2677  -0.2709  -2.6384 H              1 S1                 0.0000
     34 ****         3.9309   0.5075  -1.2116 H              1 S1                 0.0000
     35 ****         2.8930   1.4185  -2.2973 H              1 S1                 0.0000
     36 ****         2.1416  -2.1551  -1.1239 H              1 S1                 0.0000
     37 ****         1.2407  -1.6405   0.3027 H              1 S1                 0.0000
     38 ****         2.9675  -1.3715   0.2131 H              1 S1                 0.0000
     39 ****        -0.7952  -1.0750  -0.5694 H              1 S1                 0.0000
     40 ****        -0.5417   1.8418  -0.0444 H              1 S1                 0.0000
     41 ****        -0.4645   2.6074   1.9751 H              1 S1                 0.0000
     42 ****        -1.8952   2.0252   2.7634 H              1 S1                 0.0000
     43 ****        -1.8378   1.0247   4.7466 H              1 S1                 0.0000
     44 ****        -0.6348   0.3524   6.8187 H              1 S1                 0.0000
     45 ****        -2.1245   1.1887  -2.1085 H              1 S1                 0.0000
     46 ****        -2.9515  -0.0141  -1.1575 H              1 S1                 0.0000
     47 ****        -1.4310  -1.2952   1.1747 LP             1 S1                 0.0000
     48 ****        -1.4958  -0.7218   2.8078 LP             1 S1                 0.0000
     49 ****         1.4814   0.0355   7.7299 LP             1 S1                 0.0000
     50 ****         2.9770   0.2676   6.8878 LP             1 S1                 0.0000
     51 ****         2.9681   0.9495   4.6833 LP             1 S1                 0.0000
     52 ****         1.3210   1.9049   1.7426 LP             1 S1                 0.0000
     53 ****         2.8547   1.6308   2.4992 LP             1 S1                 0.0000
@<TRIPOS>BOND
    1    1    2 1     
    2    1   23 1     
    3    1   24 1     
    4    1   25 1     
    5    2   22 1     
    6    2    3 1     
    7    2   26 1     
    8    3    4 1     
    9    3   27 1     
   10    3   28 1     
   11    4    5 1     
   12    4   29 1     
   13    4   30 1     
   14    5    6 1     
   15    5    9 1     
   16    5   31 1     
   17    6    7 1     
   18    6    8 1     
   19    6   32 1     
   20    7   33 1     
   21    7   34 1     
   22    7   35 1     
   23    8   36 1     
   24    8   37 1     
   25    8   38 1     
   26    9   10 1     
   27    9   22 1     
   28    9   39 1     
   29   10   11 am    
   30   10   40 1     
   31   11   12 2     
   32   11   13 1     
   33   13   14 1     
   34   13   41 1     
   35   13   42 1     
   36   14   20 am    
   37   14   15 1     
   38   15   16 2     
   39   15   43 1     
   40   16   17 1     
   41   16   44 1     
   42   17   18 2     
   43   17   19 1     
   44   19   20 1     
   45   20   21 2     
   46   22   45 1     
   47   22   46 1     
   48   12   47 1     
   49   12   48 1     
   50   18   49 1     
   51   18   50 1     
   52   19   51 1     
   53   21   52 1     
   54   21   53 1     
@<TRIPOS>SUBSTRUCTURE
      1 S1             1
@<TRIPOS>SET
LONE_PAIRS      STATIC     ATOMS    <user>   **** ""
7 47 48 49 50 51 52 53
DONOR_HYDROGENS      STATIC     ATOMS    <user>   **** ""
1 40
ATOM$BLUE        STATIC     ATOMS    COLORGROUP SYSTEM
7 47 48 49 50 51 52 53
ATOM$RED        STATIC     ATOMS    COLORGROUP SYSTEM
1 40
