AV-unprocessed.smi:1126|AV-procd|sdf|4837|dock10
  -GOLD-   22720 3403D 1   1.00000     0.00000
 Structure written by MMmdl.
 48 49  0  0  0  0  0  0  0  0  2 V2000
  145.6822  133.0802  150.5504 C   0  0  0  0  0  0  0  0  0  0  0  0
  145.1726  133.6631  151.7374 O   0  0  0  0  0  0  0  0  0  0  0  0
  146.0236  134.6714  152.2570 C   0  0  0  0  0  0  0  0  0  0  0  0
  145.5229  136.0434  151.7785 C   0  0  0  0  0  0  0  0  0  0  0  0
  146.3808  137.1620  152.2467 N   0  3  2  0  0  0  0  0  0  0  0  0
  146.1670  137.4673  153.6844 C   0  0  0  0  0  0  0  0  0  0  0  0
  147.1649  138.5245  154.1856 C   0  0  0  0  0  0  0  0  0  0  0  0
  147.0853  139.8162  153.3486 C   0  0  1  0  0  0  0  0  0  0  0  0
  148.1074  140.8773  153.7971 C   0  0  0  0  0  0  0  0  0  0  0  0
  148.3804  140.7863  155.2251 N   0  0  0  0  0  0  0  0  0  0  0  0
  149.6060  140.6754  155.7575 C   0  0  0  0  0  0  0  0  0  0  0  0
  150.6354  140.6273  155.0848 O   0  0  0  0  0  0  0  0  0  0  0  0
  149.6834  140.6098  157.2831 C   0  0  0  0  0  0  0  0  0  0  0  0
  150.6507  141.5623  157.7979 N   0  0  0  0  0  0  0  0  0  0  0  0
  150.7184  142.9210  157.5709 C   0  0  0  0  0  0  0  0  0  0  0  0
  151.7912  143.4013  158.2670 C   0  0  0  0  0  0  0  0  0  0  0  0
  152.2972  144.8126  158.3534 C   0  0  0  0  0  0  0  0  0  0  0  0
  152.3224  142.2408  158.8984 C   0  0  0  0  0  0  0  0  0  0  0  0
  151.6387  141.1431  158.6177 N   0  0  0  0  0  0  0  0  0  0  0  0
  147.2715  139.4595  151.8638 C   0  0  0  0  0  0  0  0  0  0  0  0
  146.2673  138.3865  151.4112 C   0  0  0  0  0  0  0  0  0  0  0  0
  144.9988  132.3072  150.1991 H   0  0  0  0  0  0  0  0  0  0  0  0
  146.6539  132.6159  150.7236 H   0  0  0  0  0  0  0  0  0  0  0  0
  145.7848  133.8235  149.7585 H   0  0  0  0  0  0  0  0  0  0  0  0
  146.0681  134.6165  153.3448 H   0  0  0  0  0  0  0  0  0  0  0  0
  147.0389  134.5125  151.8902 H   0  0  0  0  0  0  0  0  0  0  0  0
  145.4533  136.0657  150.6900 H   0  0  0  0  0  0  0  0  0  0  0  0
  144.5075  136.1785  152.1539 H   0  0  0  0  0  0  0  0  0  0  0  0
  145.1431  137.8129  153.8360 H   0  0  0  0  0  0  0  0  0  0  0  0
  146.2858  136.5587  154.2759 H   0  0  0  0  0  0  0  0  0  0  0  0
  146.9632  138.7369  155.2360 H   0  0  0  0  0  0  0  0  0  0  0  0
  148.1769  138.1186  154.1431 H   0  0  0  0  0  0  0  0  0  0  0  0
  146.0865  140.2397  153.4685 H   0  0  0  0  0  0  0  0  0  0  0  0
  149.0381  140.7614  153.2390 H   0  0  0  0  0  0  0  0  0  0  0  0
  147.7275  141.8767  153.5787 H   0  0  0  0  0  0  0  0  0  0  0  0
  147.5899  140.8267  155.8523 H   0  0  0  0  0  0  0  0  0  0  0  0
  148.7027  140.8102  157.7178 H   0  0  0  0  0  0  0  0  0  0  0  0
  149.9764  139.6078  157.5995 H   0  0  0  0  0  0  0  0  0  0  0  0
  150.0025  143.4276  156.9401 H   0  0  0  0  0  0  0  0  0  0  0  0
  153.2834  144.8625  158.8153 H   0  0  0  0  0  0  0  0  0  0  0  0
  151.6327  145.4416  158.9459 H   0  0  0  0  0  0  0  0  0  0  0  0
  152.3810  145.2711  157.3680 H   0  0  0  0  0  0  0  0  0  0  0  0
  153.1804  142.1647  159.5500 H   0  0  0  0  0  0  0  0  0  0  0  0
  147.1521  140.3521  151.2486 H   0  0  0  0  0  0  0  0  0  0  0  0
  148.2880  139.1017  151.6929 H   0  0  0  0  0  0  0  0  0  0  0  0
  146.4552  138.1533  150.3641 H   0  0  0  0  0  0  0  0  0  0  0  0
  145.2498  138.7764  151.4693 H   0  0  0  0  0  0  0  0  0  0  0  0
  147.3344  136.8379  152.1676 H   0  0  0  0  0  0  0  0  0  0  0  0
  1  2  1  0  0  0  0
  1 22  1  0  0  0  0
  1 23  1  0  0  0  0
  1 24  1  0  0  0  0
  2  3  1  0  0  0  0
  3  4  1  0  0  0  0
  3 25  1  0  0  0  0
  3 26  1  0  0  0  0
  4  5  1  0  0  0  0
  4 27  1  0  0  0  0
  4 28  1  0  0  0  0
  5 21  1  0  0  0  0
  5  6  1  0  0  0  0
  5 48  1  0  0  0  0
  6  7  1  0  0  0  0
  6 29  1  0  0  0  0
  6 30  1  0  0  0  0
  7  8  1  0  0  0  0
  7 31  1  0  0  0  0
  7 32  1  0  0  0  0
  8  9  1  0  0  0  0
  8 20  1  0  0  0  0
  8 33  1  0  0  0  0
  9 10  1  0  0  0  0
  9 34  1  0  0  0  0
  9 35  1  0  0  0  0
 10 11  1  0  0  0  0
 10 36  1  0  0  0  0
 11 12  2  0  0  0  0
 11 13  1  0  0  0  0
 13 14  1  0  0  0  0
 13 37  1  0  0  0  0
 13 38  1  0  0  0  0
 14 19  1  0  0  0  0
 14 15  1  0  0  0  0
 15 16  2  0  0  0  0
 15 39  1  0  0  0  0
 16 17  1  0  0  0  0
 16 18  1  0  0  0  0
 17 40  1  0  0  0  0
 17 41  1  0  0  0  0
 17 42  1  0  0  0  0
 18 19  2  0  0  0  0
 18 43  1  0  0  0  0
 20 21  1  0  0  0  0
 20 44  1  0  0  0  0
 20 45  1  0  0  0  0
 21 46  1  0  0  0  0
 21 47  1  0  0  0  0
M  CHG  1   5   1
M  END
> <s_m_source_file>
AV-unprocessed.smi

> <i_m_source_file_index>
1126

> <i_lp_mmshare_version>
43012

> <i_f3d_flags>
0

> <s_epik_input>
W0NIM11PW0NIMl1bQ0gyXU4xW0NIMl1bQ0gyXVtDSF0oW0NIMl1bQ0gyXTEpW0NIMl1bTkhdQyg9TylbQ0gyXW4yW2NIXWMoW0NIM10pW2NIXW4y

> <s_epik_cmdline>
J2VwaWtfcHl0aG9uJywgJy1waCcsICc3LjAnLCAnLXRuJywgJzgnLCAnLW1hJywgJzIwMCcsICctbWV0YWxfYmluZGluZycsICctaW1hZScsICc8aW5maWxlLm1hZT4nLCAnLW9tYWUnLCAnPG91dGZpbGUubWFlPic=

> <r_lp_tautomer_probability>
1

> <r_epik_Ionization_Penalty>
0.00992859

> <r_epik_Ionization_Penalty_Charging>
0.00990284

> <r_epik_Ionization_Penalty_Neutral>
2.57527e-05

> <r_epik_State_Penalty>
0.00754525

> <r_epik_Charging_Adjusted_Penalty>
0.0174481

> <i_epik_Tot_Q>
1

> <i_epik_Tot_abs_Q>
1

> <r_epik_Metal_State_Penalty>
0.00754529

> <b_epik_Metal_Only>
0

> <s_lp_Force_Field>
OPLS_2005

> <r_lp_Energy>
19.6202

> <b_lp_Chiralities_Consistent>
1

> <s_lp_Variant>
AV-unprocessed.smi:1126-1

> <Gold.Version>
5.8.1

> <Gold.Id.Protein>
6NUR|6NUR_protein|mol2

> <Gold.PLP.Fitness>
46.0749

> <Gold.PLP.PLP>
-35.8669

> <Gold.PLP.part.hbond>
-2.0000

> <Gold.PLP.part.metal>
0.0000

> <Gold.PLP.part.buried>
1.7638

> <Gold.PLP.part.nonpolar>
-36.8141

> <Gold.PLP.part.repulsive>
0.2793

> <Gold.PLP.ligand.clash>
0.0000

> <Gold.PLP.ligand.torsion>
0.9021

> <Gold.PLP.Chemscore.Hbond>
2.9920

> <Gold.PLP.Chemscore.CHOScore>
1.0000

> <Gold.PLP.Chemscore.Metal>
0.0000

> <Gold.Chemscore.Hbonds>
donor molecule, donor type, donor heavy atom, donor atom, acceptor molecule, acceptor atom, score
      L1  H     5    48       P1  7948  2.00
      P1  H  7989  7998       L1    12  0.94
      L1  C    15    39       P1  8028  1.00

> <Gold.PLP.Chemscore.Internal.Correction>
0.0362

> <Gold.Rescore>
     Score         DG    S(hbond)    S(metal)    S(lipo)     H(rot)  DE(clash)    DE(int)     intcor
     15.67     -19.12       1.96        0.00     106.55       2.10       2.69       0.75       ----

> <Gold.Chemscore.Fitness>
15.6746

> <Gold.Chemscore.DG>
-19.1192

> <Gold.Chemscore.ZeroCoef>
-5.4800

> <Gold.Chemscore.Hbond>
1.9613

> <Gold.Chemscore.Metal>
0.0000

> <Gold.Chemscore.Lipo>
106.5472

> <Gold.Chemscore.Internal_Hbond>
0.0000

> <Gold.Chemscore.DEClash>
2.6914

> <Gold.Chemscore.DEInternal>
0.7533

> <Gold.Chemscore.Rot>
2.1006

> <Gold.Chemscore.Internal.Correction>
   9.000000E+99

> <Gold.Chemscore.Hbonds>
donor molecule, donor type, donor heavy atom, donor atom, acceptor molecule, acceptor atom, score
      L1  H     5    48       P1  7948  1.00
      P1  H  7989  7998       L1    12  0.91

> <Gold.Chemscore.Hbond.Weighted>
-6.5507

> <Gold.Chemscore.Metal.Weighted>
-0.0000

> <Gold.Chemscore.Lipo.Weighted>
-12.4660

> <Gold.Chemscore.Internal_Hbond.Weighted>
0.0000

> <Gold.Chemscore.DEClash.Weighted>
2.6914

> <Gold.Chemscore.DEInternal.Weighted>
0.7533

> <Gold.Chemscore.Rot.Weighted>
5.3775

> <Gold.Chemscore.Internal.Correction.Weighted>
   9.000000E+99

> <Gold.Protein.RotatedTorsions>
[ 6907 6896 6895 6894 ] final   59.12 input  -60.11 | X-H torsion
[ 7974 7965 7964 7962 ] final  112.19 input  175.53 | X-H torsion
[ 8008 7997 7996 7995 ] final  -42.32 input   59.86 | X-H torsion
[ 10167 10162 10161 10158 ] final -172.01 input  -65.29 | X-H torsion
[ 10718 10713 10712 10709 ] final  -85.14 input   66.30 | X-H torsion
[ 10763 10752 10751 10750 ] final  -39.82 input  -60.55 | X-H torsion
[ 11005 11000 10999 10996 ] final -153.21 input  -57.11 | X-H torsion

> <Gold.Protein.ActiveResidues>
 VAL166  LYS551  ARG553  GLY616  TRP617  ASP618  TYR619  PRO620  LYS621  CYS622 
 ASP623  PHE694  ASN695  SER759  ASP760  ASP761  ALA762  ILE779  LEU786  VAL792 
 PHE793  MET794  SER795  GLU796  ALA797  LYS798  CYS799  TRP800  GLU811  SER814 

> <Gold.Protein.RotatedAtoms>
  152.3886  134.6477  160.0115 H   0  0  0  0  0  0  0  0  0  0  0  0  # atno 6907 bound_to 6896
  151.6718  133.3308  159.3206 H   0  0  0  0  0  0  0  0  0  0  0  0  # atno 6908 bound_to 6896
  150.7807  134.6793  159.6479 H   0  0  0  0  0  0  0  0  0  0  0  0  # atno 6909 bound_to 6896
  145.2327  139.2812  143.4159 H   0  0  0  0  0  0  0  0  0  0  0  0  # atno 7974 bound_to 7965
  154.3999  140.1476  156.3336 H   0  0  0  0  0  0  0  0  0  0  0  0  # atno 8008 bound_to 7997
  155.8421  140.3461  155.5617 H   0  0  0  0  0  0  0  0  0  0  0  0  # atno 8009 bound_to 7997
  155.8076  140.0879  157.1913 H   0  0  0  0  0  0  0  0  0  0  0  0  # atno 8010 bound_to 7997
  139.5769  144.1512  152.1462 H   0  0  0  0  0  0  0  0  0  0  0  0  # atno 10167 bound_to 10162
  155.9999  130.4721  150.4517 H   0  0  0  0  0  0  0  0  0  0  0  0  # atno 10718 bound_to 10713
  153.9358  135.6767  153.4745 H   0  0  0  0  0  0  0  0  0  0  0  0  # atno 10763 bound_to 10752
  153.0956  135.4853  154.8770 H   0  0  0  0  0  0  0  0  0  0  0  0  # atno 10764 bound_to 10752
  154.7404  135.3159  154.8697 H   0  0  0  0  0  0  0  0  0  0  0  0  # atno 10765 bound_to 10752
  140.7106  134.3837  157.5198 H   0  0  0  0  0  0  0  0  0  0  0  0  # atno 11005 bound_to 11000
  146.3349  140.2667  142.8604 LP  0  0  0  0  0  0  0  0  0  0  0  0  # atno 17320 bound_to 7965
  144.9661  140.8323  143.5483 LP  0  0  0  0  0  0  0  0  0  0  0  0  # atno 17321 bound_to 7965
  140.1057  144.5501  150.6959 LP  0  0  0  0  0  0  0  0  0  0  0  0  # atno 17342 bound_to 10162
  140.7051  143.2462  151.4751 LP  0  0  0  0  0  0  0  0  0  0  0  0  # atno 17343 bound_to 10162
  157.2549  131.0554  151.2356 LP  0  0  0  0  0  0  0  0  0  0  0  0  # atno 17370 bound_to 10713
  157.3492  130.7073  149.6430 LP  0  0  0  0  0  0  0  0  0  0  0  0  # atno 17371 bound_to 10713
  139.8872  134.8887  156.2539 LP  0  0  0  0  0  0  0  0  0  0  0  0  # atno 17394 bound_to 11000
  141.0087  133.7108  156.1077 LP  0  0  0  0  0  0  0  0  0  0  0  0  # atno 17395 bound_to 11000

$$$$
