AV-unprocessed.smi:671|AV-procd|sdf|3277|dock3
  -GOLD-   22720 0233D 1   1.00000     0.00000
 Structure written by MMmdl.
 49 50  0  0  0  0  0  0  0  0  1 V2000
  152.7028  144.0092  162.7182 C   0  0  0  0  0  0  0  0  0  0  0  0
  153.0650  142.8451  161.8402 C   0  0  0  0  0  0  0  0  0  0  0  0
  153.9519  141.9670  162.2767 N   0  0  0  0  0  0  0  0  0  0  0  0
  154.0610  141.0638  161.2820 N   0  0  0  0  0  0  0  0  0  0  0  0
  154.9694  139.9439  161.4348 C   0  0  0  0  0  0  0  0  0  0  0  0
  153.2398  141.3706  160.2147 C   0  0  0  0  0  0  0  0  0  0  0  0
  153.1793  140.5177  158.9883 C   0  0  0  0  0  0  0  0  0  0  0  0
  152.5750  142.5231  160.5397 C   0  0  0  0  0  0  0  0  0  0  0  0
  151.5609  143.2905  159.7309 C   0  0  0  0  0  0  0  0  0  0  0  0
  151.9943  143.4643  158.2578 C   0  0  2  0  0  0  0  0  0  0  0  0
  152.6021  144.8488  157.9835 C   0  0  0  0  0  0  0  0  0  0  0  0
  150.8535  143.2627  157.3602 N   0  0  0  0  0  0  0  0  0  0  0  0
  150.2165  142.1126  157.0714 C   0  0  0  0  0  0  0  0  0  0  0  0
  150.5588  141.0394  157.5636 O   0  0  0  0  0  0  0  0  0  0  0  0
  149.1974  142.2444  156.2056 N   0  0  0  0  0  0  0  0  0  0  0  0
  148.3502  141.1712  155.6880 C   0  0  2  0  0  0  0  0  0  0  0  0
  148.8172  140.7781  154.2725 C   0  0  0  0  0  0  0  0  0  0  0  0
  147.7385  141.2638  153.2937 C   0  0  0  0  0  0  0  0  0  0  0  0
  146.8198  142.1796  154.1023 C   0  0  0  0  0  0  0  0  0  0  0  0
  146.8829  141.6174  155.5228 C   0  0  2  0  0  0  0  0  0  0  0  0
  146.3303  142.5706  156.5964 C   0  0  0  0  0  0  0  0  0  0  0  0
  151.8984  144.6018  162.2853 H   0  0  0  0  0  0  0  0  0  0  0  0
  153.5565  144.6713  162.8633 H   0  0  0  0  0  0  0  0  0  0  0  0
  152.3694  143.6729  163.7001 H   0  0  0  0  0  0  0  0  0  0  0  0
  154.4047  139.0114  161.4332 H   0  0  0  0  0  0  0  0  0  0  0  0
  155.5219  140.0201  162.3725 H   0  0  0  0  0  0  0  0  0  0  0  0
  155.6796  139.9324  160.6078 H   0  0  0  0  0  0  0  0  0  0  0  0
  152.3711  140.8285  158.3270 H   0  0  0  0  0  0  0  0  0  0  0  0
  153.0086  139.4730  159.2491 H   0  0  0  0  0  0  0  0  0  0  0  0
  154.1129  140.5792  158.4288 H   0  0  0  0  0  0  0  0  0  0  0  0
  150.6015  142.7745  159.7742 H   0  0  0  0  0  0  0  0  0  0  0  0
  151.3691  144.2702  160.1694 H   0  0  0  0  0  0  0  0  0  0  0  0
  152.7601  142.7242  158.0198 H   0  0  0  0  0  0  0  0  0  0  0  0
  153.5040  145.0118  158.5739 H   0  0  0  0  0  0  0  0  0  0  0  0
  151.8985  145.6467  158.2233 H   0  0  0  0  0  0  0  0  0  0  0  0
  152.8800  144.9538  156.9343 H   0  0  0  0  0  0  0  0  0  0  0  0
  150.5187  144.0899  156.8876 H   0  0  0  0  0  0  0  0  0  0  0  0
  148.9971  143.1731  155.8646 H   0  0  0  0  0  0  0  0  0  0  0  0
  148.4011  140.3032  156.3478 H   0  0  0  0  0  0  0  0  0  0  0  0
  149.7865  141.2162  154.0297 H   0  0  0  0  0  0  0  0  0  0  0  0
  148.9341  139.6971  154.1918 H   0  0  0  0  0  0  0  0  0  0  0  0
  148.1640  141.7716  152.4277 H   0  0  0  0  0  0  0  0  0  0  0  0
  147.1698  140.4094  152.9252 H   0  0  0  0  0  0  0  0  0  0  0  0
  147.2088  143.1986  154.0863 H   0  0  0  0  0  0  0  0  0  0  0  0
  145.8047  142.2056  153.7055 H   0  0  0  0  0  0  0  0  0  0  0  0
  146.2710  140.7138  155.5401 H   0  0  0  0  0  0  0  0  0  0  0  0
  146.8419  143.5335  156.5887 H   0  0  0  0  0  0  0  0  0  0  0  0
  146.4388  142.1406  157.5923 H   0  0  0  0  0  0  0  0  0  0  0  0
  145.2697  142.7633  156.4333 H   0  0  0  0  0  0  0  0  0  0  0  0
  1  2  1  0  0  0  0
  1 22  1  0  0  0  0
  1 23  1  0  0  0  0
  1 24  1  0  0  0  0
  2  8  1  0  0  0  0
  2  3  2  0  0  0  0
  3  4  1  0  0  0  0
  4  5  1  0  0  0  0
  4  6  1  0  0  0  0
  5 25  1  0  0  0  0
  5 26  1  0  0  0  0
  5 27  1  0  0  0  0
  6  7  1  0  0  0  0
  6  8  2  0  0  0  0
  7 28  1  0  0  0  0
  7 29  1  0  0  0  0
  7 30  1  0  0  0  0
  8  9  1  0  0  0  0
  9 10  1  0  0  0  0
  9 31  1  0  0  0  0
  9 32  1  0  0  0  0
 10 11  1  0  0  0  0
 10 12  1  0  0  0  0
 10 33  1  0  0  0  0
 11 34  1  0  0  0  0
 11 35  1  0  0  0  0
 11 36  1  0  0  0  0
 12 13  1  0  0  0  0
 12 37  1  0  0  0  0
 13 14  2  0  0  0  0
 13 15  1  0  0  0  0
 15 16  1  0  0  0  0
 15 38  1  0  0  0  0
 16 20  1  0  0  0  0
 16 17  1  0  0  0  0
 16 39  1  0  0  0  0
 17 18  1  0  0  0  0
 17 40  1  0  0  0  0
 17 41  1  0  0  0  0
 18 19  1  0  0  0  0
 18 42  1  0  0  0  0
 18 43  1  0  0  0  0
 19 20  1  0  0  0  0
 19 44  1  0  0  0  0
 19 45  1  0  0  0  0
 20 21  1  0  0  0  0
 20 46  1  0  0  0  0
 21 47  1  0  0  0  0
 21 48  1  0  0  0  0
 21 49  1  0  0  0  0
M  END
> <s_m_source_file>
AV-unprocessed.smi

> <i_m_source_file_index>
671

> <i_lp_mmshare_version>
43012

> <i_f3d_flags>
0

> <s_epik_input>
W0NIM11jMW5uKFtDSDNdKWMoW0NIM10pYzFbQ0gyXVtDQEhdKFtDSDNdKVtOSF1DKD1PKVtOSF1bQ0BASF0yW0NIMl1bQ0gyXVtDSDJdW0NASF0yW0NIM10=

> <s_epik_cmdline>
J2VwaWtfcHl0aG9uJywgJy1waCcsICc3LjAnLCAnLXRuJywgJzgnLCAnLW1hJywgJzIwMCcsICctbWV0YWxfYmluZGluZycsICctaW1hZScsICc8aW5maWxlLm1hZT4nLCAnLW9tYWUnLCAnPG91dGZpbGUubWFlPic=

> <r_lp_tautomer_probability>
1

> <r_epik_Ionization_Penalty>
0.0126855

> <r_epik_Ionization_Penalty_Charging>
0

> <r_epik_Ionization_Penalty_Neutral>
0.0126855

> <r_epik_State_Penalty>
0.00977547

> <r_epik_Charging_Adjusted_Penalty>
0.00977547

> <i_epik_Tot_Q>
0

> <i_epik_Tot_abs_Q>
0

> <r_epik_Metal_State_Penalty>
0.00957132

> <b_epik_Metal_Only>
0

> <s_lp_Force_Field>
OPLS_2005

> <r_lp_Energy>
22.3824

> <b_lp_Chiralities_Consistent>
1

> <s_lp_Variant>
AV-unprocessed.smi:671-5

> <Gold.Version>
5.8.1

> <Gold.Id.Protein>
6NUR|6NUR_protein|mol2

> <Gold.PLP.Fitness>
51.2093

> <Gold.PLP.PLP>
-48.5287

> <Gold.PLP.part.hbond>
-3.0000

> <Gold.PLP.part.metal>
0.0000

> <Gold.PLP.part.buried>
-6.3751

> <Gold.PLP.part.nonpolar>
-39.5018

> <Gold.PLP.part.repulsive>
0.1018

> <Gold.PLP.ligand.clash>
0.0000

> <Gold.PLP.ligand.torsion>
1.2021

> <Gold.PLP.Chemscore.Hbond>
1.6760

> <Gold.PLP.Chemscore.CHOScore>
0.0000

> <Gold.PLP.Chemscore.Metal>
0.0000

> <Gold.Chemscore.Hbonds>
donor molecule, donor type, donor heavy atom, donor atom, acceptor molecule, acceptor atom, score
      L1  H    12    37       P1  8028  0.65
      L1  H    15    38       P1  8028  1.00

> <Gold.PLP.Chemscore.Internal.Correction>
0.0567

> <Gold.Rescore>
     Score         DG    S(hbond)    S(metal)    S(lipo)     H(rot)  DE(clash)    DE(int)     intcor
     20.74     -22.34       1.87        0.00     122.37       1.45       0.62       0.99       ----

> <Gold.Chemscore.Fitness>
20.7351

> <Gold.Chemscore.DG>
-22.3404

> <Gold.Chemscore.ZeroCoef>
-5.4800

> <Gold.Chemscore.Hbond>
1.8728

> <Gold.Chemscore.Metal>
0.0000

> <Gold.Chemscore.Lipo>
122.3687

> <Gold.Chemscore.Internal_Hbond>
0.0000

> <Gold.Chemscore.DEClash>
0.6176

> <Gold.Chemscore.DEInternal>
0.9876

> <Gold.Chemscore.Rot>
1.4499

> <Gold.Chemscore.Internal.Correction>
   9.000000E+99

> <Gold.Chemscore.Hbonds>
donor molecule, donor type, donor heavy atom, donor atom, acceptor molecule, acceptor atom, score
      L1  H    12    37       P1  8028  0.63
      L1  H    15    38       P1  8028  0.96

> <Gold.Chemscore.Hbond.Weighted>
-6.2551

> <Gold.Chemscore.Metal.Weighted>
-0.0000

> <Gold.Chemscore.Lipo.Weighted>
-14.3171

> <Gold.Chemscore.Internal_Hbond.Weighted>
0.0000

> <Gold.Chemscore.DEClash.Weighted>
0.6176

> <Gold.Chemscore.DEInternal.Weighted>
0.9876

> <Gold.Chemscore.Rot.Weighted>
3.7118

> <Gold.Chemscore.Internal.Correction.Weighted>
   9.000000E+99

> <Gold.Protein.RotatedTorsions>
[ 6907 6896 6895 6894 ] final  129.43 input  -60.11 | X-H torsion
[ 7974 7965 7964 7962 ] final  -76.17 input  175.53 | X-H torsion
[ 8008 7997 7996 7995 ] final   35.69 input   59.86 | X-H torsion
[ 10167 10162 10161 10158 ] final -179.32 input  -65.29 | X-H torsion
[ 10718 10713 10712 10709 ] final   34.99 input   66.30 | X-H torsion
[ 10763 10752 10751 10750 ] final  -72.80 input  -60.55 | X-H torsion
[ 11005 11000 10999 10996 ] final  -34.27 input  -57.11 | X-H torsion

> <Gold.Protein.ActiveResidues>
 VAL166  LYS551  ARG553  GLY616  TRP617  ASP618  TYR619  PRO620  LYS621  CYS622 
 ASP623  PHE694  ASN695  SER759  ASP760  ASP761  ALA762  ILE779  LEU786  VAL792 
 PHE793  MET794  SER795  GLU796  ALA797  LYS798  CYS799  TRP800  GLU811  SER814 

> <Gold.Protein.RotatedAtoms>
  152.3624  133.6314  159.6024 H   0  0  0  0  0  0  0  0  0  0  0  0  # atno 6907 bound_to 6896
  150.7610  133.9402  159.3462 H   0  0  0  0  0  0  0  0  0  0  0  0  # atno 6908 bound_to 6896
  151.7238  135.0890  160.0340 H   0  0  0  0  0  0  0  0  0  0  0  0  # atno 6909 bound_to 6896
  145.6163  140.9374  143.1162 H   0  0  0  0  0  0  0  0  0  0  0  0  # atno 7974 bound_to 7965
  155.1751  140.3295  155.4385 H   0  0  0  0  0  0  0  0  0  0  0  0  # atno 8008 bound_to 7997
  156.2496  140.1936  156.6803 H   0  0  0  0  0  0  0  0  0  0  0  0  # atno 8009 bound_to 7997
  154.6310  140.0582  156.9718 H   0  0  0  0  0  0  0  0  0  0  0  0  # atno 8010 bound_to 7997
  139.5391  144.2412  152.0858 H   0  0  0  0  0  0  0  0  0  0  0  0  # atno 10167 bound_to 10162
  157.3171  130.7429  149.6761 H   0  0  0  0  0  0  0  0  0  0  0  0  # atno 10718 bound_to 10713
  154.4507  135.5918  153.6190 H   0  0  0  0  0  0  0  0  0  0  0  0  # atno 10763 bound_to 10752
  152.9813  135.6020  154.3608 H   0  0  0  0  0  0  0  0  0  0  0  0  # atno 10764 bound_to 10752
  154.3469  135.2841  155.2372 H   0  0  0  0  0  0  0  0  0  0  0  0  # atno 10765 bound_to 10752
  140.9703  133.7113  156.1512 H   0  0  0  0  0  0  0  0  0  0  0  0  # atno 11005 bound_to 11000
  144.7249  139.7908  143.7368 LP  0  0  0  0  0  0  0  0  0  0  0  0  # atno 17320 bound_to 7965
  146.1465  139.4536  143.0075 LP  0  0  0  0  0  0  0  0  0  0  0  0  # atno 17321 bound_to 7965
  140.1888  144.4772  150.6490 LP  0  0  0  0  0  0  0  0  0  0  0  0  # atno 17342 bound_to 10162
  140.6613  143.2253  151.5849 LP  0  0  0  0  0  0  0  0  0  0  0  0  # atno 17343 bound_to 10162
  155.9682  130.4234  150.4560 LP  0  0  0  0  0  0  0  0  0  0  0  0  # atno 17370 bound_to 10713
  157.2569  131.0558  151.2344 LP  0  0  0  0  0  0  0  0  0  0  0  0  # atno 17371 bound_to 10713
  140.7339  134.4224  157.5563 LP  0  0  0  0  0  0  0  0  0  0  0  0  # atno 17394 bound_to 11000
  139.8910  134.8791  156.2343 LP  0  0  0  0  0  0  0  0  0  0  0  0  # atno 17395 bound_to 11000

$$$$
