#       Name:                AV-unprocessed.smi:2768
#       Creating user name   scv26
#       Creation time:       Fri Mar 27 15:10:32 2020


#       File generated by GOLD software.
#

@<TRIPOS>MOLECULE
AV-unprocessed.smi:2768
    40    41     1
SMALL
NO_CHARGES


@<TRIPOS>ATOM
      1 ****         0.3183   2.3598   1.1088 O.2            1 S1                 0.0000
      2 ****         0.8295   1.2348   1.0616 C.2            1 S1                 0.0000
      3 ****         0.2331   0.0081   1.0266 N.pl3          1 S1                -1.0000
      4 ****        -1.2162  -0.2039   1.0398 C.3            1 S1                 0.0000
      5 ****        -1.7597  -0.2301  -0.4119 C.3            1 S1                 0.0000
      6 ****        -3.2620  -0.5992  -0.4992 C.3            1 S1                 0.0000
      7 ****        -3.5803  -1.9485   0.1780 C.3            1 S1                 0.0000
      8 ****        -3.0578  -1.9323   1.6296 C.3            1 S1                 0.0000
      9 ****        -1.5539  -1.5602   1.7173 C.3            1 S1                 0.0000
     10 ****        -1.1802  -1.5135   3.0797 O.3            1 S1                 0.0000
     11 ****         2.3697   1.1389   1.0118 C.3            1 S1                 0.0000
     12 ****         2.8795   2.1831   1.6700 F              1 S1                 0.0000
     13 ****         2.7925   0.0334   1.6360 F              1 S1                 0.0000
     14 ****         2.8608   1.1677  -0.4345 C.ar           1 S1                 0.0000
     15 ****         3.0769   2.3968  -1.0994 C.ar           1 S1                 0.0000
     16 ****         3.5210   2.3747  -2.4354 C.ar           1 S1                 0.0000
     17 ****         3.7328   1.1310  -3.0597 C.ar           1 S1                 0.0000
     18 ****         3.4864  -0.0403  -2.3169 C.ar           1 S1                 0.0000
     19 ****         3.0616  -0.0299  -1.0358 N.ar           1 S1                 0.0000
     20 ****        -1.7393   0.5855   1.5831 H              1 S1                 0.0000
     21 ****        -0.9736  -2.3522   1.2411 H              1 S1                 0.0000
     22 ****        -1.6001   0.7405  -0.8833 H              1 S1                 0.0000
     23 ****        -1.1894  -0.9495  -1.0019 H              1 S1                 0.0000
     24 ****        -3.8683   0.1874  -0.0453 H              1 S1                 0.0000
     25 ****        -3.5640  -0.6398  -1.5460 H              1 S1                 0.0000
     26 ****        -4.6531  -2.1414   0.1604 H              1 S1                 0.0000
     27 ****        -3.1036  -2.7591  -0.3747 H              1 S1                 0.0000
     28 ****        -3.6565  -1.2334   2.2182 H              1 S1                 0.0000
     29 ****        -3.2187  -2.9129   2.0792 H              1 S1                 0.0000
     30 ****        -0.2918  -1.1912   3.1183 H              1 S1                 0.0000
     31 ****         2.8994   3.3368  -0.5982 H              1 S1                 0.0000
     32 ****         3.6949   3.2957  -2.9722 H              1 S1                 0.0000
     33 ****         4.0741   1.0755  -4.0828 H              1 S1                 0.0000
     34 ****         3.6370  -1.0121  -2.7632 H              1 S1                 0.0000
     35 ****        -0.6768   2.4565   1.1265 LP             1 S1                 0.0000
     36 ****         0.9001   3.1729   1.1294 LP             1 S1                 0.0000
     37 ****         0.8235  -0.7982   0.9896 LP             1 S1                 0.0000
     38 ****        -1.2294  -2.4289   3.4793 LP             1 S1                 0.0000
     39 ****        -1.7891  -0.8982   3.5803 LP             1 S1                 0.0000
     40 ****         2.8992  -0.8846  -0.5427 LP             1 S1                 0.0000
@<TRIPOS>BOND
    1    1    2 2     
    2    2    3 1     
    3    2   11 1     
    4    3    4 1     
    5    4   20 1     
    6    4    9 1     
    7    4    5 1     
    8    5    6 1     
    9    5   22 1     
   10    5   23 1     
   11    6    7 1     
   12    6   24 1     
   13    6   25 1     
   14    7    8 1     
   15    7   26 1     
   16    7   27 1     
   17    8    9 1     
   18    8   28 1     
   19    8   29 1     
   20    9   21 1     
   21    9   10 1     
   22   10   30 1     
   23   11   12 1     
   24   11   13 1     
   25   11   14 1     
   26   14   19 ar    
   27   14   15 ar    
   28   15   16 ar    
   29   15   31 1     
   30   16   17 ar    
   31   16   32 1     
   32   17   18 ar    
   33   17   33 1     
   34   18   19 ar    
   35   18   34 1     
   36    1   35 1     
   37    1   36 1     
   38    3   37 1     
   39   10   38 1     
   40   10   39 1     
   41   19   40 1     
@<TRIPOS>SUBSTRUCTURE
      1 S1             1
@<TRIPOS>SET
LONE_PAIRS      STATIC     ATOMS    <user>   **** ""
6 35 36 37 38 39 40
DONOR_HYDROGENS      STATIC     ATOMS    <user>   **** ""
1 30
ATOM$BLUE        STATIC     ATOMS    COLORGROUP SYSTEM
6 35 36 37 38 39 40
ATOM$RED        STATIC     ATOMS    COLORGROUP SYSTEM
1 30
