AV-unprocessed.smi:592|AV-procd|sdf|3012|dock2
  -GOLD-   2262023523D 1   1.00000     0.00000
 Structure written by MMmdl.
 27 28  0  0  0  0  0  0  0  0  1 V2000
  149.2166  142.4037  157.7876 O   0  0  0  0  0  0  0  0  0  0  0  0
  150.0296  141.7233  157.1563 C   0  0  0  0  0  0  0  0  0  0  0  0
  151.5204  141.8796  157.4797 C   0  0  0  0  0  0  0  0  0  0  0  0
  151.7485  142.9424  158.4715 N   0  0  0  0  0  0  0  0  0  0  0  0
  151.3079  144.2359  158.1268 C   0  0  0  0  0  0  0  0  0  0  0  0
  151.4717  145.2854  158.9473 C   0  0  0  0  0  0  0  0  0  0  0  0
  152.1206  145.0632  160.2175 C   0  0  0  0  0  0  0  0  0  0  0  0
  152.5452  143.8301  160.5583 C   0  0  0  0  0  0  0  0  0  0  0  0
  152.3668  142.6796  159.6646 C   0  0  0  0  0  0  0  0  0  0  0  0
  152.7526  141.5516  159.9715 O   0  0  0  0  0  0  0  0  0  0  0  0
  149.8049  140.7965  156.1440 N   0  0  0  0  0  0  0  0  0  0  0  0
  148.8593  140.9638  155.2696 C   0  0  0  0  0  0  0  0  0  0  0  0
  147.9462  142.0084  155.1614 N   0  0  0  0  0  0  0  0  0  0  0  0
  147.2309  142.1439  153.9060 C   0  0  0  0  0  0  0  0  0  0  0  0
  147.0675  140.7437  153.3216 C   0  0  0  0  0  0  0  0  0  0  0  0
  148.4954  139.8179  153.9130 S   0  0  0  0  0  0  0  0  0  0  0  0
  151.8987  140.9302  157.8624 H   0  0  0  0  0  0  0  0  0  0  0  0
  152.0846  142.0540  156.5612 H   0  0  0  0  0  0  0  0  0  0  0  0
  150.8378  144.3164  157.1571 H   0  0  0  0  0  0  0  0  0  0  0  0
  151.1300  146.2699  158.6636 H   0  0  0  0  0  0  0  0  0  0  0  0
  152.2679  145.8896  160.8971 H   0  0  0  0  0  0  0  0  0  0  0  0
  153.0302  143.6832  161.5121 H   0  0  0  0  0  0  0  0  0  0  0  0
  146.2666  142.6295  154.0570 H   0  0  0  0  0  0  0  0  0  0  0  0
  147.8201  142.7720  153.2369 H   0  0  0  0  0  0  0  0  0  0  0  0
  146.1663  140.2714  153.7134 H   0  0  0  0  0  0  0  0  0  0  0  0
  147.0085  140.7478  152.2332 H   0  0  0  0  0  0  0  0  0  0  0  0
  147.9338  142.8036  155.7844 H   0  0  0  0  0  0  0  0  0  0  0  0
  1  2  2  0  0  0  0
  2  3  1  0  0  0  0
  2 11  1  0  0  0  0
  3  4  1  0  0  0  0
  3 17  1  0  0  0  0
  3 18  1  0  0  0  0
  4  9  1  0  0  0  0
  4  5  1  0  0  0  0
  5  6  2  0  0  0  0
  5 19  1  0  0  0  0
  6  7  1  0  0  0  0
  6 20  1  0  0  0  0
  7  8  2  0  0  0  0
  7 21  1  0  0  0  0
  8  9  1  0  0  0  0
  8 22  1  0  0  0  0
  9 10  2  0  0  0  0
 11 12  2  0  0  0  0
 12 16  1  0  0  0  0
 12 13  1  0  0  0  0
 13 14  1  0  0  0  0
 13 27  1  0  0  0  0
 14 15  1  0  0  0  0
 14 23  1  0  0  0  0
 14 24  1  0  0  0  0
 15 16  1  0  0  0  0
 15 25  1  0  0  0  0
 15 26  1  0  0  0  0
M  END
> <s_m_source_file>
AV-unprocessed.smi

> <i_m_source_file_index>
592

> <i_lp_mmshare_version>
43012

> <i_f3d_flags>
0

> <s_epik_input>
UzFbQ0gyXVtDSDJdTj1DMVtOSF1DKD1PKVtDSDJdbjJbY0hdW2NIXVtjSF1bY0hdYzI9Tw==

> <s_epik_cmdline>
J2VwaWtfcHl0aG9uJywgJy1waCcsICc3LjAnLCAnLXRuJywgJzgnLCAnLW1hJywgJzIwMCcsICctbWV0YWxfYmluZGluZycsICctaW1hZScsICc8aW5maWxlLm1hZT4nLCAnLW9tYWUnLCAnPG91dGZpbGUubWFlPic=

> <r_lp_tautomer_probability>
1

> <r_epik_Ionization_Penalty>
2.71369

> <r_epik_Ionization_Penalty_Charging>
3.63323e-07

> <r_epik_Ionization_Penalty_Neutral>
2.71369

> <r_epik_State_Penalty>
1.599

> <r_epik_Charging_Adjusted_Penalty>
1.599

> <i_epik_Tot_Q>
0

> <i_epik_Tot_abs_Q>
0

> <r_epik_Metal_State_Penalty>
1.59596

> <b_epik_Metal_Only>
1

> <s_epik_Chemistry_Notes>
This compound has an imine and may undergo hydrolysis.

> <s_lp_Force_Field>
OPLS_2005

> <r_lp_Energy>
29.0057

> <b_lp_Chiralities_Consistent>
1

> <s_lp_Variant>
AV-unprocessed.smi:592-3

> <Gold.Version>
5.8.1

> <Gold.Id.Protein>
6NUR|6NUR_protein|mol2

> <Gold.PLP.Fitness>
40.2217

> <Gold.PLP.PLP>
-35.6133

> <Gold.PLP.part.hbond>
-1.0000

> <Gold.PLP.part.metal>
0.0000

> <Gold.PLP.part.buried>
-5.0235

> <Gold.PLP.part.nonpolar>
-29.4553

> <Gold.PLP.part.repulsive>
0.6241

> <Gold.PLP.ligand.clash>
0.0000

> <Gold.PLP.ligand.torsion>
0.2784

> <Gold.PLP.Chemscore.Hbond>
0.7200

> <Gold.PLP.Chemscore.CHOScore>
1.0000

> <Gold.PLP.Chemscore.Metal>
0.0000

> <Gold.Chemscore.Hbonds>
donor molecule, donor type, donor heavy atom, donor atom, acceptor molecule, acceptor atom, score
      L1  H    13    27       P1  8028  0.49
      L1  C     5    19       P1  8028  1.00

> <Gold.PLP.Chemscore.Internal.Correction>
0.0052

> <Gold.Rescore>
     Score         DG    S(hbond)    S(metal)    S(lipo)     H(rot)  DE(clash)    DE(int)     intcor
     11.70     -13.63       0.67        0.00      79.50       1.33       0.29       1.64       ----

> <Gold.Chemscore.Fitness>
11.6961

> <Gold.Chemscore.DG>
-13.6283

> <Gold.Chemscore.ZeroCoef>
-5.4800

> <Gold.Chemscore.Hbond>
0.6749

> <Gold.Chemscore.Metal>
0.0000

> <Gold.Chemscore.Lipo>
79.4982

> <Gold.Chemscore.Internal_Hbond>
0.0000

> <Gold.Chemscore.DEClash>
0.2886

> <Gold.Chemscore.DEInternal>
1.6436

> <Gold.Chemscore.Rot>
1.3309

> <Gold.Chemscore.Internal.Correction>
   9.000000E+99

> <Gold.Chemscore.Hbonds>
donor molecule, donor type, donor heavy atom, donor atom, acceptor molecule, acceptor atom, score
      L1  H    13    27       P1  8028  0.37

> <Gold.Chemscore.Hbond.Weighted>
-2.2541

> <Gold.Chemscore.Metal.Weighted>
-0.0000

> <Gold.Chemscore.Lipo.Weighted>
-9.3013

> <Gold.Chemscore.Internal_Hbond.Weighted>
0.0000

> <Gold.Chemscore.DEClash.Weighted>
0.2886

> <Gold.Chemscore.DEInternal.Weighted>
1.6436

> <Gold.Chemscore.Rot.Weighted>
3.4071

> <Gold.Chemscore.Internal.Correction.Weighted>
   9.000000E+99

> <Gold.Protein.RotatedTorsions>
[ 6907 6896 6895 6894 ] final  -88.41 input  -60.11 | X-H torsion
[ 7974 7965 7964 7962 ] final  171.40 input  175.53 | X-H torsion
[ 8008 7997 7996 7995 ] final  143.43 input   59.86 | X-H torsion
[ 10167 10162 10161 10158 ] final  -99.34 input  -65.29 | X-H torsion
[ 10718 10713 10712 10709 ] final -154.80 input   66.30 | X-H torsion
[ 10763 10752 10751 10750 ] final -135.03 input  -60.55 | X-H torsion
[ 11005 11000 10999 10996 ] final -107.91 input  -57.11 | X-H torsion

> <Gold.Protein.ActiveResidues>
 VAL166  LYS551  ARG553  GLY616  TRP617  ASP618  TYR619  PRO620  LYS621  CYS622 
 ASP623  PHE694  ASN695  SER759  ASP760  ASP761  ALA762  ILE779  LEU786  VAL792 
 PHE793  MET794  SER795  GLU796  ALA797  LYS798  CYS799  TRP800  GLU811  SER814 

> <Gold.Protein.RotatedAtoms>
  150.6868  134.2746  159.4601 H   0  0  0  0  0  0  0  0  0  0  0  0  # atno 6907 bound_to 6896
  152.0665  134.9558  160.0584 H   0  0  0  0  0  0  0  0  0  0  0  0  # atno 6908 bound_to 6896
  152.0965  133.4192  159.4604 H   0  0  0  0  0  0  0  0  0  0  0  0  # atno 6909 bound_to 6896
  144.7296  139.9344  143.6426 H   0  0  0  0  0  0  0  0  0  0  0  0  # atno 7974 bound_to 7965
  156.2930  140.2262  156.4890 H   0  0  0  0  0  0  0  0  0  0  0  0  # atno 8008 bound_to 7997
  154.7787  140.0461  157.1131 H   0  0  0  0  0  0  0  0  0  0  0  0  # atno 8009 bound_to 7997
  154.9785  140.3075  155.4960 H   0  0  0  0  0  0  0  0  0  0  0  0  # atno 8010 bound_to 7997
  140.2634  143.3392  152.0604 H   0  0  0  0  0  0  0  0  0  0  0  0  # atno 10167 bound_to 10162
  156.5042  130.8405  151.2621 H   0  0  0  0  0  0  0  0  0  0  0  0  # atno 10718 bound_to 10713
  154.8710  135.3716  154.4832 H   0  0  0  0  0  0  0  0  0  0  0  0  # atno 10763 bound_to 10752
  153.5484  135.7025  153.5608 H   0  0  0  0  0  0  0  0  0  0  0  0  # atno 10764 bound_to 10752
  153.3738  135.4014  155.1772 H   0  0  0  0  0  0  0  0  0  0  0  0  # atno 10765 bound_to 10752
  141.0929  133.9022  157.2032 H   0  0  0  0  0  0  0  0  0  0  0  0  # atno 11005 bound_to 11000
  146.0832  139.3820  143.0451 LP  0  0  0  0  0  0  0  0  0  0  0  0  # atno 17320 bound_to 7965
  145.7812  140.9855  143.1098 LP  0  0  0  0  0  0  0  0  0  0  0  0  # atno 17321 bound_to 7965
  139.5010  144.6704  151.6257 LP  0  0  0  0  0  0  0  0  0  0  0  0  # atno 17342 bound_to 10162
  140.5947  143.9716  150.6347 LP  0  0  0  0  0  0  0  0  0  0  0  0  # atno 17343 bound_to 10162
  157.7459  130.9971  150.2806 LP  0  0  0  0  0  0  0  0  0  0  0  0  # atno 17370 bound_to 10713
  156.3303  130.3799  149.7496 LP  0  0  0  0  0  0  0  0  0  0  0  0  # atno 17371 bound_to 10713
  139.9759  135.0114  156.9630 LP  0  0  0  0  0  0  0  0  0  0  0  0  # atno 17394 bound_to 11000
  140.5208  134.0909  155.7291 LP  0  0  0  0  0  0  0  0  0  0  0  0  # atno 17395 bound_to 11000

$$$$
