#       Name:                AV-unprocessed.smi:1215
#       Creating user name   scv26
#       Creation time:       Fri Mar 27 04:14:41 2020


#       File generated by GOLD software.
#

@<TRIPOS>MOLECULE
AV-unprocessed.smi:1215
    49    50     1
SMALL
NO_CHARGES


@<TRIPOS>ATOM
      1 ****        -4.6239   5.8646   0.7912 C.3            1 S1                 0.0000
      2 ****        -4.4003   4.9827  -0.4430 C.3            1 S1                 0.0000
      3 ****        -4.3281   3.5781  -0.0913 N.pl3          1 S1                 0.0000
      4 ****        -3.2017   2.8002   0.0900 C.2            1 S1                 0.0000
      5 ****        -3.6613   1.5566   0.4207 C.2            1 S1                 0.0000
      6 ****        -2.9326   0.3784   0.7221 N.am           1 S1                 0.0000
      7 ****        -1.5991   0.2200   0.7133 C.2            1 S1                 0.0000
      8 ****        -0.7827   1.0915   0.4127 O.2            1 S1                 0.0000
      9 ****        -1.2522  -1.0252   1.0693 N.am           1 S1                 0.0000
     10 ****         0.1189  -1.5154   1.1506 C.3            1 S1                 0.0000
     11 ****         0.6892  -1.8211  -0.2488 C.3            1 S1                 0.0000
     12 ****         2.0606  -2.3975  -0.2187 N.4            1 S1                 1.0000
     13 ****         2.4495  -2.9679  -1.5371 C.3            1 S1                 0.0000
     14 ****         3.7694  -3.7492  -1.4455 C.3            1 S1                 0.0000
     15 ****         4.8906  -2.8685  -0.8849 C.3            1 S1                 0.0000
     16 ****         4.4618  -2.2777   0.4649 C.3            1 S1                 0.0000
     17 ****         3.1200  -1.5197   0.3735 C.3            1 S1                 0.0000
     18 ****         3.2665  -0.1572  -0.3381 C.3            1 S1                 0.0000
     19 ****        -5.0771   1.6545   0.4208 C.2            1 S1                 0.0000
     20 ****        -5.4727   2.8793   0.1099 N.2            1 S1                 0.0000
     21 ****        -4.6663   6.9175   0.5126 H              1 S1                 0.0000
     22 ****        -3.8157   5.7432   1.5132 H              1 S1                 0.0000
     23 ****        -5.5604   5.6148   1.2909 H              1 S1                 0.0000
     24 ****        -5.2068   5.1251  -1.1638 H              1 S1                 0.0000
     25 ****        -3.4737   5.2650  -0.9444 H              1 S1                 0.0000
     26 ****        -2.2048   3.1991  -0.0265 H              1 S1                 0.0000
     27 ****        -3.4864  -0.4270   0.9747 H              1 S1                 0.0000
     28 ****        -1.9871  -1.6769   1.3037 H              1 S1                 0.0000
     29 ****         0.7213  -0.7754   1.6780 H              1 S1                 0.0000
     30 ****         0.1236  -2.4181   1.7620 H              1 S1                 0.0000
     31 ****         0.0251  -2.5415  -0.7285 H              1 S1                 0.0000
     32 ****         0.6708  -0.9344  -0.8827 H              1 S1                 0.0000
     33 ****         1.6680  -3.6428  -1.8884 H              1 S1                 0.0000
     34 ****         2.5282  -2.1738  -2.2804 H              1 S1                 0.0000
     35 ****         3.6346  -4.6230  -0.8064 H              1 S1                 0.0000
     36 ****         4.0489  -4.1264  -2.4297 H              1 S1                 0.0000
     37 ****         5.8032  -3.4534  -0.7656 H              1 S1                 0.0000
     38 ****         5.1244  -2.0693  -1.5891 H              1 S1                 0.0000
     39 ****         4.3652  -3.0872   1.1899 H              1 S1                 0.0000
     40 ****         5.2431  -1.6212   0.8500 H              1 S1                 0.0000
     41 ****         2.8376  -1.3075   1.4038 H              1 S1                 0.0000
     42 ****         4.0687   0.4274   0.1130 H              1 S1                 0.0000
     43 ****         2.3606   0.4428  -0.2549 H              1 S1                 0.0000
     44 ****         3.5009  -0.2646  -1.3967 H              1 S1                 0.0000
     45 ****        -5.8155   0.8952   0.6327 H              1 S1                 0.0000
     46 ****         1.9994  -3.1930   0.4007 H              1 S1                 0.0000
     47 ****        -1.0986   2.0027   0.1485 LP             1 S1                 0.0000
     48 ****         0.1961   0.8879   0.4328 LP             1 S1                 0.0000
     49 ****        -6.4117   3.2159   0.0389 LP             1 S1                 0.0000
@<TRIPOS>BOND
    1    1    2 1     
    2    1   21 1     
    3    1   22 1     
    4    1   23 1     
    5    2    3 1     
    6    2   24 1     
    7    2   25 1     
    8    3   20 1     
    9    3    4 1     
   10    4    5 2     
   11    4   26 1     
   12    5    6 1     
   13    5   19 1     
   14    6    7 am    
   15    6   27 1     
   16    7    8 2     
   17    7    9 am    
   18    9   10 1     
   19    9   28 1     
   20   10   11 1     
   21   10   29 1     
   22   10   30 1     
   23   11   12 1     
   24   11   31 1     
   25   11   32 1     
   26   12   17 1     
   27   12   13 1     
   28   12   46 1     
   29   13   14 1     
   30   13   33 1     
   31   13   34 1     
   32   14   15 1     
   33   14   35 1     
   34   14   36 1     
   35   15   16 1     
   36   15   37 1     
   37   15   38 1     
   38   16   17 1     
   39   16   39 1     
   40   16   40 1     
   41   17   18 1     
   42   17   41 1     
   43   18   42 1     
   44   18   43 1     
   45   18   44 1     
   46   19   20 2     
   47   19   45 1     
   48    8   47 1     
   49    8   48 1     
   50   20   49 1     
@<TRIPOS>SUBSTRUCTURE
      1 S1             1
@<TRIPOS>SET
LONE_PAIRS      STATIC     ATOMS    <user>   **** ""
3 47 48 49
DONOR_HYDROGENS      STATIC     ATOMS    <user>   **** ""
3 27 28 46
ATOM$BLUE        STATIC     ATOMS    COLORGROUP SYSTEM
3 47 48 49
ATOM$RED        STATIC     ATOMS    COLORGROUP SYSTEM
3 27 28 46
