AV-unprocessed.smi:2269|AV-procd|sdf|9153|dock6
  -GOLD-   2272012363D 1   1.00000     0.00000
 Structure written by MMmdl.
 41 42  0  0  0  0  0  0  0  0  1 V2000
  145.3857  144.2067  153.5161 C   0  0  0  0  0  0  0  0  0  0  0  0
  146.1401  143.0641  154.1731 C   0  0  0  0  0  0  0  0  0  0  0  0
  147.0805  142.4180  153.3652 N   0  0  0  0  0  0  0  0  0  0  0  0
  147.7720  141.4346  153.8413 C   0  0  0  0  0  0  0  0  0  0  0  0
  147.6078  140.9897  155.1627 N   0  0  0  0  0  0  0  0  0  0  0  0
  148.4519  139.8588  155.5792 C   0  0  0  0  0  0  0  0  0  0  0  0
  149.9588  140.1807  155.4493 C   0  0  1  0  0  0  0  0  0  0  0  0
  150.3820  139.8677  154.1377 O   0  0  0  0  0  0  0  0  0  0  0  0
  150.2495  141.6705  155.6800 C   0  0  0  0  0  0  0  0  0  0  0  0
  150.6333  141.8458  157.0360 O   0  0  0  0  0  0  0  0  0  0  0  0
  151.4039  143.0138  157.2756 C   0  0  0  0  0  0  0  0  0  0  0  0
  151.8469  143.1498  158.7252 C   0  0  0  0  0  0  0  0  0  0  0  0
  151.6034  144.3587  159.4121 C   0  0  0  0  0  0  0  0  0  0  0  0
  152.0047  144.5098  160.7532 C   0  0  0  0  0  0  0  0  0  0  0  0
  152.6554  143.4526  161.4158 C   0  0  0  0  0  0  0  0  0  0  0  0
  152.9062  142.2460  160.7353 C   0  0  0  0  0  0  0  0  0  0  0  0
  152.5069  142.0898  159.3927 C   0  0  0  0  0  0  0  0  0  0  0  0
  152.8412  140.5940  158.5921 Cl  0  0  0  0  0  0  0  0  0  0  0  0
  146.7061  141.5571  156.0154 C   0  0  0  0  0  0  0  0  0  0  0  0
  146.5589  141.1470  157.1684 O   0  0  0  0  0  0  0  0  0  0  0  0
  145.9289  142.6772  155.4609 C   0  0  0  0  0  0  0  0  0  0  0  0
  144.9173  143.3419  156.3865 C   0  0  0  0  0  0  0  0  0  0  0  0
  144.3147  144.0027  153.5078 H   0  0  0  0  0  0  0  0  0  0  0  0
  145.7059  144.3524  152.4836 H   0  0  0  0  0  0  0  0  0  0  0  0
  145.5603  145.1389  154.0539 H   0  0  0  0  0  0  0  0  0  0  0  0
  148.5145  140.8936  153.2519 H   0  0  0  0  0  0  0  0  0  0  0  0
  148.2150  139.5142  156.5883 H   0  0  0  0  0  0  0  0  0  0  0  0
  148.2031  139.0024  154.9503 H   0  0  0  0  0  0  0  0  0  0  0  0
  150.5533  139.5948  156.1517 H   0  0  0  0  0  0  0  0  0  0  0  0
  150.5589  138.9405  154.0921 H   0  0  0  0  0  0  0  0  0  0  0  0
  151.0657  142.0052  155.0378 H   0  0  0  0  0  0  0  0  0  0  0  0
  149.3705  142.2673  155.4313 H   0  0  0  0  0  0  0  0  0  0  0  0
  152.2967  142.9635  156.6521 H   0  0  0  0  0  0  0  0  0  0  0  0
  150.8547  143.8986  156.9502 H   0  0  0  0  0  0  0  0  0  0  0  0
  151.1037  145.1762  158.9134 H   0  0  0  0  0  0  0  0  0  0  0  0
  151.8132  145.4370  161.2731 H   0  0  0  0  0  0  0  0  0  0  0  0
  152.9637  143.5674  162.4445 H   0  0  0  0  0  0  0  0  0  0  0  0
  153.4085  141.4379  161.2462 H   0  0  0  0  0  0  0  0  0  0  0  0
  145.4211  143.7461  157.2651 H   0  0  0  0  0  0  0  0  0  0  0  0
  144.1813  142.6120  156.7248 H   0  0  0  0  0  0  0  0  0  0  0  0
  144.3748  144.1593  155.9145 H   0  0  0  0  0  0  0  0  0  0  0  0
  1  2  1  0  0  0  0
  1 23  1  0  0  0  0
  1 24  1  0  0  0  0
  1 25  1  0  0  0  0
  2 21  2  0  0  0  0
  2  3  1  0  0  0  0
  3  4  2  0  0  0  0
  4  5  1  0  0  0  0
  4 26  1  0  0  0  0
  5  6  1  0  0  0  0
  5 19  1  0  0  0  0
  6  7  1  0  0  0  0
  6 27  1  0  0  0  0
  6 28  1  0  0  0  0
  7  8  1  0  0  0  0
  7  9  1  0  0  0  0
  7 29  1  0  0  0  0
  8 30  1  0  0  0  0
  9 10  1  0  0  0  0
  9 31  1  0  0  0  0
  9 32  1  0  0  0  0
 10 11  1  0  0  0  0
 11 12  1  0  0  0  0
 11 33  1  0  0  0  0
 11 34  1  0  0  0  0
 12 17  1  0  0  0  0
 12 13  2  0  0  0  0
 13 14  1  0  0  0  0
 13 35  1  0  0  0  0
 14 15  2  0  0  0  0
 14 36  1  0  0  0  0
 15 16  1  0  0  0  0
 15 37  1  0  0  0  0
 16 17  2  0  0  0  0
 16 38  1  0  0  0  0
 17 18  1  0  0  0  0
 19 20  2  0  0  0  0
 19 21  1  0  0  0  0
 21 22  1  0  0  0  0
 22 39  1  0  0  0  0
 22 40  1  0  0  0  0
 22 41  1  0  0  0  0
M  END
> <s_m_source_file>
AV-unprocessed.smi

> <i_m_source_file_index>
2269

> <i_lp_mmshare_version>
43012

> <i_f3d_flags>
0

> <s_epik_input>
W0NIM11jMW5bY0hdbihjKD1PKWMxW0NIM10pW0NIMl1bQ0BIXShbT0hdKVtDSDJdT1tDSDJdYzJbY0hdW2NIXVtjSF1bY0hdYzJDbA==

> <s_epik_cmdline>
J2VwaWtfcHl0aG9uJywgJy1waCcsICc3LjAnLCAnLXRuJywgJzgnLCAnLW1hJywgJzIwMCcsICctbWV0YWxfYmluZGluZycsICctaW1hZScsICc8aW5maWxlLm1hZT4nLCAnLW9tYWUnLCAnPG91dGZpbGUubWFlPic=

> <r_lp_tautomer_probability>
1

> <r_epik_Ionization_Penalty>
5.36022e-05

> <r_epik_Ionization_Penalty_Charging>
1.17753e-07

> <r_epik_Ionization_Penalty_Neutral>
5.34845e-05

> <r_epik_State_Penalty>
-0

> <r_epik_Charging_Adjusted_Penalty>
1.17753e-07

> <i_epik_Tot_Q>
0

> <i_epik_Tot_abs_Q>
0

> <r_epik_Metal_State_Penalty>
-0

> <b_epik_Metal_Only>
0

> <s_lp_Force_Field>
OPLS_2005

> <r_lp_Energy>
21.6364

> <b_lp_Chiralities_Consistent>
1

> <s_lp_Variant>
AV-unprocessed.smi:2269-2

> <Gold.Version>
5.8.1

> <Gold.Id.Protein>
6NUR|6NUR_protein|mol2

> <Gold.PLP.Fitness>
49.7678

> <Gold.PLP.PLP>
-45.6626

> <Gold.PLP.part.hbond>
-1.8106

> <Gold.PLP.part.metal>
0.0000

> <Gold.PLP.part.buried>
-4.9308

> <Gold.PLP.part.nonpolar>
-39.7665

> <Gold.PLP.part.repulsive>
0.2958

> <Gold.PLP.ligand.clash>
0.0000

> <Gold.PLP.ligand.torsion>
1.0112

> <Gold.PLP.Chemscore.Hbond>
1.0000

> <Gold.PLP.Chemscore.CHOScore>
1.0000

> <Gold.PLP.Chemscore.Metal>
0.0000

> <Gold.Chemscore.Hbonds>
donor molecule, donor type, donor heavy atom, donor atom, acceptor molecule, acceptor atom, score
      P1  H  7989  7998       L1     8  1.00
      L1  C     4    26       P1  7957  1.00

> <Gold.PLP.Chemscore.Internal.Correction>
0.1275

> <Gold.Rescore>
     Score         DG    S(hbond)    S(metal)    S(lipo)     H(rot)  DE(clash)    DE(int)     intcor
     13.10     -16.53       0.94        0.00     122.54       2.52       1.47       1.95       ----

> <Gold.Chemscore.Fitness>
13.1014

> <Gold.Chemscore.DG>
-16.5262

> <Gold.Chemscore.ZeroCoef>
-5.4800

> <Gold.Chemscore.Hbond>
0.9431

> <Gold.Chemscore.Metal>
0.0000

> <Gold.Chemscore.Lipo>
122.5434

> <Gold.Chemscore.Internal_Hbond>
0.0000

> <Gold.Chemscore.DEClash>
1.4720

> <Gold.Chemscore.DEInternal>
1.9528

> <Gold.Chemscore.Rot>
2.5162

> <Gold.Chemscore.Internal.Correction>
   9.000000E+99

> <Gold.Chemscore.Hbonds>
donor molecule, donor type, donor heavy atom, donor atom, acceptor molecule, acceptor atom, score
      P1  H  7989  7998       L1     8  0.83

> <Gold.Chemscore.Hbond.Weighted>
-3.1500

> <Gold.Chemscore.Metal.Weighted>
-0.0000

> <Gold.Chemscore.Lipo.Weighted>
-14.3376

> <Gold.Chemscore.Internal_Hbond.Weighted>
0.0000

> <Gold.Chemscore.DEClash.Weighted>
1.4720

> <Gold.Chemscore.DEInternal.Weighted>
1.9528

> <Gold.Chemscore.Rot.Weighted>
6.4414

> <Gold.Chemscore.Internal.Correction.Weighted>
   9.000000E+99

> <Gold.Protein.RotatedTorsions>
[ 6907 6896 6895 6894 ] final  124.59 input  -60.11 | X-H torsion
[ 7974 7965 7964 7962 ] final  -96.05 input  175.53 | X-H torsion
[ 8008 7997 7996 7995 ] final   19.68 input   59.86 | X-H torsion
[ 10167 10162 10161 10158 ] final   53.65 input  -65.29 | X-H torsion
[ 10718 10713 10712 10709 ] final -143.94 input   66.30 | X-H torsion
[ 10763 10752 10751 10750 ] final   33.24 input  -60.55 | X-H torsion
[ 11005 11000 10999 10996 ] final   83.33 input  -57.11 | X-H torsion

> <Gold.Protein.ActiveResidues>
 VAL166  LYS551  ARG553  GLY616  TRP617  ASP618  TYR619  PRO620  LYS621  CYS622 
 ASP623  PHE694  ASN695  SER759  ASP760  ASP761  ALA762  ILE779  LEU786  VAL792 
 PHE793  MET794  SER795  GLU796  ALA797  LYS798  CYS799  TRP800  GLU811  SER814 

> <Gold.Protein.RotatedAtoms>
  152.4065  133.6897  159.6360 H   0  0  0  0  0  0  0  0  0  0  0  0  # atno 6907 bound_to 6896
  150.7950  133.8699  159.3264 H   0  0  0  0  0  0  0  0  0  0  0  0  # atno 6908 bound_to 6896
  151.6452  135.1010  160.0201 H   0  0  0  0  0  0  0  0  0  0  0  0  # atno 6909 bound_to 6896
  145.3520  140.9478  143.2549 H   0  0  0  0  0  0  0  0  0  0  0  0  # atno 7974 bound_to 7965
  154.9244  140.3032  155.5199 H   0  0  0  0  0  0  0  0  0  0  0  0  # atno 8008 bound_to 7997
  156.3008  140.2365  156.4234 H   0  0  0  0  0  0  0  0  0  0  0  0  # atno 8009 bound_to 7997
  154.8299  140.0419  157.1458 H   0  0  0  0  0  0  0  0  0  0  0  0  # atno 8010 bound_to 7997
  140.2385  144.3609  150.6388 H   0  0  0  0  0  0  0  0  0  0  0  0  # atno 10167 bound_to 10162
  156.3641  130.7753  151.1925 H   0  0  0  0  0  0  0  0  0  0  0  0  # atno 10718 bound_to 10713
  153.0222  135.6392  154.1480 H   0  0  0  0  0  0  0  0  0  0  0  0  # atno 10763 bound_to 10752
  154.1213  135.2846  155.3209 H   0  0  0  0  0  0  0  0  0  0  0  0  # atno 10764 bound_to 10752
  154.6261  135.5508  153.7691 H   0  0  0  0  0  0  0  0  0  0  0  0  # atno 10765 bound_to 10752
  139.9034  134.8137  156.2295 H   0  0  0  0  0  0  0  0  0  0  0  0  # atno 11005 bound_to 11000
  144.8711  139.5037  143.6767 LP  0  0  0  0  0  0  0  0  0  0  0  0  # atno 17320 bound_to 7965
  146.2964  139.7291  142.9123 LP  0  0  0  0  0  0  0  0  0  0  0  0  # atno 17321 bound_to 7965
  140.6131  143.2170  151.6846 LP  0  0  0  0  0  0  0  0  0  0  0  0  # atno 17342 bound_to 10162
  139.5085  144.3608  152.0564 LP  0  0  0  0  0  0  0  0  0  0  0  0  # atno 17343 bound_to 10162
  157.7477  131.0391  150.4536 LP  0  0  0  0  0  0  0  0  0  0  0  0  # atno 17370 bound_to 10713
  156.4752  130.4061  149.6494 LP  0  0  0  0  0  0  0  0  0  0  0  0  # atno 17371 bound_to 10713
  141.0355  133.6966  156.1504 LP  0  0  0  0  0  0  0  0  0  0  0  0  # atno 17394 bound_to 11000
  140.7034  134.4540  157.5585 LP  0  0  0  0  0  0  0  0  0  0  0  0  # atno 17395 bound_to 11000

$$$$
