#       Name:                AV-unprocessed.smi:109
#       Creating user name   scv26
#       Creation time:       Thu Mar 26 18:05:40 2020


#       File generated by GOLD software.
#

@<TRIPOS>MOLECULE
AV-unprocessed.smi:109
    71    74     1
SMALL
NO_CHARGES


@<TRIPOS>ATOM
      1 ****        -1.8940   2.9884  -3.9320 O.3            1 S1                 0.0000
      2 ****        -1.4298   2.6139  -2.6529 C.3            1 S1                 0.0000
      3 ****        -2.6235   2.3806  -1.7112 C.3            1 S1                 0.0000
      4 ****        -2.2247   2.0294  -0.2566 C.3            1 S1                 0.0000
      5 ****        -1.4618   0.7790  -0.2488 N.pl3          1 S1                 0.0000
      6 ****        -0.1187   0.7549  -0.0955 C.ar           1 S1                 0.0000
      7 ****         0.6158   1.8978  -0.0702 N.ar           1 S1                 0.0000
      8 ****         1.9424   1.8394   0.0814 C.ar           1 S1                 0.0000
      9 ****         2.7199   0.7635   0.2228 N.ar           1 S1                 0.0000
     10 ****         1.9854  -0.3860   0.1958 C.ar           1 S1                 0.0000
     11 ****         0.5747  -0.4750   0.0425 C.ar           1 S1                 0.0000
     12 ****         0.1830  -1.8072   0.0695 N.2            1 S1                 0.0000
     13 ****         1.3015  -2.4628   0.2327 C.2            1 S1                 0.0000
     14 ****         2.4361  -1.6824   0.3061 N.pl3          1 S1                 0.0000
     15 ****         3.8632  -2.0916   0.4975 C.3            1 S1                 0.0000
     16 ****         3.9056  -3.4569   0.8114 O.3            1 S1                 0.0000
     17 ****         4.6587  -4.1959  -0.1520 C.3            1 S1                 0.0000
     18 ****         3.6918  -4.8468  -1.1656 C.3            1 S1                 0.0000
     19 ****         3.1310  -6.0164  -0.6091 O.3            1 S1                 0.0000
     20 ****         5.5930  -3.1234  -0.7281 C.3            1 S1                 0.0000
     21 ****         6.1971  -3.4440  -1.9679 O.3            1 S1                 0.0000
     22 ****         4.7279  -1.8740  -0.7616 C.3            1 S1                 0.0000
     23 ****         3.9807  -1.7621  -1.9635 O.3            1 S1                 0.0000
     24 ****        -3.4395   1.8998   0.7074 C.3            1 S1                 0.0000
     25 ****        -4.3097   3.1810   0.7640 C.3            1 S1                 0.0000
     26 ****        -5.4785   3.0581   1.7557 C.3            1 S1                 0.0000
     27 ****        -4.9868   2.6961   3.1620 C.3            1 S1                 0.0000
     28 ****        -4.1538   1.4099   3.1256 C.3            1 S1                 0.0000
     29 ****        -2.9791   1.5383   2.1437 C.3            1 S1                 0.0000
     30 ****         4.2028  -1.5119   1.3570 H              1 S1                 0.0000
     31 ****         5.2481  -4.9700   0.3415 H              1 S1                 0.0000
     32 ****         6.3969  -2.9585  -0.0087 H              1 S1                 0.0000
     33 ****         5.3236  -0.9681  -0.6445 H              1 S1                 0.0000
     34 ****        -2.4182   2.2831  -4.2799 H              1 S1                 0.0000
     35 ****        -0.8231   1.7141  -2.7552 H              1 S1                 0.0000
     36 ****        -0.7844   3.4030  -2.2663 H              1 S1                 0.0000
     37 ****        -3.2139   3.2949  -1.7235 H              1 S1                 0.0000
     38 ****        -3.2640   1.5954  -2.1156 H              1 S1                 0.0000
     39 ****        -1.6175   2.8495   0.1259 H              1 S1                 0.0000
     40 ****        -2.0170  -0.0644  -0.2715 H              1 S1                 0.0000
     41 ****         2.4536   2.7908   0.0907 H              1 S1                 0.0000
     42 ****         1.3228  -3.5403   0.3055 H              1 S1                 0.0000
     43 ****         2.9004  -4.1673  -1.4790 H              1 S1                 0.0000
     44 ****         4.2246  -5.1517  -2.0659 H              1 S1                 0.0000
     45 ****         2.5571  -6.4083  -1.2497 H              1 S1                 0.0000
     46 ****         6.7210  -4.2224  -1.8542 H              1 S1                 0.0000
     47 ****         4.5877  -1.7227  -2.6868 H              1 S1                 0.0000
     48 ****        -4.0716   1.0872   0.3448 H              1 S1                 0.0000
     49 ****        -3.6886   4.0353   1.0367 H              1 S1                 0.0000
     50 ****        -4.7355   3.4054  -0.2124 H              1 S1                 0.0000
     51 ****        -6.0365   3.9942   1.7885 H              1 S1                 0.0000
     52 ****        -6.1756   2.2959   1.4054 H              1 S1                 0.0000
     53 ****        -4.3861   3.5128   3.5643 H              1 S1                 0.0000
     54 ****        -5.8358   2.5728   3.8350 H              1 S1                 0.0000
     55 ****        -3.7793   1.1820   4.1239 H              1 S1                 0.0000
     56 ****        -4.7857   0.5707   2.8326 H              1 S1                 0.0000
     57 ****        -2.4298   0.5967   2.1491 H              1 S1                 0.0000
     58 ****        -2.2846   2.2972   2.5068 H              1 S1                 0.0000
     59 ****        -1.1158   3.1598  -4.5362 LP             1 S1                 0.0000
     60 ****        -2.4490   3.8171  -3.8599 LP             1 S1                 0.0000
     61 ****         0.1629   2.7843  -0.1651 LP             1 S1                 0.0000
     62 ****         3.7132   0.7959   0.3343 LP             1 S1                 0.0000
     63 ****        -0.7414  -2.1788  -0.0161 LP             1 S1                 0.0000
     64 ****         2.9716  -3.8133   0.8357 LP             1 S1                 0.0000
     65 ****         4.3290  -3.5701   1.7103 LP             1 S1                 0.0000
     66 ****         2.6103  -5.7830   0.2122 LP             1 S1                 0.0000
     67 ****         3.8591  -6.6591  -0.3706 LP             1 S1                 0.0000
     68 ****         6.7784  -2.6868  -2.2656 LP             1 S1                 0.0000
     69 ****         5.4896  -3.6110  -2.6546 LP             1 S1                 0.0000
     70 ****         3.4266  -0.9300  -1.9411 LP             1 S1                 0.0000
     71 ****         3.3835  -2.5576  -2.0659 LP             1 S1                 0.0000
@<TRIPOS>BOND
    1    1    2 1     
    2    1   34 1     
    3    2    3 1     
    4    2   35 1     
    5    2   36 1     
    6    3    4 1     
    7    3   37 1     
    8    3   38 1     
    9    4    5 1     
   10    4   24 1     
   11    4   39 1     
   12    5    6 1     
   13    5   40 1     
   14    6   11 ar    
   15    6    7 ar    
   16    7    8 ar    
   17    8    9 ar    
   18    8   41 1     
   19    9   10 ar    
   20   10   14 1     
   21   10   11 ar    
   22   11   12 1     
   23   12   13 2     
   24   13   14 1     
   25   13   42 1     
   26   14   15 1     
   27   15   30 1     
   28   15   22 1     
   29   15   16 1     
   30   16   17 1     
   31   17   31 1     
   32   17   18 1     
   33   17   20 1     
   34   18   19 1     
   35   18   43 1     
   36   18   44 1     
   37   19   45 1     
   38   20   32 1     
   39   20   21 1     
   40   20   22 1     
   41   21   46 1     
   42   22   33 1     
   43   22   23 1     
   44   23   47 1     
   45   24   29 1     
   46   24   25 1     
   47   24   48 1     
   48   25   26 1     
   49   25   49 1     
   50   25   50 1     
   51   26   27 1     
   52   26   51 1     
   53   26   52 1     
   54   27   28 1     
   55   27   53 1     
   56   27   54 1     
   57   28   29 1     
   58   28   55 1     
   59   28   56 1     
   60   29   57 1     
   61   29   58 1     
   62    1   59 1     
   63    1   60 1     
   64    7   61 1     
   65    9   62 1     
   66   12   63 1     
   67   16   64 1     
   68   16   65 1     
   69   19   66 1     
   70   19   67 1     
   71   21   68 1     
   72   21   69 1     
   73   23   70 1     
   74   23   71 1     
@<TRIPOS>SUBSTRUCTURE
      1 S1             1
@<TRIPOS>SET
LONE_PAIRS      STATIC     ATOMS    <user>   **** ""
13 59 60 61 62 63 64 65 66 67 68 69 70 71
DONOR_HYDROGENS      STATIC     ATOMS    <user>   **** ""
5 34 40 45 46 47
ATOM$BLUE        STATIC     ATOMS    COLORGROUP SYSTEM
13 59 60 61 62 63 64 65 66 67 68 69 70 71
ATOM$RED        STATIC     ATOMS    COLORGROUP SYSTEM
5 34 40 45 46 47
