#       Name:                AV-unprocessed.smi:3191
#       Creating user name   scv26
#       Creation time:       Fri Mar 27 18:03:36 2020


#       File generated by GOLD software.
#

@<TRIPOS>MOLECULE
AV-unprocessed.smi:3191
    38    39     1
SMALL
NO_CHARGES


@<TRIPOS>ATOM
      1 ****        -3.4241   2.5432  -2.2902 C.3            1 S1                 0.0000
      2 ****        -3.9197   1.8881  -1.0963 N.pl3          1 S1                 0.0000
      3 ****        -5.1973   1.7895  -0.7046 C.2            1 S1                 0.0000
      4 ****        -5.3739   1.1331   0.4338 N.2            1 S1                 0.0000
      5 ****        -4.0830   0.7745   0.8118 C.2            1 S1                 0.0000
      6 ****        -3.1749   1.2326  -0.1196 C.2            1 S1                 0.0000
      7 ****        -1.6828   1.1115  -0.1772 C.3            1 S1                 0.0000
      8 ****        -1.0668   0.3264   0.9943 C.3            1 S1                 0.0000
      9 ****         0.3867   0.2633   0.8932 N.am           1 S1                 0.0000
     10 ****         1.0692  -0.5833   0.1073 C.2            1 S1                 0.0000
     11 ****         0.5163  -1.4053  -0.6244 O.2            1 S1                 0.0000
     12 ****         2.5554  -0.4237   0.2000 C.3            1 S1                 0.0000
     13 ****         3.4027  -0.9902  -0.9207 C.3            1 S1                 0.0000
     14 ****         3.4494  -1.6377   0.4455 C.3            1 S1                 0.0000
     15 ****         4.6747  -1.4510   1.3231 C.3            1 S1                 0.0000
     16 ****         2.9016  -3.0489   0.6214 C.3            1 S1                 0.0000
     17 ****         2.8952   0.5123   0.6415 H              1 S1                 0.0000
     18 ****        -4.2536   2.9429  -2.8744 H              1 S1                 0.0000
     19 ****        -2.8741   1.8273  -2.9016 H              1 S1                 0.0000
     20 ****        -2.7602   3.3619  -2.0117 H              1 S1                 0.0000
     21 ****        -6.0189   2.2086  -1.2670 H              1 S1                 0.0000
     22 ****        -3.9085   0.2173   1.7206 H              1 S1                 0.0000
     23 ****        -1.4060   0.6344  -1.1181 H              1 S1                 0.0000
     24 ****        -1.2471   2.1109  -0.2054 H              1 S1                 0.0000
     25 ****        -1.3161   0.8100   1.9393 H              1 S1                 0.0000
     26 ****        -1.4803  -0.6826   1.0410 H              1 S1                 0.0000
     27 ****         0.9123   0.9095   1.4640 H              1 S1                 0.0000
     28 ****         2.9098  -1.5374  -1.7226 H              1 S1                 0.0000
     29 ****         4.2579  -0.3966  -1.2375 H              1 S1                 0.0000
     30 ****         5.4524  -2.1649   1.0496 H              1 S1                 0.0000
     31 ****         4.4162  -1.6008   2.3718 H              1 S1                 0.0000
     32 ****         5.0825  -0.4458   1.2111 H              1 S1                 0.0000
     33 ****         3.7059  -3.7813   0.5473 H              1 S1                 0.0000
     34 ****         2.1686  -3.2949  -0.1458 H              1 S1                 0.0000
     35 ****         2.4300  -3.1517   1.5991 H              1 S1                 0.0000
     36 ****        -6.2325   0.9408   0.9091 LP             1 S1                 0.0000
     37 ****        -0.4818  -1.4610  -0.6491 LP             1 S1                 0.0000
     38 ****         1.0655  -2.0171  -1.1937 LP             1 S1                 0.0000
@<TRIPOS>BOND
    1    1    2 1     
    2    1   18 1     
    3    1   19 1     
    4    1   20 1     
    5    2    6 1     
    6    2    3 1     
    7    3    4 2     
    8    3   21 1     
    9    4    5 1     
   10    5    6 2     
   11    5   22 1     
   12    6    7 1     
   13    7    8 1     
   14    7   23 1     
   15    7   24 1     
   16    8    9 1     
   17    8   25 1     
   18    8   26 1     
   19    9   10 am    
   20    9   27 1     
   21   10   11 2     
   22   10   12 1     
   23   12   17 1     
   24   12   14 1     
   25   12   13 1     
   26   13   14 1     
   27   13   28 1     
   28   13   29 1     
   29   14   15 1     
   30   14   16 1     
   31   15   30 1     
   32   15   31 1     
   33   15   32 1     
   34   16   33 1     
   35   16   34 1     
   36   16   35 1     
   37    4   36 1     
   38   11   37 1     
   39   11   38 1     
@<TRIPOS>SUBSTRUCTURE
      1 S1             1
@<TRIPOS>SET
LONE_PAIRS      STATIC     ATOMS    <user>   **** ""
3 36 37 38
DONOR_HYDROGENS      STATIC     ATOMS    <user>   **** ""
1 27
ATOM$BLUE        STATIC     ATOMS    COLORGROUP SYSTEM
3 36 37 38
ATOM$RED        STATIC     ATOMS    COLORGROUP SYSTEM
1 27
