#       Name:                AV-unprocessed.smi:1438
#       Creating user name   scv26
#       Creation time:       Fri Mar 27 05:54:08 2020


#       File generated by GOLD software.
#

@<TRIPOS>MOLECULE
AV-unprocessed.smi:1438
    49    50     1
SMALL
NO_CHARGES


@<TRIPOS>ATOM
      1 ****        -3.6376  -3.4886  -3.3392 C.3            1 S1                 0.0000
      2 ****        -3.0953  -2.6842  -2.1464 C.3            1 S1                 0.0000
      3 ****        -1.5693  -2.5314  -2.2059 C.2            1 S1                 0.0000
      4 ****        -0.8562  -3.4797  -2.5348 O.2            1 S1                 0.0000
      5 ****        -1.0782  -1.3278  -1.8778 N.am           1 S1                 0.0000
      6 ****         0.3395  -1.0046  -1.8089 C.3            1 S1                 0.0000
      7 ****         0.5754   0.3682  -1.2097 C.ar           1 S1                 0.0000
      8 ****        -0.0178   1.5147  -1.7774 C.ar           1 S1                 0.0000
      9 ****         0.2302   2.7648  -1.1782 C.ar           1 S1                 0.0000
     10 ****         1.0062   2.9212  -0.0848 N.ar           1 S1                 0.0000
     11 ****         1.5759   1.8197   0.4606 C.ar           1 S1                 0.0000
     12 ****         2.3720   1.9761   1.6039 N.3            1 S1                 0.0000
     13 ****         3.5323   2.8358   1.4045 C.3            1 S1                 0.0000
     14 ****         4.4046   2.8415   2.6718 C.3            1 S1                 0.0000
     15 ****         3.6188   3.2464   3.7894 O.3            1 S1                 0.0000
     16 ****         2.5252   2.3631   4.0231 C.3            1 S1                 0.0000
     17 ****         1.6064   2.3401   2.7893 C.3            1 S1                 0.0000
     18 ****         1.3885   0.5255  -0.0685 C.ar           1 S1                 0.0000
     19 ****        -3.5873  -3.5021  -0.5562 S.o2           1 S1                 0.0000
     20 ****        -3.0018  -2.3139   0.7253 C.3            1 S1                 0.0000
     21 ****        -5.0566  -3.5472  -0.5028 O.2            1 S1                 0.0000
     22 ****        -2.8226  -4.7497  -0.4038 O.2            1 S1                 0.0000
     23 ****        -3.3400  -3.0408  -4.2880 H              1 S1                 0.0000
     24 ****        -4.7270  -3.5226  -3.3207 H              1 S1                 0.0000
     25 ****        -3.2777  -4.5181  -3.3259 H              1 S1                 0.0000
     26 ****        -3.5566  -1.6959  -2.1553 H              1 S1                 0.0000
     27 ****        -1.7256  -0.5946  -1.6273 H              1 S1                 0.0000
     28 ****         0.8617  -1.7600  -1.2190 H              1 S1                 0.0000
     29 ****         0.7658  -1.0296  -2.8128 H              1 S1                 0.0000
     30 ****        -0.6456   1.4411  -2.6534 H              1 S1                 0.0000
     31 ****        -0.2076   3.6634  -1.5871 H              1 S1                 0.0000
     32 ****         4.1116   2.4816   0.5510 H              1 S1                 0.0000
     33 ****         3.2070   3.8519   1.1767 H              1 S1                 0.0000
     34 ****         4.8338   1.8550   2.8540 H              1 S1                 0.0000
     35 ****         5.2375   3.5345   2.5524 H              1 S1                 0.0000
     36 ****         2.8953   1.3621   4.2508 H              1 S1                 0.0000
     37 ****         1.9720   2.7050   4.8979 H              1 S1                 0.0000
     38 ****         1.1528   3.3222   2.6469 H              1 S1                 0.0000
     39 ****         0.7943   1.6278   2.9391 H              1 S1                 0.0000
     40 ****         1.8581  -0.3293   0.3967 H              1 S1                 0.0000
     41 ****        -3.3217  -2.6602   1.7078 H              1 S1                 0.0000
     42 ****        -3.4268  -1.3288   0.5348 H              1 S1                 0.0000
     43 ****        -1.9140  -2.2538   0.7085 H              1 S1                 0.0000
     44 ****        -1.2703  -4.3600  -2.7664 LP             1 S1                 0.0000
     45 ****         0.1371  -3.3696  -2.5704 LP             1 S1                 0.0000
     46 ****         1.1566   3.8266   0.3123 LP             1 S1                 0.0000
     47 ****         2.7443   1.0645   1.7778 LP             1 S1                 0.0000
     48 ****         3.2610   4.1641   3.6166 LP             1 S1                 0.0000
     49 ****         4.1997   3.2629   4.6032 LP             1 S1                 0.0000
@<TRIPOS>BOND
    1    1    2 1     
    2    1   23 1     
    3    1   24 1     
    4    1   25 1     
    5    2    3 1     
    6    2   19 1     
    7    2   26 1     
    8    3    4 2     
    9    3    5 am    
   10    5    6 1     
   11    5   27 1     
   12    6    7 1     
   13    6   28 1     
   14    6   29 1     
   15    7   18 ar    
   16    7    8 ar    
   17    8    9 ar    
   18    8   30 1     
   19    9   10 ar    
   20    9   31 1     
   21   10   11 ar    
   22   11   12 1     
   23   11   18 ar    
   24   12   17 1     
   25   12   13 1     
   26   13   14 1     
   27   13   32 1     
   28   13   33 1     
   29   14   15 1     
   30   14   34 1     
   31   14   35 1     
   32   15   16 1     
   33   16   17 1     
   34   16   36 1     
   35   16   37 1     
   36   17   38 1     
   37   17   39 1     
   38   18   40 1     
   39   19   20 1     
   40   19   21 2     
   41   19   22 2     
   42   20   41 1     
   43   20   42 1     
   44   20   43 1     
   45    4   44 1     
   46    4   45 1     
   47   10   46 1     
   48   12   47 1     
   49   15   48 1     
   50   15   49 1     
@<TRIPOS>SUBSTRUCTURE
      1 S1             1
@<TRIPOS>SET
LONE_PAIRS      STATIC     ATOMS    <user>   **** ""
8 44 45 46 47 48 49 21 22
DONOR_HYDROGENS      STATIC     ATOMS    <user>   **** ""
1 27
ATOM$BLUE        STATIC     ATOMS    COLORGROUP SYSTEM
8 44 45 46 47 48 49 21 22
ATOM$RED        STATIC     ATOMS    COLORGROUP SYSTEM
1 27
