AV-unprocessed.smi:1774|AV-procd|sdf|7164|dock3
  -GOLD-   22720 8403D 1   1.00000     0.00000
 Structure written by MMmdl.
 45 46  0  0  0  0  0  0  0  0  1 V2000
  145.7467  135.5659  151.0279 C   0  0  0  0  0  0  0  0  0  0  0  0
  145.6156  134.0666  151.2420 C   0  0  0  0  0  0  0  0  0  0  0  0
  144.5979  133.3592  150.5676 C   0  0  0  0  0  0  0  0  0  0  0  0
  144.4771  131.9735  150.7683 C   0  0  0  0  0  0  0  0  0  0  0  0
  145.3849  131.3498  151.6411 C   0  0  0  0  0  0  0  0  0  0  0  0
  146.3605  132.0178  152.2894 N   0  0  0  0  0  0  0  0  0  0  0  0
  146.4912  133.3560  152.1067 C   0  0  0  0  0  0  0  0  0  0  0  0
  147.5026  134.1235  152.7506 N   0  0  0  0  0  0  0  0  0  0  0  0
  148.1899  133.8318  153.8689 C   0  0  0  0  0  0  0  0  0  0  0  0
  148.0153  132.8371  154.5734 O   0  0  0  0  0  0  0  0  0  0  0  0
  149.1043  134.7766  154.1341 N   0  0  0  0  0  0  0  0  0  0  0  0
  150.0378  134.7575  155.2560 C   0  0  0  0  0  0  0  0  0  0  0  0
  149.6933  135.8369  156.3016 C   0  0  0  0  0  0  0  0  0  0  0  0
  150.2290  137.1711  156.0313 N   0  0  0  0  0  0  0  0  0  0  0  0
  149.3720  137.9529  155.1434 C   0  0  0  0  0  0  0  0  0  0  0  0
  149.9524  139.3546  154.8765 C   0  0  2  0  0  0  0  0  0  0  0  0
  149.1011  140.1556  153.8862 C   0  0  0  0  0  0  0  0  0  0  0  0
  151.2645  139.2204  154.3364 O   0  0  0  0  0  0  0  0  0  0  0  0
  152.1516  138.4982  155.1865 C   0  0  2  0  0  0  0  0  0  0  0  0
  153.5234  138.4325  154.5073 C   0  0  0  0  0  0  0  0  0  0  0  0
  151.5649  137.0988  155.4528 C   0  0  0  0  0  0  0  0  0  0  0  0
  144.9792  135.9391  150.3493 H   0  0  0  0  0  0  0  0  0  0  0  0
  146.7197  135.8068  150.5988 H   0  0  0  0  0  0  0  0  0  0  0  0
  145.6431  136.0971  151.9744 H   0  0  0  0  0  0  0  0  0  0  0  0
  143.9160  133.8695  149.9031 H   0  0  0  0  0  0  0  0  0  0  0  0
  143.7091  131.4036  150.2666 H   0  0  0  0  0  0  0  0  0  0  0  0
  145.3274  130.2870  151.8240 H   0  0  0  0  0  0  0  0  0  0  0  0
  147.7391  134.9924  152.2954 H   0  0  0  0  0  0  0  0  0  0  0  0
  149.1733  135.5604  153.5019 H   0  0  0  0  0  0  0  0  0  0  0  0
  149.9543  133.7767  155.7242 H   0  0  0  0  0  0  0  0  0  0  0  0
  151.0707  134.8320  154.9152 H   0  0  0  0  0  0  0  0  0  0  0  0
  148.6062  135.8956  156.3712 H   0  0  0  0  0  0  0  0  0  0  0  0
  150.0334  135.5040  157.2834 H   0  0  0  0  0  0  0  0  0  0  0  0
  149.2427  137.4252  154.1970 H   0  0  0  0  0  0  0  0  0  0  0  0
  148.3785  138.0643  155.5757 H   0  0  0  0  0  0  0  0  0  0  0  0
  150.0110  139.9085  155.8152 H   0  0  0  0  0  0  0  0  0  0  0  0
  148.0883  140.2956  154.2649 H   0  0  0  0  0  0  0  0  0  0  0  0
  149.0319  139.6481  152.9236 H   0  0  0  0  0  0  0  0  0  0  0  0
  149.5305  141.1426  153.7134 H   0  0  0  0  0  0  0  0  0  0  0  0
  152.2531  139.0370  156.1302 H   0  0  0  0  0  0  0  0  0  0  0  0
  154.2424  137.8952  155.1263 H   0  0  0  0  0  0  0  0  0  0  0  0
  153.9186  139.4331  154.3313 H   0  0  0  0  0  0  0  0  0  0  0  0
  153.4628  137.9240  153.5448 H   0  0  0  0  0  0  0  0  0  0  0  0
  152.2277  136.5539  156.1261 H   0  0  0  0  0  0  0  0  0  0  0  0
  151.5330  136.5329  154.5204 H   0  0  0  0  0  0  0  0  0  0  0  0
  1  2  1  0  0  0  0
  1 22  1  0  0  0  0
  1 23  1  0  0  0  0
  1 24  1  0  0  0  0
  2  7  1  0  0  0  0
  2  3  2  0  0  0  0
  3  4  1  0  0  0  0
  3 25  1  0  0  0  0
  4  5  2  0  0  0  0
  4 26  1  0  0  0  0
  5  6  1  0  0  0  0
  5 27  1  0  0  0  0
  6  7  2  0  0  0  0
  7  8  1  0  0  0  0
  8  9  1  0  0  0  0
  8 28  1  0  0  0  0
  9 10  2  0  0  0  0
  9 11  1  0  0  0  0
 11 12  1  0  0  0  0
 11 29  1  0  0  0  0
 12 13  1  0  0  0  0
 12 30  1  0  0  0  0
 12 31  1  0  0  0  0
 13 14  1  0  0  0  0
 13 32  1  0  0  0  0
 13 33  1  0  0  0  0
 14 21  1  0  0  0  0
 14 15  1  0  0  0  0
 15 16  1  0  0  0  0
 15 34  1  0  0  0  0
 15 35  1  0  0  0  0
 16 17  1  0  0  0  0
 16 18  1  0  0  0  0
 16 36  1  0  0  0  0
 17 37  1  0  0  0  0
 17 38  1  0  0  0  0
 17 39  1  0  0  0  0
 18 19  1  0  0  0  0
 19 20  1  0  0  0  0
 19 21  1  0  0  0  0
 19 40  1  0  0  0  0
 20 41  1  0  0  0  0
 20 42  1  0  0  0  0
 20 43  1  0  0  0  0
 21 44  1  0  0  0  0
 21 45  1  0  0  0  0
M  END
> <s_m_source_file>
AV-unprocessed.smi

> <i_m_source_file_index>
1774

> <i_lp_mmshare_version>
43012

> <i_f3d_flags>
0

> <s_epik_input>
W0NIM11jMVtjSF1bY0hdW2NIXW5jMVtOSF1DKD1PKVtOSF1bQ0gyXVtDSDJdTjJbQ0gyXVtDQEBIXShbQ0gzXSlPW0NAQEhdKFtDSDNdKVtDSDJdMg==

> <s_epik_cmdline>
J2VwaWtfcHl0aG9uJywgJy1waCcsICc3LjAnLCAnLXRuJywgJzgnLCAnLW1hJywgJzIwMCcsICctbWV0YWxfYmluZGluZycsICctaW1hZScsICc8aW5maWxlLm1hZT4nLCAnLW9tYWUnLCAnPG91dGZpbGUubWFlPic=

> <r_epik_Ionization_Penalty>
0.266047

> <r_epik_Ionization_Penalty_Charging>
0

> <r_epik_Ionization_Penalty_Neutral>
0.266047

> <r_epik_State_Penalty>
0.257924

> <r_epik_Charging_Adjusted_Penalty>
0.257924

> <i_epik_Tot_Q>
0

> <i_epik_Tot_abs_Q>
0

> <r_epik_Metal_State_Penalty>
0.257922

> <b_epik_Metal_Only>
0

> <s_lp_Force_Field>
OPLS_2005

> <r_lp_Energy>
26.8029

> <b_lp_Chiralities_Consistent>
1

> <s_lp_Variant>
AV-unprocessed.smi:1774-1

> <Gold.Version>
5.8.1

> <Gold.Id.Protein>
6NUR|6NUR_protein|mol2

> <Gold.PLP.Fitness>
43.4115

> <Gold.PLP.PLP>
-35.5899

> <Gold.PLP.part.hbond>
-3.0000

> <Gold.PLP.part.metal>
0.0000

> <Gold.PLP.part.buried>
-4.9808

> <Gold.PLP.part.nonpolar>
-27.6792

> <Gold.PLP.part.repulsive>
0.3596

> <Gold.PLP.ligand.clash>
0.0000

> <Gold.PLP.ligand.torsion>
0.5333

> <Gold.PLP.Chemscore.Hbond>
2.9440

> <Gold.PLP.Chemscore.CHOScore>
0.0000

> <Gold.PLP.Chemscore.Metal>
0.0000

> <Gold.Chemscore.Hbonds>
donor molecule, donor type, donor heavy atom, donor atom, acceptor molecule, acceptor atom, score
      L1  H     8    28       P1  7948  0.99
      L1  H    11    29       P1  7948  0.98
      P1  H  7989  7998       L1    18  1.00

> <Gold.PLP.Chemscore.Internal.Correction>
0.0562

> <Gold.Rescore>
     Score         DG    S(hbond)    S(metal)    S(lipo)     H(rot)  DE(clash)    DE(int)     intcor
     17.43     -19.21       2.51        0.00      77.71       1.46       0.05       1.73       ----

> <Gold.Chemscore.Fitness>
17.4337

> <Gold.Chemscore.DG>
-19.2126

> <Gold.Chemscore.ZeroCoef>
-5.4800

> <Gold.Chemscore.Hbond>
2.5056

> <Gold.Chemscore.Metal>
0.0000

> <Gold.Chemscore.Lipo>
77.7060

> <Gold.Chemscore.Internal_Hbond>
0.0000

> <Gold.Chemscore.DEClash>
0.0451

> <Gold.Chemscore.DEInternal>
1.7338

> <Gold.Chemscore.Rot>
1.4562

> <Gold.Chemscore.Internal.Correction>
   9.000000E+99

> <Gold.Chemscore.Hbonds>
donor molecule, donor type, donor heavy atom, donor atom, acceptor molecule, acceptor atom, score
      L1  H     8    28       P1  7948  0.85
      L1  H    11    29       P1  7948  0.52
      P1  H  7989  7998       L1    18  0.55

> <Gold.Chemscore.Hbond.Weighted>
-8.3688

> <Gold.Chemscore.Metal.Weighted>
-0.0000

> <Gold.Chemscore.Lipo.Weighted>
-9.0916

> <Gold.Chemscore.Internal_Hbond.Weighted>
0.0000

> <Gold.Chemscore.DEClash.Weighted>
0.0451

> <Gold.Chemscore.DEInternal.Weighted>
1.7338

> <Gold.Chemscore.Rot.Weighted>
3.7278

> <Gold.Chemscore.Internal.Correction.Weighted>
   9.000000E+99

> <Gold.Protein.RotatedTorsions>
[ 6907 6896 6895 6894 ] final -138.50 input  -60.11 | X-H torsion
[ 7974 7965 7964 7962 ] final   58.28 input  175.53 | X-H torsion
[ 8008 7997 7996 7995 ] final   12.89 input   59.86 | X-H torsion
[ 10167 10162 10161 10158 ] final -159.28 input  -65.29 | X-H torsion
[ 10718 10713 10712 10709 ] final  -24.55 input   66.30 | X-H torsion
[ 10763 10752 10751 10750 ] final -118.28 input  -60.55 | X-H torsion
[ 11005 11000 10999 10996 ] final   81.39 input  -57.11 | X-H torsion

> <Gold.Protein.ActiveResidues>
 VAL166  LYS551  ARG553  GLY616  TRP617  ASP618  TYR619  PRO620  LYS621  CYS622 
 ASP623  PHE694  ASN695  SER759  ASP760  ASP761  ALA762  ILE779  LEU786  VAL792 
 PHE793  MET794  SER795  GLU796  ALA797  LYS798  CYS799  TRP800  GLU811  SER814 

> <Gold.Protein.RotatedAtoms>
  151.0358  133.5750  159.2655 H   0  0  0  0  0  0  0  0  0  0  0  0  # atno 6907 bound_to 6896
  151.2815  135.0714  159.9181 H   0  0  0  0  0  0  0  0  0  0  0  0  # atno 6908 bound_to 6896
  152.5354  134.0071  159.7975 H   0  0  0  0  0  0  0  0  0  0  0  0  # atno 6909 bound_to 6896
  145.9199  139.3721  143.0485 H   0  0  0  0  0  0  0  0  0  0  0  0  # atno 7974 bound_to 7965
  154.8269  140.2893  155.5748 H   0  0  0  0  0  0  0  0  0  0  0  0  # atno 8008 bound_to 7997
  156.3002  140.2539  156.3117 H   0  0  0  0  0  0  0  0  0  0  0  0  # atno 8009 bound_to 7997
  154.9275  140.0384  157.2020 H   0  0  0  0  0  0  0  0  0  0  0  0  # atno 8010 bound_to 7997
  139.6627  143.9884  152.2235 H   0  0  0  0  0  0  0  0  0  0  0  0  # atno 10167 bound_to 10162
  156.4761  130.4535  149.6840 H   0  0  0  0  0  0  0  0  0  0  0  0  # atno 10718 bound_to 10713
  154.8582  135.4279  154.2113 H   0  0  0  0  0  0  0  0  0  0  0  0  # atno 10763 bound_to 10752
  153.3138  135.6977  153.7097 H   0  0  0  0  0  0  0  0  0  0  0  0  # atno 10764 bound_to 10752
  153.6179  135.3507  155.2975 H   0  0  0  0  0  0  0  0  0  0  0  0  # atno 10765 bound_to 10752
  139.9100  134.7993  156.2035 H   0  0  0  0  0  0  0  0  0  0  0  0  # atno 11005 bound_to 11000
  145.8563  140.9500  143.0723 LP  0  0  0  0  0  0  0  0  0  0  0  0  # atno 17320 bound_to 7965
  144.6752  140.0473  143.7479 LP  0  0  0  0  0  0  0  0  0  0  0  0  # atno 17321 bound_to 7965
  139.9627  144.6547  150.8064 LP  0  0  0  0  0  0  0  0  0  0  0  0  # atno 17342 bound_to 10162
  140.7586  143.3112  151.2841 LP  0  0  0  0  0  0  0  0  0  0  0  0  # atno 17343 bound_to 10162
  156.3569  130.7461  151.2428 LP  0  0  0  0  0  0  0  0  0  0  0  0  # atno 17370 bound_to 10713
  157.7487  131.0361  150.4395 LP  0  0  0  0  0  0  0  0  0  0  0  0  # atno 17371 bound_to 10713
  141.0510  133.6889  156.1771 LP  0  0  0  0  0  0  0  0  0  0  0  0  # atno 17394 bound_to 11000
  140.6810  134.4767  157.5589 LP  0  0  0  0  0  0  0  0  0  0  0  0  # atno 17395 bound_to 11000

$$$$
