#       Name:                AV-unprocessed.smi:1750
#       Creating user name   scv26
#       Creation time:       Fri Mar 27 08:27:10 2020


#       File generated by GOLD software.
#

@<TRIPOS>MOLECULE
AV-unprocessed.smi:1750
    42    43     1
SMALL
NO_CHARGES


@<TRIPOS>ATOM
      1 ****        -7.1544   2.0521   0.4759 C.3            1 S1                 0.0000
      2 ****        -5.7246   1.5462   0.6956 C.3            1 S1                 0.0000
      3 ****        -5.5438   0.0841   0.2639 C.3            1 S1                 0.0000
      4 ****        -4.1460  -0.4011   0.4574 C.2            1 S1                 0.0000
      5 ****        -3.7190  -0.9483   1.5984 N.2            1 S1                 0.0000
      6 ****        -2.3763  -1.2927   1.5425 N.2            1 S1                 0.0000
      7 ****        -1.8012  -0.9787   0.3728 C.2            1 S1                 0.0000
      8 ****        -0.5069  -1.2290   0.1148 N.pl3          1 S1                -1.0000
      9 ****         0.4120  -0.2461   0.2520 C.2            1 S1                 0.0000
     10 ****         0.1946   0.9118   0.6167 O.2            1 S1                 0.0000
     11 ****         1.6594  -0.6253  -0.0552 N.am           1 S1                 0.0000
     12 ****         2.8364   0.2319  -0.0027 C.3            1 S1                 0.0000
     13 ****         4.0254  -0.4403  -0.7026 C.3            1 S1                 0.0000
     14 ****         5.2839   0.4252  -0.7528 C.3            1 S1                 0.0000
     15 ****         6.4188  -0.5868  -0.8150 C.3            1 S1                 0.0000
     16 ****         5.7480  -1.9240  -0.4898 C.3            1 S1                 0.0000
     17 ****         4.4698  -1.5767   0.0217 O.3            1 S1                 0.0000
     18 ****        -2.9107  -0.2361  -0.7788 S.3            1 S1                 0.0000
     19 ****        -7.2536   3.0882   0.7999 H              1 S1                 0.0000
     20 ****        -7.8737   1.4567   1.0389 H              1 S1                 0.0000
     21 ****        -7.4304   2.0048  -0.5779 H              1 S1                 0.0000
     22 ****        -5.0314   2.1794   0.1404 H              1 S1                 0.0000
     23 ****        -5.4629   1.6509   1.7492 H              1 S1                 0.0000
     24 ****        -6.2201  -0.5602   0.8273 H              1 S1                 0.0000
     25 ****        -5.8070  -0.0315  -0.7879 H              1 S1                 0.0000
     26 ****         1.8014  -1.5821  -0.3440 H              1 S1                 0.0000
     27 ****         2.6160   1.1808  -0.4942 H              1 S1                 0.0000
     28 ****         3.0783   0.4545   1.0375 H              1 S1                 0.0000
     29 ****         3.7492  -0.7468  -1.7138 H              1 S1                 0.0000
     30 ****         5.2824   1.1144  -1.5978 H              1 S1                 0.0000
     31 ****         5.3733   1.0152   0.1604 H              1 S1                 0.0000
     32 ****         6.8839  -0.6154  -1.8008 H              1 S1                 0.0000
     33 ****         7.1916  -0.3409  -0.0860 H              1 S1                 0.0000
     34 ****         5.6210  -2.5195  -1.3950 H              1 S1                 0.0000
     35 ****         6.3153  -2.5148   0.2296 H              1 S1                 0.0000
     36 ****        -4.2995  -1.0929   2.3997 LP             1 S1                 0.0000
     37 ****        -1.8875  -1.7303   2.2972 LP             1 S1                 0.0000
     38 ****        -0.2228  -2.1418  -0.1786 LP             1 S1                 0.0000
     39 ****        -0.7362   1.1980   0.8439 LP             1 S1                 0.0000
     40 ****         0.9492   1.5644   0.6852 LP             1 S1                 0.0000
     41 ****         3.8315  -2.3359  -0.1057 LP             1 S1                 0.0000
     42 ****         4.5377  -1.3581   0.9951 LP             1 S1                 0.0000
@<TRIPOS>BOND
    1    1    2 1     
    2    1   19 1     
    3    1   20 1     
    4    1   21 1     
    5    2    3 1     
    6    2   22 1     
    7    2   23 1     
    8    3    4 1     
    9    3   24 1     
   10    3   25 1     
   11    4   18 1     
   12    4    5 2     
   13    5    6 1     
   14    6    7 2     
   15    7    8 1     
   16    7   18 1     
   17    8    9 1     
   18    9   10 2     
   19    9   11 am    
   20   11   12 1     
   21   11   26 1     
   22   12   13 1     
   23   12   27 1     
   24   12   28 1     
   25   13   17 1     
   26   13   14 1     
   27   13   29 1     
   28   14   15 1     
   29   14   30 1     
   30   14   31 1     
   31   15   16 1     
   32   15   32 1     
   33   15   33 1     
   34   16   17 1     
   35   16   34 1     
   36   16   35 1     
   37    5   36 1     
   38    6   37 1     
   39    8   38 1     
   40   10   39 1     
   41   10   40 1     
   42   17   41 1     
   43   17   42 1     
@<TRIPOS>SUBSTRUCTURE
      1 S1             1
@<TRIPOS>SET
LONE_PAIRS      STATIC     ATOMS    <user>   **** ""
7 36 37 38 39 40 41 42
DONOR_HYDROGENS      STATIC     ATOMS    <user>   **** ""
1 26
ATOM$BLUE        STATIC     ATOMS    COLORGROUP SYSTEM
7 36 37 38 39 40 41 42
ATOM$RED        STATIC     ATOMS    COLORGROUP SYSTEM
1 26
