AV-unprocessed.smi:2482|AV-procd|sdf|9780|dock1
  -GOLD-   2272013423D 1   1.00000     0.00000
 Structure written by MMmdl.
 34 35  0  0  0  0  0  0  0  0  1 V2000
  151.5533  144.9990  159.9190 C   0  0  0  0  0  0  0  0  0  0  0  0
  152.1891  143.6378  160.1311 C   0  0  0  0  0  0  0  0  0  0  0  0
  152.7670  143.4439  161.3366 N   0  0  0  0  0  0  0  0  0  0  0  0
  153.3539  142.2534  161.5750 C   0  0  0  0  0  0  0  0  0  0  0  0
  153.3887  141.2048  160.6362 C   0  0  0  0  0  0  0  0  0  0  0  0
  152.7696  141.3985  159.3781 C   0  0  0  0  0  0  0  0  0  0  0  0
  152.7645  140.4163  158.3495 N   0  0  0  0  0  0  0  0  0  0  0  0
  153.0342  139.1001  158.4328 C   0  0  0  0  0  0  0  0  0  0  0  0
  153.3525  138.5201  159.4711 O   0  0  0  0  0  0  0  0  0  0  0  0
  152.9245  138.3166  157.1166 C   0  0  1  0  0  0  0  0  0  0  0  0
  151.7041  137.3680  157.0800 C   0  0  0  0  0  0  0  0  0  0  0  0
  151.5844  136.6877  155.7965 N   0  0  0  0  0  0  0  0  0  0  0  0
  150.4329  135.7989  155.7661 C   0  0  0  0  0  0  0  0  0  0  0  0
  151.5329  137.6708  154.7231 C   0  0  0  0  0  0  0  0  0  0  0  0
  152.7482  138.6120  154.7590 C   0  0  0  0  0  0  0  0  0  0  0  0
  152.8238  139.2431  156.0335 O   0  0  0  0  0  0  0  0  0  0  0  0
  152.1675  142.6518  159.1168 C   0  0  0  0  0  0  0  0  0  0  0  0
  151.4135  142.9712  157.5903 Cl  0  0  0  0  0  0  0  0  0  0  0  0
  150.4887  144.8918  159.7104 H   0  0  0  0  0  0  0  0  0  0  0  0
  152.0210  145.5095  159.0768 H   0  0  0  0  0  0  0  0  0  0  0  0
  151.6611  145.6339  160.7995 H   0  0  0  0  0  0  0  0  0  0  0  0
  153.8176  142.1344  162.5429 H   0  0  0  0  0  0  0  0  0  0  0  0
  153.8962  140.2882  160.8935 H   0  0  0  0  0  0  0  0  0  0  0  0
  152.4344  140.7363  157.4501 H   0  0  0  0  0  0  0  0  0  0  0  0
  153.8421  137.7369  157.0015 H   0  0  0  0  0  0  0  0  0  0  0  0
  151.7917  136.6262  157.8750 H   0  0  0  0  0  0  0  0  0  0  0  0
  150.7935  137.9352  157.2819 H   0  0  0  0  0  0  0  0  0  0  0  0
  150.3777  135.2708  154.8138 H   0  0  0  0  0  0  0  0  0  0  0  0
  149.5032  136.3531  155.9021 H   0  0  0  0  0  0  0  0  0  0  0  0
  150.5012  135.0512  156.5569 H   0  0  0  0  0  0  0  0  0  0  0  0
  151.4935  137.1642  153.7581 H   0  0  0  0  0  0  0  0  0  0  0  0
  150.6183  138.2602  154.8048 H   0  0  0  0  0  0  0  0  0  0  0  0
  153.6699  138.0623  154.5624 H   0  0  0  0  0  0  0  0  0  0  0  0
  152.6594  139.3765  153.9871 H   0  0  0  0  0  0  0  0  0  0  0  0
  1  2  1  0  0  0  0
  1 19  1  0  0  0  0
  1 20  1  0  0  0  0
  1 21  1  0  0  0  0
  2 17  1  0  0  0  0
  2  3  2  0  0  0  0
  3  4  1  0  0  0  0
  4  5  2  0  0  0  0
  4 22  1  0  0  0  0
  5  6  1  0  0  0  0
  5 23  1  0  0  0  0
  6  7  1  0  0  0  0
  6 17  2  0  0  0  0
  7  8  1  0  0  0  0
  7 24  1  0  0  0  0
  8  9  2  0  0  0  0
  8 10  1  0  0  0  0
 10 16  1  0  0  0  0
 10 11  1  0  0  0  0
 10 25  1  0  0  0  0
 11 12  1  0  0  0  0
 11 26  1  0  0  0  0
 11 27  1  0  0  0  0
 12 13  1  0  0  0  0
 12 14  1  0  0  0  0
 13 28  1  0  0  0  0
 13 29  1  0  0  0  0
 13 30  1  0  0  0  0
 14 15  1  0  0  0  0
 14 31  1  0  0  0  0
 14 32  1  0  0  0  0
 15 16  1  0  0  0  0
 15 33  1  0  0  0  0
 15 34  1  0  0  0  0
 17 18  1  0  0  0  0
M  END
> <s_m_source_file>
AV-unprocessed.smi

> <i_m_source_file_index>
2482

> <i_lp_mmshare_version>
43012

> <i_f3d_flags>
0

> <s_epik_input>
W0NIM11jMW5bY0hdW2NIXWMoYzFDbClbTkhdQyg9TylbQ0BASF0yW0NIMl1OKFtDSDNdKVtDSDJdW0NIMl1PMg==

> <s_epik_cmdline>
J2VwaWtfcHl0aG9uJywgJy1waCcsICc3LjAnLCAnLXRuJywgJzgnLCAnLW1hJywgJzIwMCcsICctbWV0YWxfYmluZGluZycsICctaW1hZScsICc8aW5maWxlLm1hZT4nLCAnLW9tYWUnLCAnPG91dGZpbGUubWFlPic=

> <r_epik_Ionization_Penalty>
0.52656

> <r_epik_Ionization_Penalty_Charging>
0

> <r_epik_Ionization_Penalty_Neutral>
0.52656

> <r_epik_State_Penalty>
0.534659

> <r_epik_Charging_Adjusted_Penalty>
0.534659

> <i_epik_Tot_Q>
0

> <i_epik_Tot_abs_Q>
0

> <r_epik_Metal_State_Penalty>
0.54077

> <b_epik_Metal_Only>
0

> <s_lp_Force_Field>
OPLS_2005

> <r_lp_Energy>
25.124

> <b_lp_Chiralities_Consistent>
1

> <s_lp_Variant>
AV-unprocessed.smi:2482-6

> <Gold.Version>
5.8.1

> <Gold.Id.Protein>
6NUR|6NUR_protein|mol2

> <Gold.PLP.Fitness>
41.8293

> <Gold.PLP.PLP>
-36.8390

> <Gold.PLP.part.hbond>
-2.0000

> <Gold.PLP.part.metal>
0.0000

> <Gold.PLP.part.buried>
-3.9584

> <Gold.PLP.part.nonpolar>
-30.5214

> <Gold.PLP.part.repulsive>
0.3364

> <Gold.PLP.ligand.clash>
0.0000

> <Gold.PLP.ligand.torsion>
0.2883

> <Gold.PLP.Chemscore.Hbond>
1.8550

> <Gold.PLP.Chemscore.CHOScore>
0.0000

> <Gold.PLP.Chemscore.Metal>
0.0000

> <Gold.Chemscore.Hbonds>
donor molecule, donor type, donor heavy atom, donor atom, acceptor molecule, acceptor atom, score
      P1  H  7997  8009       L1    16  1.00
      P1  H 10752 10765       L1    12  0.64

> <Gold.PLP.Chemscore.Internal.Correction>
0.0020

> <Gold.Rescore>
     Score         DG    S(hbond)    S(metal)    S(lipo)     H(rot)  DE(clash)    DE(int)     intcor
     14.27     -15.63       0.30        0.00     100.15       1.00       0.03       1.32       ----

> <Gold.Chemscore.Fitness>
14.2739

> <Gold.Chemscore.DG>
-15.6267

> <Gold.Chemscore.ZeroCoef>
-5.4800

> <Gold.Chemscore.Hbond>
0.2960

> <Gold.Chemscore.Metal>
0.0000

> <Gold.Chemscore.Lipo>
100.1537

> <Gold.Chemscore.Internal_Hbond>
0.0000

> <Gold.Chemscore.DEClash>
0.0310

> <Gold.Chemscore.DEInternal>
1.3218

> <Gold.Chemscore.Rot>
1.0000

> <Gold.Chemscore.Internal.Correction>
   9.000000E+99

> <Gold.Chemscore.Hbonds>
donor molecule, donor type, donor heavy atom, donor atom, acceptor molecule, acceptor atom, score
      P1  H  7997  8009       L1    16  0.28
      P1  H 10752 10765       L1    12  0.02

> <Gold.Chemscore.Hbond.Weighted>
-0.9887

> <Gold.Chemscore.Metal.Weighted>
-0.0000

> <Gold.Chemscore.Lipo.Weighted>
-11.7180

> <Gold.Chemscore.Internal_Hbond.Weighted>
0.0000

> <Gold.Chemscore.DEClash.Weighted>
0.0310

> <Gold.Chemscore.DEInternal.Weighted>
1.3218

> <Gold.Chemscore.Rot.Weighted>
2.5600

> <Gold.Chemscore.Internal.Correction.Weighted>
   9.000000E+99

> <Gold.Protein.RotatedTorsions>
[ 6907 6896 6895 6894 ] final -171.67 input  -60.11 | X-H torsion
[ 7974 7965 7964 7962 ] final -106.58 input  175.53 | X-H torsion
[ 8008 7997 7996 7995 ] final -151.04 input   59.86 | X-H torsion
[ 10167 10162 10161 10158 ] final  -15.81 input  -65.29 | X-H torsion
[ 10718 10713 10712 10709 ] final -149.61 input   66.30 | X-H torsion
[ 10763 10752 10751 10750 ] final -164.28 input  -60.55 | X-H torsion
[ 11005 11000 10999 10996 ] final -134.94 input  -57.11 | X-H torsion

> <Gold.Protein.ActiveResidues>
 VAL166  LYS551  ARG553  GLY616  TRP617  ASP618  TYR619  PRO620  LYS621  CYS622 
 ASP623  PHE694  ASN695  SER759  ASP760  ASP761  ALA762  ILE779  LEU786  VAL792 
 PHE793  MET794  SER795  GLU796  ALA797  LYS798  CYS799  TRP800  GLU811  SER814 

> <Gold.Protein.RotatedAtoms>
  151.5277  133.3455  159.2912 H   0  0  0  0  0  0  0  0  0  0  0  0  # atno 6907 bound_to 6896
  150.8613  134.7968  159.7096 H   0  0  0  0  0  0  0  0  0  0  0  0  # atno 6908 bound_to 6896
  152.4632  134.5146  159.9816 H   0  0  0  0  0  0  0  0  0  0  0  0  # atno 6909 bound_to 6896
  145.2161  140.9116  143.3286 H   0  0  0  0  0  0  0  0  0  0  0  0  # atno 7974 bound_to 7965
  155.6332  140.0693  157.2642 H   0  0  0  0  0  0  0  0  0  0  0  0  # atno 8008 bound_to 7997
  154.4201  140.1764  156.1543 H   0  0  0  0  0  0  0  0  0  0  0  0  # atno 8009 bound_to 7997
  155.9916  140.3344  155.6762 H   0  0  0  0  0  0  0  0  0  0  0  0  # atno 8010 bound_to 7997
  140.7224  143.5180  150.9668 H   0  0  0  0  0  0  0  0  0  0  0  0  # atno 10167 bound_to 10162
  156.4353  130.8095  151.2324 H   0  0  0  0  0  0  0  0  0  0  0  0  # atno 10718 bound_to 10713
  154.7043  135.2994  154.9294 H   0  0  0  0  0  0  0  0  0  0  0  0  # atno 10763 bound_to 10752
  154.0216  135.6682  153.4777 H   0  0  0  0  0  0  0  0  0  0  0  0  # atno 10764 bound_to 10752
  153.0705  135.5063  154.8204 H   0  0  0  0  0  0  0  0  0  0  0  0  # atno 10765 bound_to 10752
  140.8944  134.1771  157.4505 H   0  0  0  0  0  0  0  0  0  0  0  0  # atno 11005 bound_to 11000
  144.9810  139.3784  143.6262 LP  0  0  0  0  0  0  0  0  0  0  0  0  # atno 17320 bound_to 7965
  146.3387  139.8950  142.8803 LP  0  0  0  0  0  0  0  0  0  0  0  0  # atno 17321 bound_to 7965
  139.8896  143.6969  152.3147 LP  0  0  0  0  0  0  0  0  0  0  0  0  # atno 17342 bound_to 10162
  139.7280  144.7588  151.0847 LP  0  0  0  0  0  0  0  0  0  0  0  0  # atno 17343 bound_to 10162
  157.7507  131.0185  150.3630 LP  0  0  0  0  0  0  0  0  0  0  0  0  # atno 17370 bound_to 10713
  156.3976  130.3909  149.6983 LP  0  0  0  0  0  0  0  0  0  0  0  0  # atno 17371 bound_to 10713
  139.8733  134.9872  156.5357 LP  0  0  0  0  0  0  0  0  0  0  0  0  # atno 17394 bound_to 11000
  140.8307  133.8281  155.8982 LP  0  0  0  0  0  0  0  0  0  0  0  0  # atno 17395 bound_to 11000

$$$$
