AV-unprocessed.smi:1254|AV-procd|sdf|5270|dock4
  -GOLD-   22720 4383D 1   1.00000     0.00000
 Structure written by MMmdl.
 46 47  0  0  0  0  0  0  0  0  2 V2000
  150.9690  141.6426  156.1827 C   0  0  0  0  0  0  0  0  0  0  0  0
  151.0885  140.2733  155.6072 C   0  0  0  0  0  0  0  0  0  0  0  0
  150.1759  139.2894  155.3482 C   0  0  0  0  0  0  0  0  0  0  0  0
  150.9742  138.2472  154.8063 C   0  0  0  0  0  0  0  0  0  0  0  0
  150.3922  137.0177  154.4044 N   0  0  0  0  0  0  0  0  0  0  0  0
  150.5386  135.8152  154.9861 C   0  0  0  0  0  0  0  0  0  0  0  0
  151.2451  135.5827  155.9672 O   0  0  0  0  0  0  0  0  0  0  0  0
  149.8057  134.8798  154.3646 N   0  0  0  0  0  0  0  0  0  0  0  0
  149.7222  133.4780  154.7635 C   0  0  0  0  0  0  0  0  0  0  0  0
  148.4235  132.8194  154.2644 C   0  0  1  0  0  0  0  0  0  0  0  0
  148.4968  132.4762  152.7614 C   0  0  0  0  0  0  0  0  0  0  0  0
  147.2648  131.7880  152.3023 N   0  3  2  0  0  0  0  0  0  0  0  0
  146.1084  132.7033  152.1027 C   0  0  0  0  0  0  0  0  0  0  0  0
  146.0429  133.2862  150.6746 C   0  0  0  0  0  0  0  0  0  0  0  0
  144.9360  134.3450  150.5375 C   0  0  0  0  0  0  0  0  0  0  0  0
  145.8421  132.1664  149.6426 C   0  0  0  0  0  0  0  0  0  0  0  0
  146.9823  130.6058  153.1561 C   0  0  0  0  0  0  0  0  0  0  0  0
  146.9874  130.9746  154.6517 C   0  0  0  0  0  0  0  0  0  0  0  0
  148.2154  131.6082  154.9841 O   0  0  0  0  0  0  0  0  0  0  0  0
  152.2575  138.5668  154.7383 N   0  0  0  0  0  0  0  0  0  0  0  0
  152.3372  139.8669  155.2509 O   0  0  0  0  0  0  0  0  0  0  0  0
  149.9299  141.8795  156.4127 H   0  0  0  0  0  0  0  0  0  0  0  0
  151.3397  142.3905  155.4816 H   0  0  0  0  0  0  0  0  0  0  0  0
  151.5464  141.7259  157.1036 H   0  0  0  0  0  0  0  0  0  0  0  0
  149.1104  139.3138  155.5225 H   0  0  0  0  0  0  0  0  0  0  0  0
  149.7850  137.0634  153.5997 H   0  0  0  0  0  0  0  0  0  0  0  0
  149.2592  135.1582  153.5627 H   0  0  0  0  0  0  0  0  0  0  0  0
  150.5817  132.9667  154.3296 H   0  0  0  0  0  0  0  0  0  0  0  0
  149.8179  133.3743  155.8459 H   0  0  0  0  0  0  0  0  0  0  0  0
  147.5920  133.5023  154.4483 H   0  0  0  0  0  0  0  0  0  0  0  0
  148.6775  133.3707  152.1642 H   0  0  0  0  0  0  0  0  0  0  0  0
  149.3447  131.8140  152.5807 H   0  0  0  0  0  0  0  0  0  0  0  0
  145.1797  132.1870  152.3456 H   0  0  0  0  0  0  0  0  0  0  0  0
  146.1786  133.5360  152.8043 H   0  0  0  0  0  0  0  0  0  0  0  0
  146.9934  133.7637  150.4384 H   0  0  0  0  0  0  0  0  0  0  0  0
  143.9535  133.9224  150.7506 H   0  0  0  0  0  0  0  0  0  0  0  0
  144.9087  134.7535  149.5267 H   0  0  0  0  0  0  0  0  0  0  0  0
  145.0941  135.1811  151.2190 H   0  0  0  0  0  0  0  0  0  0  0  0
  144.9031  131.6367  149.8073 H   0  0  0  0  0  0  0  0  0  0  0  0
  146.6496  131.4352  149.6925 H   0  0  0  0  0  0  0  0  0  0  0  0
  145.8249  132.5654  148.6278 H   0  0  0  0  0  0  0  0  0  0  0  0
  146.0405  130.1324  152.8819 H   0  0  0  0  0  0  0  0  0  0  0  0
  147.7591  129.8628  152.9714 H   0  0  0  0  0  0  0  0  0  0  0  0
  146.1480  131.6211  154.9095 H   0  0  0  0  0  0  0  0  0  0  0  0
  146.8854  130.0739  155.2571 H   0  0  0  0  0  0  0  0  0  0  0  0
  147.4767  131.4339  151.3801 H   0  0  0  0  0  0  0  0  0  0  0  0
  1  2  1  0  0  0  0
  1 22  1  0  0  0  0
  1 23  1  0  0  0  0
  1 24  1  0  0  0  0
  2 21  1  0  0  0  0
  2  3  2  0  0  0  0
  3  4  1  0  0  0  0
  3 25  1  0  0  0  0
  4  5  1  0  0  0  0
  4 20  2  0  0  0  0
  5  6  1  0  0  0  0
  5 26  1  0  0  0  0
  6  7  2  0  0  0  0
  6  8  1  0  0  0  0
  8  9  1  0  0  0  0
  8 27  1  0  0  0  0
  9 10  1  0  0  0  0
  9 28  1  0  0  0  0
  9 29  1  0  0  0  0
 10 19  1  0  0  0  0
 10 11  1  0  0  0  0
 10 30  1  0  0  0  0
 11 12  1  0  0  0  0
 11 31  1  0  0  0  0
 11 32  1  0  0  0  0
 12 13  1  0  0  0  0
 12 17  1  0  0  0  0
 12 46  1  0  0  0  0
 13 14  1  0  0  0  0
 13 33  1  0  0  0  0
 13 34  1  0  0  0  0
 14 15  1  0  0  0  0
 14 16  1  0  0  0  0
 14 35  1  0  0  0  0
 15 36  1  0  0  0  0
 15 37  1  0  0  0  0
 15 38  1  0  0  0  0
 16 39  1  0  0  0  0
 16 40  1  0  0  0  0
 16 41  1  0  0  0  0
 17 18  1  0  0  0  0
 17 42  1  0  0  0  0
 17 43  1  0  0  0  0
 18 19  1  0  0  0  0
 18 44  1  0  0  0  0
 18 45  1  0  0  0  0
 20 21  1  0  0  0  0
M  CHG  1  12   1
M  END
> <s_m_source_file>
AV-unprocessed.smi

> <i_m_source_file_index>
1254

> <i_lp_mmshare_version>
43012

> <i_f3d_flags>
0

> <s_epik_input>
W0NIM11jMVtjSF1jKG5vMSlbTkhdQyg9TylbTkhdW0NIMl1bQ0BASF0yW0NIMl1OKFtDSDJdW0NIMl1PMilbQ0gyXVtDSF0oW0NIM10pW0NIM10=

> <s_epik_cmdline>
J2VwaWtfcHl0aG9uJywgJy1waCcsICc3LjAnLCAnLXRuJywgJzgnLCAnLW1hJywgJzIwMCcsICctbWV0YWxfYmluZGluZycsICctaW1hZScsICc8aW5maWxlLm1hZT4nLCAnLW9tYWUnLCAnPG91dGZpbGUubWFlPic=

> <r_epik_Ionization_Penalty>
0.0986825

> <r_epik_Ionization_Penalty_Charging>
0.0986478

> <r_epik_Ionization_Penalty_Neutral>
3.46838e-05

> <r_epik_State_Penalty>
0.0887259

> <r_epik_Charging_Adjusted_Penalty>
0.187374

> <i_epik_Tot_Q>
1

> <i_epik_Tot_abs_Q>
1

> <r_epik_Metal_State_Penalty>
0.103424

> <b_epik_Metal_Only>
0

> <s_lp_Force_Field>
OPLS_2005

> <r_lp_Energy>
18.2179

> <b_lp_Chiralities_Consistent>
1

> <s_lp_Variant>
AV-unprocessed.smi:1254-2

> <Gold.Version>
5.8.1

> <Gold.Id.Protein>
6NUR|6NUR_protein|mol2

> <Gold.PLP.Fitness>
47.6214

> <Gold.PLP.PLP>
-37.3470

> <Gold.PLP.part.hbond>
-6.4886

> <Gold.PLP.part.metal>
0.0000

> <Gold.PLP.part.buried>
-3.4503

> <Gold.PLP.part.nonpolar>
-27.5023

> <Gold.PLP.part.repulsive>
0.2168

> <Gold.PLP.ligand.clash>
0.0000

> <Gold.PLP.ligand.torsion>
1.4123

> <Gold.PLP.Chemscore.Hbond>
4.3558

> <Gold.PLP.Chemscore.CHOScore>
0.0000

> <Gold.PLP.Chemscore.Metal>
0.0000

> <Gold.Chemscore.Hbonds>
donor molecule, donor type, donor heavy atom, donor atom, acceptor molecule, acceptor atom, score
      L1  H     5    26       P1  7948  0.93
      L1  H     8    27       P1  7948  0.95
      L1  H    12    46       P1 10747  0.83
      P1  H  7997  8010       L1    21  0.54
      P1  H 10752 10764       L1     7  0.73

> <Gold.PLP.Chemscore.Internal.Correction>
0.0317

> <Gold.Rescore>
     Score         DG    S(hbond)    S(metal)    S(lipo)     H(rot)  DE(clash)    DE(int)     intcor
     16.61     -18.41       2.63        0.00      73.14       1.73       0.28       1.52       ----

> <Gold.Chemscore.Fitness>
16.6123

> <Gold.Chemscore.DG>
-18.4071

> <Gold.Chemscore.ZeroCoef>
-5.4800

> <Gold.Chemscore.Hbond>
2.6337

> <Gold.Chemscore.Metal>
0.0000

> <Gold.Chemscore.Lipo>
73.1382

> <Gold.Chemscore.Internal_Hbond>
0.0000

> <Gold.Chemscore.DEClash>
0.2795

> <Gold.Chemscore.DEInternal>
1.5153

> <Gold.Chemscore.Rot>
1.7291

> <Gold.Chemscore.Internal.Correction>
   9.000000E+99

> <Gold.Chemscore.Hbonds>
donor molecule, donor type, donor heavy atom, donor atom, acceptor molecule, acceptor atom, score
      L1  H     5    26       P1  7948  0.51
      L1  H     8    27       P1  7948  0.20
      L1  H    12    46       P1 10747  0.81
      P1  H  7997  8010       L1    21  0.35
      P1  H 10752 10764       L1     7  0.28

> <Gold.Chemscore.Hbond.Weighted>
-8.7964

> <Gold.Chemscore.Metal.Weighted>
-0.0000

> <Gold.Chemscore.Lipo.Weighted>
-8.5572

> <Gold.Chemscore.Internal_Hbond.Weighted>
0.0000

> <Gold.Chemscore.DEClash.Weighted>
0.2795

> <Gold.Chemscore.DEInternal.Weighted>
1.5153

> <Gold.Chemscore.Rot.Weighted>
4.4265

> <Gold.Chemscore.Internal.Correction.Weighted>
   9.000000E+99

> <Gold.Protein.RotatedTorsions>
[ 6907 6896 6895 6894 ] final  127.93 input  -60.11 | X-H torsion
[ 7974 7965 7964 7962 ] final  111.35 input  175.53 | X-H torsion
[ 8008 7997 7996 7995 ] final   97.84 input   59.86 | X-H torsion
[ 10167 10162 10161 10158 ] final  -30.55 input  -65.29 | X-H torsion
[ 10718 10713 10712 10709 ] final -122.15 input   66.30 | X-H torsion
[ 10763 10752 10751 10750 ] final  -23.19 input  -60.55 | X-H torsion
[ 11005 11000 10999 10996 ] final -123.18 input  -57.11 | X-H torsion

> <Gold.Protein.ActiveResidues>
 VAL166  LYS551  ARG553  GLY616  TRP617  ASP618  TYR619  PRO620  LYS621  CYS622 
 ASP623  PHE694  ASN695  SER759  ASP760  ASP761  ALA762  ILE779  LEU786  VAL792 
 PHE793  MET794  SER795  GLU796  ALA797  LYS798  CYS799  TRP800  GLU811  SER814 

> <Gold.Protein.RotatedAtoms>
  152.3767  133.6490  159.6128 H   0  0  0  0  0  0  0  0  0  0  0  0  # atno 6907 bound_to 6896
  150.7709  133.9182  159.3399 H   0  0  0  0  0  0  0  0  0  0  0  0  # atno 6908 bound_to 6896
  151.6995  135.0934  160.0299 H   0  0  0  0  0  0  0  0  0  0  0  0  # atno 6909 bound_to 6896
  145.2434  139.2769  143.4106 H   0  0  0  0  0  0  0  0  0  0  0  0  # atno 7974 bound_to 7965
  156.0943  140.3252  155.7857 H   0  0  0  0  0  0  0  0  0  0  0  0  # atno 8008 bound_to 7997
  155.4944  140.0564  157.2966 H   0  0  0  0  0  0  0  0  0  0  0  0  # atno 8009 bound_to 7997
  154.4657  140.1988  156.0141 H   0  0  0  0  0  0  0  0  0  0  0  0  # atno 8010 bound_to 7997
  140.7248  143.3840  151.1549 H   0  0  0  0  0  0  0  0  0  0  0  0  # atno 10167 bound_to 10162
  156.1395  130.6455  150.9749 H   0  0  0  0  0  0  0  0  0  0  0  0  # atno 10718 bound_to 10713
  153.6639  135.6975  153.5168 H   0  0  0  0  0  0  0  0  0  0  0  0  # atno 10763 bound_to 10752
  153.2610  135.4244  155.0893 H   0  0  0  0  0  0  0  0  0  0  0  0  # atno 10764 bound_to 10752
  154.8445  135.3555  154.6183 H   0  0  0  0  0  0  0  0  0  0  0  0  # atno 10765 bound_to 10752
  140.9938  134.0501  157.3622 H   0  0  0  0  0  0  0  0  0  0  0  0  # atno 11005 bound_to 11000
  146.3322  140.2804  142.8610 LP  0  0  0  0  0  0  0  0  0  0  0  0  # atno 17320 bound_to 7965
  144.9568  140.8235  143.5538 LP  0  0  0  0  0  0  0  0  0  0  0  0  # atno 17321 bound_to 7965
  139.7434  143.8889  152.3056 LP  0  0  0  0  0  0  0  0  0  0  0  0  # atno 17342 bound_to 10162
  139.8718  144.7064  150.8978 LP  0  0  0  0  0  0  0  0  0  0  0  0  # atno 17343 bound_to 10162
  157.6563  131.0889  150.7940 LP  0  0  0  0  0  0  0  0  0  0  0  0  # atno 17370 bound_to 10713
  156.8017  130.4923  149.5369 LP  0  0  0  0  0  0  0  0  0  0  0  0  # atno 17371 bound_to 10713
  139.9005  135.0162  156.7244 LP  0  0  0  0  0  0  0  0  0  0  0  0  # atno 17394 bound_to 11000
  140.6998  133.9316  155.8017 LP  0  0  0  0  0  0  0  0  0  0  0  0  # atno 17395 bound_to 11000

$$$$
