#       Name:                AV-unprocessed.smi:1053
#       Creating user name   scv26
#       Creation time:       Fri Mar 27 03:12:20 2020


#       File generated by GOLD software.
#

@<TRIPOS>MOLECULE
AV-unprocessed.smi:1053
    42    43     1
SMALL
NO_CHARGES


@<TRIPOS>ATOM
      1 ****        -4.7809  -2.2416   2.4840 C.3            1 S1                 0.0000
      2 ****        -3.2838  -1.9020   2.5184 C.3            1 S1                 0.0000
      3 ****        -2.7957  -1.1504   1.3634 N.3            1 S1                 0.0000
      4 ****        -3.3476   0.2005   1.2997 C.3            1 S1                 0.0000
      5 ****        -2.7961   0.9868   0.0987 C.3            1 S1                 0.0000
      6 ****        -1.3743   1.0161   0.1622 O.3            1 S1                 0.0000
      7 ****        -0.7897  -0.2843   0.1641 C.3            1 S1                 0.0000
      8 ****         0.7353  -0.1314   0.2364 C.3            1 S1                 0.0000
      9 ****         1.2799   0.4370  -0.9875 N.pl3          1 S1                 0.0000
     10 ****         2.6279   0.6391  -1.2151 C.ar           1 S1                 0.0000
     11 ****         3.4941   0.2591  -0.2686 N.ar           1 S1                 0.0000
     12 ****         4.8050   0.4652  -0.5177 C.ar           1 S1                 0.0000
     13 ****         5.2490   1.0527  -1.7186 C.ar           1 S1                 0.0000
     14 ****         4.2467   1.4136  -2.6468 C.ar           1 S1                 0.0000
     15 ****         4.5776   2.0592  -3.9841 C.3            1 S1                 0.0000
     16 ****         5.8945   2.1786  -4.1576 F              1 S1                 0.0000
     17 ****         4.0867   1.3170  -4.9769 F              1 S1                 0.0000
     18 ****         4.0312   3.2737  -4.0432 F              1 S1                 0.0000
     19 ****         2.9354   1.2036  -2.3848 N.ar           1 S1                 0.0000
     20 ****        -1.3391  -1.0658   1.3745 C.3            1 S1                 0.0000
     21 ****        -5.0451  -2.8917   3.3181 H              1 S1                 0.0000
     22 ****        -5.0447  -2.7623   1.5630 H              1 S1                 0.0000
     23 ****        -5.4033  -1.3504   2.5598 H              1 S1                 0.0000
     24 ****        -3.0539  -1.3615   3.4378 H              1 S1                 0.0000
     25 ****        -2.7374  -2.8440   2.5805 H              1 S1                 0.0000
     26 ****        -4.4339   0.1633   1.2238 H              1 S1                 0.0000
     27 ****        -3.1154   0.7394   2.2195 H              1 S1                 0.0000
     28 ****        -3.1171   0.5342  -0.8407 H              1 S1                 0.0000
     29 ****        -3.1748   2.0089   0.1081 H              1 S1                 0.0000
     30 ****        -1.0594  -0.8075  -0.7556 H              1 S1                 0.0000
     31 ****         1.0140   0.4933   1.0860 H              1 S1                 0.0000
     32 ****         1.1929  -1.1090   0.3927 H              1 S1                 0.0000
     33 ****         0.6359   0.7453  -1.7014 H              1 S1                 0.0000
     34 ****         5.5045   0.1596   0.2460 H              1 S1                 0.0000
     35 ****         6.2996   1.2143  -1.9088 H              1 S1                 0.0000
     36 ****        -1.0052  -0.5872   2.2967 H              1 S1                 0.0000
     37 ****        -0.9139  -2.0702   1.3754 H              1 S1                 0.0000
     38 ****        -3.1028  -1.6528   0.5551 LP             1 S1                 0.0000
     39 ****        -1.1024   1.4889   1.0004 LP             1 S1                 0.0000
     40 ****        -1.0302   1.5190  -0.6308 LP             1 S1                 0.0000
     41 ****         3.1843  -0.1590   0.5853 LP             1 S1                 0.0000
     42 ****         2.2260   1.4609  -3.0409 LP             1 S1                 0.0000
@<TRIPOS>BOND
    1    1    2 1     
    2    1   21 1     
    3    1   22 1     
    4    1   23 1     
    5    2    3 1     
    6    2   24 1     
    7    2   25 1     
    8    3   20 1     
    9    3    4 1     
   10    4    5 1     
   11    4   26 1     
   12    4   27 1     
   13    5    6 1     
   14    5   28 1     
   15    5   29 1     
   16    6    7 1     
   17    7    8 1     
   18    7   20 1     
   19    7   30 1     
   20    8    9 1     
   21    8   31 1     
   22    8   32 1     
   23    9   10 1     
   24    9   33 1     
   25   10   19 ar    
   26   10   11 ar    
   27   11   12 ar    
   28   12   13 ar    
   29   12   34 1     
   30   13   14 ar    
   31   13   35 1     
   32   14   15 1     
   33   14   19 ar    
   34   15   16 1     
   35   15   17 1     
   36   15   18 1     
   37   20   36 1     
   38   20   37 1     
   39    3   38 1     
   40    6   39 1     
   41    6   40 1     
   42   11   41 1     
   43   19   42 1     
@<TRIPOS>SUBSTRUCTURE
      1 S1             1
@<TRIPOS>SET
LONE_PAIRS      STATIC     ATOMS    <user>   **** ""
5 38 39 40 41 42
DONOR_HYDROGENS      STATIC     ATOMS    <user>   **** ""
1 33
ATOM$BLUE        STATIC     ATOMS    COLORGROUP SYSTEM
5 38 39 40 41 42
ATOM$RED        STATIC     ATOMS    COLORGROUP SYSTEM
1 33
