#       Name:                AV-unprocessed.smi:2781
#       Creating user name   scv26
#       Creation time:       Fri Mar 27 15:15:52 2020


#       File generated by GOLD software.
#

@<TRIPOS>MOLECULE
AV-unprocessed.smi:2781
    38    41     1
SMALL
NO_CHARGES


@<TRIPOS>ATOM
      1 ****         1.3680   2.3043   0.2138 O.2            1 S1                 0.0000
      2 ****         1.0214   1.1371   0.0291 C.2            1 S1                 0.0000
      3 ****         1.8547   0.0896  -0.1006 N.am           1 S1                 0.0000
      4 ****         3.2730   0.0809  -0.0260 C.ar           1 S1                 0.0000
      5 ****         3.8736  -1.1845  -0.2155 C.ar           1 S1                 0.0000
      6 ****         5.2759  -1.3023  -0.1553 C.ar           1 S1                 0.0000
      7 ****         6.0407  -0.1488   0.0928 C.ar           1 S1                 0.0000
      8 ****         7.3915  -0.2129   0.1598 F              1 S1                 0.0000
      9 ****         5.3658   1.0730   0.2698 C.ar           1 S1                 0.0000
     10 ****         4.0217   1.1871   0.2124 N.ar           1 S1                 0.0000
     11 ****        -0.2569   0.7484  -0.0684 N.am           1 S1                 0.0000
     12 ****        -1.3988   1.5996   0.0211 C.3            1 S1                 0.0000
     13 ****        -2.6245   1.1967   0.8199 C.3            1 S1                 0.0000
     14 ****        -3.2168  -0.1835   1.1273 C.3            1 S1                 0.0000
     15 ****        -2.2991  -1.3495   0.7076 C.3            1 S1                 0.0000
     16 ****        -2.3668  -1.2850  -0.8338 C.3            1 S1                 0.0000
     17 ****        -3.3125  -0.0907  -1.0730 C.3            1 S1                 0.0000
     18 ****        -4.3058  -0.2927   0.0661 C.3            1 S1                 0.0000
     19 ****        -2.6887   1.2607  -0.7043 C.3            1 S1                 0.0000
     20 ****         1.4232  -0.8086  -0.2605 H              1 S1                 0.0000
     21 ****         3.2695  -2.0600  -0.4051 H              1 S1                 0.0000
     22 ****         5.7544  -2.2601  -0.2965 H              1 S1                 0.0000
     23 ****         5.9169   1.9817   0.4627 H              1 S1                 0.0000
     24 ****        -0.4423  -0.2323  -0.2198 H              1 S1                 0.0000
     25 ****        -1.1749   2.6651   0.0500 H              1 S1                 0.0000
     26 ****        -3.1268   2.0056   1.3471 H              1 S1                 0.0000
     27 ****        -3.5763  -0.2529   2.1543 H              1 S1                 0.0000
     28 ****        -1.2916  -1.2694   1.1133 H              1 S1                 0.0000
     29 ****        -2.7068  -2.2980   1.0602 H              1 S1                 0.0000
     30 ****        -1.3984  -1.1688  -1.3181 H              1 S1                 0.0000
     31 ****        -2.8084  -2.2017  -1.2270 H              1 S1                 0.0000
     32 ****        -3.7604  -0.0748  -2.0668 H              1 S1                 0.0000
     33 ****        -4.8100  -1.2609   0.0474 H              1 S1                 0.0000
     34 ****        -5.0546   0.4990   0.1323 H              1 S1                 0.0000
     35 ****        -3.2301   2.1097  -1.1178 H              1 S1                 0.0000
     36 ****         2.3393   2.5332   0.2785 LP             1 S1                 0.0000
     37 ****         0.6781   3.0232   0.2991 LP             1 S1                 0.0000
     38 ****         3.5833   2.0761   0.3440 LP             1 S1                 0.0000
@<TRIPOS>BOND
    1    1    2 2     
    2    2    3 am    
    3    2   11 am    
    4    3    4 1     
    5    3   20 1     
    6    4   10 ar    
    7    4    5 ar    
    8    5    6 ar    
    9    5   21 1     
   10    6    7 ar    
   11    6   22 1     
   12    7    8 1     
   13    7    9 ar    
   14    9   10 ar    
   15    9   23 1     
   16   11   12 1     
   17   11   24 1     
   18   12   19 1     
   19   12   13 1     
   20   12   25 1     
   21   13   19 1     
   22   13   14 1     
   23   13   26 1     
   24   14   18 1     
   25   14   15 1     
   26   14   27 1     
   27   15   16 1     
   28   15   28 1     
   29   15   29 1     
   30   16   17 1     
   31   16   30 1     
   32   16   31 1     
   33   17   18 1     
   34   17   19 1     
   35   17   32 1     
   36   18   33 1     
   37   18   34 1     
   38   19   35 1     
   39    1   36 1     
   40    1   37 1     
   41   10   38 1     
@<TRIPOS>SUBSTRUCTURE
      1 S1             1
@<TRIPOS>SET
LONE_PAIRS      STATIC     ATOMS    <user>   **** ""
3 36 37 38
DONOR_HYDROGENS      STATIC     ATOMS    <user>   **** ""
2 20 24
ATOM$BLUE        STATIC     ATOMS    COLORGROUP SYSTEM
3 36 37 38
ATOM$RED        STATIC     ATOMS    COLORGROUP SYSTEM
2 20 24
