#       Name:                AV-unprocessed.smi:1376
#       Creating user name   scv26
#       Creation time:       Fri Mar 27 05:19:16 2020


#       File generated by GOLD software.
#

@<TRIPOS>MOLECULE
AV-unprocessed.smi:1376
    48    49     1
SMALL
NO_CHARGES


@<TRIPOS>ATOM
      1 ****        -1.0709   1.6166  -0.4150 O.2            1 S1                 0.0000
      2 ****        -1.5029   0.4691  -0.5327 C.2            1 S1                 0.0000
      3 ****        -3.0128   0.1919  -0.5140 C.3            1 S1                 0.0000
      4 ****        -3.7853   1.2251   0.1959 N.am           1 S1                 0.0000
      5 ****        -4.3814   2.2333  -0.5879 C.2            1 S1                 0.0000
      6 ****        -5.1075   3.2213  -0.0416 C.2            1 S1                 0.0000
      7 ****        -5.2722   3.2345   1.3925 C.2            1 S1                 0.0000
      8 ****        -4.7024   2.2778   2.1521 C.2            1 S1                 0.0000
      9 ****        -3.9040   1.1983   1.5595 C.2            1 S1                 0.0000
     10 ****        -3.3757   0.3233   2.2463 O.2            1 S1                 0.0000
     11 ****        -0.7117  -0.6005  -0.7064 N.am           1 S1                 0.0000
     12 ****         0.7469  -0.5727  -0.7650 C.3            1 S1                 0.0000
     13 ****         1.2245  -0.2409  -2.1931 C.3            1 S1                 0.0000
     14 ****         2.7567  -0.2845  -2.2952 C.3            1 S1                 0.0000
     15 ****         3.3121  -1.6402  -1.8274 C.3            1 S1                 0.0000
     16 ****         2.8474  -1.9881  -0.4018 C.3            1 S1                 0.0000
     17 ****         3.4649  -1.0671   0.4907 O.3            1 S1                 0.0000
     18 ****         3.5294  -1.4962   1.8439 C.3            1 S1                 0.0000
     19 ****         4.2704  -0.4404   2.6732 C.3            1 S1                 0.0000
     20 ****         4.3538  -0.8527   3.9375 F              1 S1                 0.0000
     21 ****         5.5034  -0.2640   2.1990 F              1 S1                 0.0000
     22 ****         3.6091   0.7163   2.6430 F              1 S1                 0.0000
     23 ****         1.3072  -1.9318  -0.3039 C.3            1 S1                 0.0000
     24 ****        -3.3532   0.1036  -1.5465 H              1 S1                 0.0000
     25 ****        -3.1984  -0.7874  -0.0686 H              1 S1                 0.0000
     26 ****        -4.2037   2.1553  -1.6508 H              1 S1                 0.0000
     27 ****        -5.5532   3.9881  -0.6579 H              1 S1                 0.0000
     28 ****        -5.8541   4.0158   1.8588 H              1 S1                 0.0000
     29 ****        -4.8358   2.3040   3.2236 H              1 S1                 0.0000
     30 ****        -1.1529  -1.5037  -0.8020 H              1 S1                 0.0000
     31 ****         1.1155   0.1949  -0.0812 H              1 S1                 0.0000
     32 ****         0.7955  -0.9516  -2.9011 H              1 S1                 0.0000
     33 ****         0.8672   0.7456  -2.4913 H              1 S1                 0.0000
     34 ****         3.0658  -0.0918  -3.3228 H              1 S1                 0.0000
     35 ****         3.1843   0.5160  -1.6900 H              1 S1                 0.0000
     36 ****         2.9824  -2.4199  -2.5153 H              1 S1                 0.0000
     37 ****         4.4016  -1.6324  -1.8731 H              1 S1                 0.0000
     38 ****         3.1914  -2.9978  -0.1719 H              1 S1                 0.0000
     39 ****         2.5296  -1.6446   2.2515 H              1 S1                 0.0000
     40 ****         4.0547  -2.4501   1.9093 H              1 S1                 0.0000
     41 ****         0.9745  -2.1503   0.7104 H              1 S1                 0.0000
     42 ****         0.8890  -2.7224  -0.9288 H              1 S1                 0.0000
     43 ****        -1.7060   2.3812  -0.3057 LP             1 S1                 0.0000
     44 ****        -0.0850   1.7836  -0.4289 LP             1 S1                 0.0000
     45 ****        -2.8389  -0.3988   1.8099 LP             1 S1                 0.0000
     46 ****        -3.4834   0.3349   3.2404 LP             1 S1                 0.0000
     47 ****         2.9482  -0.2115   0.4605 LP             1 S1                 0.0000
     48 ****         4.3986  -0.9041   0.1717 LP             1 S1                 0.0000
@<TRIPOS>BOND
    1    1    2 2     
    2    2    3 1     
    3    2   11 am    
    4    3    4 1     
    5    3   24 1     
    6    3   25 1     
    7    4    9 am    
    8    4    5 1     
    9    5    6 2     
   10    5   26 1     
   11    6    7 1     
   12    6   27 1     
   13    7    8 2     
   14    7   28 1     
   15    8    9 1     
   16    8   29 1     
   17    9   10 2     
   18   11   12 1     
   19   11   30 1     
   20   12   23 1     
   21   12   13 1     
   22   12   31 1     
   23   13   14 1     
   24   13   32 1     
   25   13   33 1     
   26   14   15 1     
   27   14   34 1     
   28   14   35 1     
   29   15   16 1     
   30   15   36 1     
   31   15   37 1     
   32   16   17 1     
   33   16   23 1     
   34   16   38 1     
   35   17   18 1     
   36   18   19 1     
   37   18   39 1     
   38   18   40 1     
   39   19   20 1     
   40   19   21 1     
   41   19   22 1     
   42   23   41 1     
   43   23   42 1     
   44    1   43 1     
   45    1   44 1     
   46   10   45 1     
   47   10   46 1     
   48   17   47 1     
   49   17   48 1     
@<TRIPOS>SUBSTRUCTURE
      1 S1             1
@<TRIPOS>SET
LONE_PAIRS      STATIC     ATOMS    <user>   **** ""
6 43 44 45 46 47 48
DONOR_HYDROGENS      STATIC     ATOMS    <user>   **** ""
1 30
ATOM$BLUE        STATIC     ATOMS    COLORGROUP SYSTEM
6 43 44 45 46 47 48
ATOM$RED        STATIC     ATOMS    COLORGROUP SYSTEM
1 30
