#       Name:                AV-unprocessed.smi:2802
#       Creating user name   scv26
#       Creation time:       Fri Mar 27 15:24:03 2020


#       File generated by GOLD software.
#

@<TRIPOS>MOLECULE
AV-unprocessed.smi:2802
    52    53     1
SMALL
NO_CHARGES


@<TRIPOS>ATOM
      1 ****        -2.9636  -2.3001  -2.8183 C.3            1 S1                 0.0000
      2 ****        -2.5384  -1.5456  -1.5499 C.3            1 S1                 0.0000
      3 ****        -3.0115  -0.0826  -1.5908 C.3            1 S1                 0.0000
      4 ****        -2.6365   0.7202  -0.3250 C.3            1 S1                 0.0000
      5 ****        -2.8976   2.2159  -0.6037 C.3            1 S1                 0.0000
      6 ****        -3.5396   0.3290   0.8661 C.3            1 S1                 0.0000
      7 ****        -1.1251   0.5484   0.0013 C.3            1 S1                 0.0000
      8 ****        -0.5098  -0.8859  -0.0744 C.3            1 S1                 0.0000
      9 ****        -0.8129  -1.7337   1.1961 C.3            1 S1                 0.0000
     10 ****        -0.1025  -2.9576   1.2054 O.3            1 S1                 0.0000
     11 ****         0.9475  -0.7487  -0.2402 N.am           1 S1                 0.0000
     12 ****         1.8362  -0.1838   0.5969 C.2            1 S1                 0.0000
     13 ****         1.5326   0.3145   1.6817 O.2            1 S1                 0.0000
     14 ****         3.2939  -0.1955   0.1225 C.3            1 S1                 0.0000
     15 ****         4.1062   0.9157   0.7669 C.ar           1 S1                 0.0000
     16 ****         4.9106   0.6624   1.8972 C.ar           1 S1                 0.0000
     17 ****         5.6361   1.7268   2.4658 C.ar           1 S1                 0.0000
     18 ****         5.5258   3.0030   1.8783 C.ar           1 S1                 0.0000
     19 ****         4.7610   3.2571   0.7946 N.ar           1 S1                 0.0000
     20 ****         4.0683   2.2308   0.2556 C.ar           1 S1                 0.0000
     21 ****        -1.0126  -1.5980  -1.3569 C.3            1 S1                 0.0000
     22 ****        -2.5242  -1.8566  -3.7122 H              1 S1                 0.0000
     23 ****        -4.0474  -2.2864  -2.9381 H              1 S1                 0.0000
     24 ****        -2.6519  -3.3442  -2.7768 H              1 S1                 0.0000
     25 ****        -3.0169  -2.0517  -0.7129 H              1 S1                 0.0000
     26 ****        -2.5705   0.3966  -2.4663 H              1 S1                 0.0000
     27 ****        -4.0911  -0.0464  -1.7441 H              1 S1                 0.0000
     28 ****        -2.6459   2.8310   0.2612 H              1 S1                 0.0000
     29 ****        -3.9452   2.4011  -0.8445 H              1 S1                 0.0000
     30 ****        -2.3054   2.5795  -1.4443 H              1 S1                 0.0000
     31 ****        -3.2205   0.8231   1.7844 H              1 S1                 0.0000
     32 ****        -3.5627  -0.7393   1.0587 H              1 S1                 0.0000
     33 ****        -4.5738   0.6238   0.6850 H              1 S1                 0.0000
     34 ****        -0.5781   1.1646  -0.7150 H              1 S1                 0.0000
     35 ****        -0.9153   0.9984   0.9723 H              1 S1                 0.0000
     36 ****        -0.5659  -1.1852   2.1048 H              1 S1                 0.0000
     37 ****        -1.8656  -1.9874   1.2722 H              1 S1                 0.0000
     38 ****        -0.3086  -3.4177   2.0047 H              1 S1                 0.0000
     39 ****         1.3203  -1.1333  -1.0959 H              1 S1                 0.0000
     40 ****         3.7363  -1.1641   0.3580 H              1 S1                 0.0000
     41 ****         3.3330  -0.0835  -0.9621 H              1 S1                 0.0000
     42 ****         4.9681  -0.3279   2.3246 H              1 S1                 0.0000
     43 ****         6.2604   1.5694   3.3327 H              1 S1                 0.0000
     44 ****         6.0667   3.8421   2.2904 H              1 S1                 0.0000
     45 ****         3.4617   2.4668  -0.6065 H              1 S1                 0.0000
     46 ****        -0.6747  -2.6351  -1.3694 H              1 S1                 0.0000
     47 ****        -0.5502  -1.1319  -2.2292 H              1 S1                 0.0000
     48 ****         0.8803  -2.7775   1.1636 LP             1 S1                 0.0000
     49 ****        -0.3738  -3.5111   0.4180 LP             1 S1                 0.0000
     50 ****         0.5791   0.3134   1.9831 LP             1 S1                 0.0000
     51 ****         2.2396   0.7202   2.2609 LP             1 S1                 0.0000
     52 ****         4.7093   4.1761   0.4037 LP             1 S1                 0.0000
@<TRIPOS>BOND
    1    1    2 1     
    2    1   22 1     
    3    1   23 1     
    4    1   24 1     
    5    2   21 1     
    6    2    3 1     
    7    2   25 1     
    8    3    4 1     
    9    3   26 1     
   10    3   27 1     
   11    4    5 1     
   12    4    6 1     
   13    4    7 1     
   14    5   28 1     
   15    5   29 1     
   16    5   30 1     
   17    6   31 1     
   18    6   32 1     
   19    6   33 1     
   20    7    8 1     
   21    7   34 1     
   22    7   35 1     
   23    8    9 1     
   24    8   11 1     
   25    8   21 1     
   26    9   10 1     
   27    9   36 1     
   28    9   37 1     
   29   10   38 1     
   30   11   12 am    
   31   11   39 1     
   32   12   13 2     
   33   12   14 1     
   34   14   15 1     
   35   14   40 1     
   36   14   41 1     
   37   15   20 ar    
   38   15   16 ar    
   39   16   17 ar    
   40   16   42 1     
   41   17   18 ar    
   42   17   43 1     
   43   18   19 ar    
   44   18   44 1     
   45   19   20 ar    
   46   20   45 1     
   47   21   46 1     
   48   21   47 1     
   49   10   48 1     
   50   10   49 1     
   51   13   50 1     
   52   13   51 1     
   53   19   52 1     
@<TRIPOS>SUBSTRUCTURE
      1 S1             1
@<TRIPOS>SET
LONE_PAIRS      STATIC     ATOMS    <user>   **** ""
5 48 49 50 51 52
DONOR_HYDROGENS      STATIC     ATOMS    <user>   **** ""
2 38 39
ATOM$BLUE        STATIC     ATOMS    COLORGROUP SYSTEM
5 48 49 50 51 52
ATOM$RED        STATIC     ATOMS    COLORGROUP SYSTEM
2 38 39
