AV-unprocessed.smi:290|AV-procd|sdf|2221|dock10
  -GOLD-   2262022 73D 1   1.00000     0.00000
 Structure written by MMmdl.
 59 62  0  0  0  0  0  0  0  0  2 V2000
  153.8545  139.8141  159.9036 C   0  0  0  0  0  0  0  0  0  0  0  0
  153.9317  141.3179  160.2174 C   0  0  2  0  0  0  0  0  0  0  0  0
  154.2317  141.5184  161.5983 O   0  0  0  0  0  0  0  0  0  0  0  0
  153.1993  142.2715  162.2163 C   0  0  0  0  0  0  0  0  0  0  0  0
  152.6349  143.1216  161.0861 C   0  0  0  0  0  0  0  0  0  0  0  0
  152.6723  142.1650  159.9036 C   0  0  2  0  0  0  0  0  0  0  0  0
  151.4977  141.3694  159.9454 O   0  0  0  0  0  0  0  0  0  0  0  0
  152.7157  142.9060  158.5457 C   0  0  0  0  0  0  0  0  0  0  0  0
  151.7072  142.4505  157.6015 N   0  0  0  0  0  0  0  0  0  0  0  0
  150.6090  143.1568  157.1628 C   0  0  0  0  0  0  0  0  0  0  0  0
  149.8475  142.5308  156.3066 N   0  0  0  0  0  0  0  0  0  0  0  0
  150.4714  141.3018  156.1412 C   0  0  0  0  0  0  0  0  0  0  0  0
  150.1908  140.1529  155.3578 C   0  0  0  0  0  0  0  0  0  0  0  0
  149.1154  140.0971  154.5397 N   0  0  0  0  0  0  0  0  0  0  0  0
  148.6372  141.3935  154.0993 C   0  0  0  0  0  0  0  0  0  0  0  0
  147.2131  141.1596  153.5926 C   0  0  0  0  0  0  0  0  0  0  0  0
  146.8144  139.7442  154.0617 C   0  0  2  0  0  0  0  0  0  0  0  0
  145.4273  139.7316  154.6266 N   0  3  1  0  0  0  0  0  0  0  0  0
  145.0033  138.3481  154.9662 C   0  0  0  0  0  0  0  0  0  0  0  0
  145.1826  140.6898  155.7425 C   0  0  0  0  0  0  0  0  0  0  0  0
  143.7019  140.8197  156.1478 C   0  0  0  0  0  0  0  0  0  0  0  0
  142.9598  141.4243  155.1096 O   0  0  0  0  0  0  0  0  0  0  0  0
  147.9609  139.3494  155.0239 C   0  0  1  0  0  0  0  0  0  0  0  0
  148.2874  137.8392  155.0432 C   0  0  0  0  0  0  0  0  0  0  0  0
  151.0452  139.0990  155.4422 N   0  0  0  0  0  0  0  0  0  0  0  0
  152.1120  139.1695  156.2447 C   0  0  0  0  0  0  0  0  0  0  0  0
  152.5031  140.1781  157.0271 N   0  0  0  0  0  0  0  0  0  0  0  0
  151.6436  141.2342  156.9440 C   0  0  0  0  0  0  0  0  0  0  0  0
  146.8493  139.0723  153.2016 H   0  0  0  0  0  0  0  0  0  0  0  0
  147.7201  139.6928  156.0311 H   0  0  0  0  0  0  0  0  0  0  0  0
  153.6114  139.6381  158.8558 H   0  0  0  0  0  0  0  0  0  0  0  0
  153.1012  139.3151  160.5135 H   0  0  0  0  0  0  0  0  0  0  0  0
  154.8104  139.3309  160.1055 H   0  0  0  0  0  0  0  0  0  0  0  0
  154.7815  141.7367  159.6786 H   0  0  0  0  0  0  0  0  0  0  0  0
  152.4405  141.5900  162.6035 H   0  0  0  0  0  0  0  0  0  0  0  0
  153.5789  142.8686  163.0457 H   0  0  0  0  0  0  0  0  0  0  0  0
  151.6416  143.5177  161.3016 H   0  0  0  0  0  0  0  0  0  0  0  0
  153.3005  143.9682  160.9109 H   0  0  0  0  0  0  0  0  0  0  0  0
  151.2595  141.2328  160.8494 H   0  0  0  0  0  0  0  0  0  0  0  0
  152.5845  143.9786  158.6949 H   0  0  0  0  0  0  0  0  0  0  0  0
  153.6951  142.7834  158.0814 H   0  0  0  0  0  0  0  0  0  0  0  0
  150.3873  144.1578  157.5033 H   0  0  0  0  0  0  0  0  0  0  0  0
  148.6334  142.1084  154.9238 H   0  0  0  0  0  0  0  0  0  0  0  0
  149.2787  141.7922  153.3125 H   0  0  0  0  0  0  0  0  0  0  0  0
  146.5541  141.9328  153.9902 H   0  0  0  0  0  0  0  0  0  0  0  0
  147.1714  141.2244  152.5047 H   0  0  0  0  0  0  0  0  0  0  0  0
  145.5016  138.0000  155.8717 H   0  0  0  0  0  0  0  0  0  0  0  0
  145.2368  137.6443  154.1677 H   0  0  0  0  0  0  0  0  0  0  0  0
  143.9268  138.2842  155.1178 H   0  0  0  0  0  0  0  0  0  0  0  0
  145.7760  140.3905  156.6074 H   0  0  0  0  0  0  0  0  0  0  0  0
  145.5099  141.6883  155.4584 H   0  0  0  0  0  0  0  0  0  0  0  0
  143.2568  139.8636  156.4200 H   0  0  0  0  0  0  0  0  0  0  0  0
  143.6201  141.4524  157.0321 H   0  0  0  0  0  0  0  0  0  0  0  0
  143.3784  141.2306  154.2840 H   0  0  0  0  0  0  0  0  0  0  0  0
  147.4440  137.2226  155.3447 H   0  0  0  0  0  0  0  0  0  0  0  0
  149.1000  137.6221  155.7372 H   0  0  0  0  0  0  0  0  0  0  0  0
  148.6011  137.4947  154.0571 H   0  0  0  0  0  0  0  0  0  0  0  0
  152.7433  138.2932  156.2620 H   0  0  0  0  0  0  0  0  0  0  0  0
  144.8262  140.0389  153.8750 H   0  0  0  0  0  0  0  0  0  0  0  0
  1  2  1  0  0  0  0
  1 31  1  0  0  0  0
  1 32  1  0  0  0  0
  1 33  1  0  0  0  0
  2  6  1  0  0  0  0
  2  3  1  0  0  0  0
  2 34  1  0  0  0  0
  3  4  1  0  0  0  0
  4  5  1  0  0  0  0
  4 35  1  0  0  0  0
  4 36  1  0  0  0  0
  5  6  1  0  0  0  0
  5 37  1  0  0  0  0
  5 38  1  0  0  0  0
  6  7  1  0  0  0  0
  6  8  1  0  0  0  0
  7 39  1  0  0  0  0
  8  9  1  0  0  0  0
  8 40  1  0  0  0  0
  8 41  1  0  0  0  0
  9 28  1  0  0  0  0
  9 10  1  0  0  0  0
 10 11  2  0  0  0  0
 10 42  1  0  0  0  0
 11 12  1  0  0  0  0
 12 28  2  0  0  0  0
 12 13  1  0  0  0  0
 13 14  1  0  0  0  0
 13 25  2  0  0  0  0
 14 23  1  0  0  0  0
 14 15  1  0  0  0  0
 15 16  1  0  0  0  0
 15 43  1  0  0  0  0
 15 44  1  0  0  0  0
 16 17  1  0  0  0  0
 16 45  1  0  0  0  0
 16 46  1  0  0  0  0
 17 29  1  0  0  0  0
 17 18  1  0  0  0  0
 17 23  1  0  0  0  0
 18 19  1  0  0  0  0
 18 20  1  0  0  0  0
 18 59  1  0  0  0  0
 19 47  1  0  0  0  0
 19 48  1  0  0  0  0
 19 49  1  0  0  0  0
 20 21  1  0  0  0  0
 20 50  1  0  0  0  0
 20 51  1  0  0  0  0
 21 22  1  0  0  0  0
 21 52  1  0  0  0  0
 21 53  1  0  0  0  0
 22 54  1  0  0  0  0
 23 30  1  0  0  0  0
 23 24  1  0  0  0  0
 24 55  1  0  0  0  0
 24 56  1  0  0  0  0
 24 57  1  0  0  0  0
 25 26  1  0  0  0  0
 26 27  2  0  0  0  0
 26 58  1  0  0  0  0
 27 28  1  0  0  0  0
M  CHG  1  18   1
M  END
> <s_m_source_file>
AV-unprocessed.smi

> <i_m_source_file_index>
290

> <i_lp_mmshare_version>
43012

> <i_f3d_flags>
0

> <s_epik_input>
W0NIMl0xW0NIMl1PW0NAQEhdKFtDSDNdKVtDQEBdMShbT0hdKVtDSDJdbihbY0hdbjIpYyhjMjMpbltjSF1uYzNONFtDSDJdW0NIMl1bQ0BIXShbQ0BIXTRbQ0gzXSlOKFtDSDNdKVtDSDJdW0NIMl1bT0hd

> <s_epik_cmdline>
J2VwaWtfcHl0aG9uJywgJy1waCcsICc3LjAnLCAnLXRuJywgJzgnLCAnLW1hJywgJzIwMCcsICctbWV0YWxfYmluZGluZycsICctaW1hZScsICc8aW5maWxlLm1hZT4nLCAnLW9tYWUnLCAnPG91dGZpbGUubWFlPic=

> <r_lp_tautomer_probability>
1

> <r_epik_Ionization_Penalty>
0.0036983

> <r_epik_Ionization_Penalty_Charging>
0.0032725

> <r_epik_Ionization_Penalty_Neutral>
0.000425798

> <r_epik_State_Penalty>
-0

> <r_epik_Charging_Adjusted_Penalty>
0.0032725

> <i_epik_Tot_Q>
1

> <i_epik_Tot_abs_Q>
1

> <r_epik_Metal_State_Penalty>
-0

> <b_epik_Metal_Only>
0

> <s_lp_Force_Field>
OPLS_2005

> <r_lp_Energy>
65.2566

> <b_lp_Chiralities_Consistent>
1

> <s_lp_Variant>
AV-unprocessed.smi:290-7

> <Gold.Version>
5.8.1

> <Gold.Id.Protein>
6NUR|6NUR_protein|mol2

> <Gold.PLP.Fitness>
49.5094

> <Gold.PLP.PLP>
-40.0512

> <Gold.PLP.part.hbond>
-5.8394

> <Gold.PLP.part.metal>
0.0000

> <Gold.PLP.part.buried>
-2.1971

> <Gold.PLP.part.nonpolar>
-35.3852

> <Gold.PLP.part.repulsive>
4.4591

> <Gold.PLP.ligand.clash>
0.1335

> <Gold.PLP.ligand.torsion>
1.8240

> <Gold.PLP.Chemscore.Hbond>
3.9760

> <Gold.PLP.Chemscore.CHOScore>
0.3473

> <Gold.PLP.Chemscore.Metal>
0.0000

> <Gold.Chemscore.Hbonds>
donor molecule, donor type, donor heavy atom, donor atom, acceptor molecule, acceptor atom, score
      L1  H    18    59       P1 10175  2.00
      L1  H    22    54       P1 10175  1.00
      P1  H  7997  8009       L1    27  0.98
      L1  C    10    42       P1  8028  0.34

> <Gold.PLP.Chemscore.Internal.Correction>
0.2698

> <Gold.Rescore>
     Score         DG    S(hbond)    S(metal)    S(lipo)     H(rot)  DE(clash)    DE(int)     intcor
      9.64     -16.24       2.69        0.00      95.31       3.67       2.42       4.18       ----

> <Gold.Chemscore.Fitness>
9.6374

> <Gold.Chemscore.DG>
-16.2422

> <Gold.Chemscore.ZeroCoef>
-5.4800

> <Gold.Chemscore.Hbond>
2.6933

> <Gold.Chemscore.Metal>
0.0000

> <Gold.Chemscore.Lipo>
95.3067

> <Gold.Chemscore.Internal_Hbond>
0.0000

> <Gold.Chemscore.DEClash>
2.4221

> <Gold.Chemscore.DEInternal>
4.1828

> <Gold.Chemscore.Rot>
3.6658

> <Gold.Chemscore.Internal.Correction>
   9.000000E+99

> <Gold.Chemscore.Hbonds>
donor molecule, donor type, donor heavy atom, donor atom, acceptor molecule, acceptor atom, score
      L1  H    18    59       P1 10175  1.00
      L1  H    22    54       P1 10175  0.39
      P1  H  7997  8009       L1    27  0.24

> <Gold.Chemscore.Hbond.Weighted>
-8.9958

> <Gold.Chemscore.Metal.Weighted>
-0.0000

> <Gold.Chemscore.Lipo.Weighted>
-11.1509

> <Gold.Chemscore.Internal_Hbond.Weighted>
0.0000

> <Gold.Chemscore.DEClash.Weighted>
2.4221

> <Gold.Chemscore.DEInternal.Weighted>
4.1828

> <Gold.Chemscore.Rot.Weighted>
9.3844

> <Gold.Chemscore.Internal.Correction.Weighted>
   9.000000E+99

> <Gold.Protein.RotatedTorsions>
[ 6907 6896 6895 6894 ] final  175.54 input  -60.11 | X-H torsion
[ 7974 7965 7964 7962 ] final   -9.00 input  175.53 | X-H torsion
[ 8008 7997 7996 7995 ] final  172.02 input   59.86 | X-H torsion
[ 10167 10162 10161 10158 ] final  177.64 input  -65.29 | X-H torsion
[ 10718 10713 10712 10709 ] final -174.69 input   66.30 | X-H torsion
[ 10763 10752 10751 10750 ] final  137.07 input  -60.55 | X-H torsion
[ 11005 11000 10999 10996 ] final -135.21 input  -57.11 | X-H torsion

> <Gold.Protein.ActiveResidues>
 VAL166  LYS551  ARG553  GLY616  TRP617  ASP618  TYR619  PRO620  LYS621  CYS622 
 ASP623  PHE694  ASN695  SER759  ASP760  ASP761  ALA762  ILE779  LEU786  VAL792 
 PHE793  MET794  SER795  GLU796  ALA797  LYS798  CYS799  TRP800  GLU811  SER814 

> <Gold.Protein.RotatedAtoms>
  151.7346  133.3319  159.3349 H   0  0  0  0  0  0  0  0  0  0  0  0  # atno 6907 bound_to 6896
  150.7598  134.6332  159.6207 H   0  0  0  0  0  0  0  0  0  0  0  0  # atno 6908 bound_to 6896
  152.3570  134.6929  160.0271 H   0  0  0  0  0  0  0  0  0  0  0  0  # atno 6909 bound_to 6896
  146.2264  140.2551  142.8349 H   0  0  0  0  0  0  0  0  0  0  0  0  # atno 7974 bound_to 7965
  156.1215  140.1496  156.9198 H   0  0  0  0  0  0  0  0  0  0  0  0  # atno 8008 bound_to 7997
  154.4839  140.0871  156.7483 H   0  0  0  0  0  0  0  0  0  0  0  0  # atno 8009 bound_to 7997
  155.4420  140.3431  155.4293 H   0  0  0  0  0  0  0  0  0  0  0  0  # atno 8010 bound_to 7997
  139.5261  144.2774  152.0576 H   0  0  0  0  0  0  0  0  0  0  0  0  # atno 10167 bound_to 10162
  156.7888  130.9510  151.3120 H   0  0  0  0  0  0  0  0  0  0  0  0  # atno 10718 bound_to 10713
  153.8670  135.3060  155.3440 H   0  0  0  0  0  0  0  0  0  0  0  0  # atno 10763 bound_to 10752
  154.7823  135.4829  153.9874 H   0  0  0  0  0  0  0  0  0  0  0  0  # atno 10764 bound_to 10752
  153.1428  135.6827  153.9095 H   0  0  0  0  0  0  0  0  0  0  0  0  # atno 10765 bound_to 10752
  140.8919  134.1801  157.4522 H   0  0  0  0  0  0  0  0  0  0  0  0  # atno 11005 bound_to 11000
  144.9382  140.8050  143.5647 LP  0  0  0  0  0  0  0  0  0  0  0  0  # atno 17320 bound_to 7965
  145.2500  139.2036  143.4947 LP  0  0  0  0  0  0  0  0  0  0  0  0  # atno 17321 bound_to 7965
  140.2231  144.4445  150.6333 LP  0  0  0  0  0  0  0  0  0  0  0  0  # atno 17342 bound_to 10162
  140.6405  143.2203  151.6300 LP  0  0  0  0  0  0  0  0  0  0  0  0  # atno 17343 bound_to 10162
  157.6611  130.8966  149.9831 LP  0  0  0  0  0  0  0  0  0  0  0  0  # atno 17370 bound_to 10713
  156.1172  130.3647  149.9948 LP  0  0  0  0  0  0  0  0  0  0  0  0  # atno 17371 bound_to 10713
  139.8731  134.9862  156.5314 LP  0  0  0  0  0  0  0  0  0  0  0  0  # atno 17394 bound_to 11000
  140.8337  133.8259  155.9008 LP  0  0  0  0  0  0  0  0  0  0  0  0  # atno 17395 bound_to 11000

$$$$
