AV-unprocessed.smi:55|AV-procd|sdf|574|dock7
  -GOLD-   2262016473D 1   1.00000     0.00000
 Structure written by MMmdl.
 30 31  0  0  0  0  0  0  0  0  2 V2000
  151.4857  142.1874  158.3765 C   0  0  0  0  0  0  0  0  0  0  0  0
  151.2285  141.3059  157.1669 C   0  0  0  0  0  0  0  0  0  0  0  0
  150.2554  141.5789  156.2692 C   0  0  0  0  0  0  0  0  0  0  0  0
  150.0244  140.7704  155.1703 N   0  0  0  0  0  0  0  0  0  0  0  0
  148.9136  141.0897  154.1991 C   0  0  1  0  0  0  0  0  0  0  0  0
  147.9775  139.9004  154.0271 C   0  0  0  0  0  0  0  0  0  0  0  0
  146.6511  140.5811  153.7101 C   0  0  1  0  0  0  0  0  0  0  0  0
  145.6053  139.9691  154.4426 O   0  0  0  0  0  0  0  0  0  0  0  0
  146.8774  142.0775  154.0399 C   0  0  1  0  0  0  0  0  0  0  0  0
  145.8006  142.7547  154.9087 C   0  0  0  0  0  0  0  0  0  0  0  0
  144.5131  142.4296  154.4289 O   0  0  0  0  0  0  0  0  0  0  0  0
  148.1271  142.1089  154.7190 O   0  0  0  0  0  0  0  0  0  0  0  0
  150.8012  139.5981  154.9836 C   0  0  0  0  0  0  0  0  0  0  0  0
  150.5408  138.8764  154.0205 O   0  0  0  0  0  0  0  0  0  0  0  0
  151.7914  139.3195  155.8789 N   0  5  0  0  0  0  0  0  0  0  0  0
  152.0541  140.1097  156.9595 C   0  0  0  0  0  0  0  0  0  0  0  0
  152.9533  139.8474  157.7582 O   0  0  0  0  0  0  0  0  0  0  0  0
  149.3720  141.4331  153.2697 H   0  0  0  0  0  0  0  0  0  0  0  0
  146.4226  140.4772  152.6487 H   0  0  0  0  0  0  0  0  0  0  0  0
  146.9892  142.6162  153.0968 H   0  0  0  0  0  0  0  0  0  0  0  0
  150.7981  143.0330  158.4048 H   0  0  0  0  0  0  0  0  0  0  0  0
  152.5027  142.5795  158.3528 H   0  0  0  0  0  0  0  0  0  0  0  0
  151.3571  141.6167  159.2967 H   0  0  0  0  0  0  0  0  0  0  0  0
  149.6376  142.4514  156.4222 H   0  0  0  0  0  0  0  0  0  0  0  0
  148.3334  139.2332  153.2416 H   0  0  0  0  0  0  0  0  0  0  0  0
  147.9249  139.3482  154.9673 H   0  0  0  0  0  0  0  0  0  0  0  0
  144.7939  140.1029  153.9773 H   0  0  0  0  0  0  0  0  0  0  0  0
  145.8530  142.3930  155.9358 H   0  0  0  0  0  0  0  0  0  0  0  0
  145.9357  143.8367  154.9336 H   0  0  0  0  0  0  0  0  0  0  0  0
  144.5706  141.6254  153.9359 H   0  0  0  0  0  0  0  0  0  0  0  0
  1  2  1  0  0  0  0
  1 21  1  0  0  0  0
  1 22  1  0  0  0  0
  1 23  1  0  0  0  0
  2 16  1  0  0  0  0
  2  3  2  0  0  0  0
  3  4  1  0  0  0  0
  3 24  1  0  0  0  0
  4  5  1  0  0  0  0
  4 13  1  0  0  0  0
  5 18  1  0  0  0  0
  5 12  1  0  0  0  0
  5  6  1  0  0  0  0
  6  7  1  0  0  0  0
  6 25  1  0  0  0  0
  6 26  1  0  0  0  0
  7 19  1  0  0  0  0
  7  8  1  0  0  0  0
  7  9  1  0  0  0  0
  8 27  1  0  0  0  0
  9 20  1  0  0  0  0
  9 10  1  0  0  0  0
  9 12  1  0  0  0  0
 10 11  1  0  0  0  0
 10 28  1  0  0  0  0
 10 29  1  0  0  0  0
 11 30  1  0  0  0  0
 13 14  2  0  0  0  0
 13 15  1  0  0  0  0
 15 16  1  0  0  0  0
 16 17  2  0  0  0  0
M  CHG  1  15  -1
M  END
> <s_m_source_file>
AV-unprocessed.smi

> <i_m_source_file_index>
55

> <i_lp_mmshare_version>
43012

> <i_f3d_flags>
0

> <s_epik_input>
Tz1jMVtuSF1jKD1PKW4oW2NIXWMxW0NIM10pW0NAQEhdMltDSDJdW0NAQEhdKFtPSF0pW0NAQEhdKE8yKVtDSDJdW09IXQ==

> <s_epik_cmdline>
J2VwaWtfcHl0aG9uJywgJy1waCcsICc3LjAnLCAnLXRuJywgJzgnLCAnLW1hJywgJzIwMCcsICctbWV0YWxfYmluZGluZycsICctaW1hZScsICc8aW5maWxlLm1hZT4nLCAnLW9tYWUnLCAnPG91dGZpbGUubWFlPic=

> <r_lp_tautomer_probability>
0.999537

> <r_epik_Ionization_Penalty>
3.66603

> <r_epik_Ionization_Penalty_Charging>
1.09773e-07

> <r_epik_Ionization_Penalty_Neutral>
3.66603

> <r_epik_State_Penalty>
3.66562

> <r_epik_Charging_Adjusted_Penalty>
3.66562

> <i_epik_Tot_Q>
-1

> <i_epik_Tot_abs_Q>
1

> <r_epik_Metal_State_Penalty>
0.234536

> <b_epik_Metal_Only>
1

> <s_epik_Chemistry_Notes>
This compound contains an acetal/aminal-like group ( X-CH(R)-Y where X, Y are N, S, or O) that may be acid/base labile, releasing an aldehyde.

> <s_lp_Force_Field>
OPLS_2005

> <r_lp_Energy>
40.7451

> <b_lp_Chiralities_Consistent>
1

> <s_lp_Variant>
AV-unprocessed.smi:55-14

> <Gold.Version>
5.8.1

> <Gold.Id.Protein>
6NUR|6NUR_protein|mol2

> <Gold.PLP.Fitness>
38.4998

> <Gold.PLP.PLP>
-27.6583

> <Gold.PLP.part.hbond>
-4.0000

> <Gold.PLP.part.metal>
0.0000

> <Gold.PLP.part.buried>
-0.6387

> <Gold.PLP.part.nonpolar>
-24.2840

> <Gold.PLP.part.repulsive>
1.8089

> <Gold.PLP.ligand.clash>
0.0000

> <Gold.PLP.ligand.torsion>
0.2541

> <Gold.PLP.Chemscore.Hbond>
2.7752

> <Gold.PLP.Chemscore.CHOScore>
1.0000

> <Gold.PLP.Chemscore.Metal>
0.0000

> <Gold.Chemscore.Hbonds>
donor molecule, donor type, donor heavy atom, donor atom, acceptor molecule, acceptor atom, score
      L1  H     8    27       P1 10175  1.00
      L1  H    11    30       P1 10175  0.69
      P1  H  7997  8008       L1    17  1.00
      L1  C     3    24       P1  8028  1.00

> <Gold.PLP.Chemscore.Internal.Correction>
0.0242

> <Gold.Rescore>
     Score         DG    S(hbond)    S(metal)    S(lipo)     H(rot)  DE(clash)    DE(int)     intcor
      8.07     -10.84       2.10        0.00      44.61       2.69       1.02       1.75       ----

> <Gold.Chemscore.Fitness>
8.0730

> <Gold.Chemscore.DG>
-10.8399

> <Gold.Chemscore.ZeroCoef>
-5.4800

> <Gold.Chemscore.Hbond>
2.1016

> <Gold.Chemscore.Metal>
0.0000

> <Gold.Chemscore.Lipo>
44.6126

> <Gold.Chemscore.Internal_Hbond>
0.0000

> <Gold.Chemscore.DEClash>
1.0203

> <Gold.Chemscore.DEInternal>
1.7467

> <Gold.Chemscore.Rot>
2.6871

> <Gold.Chemscore.Internal.Correction>
   9.000000E+99

> <Gold.Chemscore.Hbonds>
donor molecule, donor type, donor heavy atom, donor atom, acceptor molecule, acceptor atom, score
      L1  H     8    27       P1 10175  0.99
      L1  H    11    30       P1 10175  0.09
      P1  H  7997  8008       L1    17  0.29

> <Gold.Chemscore.Hbond.Weighted>
-7.0193

> <Gold.Chemscore.Metal.Weighted>
-0.0000

> <Gold.Chemscore.Lipo.Weighted>
-5.2197

> <Gold.Chemscore.Internal_Hbond.Weighted>
0.0000

> <Gold.Chemscore.DEClash.Weighted>
1.0203

> <Gold.Chemscore.DEInternal.Weighted>
1.7467

> <Gold.Chemscore.Rot.Weighted>
6.8791

> <Gold.Chemscore.Internal.Correction.Weighted>
   9.000000E+99

> <Gold.Protein.RotatedTorsions>
[ 6907 6896 6895 6894 ] final   89.96 input  -60.11 | X-H torsion
[ 7974 7965 7964 7962 ] final   68.00 input  175.53 | X-H torsion
[ 8008 7997 7996 7995 ] final  -63.56 input   59.86 | X-H torsion
[ 10167 10162 10161 10158 ] final -167.18 input  -65.29 | X-H torsion
[ 10718 10713 10712 10709 ] final   13.50 input   66.30 | X-H torsion
[ 10763 10752 10751 10750 ] final    5.02 input  -60.55 | X-H torsion
[ 11005 11000 10999 10996 ] final -162.18 input  -57.11 | X-H torsion

> <Gold.Protein.ActiveResidues>
 VAL166  LYS551  ARG553  GLY616  TRP617  ASP618  TYR619  PRO620  LYS621  CYS622 
 ASP623  PHE694  ASN695  SER759  ASP760  ASP761  ALA762  ILE779  LEU786  VAL792 
 PHE793  MET794  SER795  GLU796  ALA797  LYS798  CYS799  TRP800  GLU811  SER814 

> <Gold.Protein.RotatedAtoms>
  152.5441  134.1886  159.8664 H   0  0  0  0  0  0  0  0  0  0  0  0  # atno 6907 bound_to 6896
  151.1883  133.4676  159.2602 H   0  0  0  0  0  0  0  0  0  0  0  0  # atno 6908 bound_to 6896
  151.1109  135.0038  159.8549 H   0  0  0  0  0  0  0  0  0  0  0  0  # atno 6909 bound_to 6896
  145.8079  139.3017  143.1116 H   0  0  0  0  0  0  0  0  0  0  0  0  # atno 7974 bound_to 7965
  154.4561  140.0972  156.6761 H   0  0  0  0  0  0  0  0  0  0  0  0  # atno 8008 bound_to 7997
  155.5134  140.3477  155.4374 H   0  0  0  0  0  0  0  0  0  0  0  0  # atno 8009 bound_to 7997
  156.0780  140.1366  156.9737 H   0  0  0  0  0  0  0  0  0  0  0  0  # atno 8010 bound_to 7997
  139.6066  144.0900  152.1799 H   0  0  0  0  0  0  0  0  0  0  0  0  # atno 10167 bound_to 10162
  157.0256  130.6172  149.5727 H   0  0  0  0  0  0  0  0  0  0  0  0  # atno 10718 bound_to 10713
  153.2644  135.6926  153.7545 H   0  0  0  0  0  0  0  0  0  0  0  0  # atno 10763 bound_to 10752
  153.6592  135.3363  155.3123 H   0  0  0  0  0  0  0  0  0  0  0  0  # atno 10764 bound_to 10752
  154.8442  135.4473  154.1645 H   0  0  0  0  0  0  0  0  0  0  0  0  # atno 10765 bound_to 10752
  140.6121  134.4838  157.5216 H   0  0  0  0  0  0  0  0  0  0  0  0  # atno 11005 bound_to 11000
  145.9808  140.8684  143.0115 LP  0  0  0  0  0  0  0  0  0  0  0  0  # atno 17320 bound_to 7965
  144.6761  140.2078  143.7380 LP  0  0  0  0  0  0  0  0  0  0  0  0  # atno 17321 bound_to 7965
  140.0509  144.5933  150.7337 LP  0  0  0  0  0  0  0  0  0  0  0  0  # atno 17342 bound_to 10162
  140.7289  143.2667  151.4022 LP  0  0  0  0  0  0  0  0  0  0  0  0  # atno 17343 bound_to 10162
  156.0087  130.5176  150.7917 LP  0  0  0  0  0  0  0  0  0  0  0  0  # atno 17370 bound_to 10713
  157.5217  131.0932  151.0070 LP  0  0  0  0  0  0  0  0  0  0  0  0  # atno 17371 bound_to 10713
  139.9188  134.8191  156.1279 LP  0  0  0  0  0  0  0  0  0  0  0  0  # atno 17394 bound_to 11000
  141.0801  133.6758  156.2318 LP  0  0  0  0  0  0  0  0  0  0  0  0  # atno 17395 bound_to 11000

$$$$
