AV-unprocessed.smi:2383|AV-procd|sdf|9460|dock3
  -GOLD-   2272013 83D 1   1.00000     0.00000
 Structure written by MMmdl.
 37 38  0  0  0  0  0  0  0  0  1 V2000
  153.7985  141.5066  160.4115 C   0  0  0  0  0  0  0  0  0  0  0  0
  152.8534  142.5995  159.9586 C   0  0  0  0  0  0  0  0  0  0  0  0
  152.7870  143.8300  160.6413 C   0  0  0  0  0  0  0  0  0  0  0  0
  151.8904  144.8037  160.1663 C   0  0  0  0  0  0  0  0  0  0  0  0
  151.1033  144.5096  159.0363 C   0  0  0  0  0  0  0  0  0  0  0  0
  151.2312  143.2499  158.4086 C   0  0  0  0  0  0  0  0  0  0  0  0
  150.3950  143.0523  157.2778 N   0  0  0  0  0  0  0  0  0  0  0  0
  150.3029  141.9649  156.4918 C   0  0  0  0  0  0  0  0  0  0  0  0
  150.9502  140.9267  156.6324 O   0  0  0  0  0  0  0  0  0  0  0  0
  149.4041  142.1484  155.5136 N   0  0  0  0  0  0  0  0  0  0  0  0
  149.0604  141.1656  154.4901 C   0  0  2  0  0  0  0  0  0  0  0  0
  147.7408  141.5489  153.7877 C   0  0  0  0  0  0  0  0  0  0  0  0
  147.3224  140.4858  152.7595 C   0  0  0  0  0  0  0  0  0  0  0  0
  147.2155  139.0967  153.4109 C   0  0  1  0  0  0  0  0  0  0  0  0
  146.8955  138.1370  152.4261 O   0  0  0  0  0  0  0  0  0  0  0  0
  148.5339  138.7068  154.1009 C   0  0  0  0  0  0  0  0  0  0  0  0
  148.9540  139.7684  155.1305 C   0  0  0  0  0  0  0  0  0  0  0  0
  152.0989  142.3173  158.8747 N   0  0  0  0  0  0  0  0  0  0  0  0
  154.2589  141.7541  161.3684 H   0  0  0  0  0  0  0  0  0  0  0  0
  154.5917  141.3653  159.6771 H   0  0  0  0  0  0  0  0  0  0  0  0
  153.2639  140.5631  160.5264 H   0  0  0  0  0  0  0  0  0  0  0  0
  153.4052  144.0254  161.5054 H   0  0  0  0  0  0  0  0  0  0  0  0
  151.8076  145.7609  160.6595 H   0  0  0  0  0  0  0  0  0  0  0  0
  150.4101  145.2472  158.6587 H   0  0  0  0  0  0  0  0  0  0  0  0
  149.7985  143.8302  157.0385 H   0  0  0  0  0  0  0  0  0  0  0  0
  148.9199  143.0332  155.4729 H   0  0  0  0  0  0  0  0  0  0  0  0
  149.8591  141.1352  153.7463 H   0  0  0  0  0  0  0  0  0  0  0  0
  146.9482  141.6667  154.5280 H   0  0  0  0  0  0  0  0  0  0  0  0
  147.8437  142.5140  153.2904 H   0  0  0  0  0  0  0  0  0  0  0  0
  146.3693  140.7645  152.3088 H   0  0  0  0  0  0  0  0  0  0  0  0
  148.0530  140.4613  151.9496 H   0  0  0  0  0  0  0  0  0  0  0  0
  146.4103  139.1029  154.1468 H   0  0  0  0  0  0  0  0  0  0  0  0
  147.6066  137.5169  152.3681 H   0  0  0  0  0  0  0  0  0  0  0  0
  148.4288  137.7385  154.5917 H   0  0  0  0  0  0  0  0  0  0  0  0
  149.3236  138.5931  153.3568 H   0  0  0  0  0  0  0  0  0  0  0  0
  149.9089  139.4875  155.5764 H   0  0  0  0  0  0  0  0  0  0  0  0
  148.2270  139.7880  155.9438 H   0  0  0  0  0  0  0  0  0  0  0  0
  1  2  1  0  0  0  0
  1 19  1  0  0  0  0
  1 20  1  0  0  0  0
  1 21  1  0  0  0  0
  2 18  1  0  0  0  0
  2  3  2  0  0  0  0
  3  4  1  0  0  0  0
  3 22  1  0  0  0  0
  4  5  2  0  0  0  0
  4 23  1  0  0  0  0
  5  6  1  0  0  0  0
  5 24  1  0  0  0  0
  6  7  1  0  0  0  0
  6 18  2  0  0  0  0
  7  8  1  0  0  0  0
  7 25  1  0  0  0  0
  8  9  2  0  0  0  0
  8 10  1  0  0  0  0
 10 11  1  0  0  0  0
 10 26  1  0  0  0  0
 11 17  1  0  0  0  0
 11 12  1  0  0  0  0
 11 27  1  0  0  0  0
 12 13  1  0  0  0  0
 12 28  1  0  0  0  0
 12 29  1  0  0  0  0
 13 14  1  0  0  0  0
 13 30  1  0  0  0  0
 13 31  1  0  0  0  0
 14 15  1  0  0  0  0
 14 16  1  0  0  0  0
 14 32  1  0  0  0  0
 15 33  1  0  0  0  0
 16 17  1  0  0  0  0
 16 34  1  0  0  0  0
 16 35  1  0  0  0  0
 17 36  1  0  0  0  0
 17 37  1  0  0  0  0
M  END
> <s_m_source_file>
AV-unprocessed.smi

> <i_m_source_file_index>
2383

> <i_lp_mmshare_version>
43012

> <i_f3d_flags>
0

> <s_epik_input>
W0NIM11jMVtjSF1bY0hdW2NIXWMobjEpW05IXUMoPU8pW05IXVtDQEBIXTJbQ0gyXVtDSDJdW0NAQEhdKFtPSF0pW0NIMl1bQ0gyXTI=

> <s_epik_cmdline>
J2VwaWtfcHl0aG9uJywgJy1waCcsICc3LjAnLCAnLXRuJywgJzgnLCAnLW1hJywgJzIwMCcsICctbWV0YWxfYmluZGluZycsICctaW1hZScsICc8aW5maWxlLm1hZT4nLCAnLW9tYWUnLCAnPG91dGZpbGUubWFlPic=

> <r_lp_tautomer_probability>
1

> <r_epik_Ionization_Penalty>
9.15533e-05

> <r_epik_Ionization_Penalty_Charging>
0

> <r_epik_Ionization_Penalty_Neutral>
9.15533e-05

> <r_epik_State_Penalty>
-0

> <r_epik_Charging_Adjusted_Penalty>
0

> <i_epik_Tot_Q>
0

> <i_epik_Tot_abs_Q>
0

> <r_epik_Metal_State_Penalty>
-0

> <b_epik_Metal_Only>
0

> <s_lp_Force_Field>
OPLS_2005

> <r_lp_Energy>
9.20264

> <b_lp_Chiralities_Consistent>
1

> <s_lp_Variant>
AV-unprocessed.smi:2383-1

> <Gold.Version>
5.8.1

> <Gold.Id.Protein>
6NUR|6NUR_protein|mol2

> <Gold.PLP.Fitness>
47.1192

> <Gold.PLP.PLP>
-38.7384

> <Gold.PLP.part.hbond>
-3.0000

> <Gold.PLP.part.metal>
0.0000

> <Gold.PLP.part.buried>
-4.7030

> <Gold.PLP.part.nonpolar>
-30.8476

> <Gold.PLP.part.repulsive>
0.1988

> <Gold.PLP.ligand.clash>
0.0000

> <Gold.PLP.ligand.torsion>
0.2272

> <Gold.PLP.Chemscore.Hbond>
2.9440

> <Gold.PLP.Chemscore.CHOScore>
0.0000

> <Gold.PLP.Chemscore.Metal>
0.0000

> <Gold.Chemscore.Hbonds>
donor molecule, donor type, donor heavy atom, donor atom, acceptor molecule, acceptor atom, score
      L1  H     7    25       P1  8028  0.94
      L1  H    10    26       P1  8028  1.00
      L1  H    15    33       P1  7948  1.00

> <Gold.PLP.Chemscore.Internal.Correction>
0.0033

> <Gold.Rescore>
     Score         DG    S(hbond)    S(metal)    S(lipo)     H(rot)  DE(clash)    DE(int)     intcor
     18.97     -22.62       2.90        0.00      95.22       1.44       0.53       3.12       ----

> <Gold.Chemscore.Fitness>
18.9722

> <Gold.Chemscore.DG>
-22.6170

> <Gold.Chemscore.ZeroCoef>
-5.4800

> <Gold.Chemscore.Hbond>
2.8991

> <Gold.Chemscore.Metal>
0.0000

> <Gold.Chemscore.Lipo>
95.2215

> <Gold.Chemscore.Internal_Hbond>
0.0000

> <Gold.Chemscore.DEClash>
0.5284

> <Gold.Chemscore.DEInternal>
3.1164

> <Gold.Chemscore.Rot>
1.4402

> <Gold.Chemscore.Internal.Correction>
   9.000000E+99

> <Gold.Chemscore.Hbonds>
donor molecule, donor type, donor heavy atom, donor atom, acceptor molecule, acceptor atom, score
      L1  H     7    25       P1  8028  0.84
      L1  H    10    26       P1  8028  0.96
      L1  H    15    33       P1  7948  1.00

> <Gold.Chemscore.Hbond.Weighted>
-9.6830

> <Gold.Chemscore.Metal.Weighted>
-0.0000

> <Gold.Chemscore.Lipo.Weighted>
-11.1409

> <Gold.Chemscore.Internal_Hbond.Weighted>
0.0000

> <Gold.Chemscore.DEClash.Weighted>
0.5284

> <Gold.Chemscore.DEInternal.Weighted>
3.1164

> <Gold.Chemscore.Rot.Weighted>
3.6869

> <Gold.Chemscore.Internal.Correction.Weighted>
   9.000000E+99

> <Gold.Protein.RotatedTorsions>
[ 6907 6896 6895 6894 ] final   88.26 input  -60.11 | X-H torsion
[ 7974 7965 7964 7962 ] final   60.68 input  175.53 | X-H torsion
[ 8008 7997 7996 7995 ] final   63.82 input   59.86 | X-H torsion
[ 10167 10162 10161 10158 ] final  -56.45 input  -65.29 | X-H torsion
[ 10718 10713 10712 10709 ] final  -94.89 input   66.30 | X-H torsion
[ 10763 10752 10751 10750 ] final -145.80 input  -60.55 | X-H torsion
[ 11005 11000 10999 10996 ] final  -95.63 input  -57.11 | X-H torsion

> <Gold.Protein.ActiveResidues>
 VAL166  LYS551  ARG553  GLY616  TRP617  ASP618  TYR619  PRO620  LYS621  CYS622 
 ASP623  PHE694  ASN695  SER759  ASP760  ASP761  ALA762  ILE779  LEU786  VAL792 
 PHE793  MET794  SER795  GLU796  ALA797  LYS798  CYS799  TRP800  GLU811  SER814 

> <Gold.Protein.RotatedAtoms>
  152.5422  134.2149  159.8764 H   0  0  0  0  0  0  0  0  0  0  0  0  # atno 6907 bound_to 6896
  151.2130  133.4538  159.2606 H   0  0  0  0  0  0  0  0  0  0  0  0  # atno 6908 bound_to 6896
  151.0879  134.9911  159.8444 H   0  0  0  0  0  0  0  0  0  0  0  0  # atno 6909 bound_to 6896
  145.8933  139.3527  143.0636 H   0  0  0  0  0  0  0  0  0  0  0  0  # atno 7974 bound_to 7965
  155.6363  140.3496  155.4700 H   0  0  0  0  0  0  0  0  0  0  0  0  # atno 8008 bound_to 7997
  155.9962  140.1204  157.0614 H   0  0  0  0  0  0  0  0  0  0  0  0  # atno 8009 bound_to 7997
  154.4234  140.1109  156.5620 H   0  0  0  0  0  0  0  0  0  0  0  0  # atno 8010 bound_to 7997
  140.6316  143.2462  151.5226 H   0  0  0  0  0  0  0  0  0  0  0  0  # atno 10167 bound_to 10162
  156.0034  130.5086  150.5995 H   0  0  0  0  0  0  0  0  0  0  0  0  # atno 10718 bound_to 10713
  154.8366  135.3403  154.6562 H   0  0  0  0  0  0  0  0  0  0  0  0  # atno 10763 bound_to 10752
  153.7176  135.6960  153.5025 H   0  0  0  0  0  0  0  0  0  0  0  0  # atno 10764 bound_to 10752
  153.2405  135.4386  155.0646 H   0  0  0  0  0  0  0  0  0  0  0  0  # atno 10765 bound_to 10752
  141.1436  133.8040  157.0461 H   0  0  0  0  0  0  0  0  0  0  0  0  # atno 11005 bound_to 11000
  145.8881  140.9321  143.0566 LP  0  0  0  0  0  0  0  0  0  0  0  0  # atno 17320 bound_to 7965
  144.6731  140.0870  143.7467 LP  0  0  0  0  0  0  0  0  0  0  0  0  # atno 17321 bound_to 7965
  139.5530  144.2348  152.1563 LP  0  0  0  0  0  0  0  0  0  0  0  0  # atno 17342 bound_to 10162
  140.1593  144.5041  150.6642 LP  0  0  0  0  0  0  0  0  0  0  0  0  # atno 17343 bound_to 10162
  157.3846  131.0786  151.1447 LP  0  0  0  0  0  0  0  0  0  0  0  0  # atno 17370 bound_to 10713
  157.2158  130.6459  149.5792 LP  0  0  0  0  0  0  0  0  0  0  0  0  # atno 17371 bound_to 10713
  140.0661  134.9728  157.1388 LP  0  0  0  0  0  0  0  0  0  0  0  0  # atno 17394 bound_to 11000
  140.3777  134.2321  155.7173 LP  0  0  0  0  0  0  0  0  0  0  0  0  # atno 17395 bound_to 11000

$$$$
