#       Name:                AV-unprocessed.smi:2850
#       Creating user name   scv26
#       Creation time:       Fri Mar 27 15:41:45 2020


#       File generated by GOLD software.
#

@<TRIPOS>MOLECULE
AV-unprocessed.smi:2850
    49    50     1
SMALL
NO_CHARGES


@<TRIPOS>ATOM
      1 ****        -2.0271   2.3967   5.9499 C.3            1 S1                 0.0000
      2 ****        -2.8031   3.3784   4.6363 S.3            1 S1                 0.0000
      3 ****        -2.8936   2.3527   3.2001 C.ar           1 S1                 0.0000
      4 ****        -3.4901   2.8266   2.0181 C.ar           1 S1                 0.0000
      5 ****        -3.5176   1.9488   0.9206 C.ar           1 S1                 0.0000
      6 ****        -2.9478   0.6705   1.0883 C.ar           1 S1                 0.0000
      7 ****        -2.9564  -0.2191   0.0045 N.pl3          1 S1                 0.0000
      8 ****        -2.3514  -1.5438   0.0892 C.3            1 S1                 0.0000
      9 ****        -0.8135  -1.5145   0.0099 C.3            1 S1                 0.0000
     10 ****        -0.2902  -0.9886  -1.3429 C.3            1 S1                 0.0000
     11 ****         1.1895  -1.0558  -1.3884 N.4            1 S1                 1.0000
     12 ****         1.7471  -0.4805  -2.6394 C.3            1 S1                 0.0000
     13 ****         3.2235  -0.0487  -2.5031 C.3            1 S1                 0.0000
     14 ****         3.4071   1.0477  -1.4399 C.3            1 S1                 0.0000
     15 ****         3.7750   0.4215  -3.8573 C.3            1 S1                 0.0000
     16 ****         1.6505  -2.4373  -1.1068 C.3            1 S1                 0.0000
     17 ****         1.0660  -2.9332   0.2257 C.3            1 S1                 0.0000
     18 ****        -0.3530  -2.8499   0.1856 O.3            1 S1                 0.0000
     19 ****        -2.3902   0.2828   2.2635 N.ar           1 S1                 0.0000
     20 ****        -2.3603   1.1147   3.3105 N.ar           1 S1                 0.0000
     21 ****        -1.9500   2.9875   6.8625 H              1 S1                 0.0000
     22 ****        -1.0245   2.0866   5.6548 H              1 S1                 0.0000
     23 ****        -2.6209   1.5077   6.1637 H              1 S1                 0.0000
     24 ****        -3.9084   3.8202   1.9543 H              1 S1                 0.0000
     25 ****        -3.9599   2.2503  -0.0176 H              1 S1                 0.0000
     26 ****        -3.3949   0.0582  -0.8620 H              1 S1                 0.0000
     27 ****        -2.6707  -2.0280   1.0129 H              1 S1                 0.0000
     28 ****        -2.7496  -2.1517  -0.7237 H              1 S1                 0.0000
     29 ****        -0.4183  -0.8998   0.8202 H              1 S1                 0.0000
     30 ****        -0.7094  -1.5706  -2.1655 H              1 S1                 0.0000
     31 ****        -0.6088   0.0448  -1.4846 H              1 S1                 0.0000
     32 ****         1.6298  -1.2023  -3.4492 H              1 S1                 0.0000
     33 ****         1.1616   0.3944  -2.9267 H              1 S1                 0.0000
     34 ****         3.8217  -0.9091  -2.2045 H              1 S1                 0.0000
     35 ****         2.8295   1.9397  -1.6849 H              1 S1                 0.0000
     36 ****         4.4537   1.3430  -1.3591 H              1 S1                 0.0000
     37 ****         3.0914   0.7066  -0.4537 H              1 S1                 0.0000
     38 ****         3.2344   1.2943  -4.2249 H              1 S1                 0.0000
     39 ****         3.6930  -0.3626  -4.6106 H              1 S1                 0.0000
     40 ****         4.8286   0.6919  -3.7805 H              1 S1                 0.0000
     41 ****         1.3420  -3.0990  -1.9176 H              1 S1                 0.0000
     42 ****         2.7379  -2.4780  -1.0571 H              1 S1                 0.0000
     43 ****         1.3540  -3.9701   0.3993 H              1 S1                 0.0000
     44 ****         1.4541  -2.3508   1.0630 H              1 S1                 0.0000
     45 ****         1.5202  -0.4725  -0.6328 H              1 S1                 0.0000
     46 ****        -0.6860  -3.4071  -0.5751 LP             1 S1                 0.0000
     47 ****        -0.7200  -3.2057   1.0451 LP             1 S1                 0.0000
     48 ****        -1.9981  -0.6333   2.3474 LP             1 S1                 0.0000
     49 ****        -1.9451   0.8223   4.1719 LP             1 S1                 0.0000
@<TRIPOS>BOND
    1    1    2 1     
    2    1   21 1     
    3    1   22 1     
    4    1   23 1     
    5    2    3 1     
    6    3   20 ar    
    7    3    4 ar    
    8    4    5 ar    
    9    4   24 1     
   10    5    6 ar    
   11    5   25 1     
   12    6    7 1     
   13    6   19 ar    
   14    7    8 1     
   15    7   26 1     
   16    8    9 1     
   17    8   27 1     
   18    8   28 1     
   19    9   18 1     
   20    9   10 1     
   21    9   29 1     
   22   10   11 1     
   23   10   30 1     
   24   10   31 1     
   25   11   12 1     
   26   11   16 1     
   27   11   45 1     
   28   12   13 1     
   29   12   32 1     
   30   12   33 1     
   31   13   14 1     
   32   13   15 1     
   33   13   34 1     
   34   14   35 1     
   35   14   36 1     
   36   14   37 1     
   37   15   38 1     
   38   15   39 1     
   39   15   40 1     
   40   16   17 1     
   41   16   41 1     
   42   16   42 1     
   43   17   18 1     
   44   17   43 1     
   45   17   44 1     
   46   19   20 ar    
   47   18   46 1     
   48   18   47 1     
   49   19   48 1     
   50   20   49 1     
@<TRIPOS>SUBSTRUCTURE
      1 S1             1
@<TRIPOS>SET
LONE_PAIRS      STATIC     ATOMS    <user>   **** ""
4 46 47 48 49
DONOR_HYDROGENS      STATIC     ATOMS    <user>   **** ""
2 26 45
ATOM$BLUE        STATIC     ATOMS    COLORGROUP SYSTEM
4 46 47 48 49
ATOM$RED        STATIC     ATOMS    COLORGROUP SYSTEM
2 26 45
