AV-unprocessed.smi:1005|AV-procd|sdf|4375|dock8
  -GOLD-   22720 2293D 1   1.00000     0.00000
 Structure written by MMmdl.
 57 59  0  0  0  0  0  0  0  0  3 V2000
  154.7368  141.2098  163.6489 C   0  0  0  0  0  0  0  0  0  0  0  0
  153.9642  141.6970  162.4348 C   0  0  0  0  0  0  0  0  0  0  0  0
  153.0971  142.8029  162.5860 C   0  0  0  0  0  0  0  0  0  0  0  0
  152.4042  143.2252  161.4577 C   0  0  0  0  0  0  0  0  0  0  0  0
  151.4883  144.2645  161.2796 N   0  3  0  0  0  0  0  0  0  0  0  0
  151.0723  144.2869  159.9828 C   0  0  0  0  0  0  0  0  0  0  0  0
  151.7093  143.2765  159.3312 N   0  0  0  0  0  0  0  0  0  0  0  0
  151.6262  142.8559  157.9261 C   0  0  0  0  0  0  0  0  0  0  0  0
  150.2503  142.2678  157.5568 C   0  0  1  0  0  0  0  0  0  0  0  0
  149.9524  142.5976  156.2149 O   0  0  0  0  0  0  0  0  0  0  0  0
  150.2275  140.7323  157.7007 C   0  0  0  0  0  0  0  0  0  0  0  0
  150.6175  139.9879  156.5019 N   0  0  0  0  0  0  0  0  0  0  0  0
  151.9557  140.3695  156.0646 C   0  0  0  0  0  0  0  0  0  0  0  0
  152.3944  139.5925  154.8125 C   0  0  0  0  0  0  0  0  0  0  0  0
  152.3125  138.1942  155.0696 O   0  0  0  0  0  0  0  0  0  0  0  0
  151.0028  137.7655  155.4353 C   0  0  1  0  0  0  0  0  0  0  0  0
  151.0468  136.2364  155.6452 C   0  0  0  0  0  0  0  0  0  0  0  0
  151.3466  135.4697  154.4074 N   0  3  0  0  0  0  0  0  0  0  0  0
  150.4657  135.8034  153.2649 C   0  0  0  0  0  0  0  0  0  0  0  0
  151.3780  134.0117  154.6589 C   0  0  0  0  0  0  0  0  0  0  0  0
  150.5914  138.5401  156.7075 C   0  0  0  0  0  0  0  0  0  0  0  0
  152.5523  142.5892  160.2103 C   0  0  0  0  0  0  0  0  0  0  0  0
  153.4047  141.5007  160.0421 C   0  0  0  0  0  0  0  0  0  0  0  0
  154.1138  141.0525  161.1793 C   0  0  0  0  0  0  0  0  0  0  0  0
  155.0434  139.8602  161.0289 C   0  0  0  0  0  0  0  0  0  0  0  0
  154.5285  141.8219  164.5269 H   0  0  0  0  0  0  0  0  0  0  0  0
  155.8104  141.2519  163.4623 H   0  0  0  0  0  0  0  0  0  0  0  0
  154.4660  140.1809  163.8878 H   0  0  0  0  0  0  0  0  0  0  0  0
  152.9776  143.2979  163.5388 H   0  0  0  0  0  0  0  0  0  0  0  0
  150.3634  144.9789  159.5508 H   0  0  0  0  0  0  0  0  0  0  0  0
  151.8470  143.7268  157.3073 H   0  0  0  0  0  0  0  0  0  0  0  0
  152.4217  142.1329  157.7410 H   0  0  0  0  0  0  0  0  0  0  0  0
  149.4949  142.7298  158.1889 H   0  0  0  0  0  0  0  0  0  0  0  0
  149.3201  143.3004  156.2128 H   0  0  0  0  0  0  0  0  0  0  0  0
  150.8779  140.4586  158.5333 H   0  0  0  0  0  0  0  0  0  0  0  0
  149.2275  140.4132  157.9988 H   0  0  0  0  0  0  0  0  0  0  0  0
  151.9856  141.4389  155.8517 H   0  0  0  0  0  0  0  0  0  0  0  0
  152.6727  140.1915  156.8679 H   0  0  0  0  0  0  0  0  0  0  0  0
  151.7690  139.8512  153.9567 H   0  0  0  0  0  0  0  0  0  0  0  0
  153.4208  139.8471  154.5482 H   0  0  0  0  0  0  0  0  0  0  0  0
  150.3290  138.0037  154.6101 H   0  0  0  0  0  0  0  0  0  0  0  0
  151.8475  136.0190  156.3540 H   0  0  0  0  0  0  0  0  0  0  0  0
  150.1295  135.8737  156.1116 H   0  0  0  0  0  0  0  0  0  0  0  0
  149.4149  135.6695  153.5255 H   0  0  0  0  0  0  0  0  0  0  0  0
  150.6865  135.1660  152.4078 H   0  0  0  0  0  0  0  0  0  0  0  0
  150.6181  136.8319  152.9399 H   0  0  0  0  0  0  0  0  0  0  0  0
  150.3969  133.6475  154.9667 H   0  0  0  0  0  0  0  0  0  0  0  0
  152.0957  133.7664  155.4425 H   0  0  0  0  0  0  0  0  0  0  0  0
  151.6775  133.4706  153.7607 H   0  0  0  0  0  0  0  0  0  0  0  0
  151.2655  138.2748  157.5238 H   0  0  0  0  0  0  0  0  0  0  0  0
  149.6008  138.2198  157.0188 H   0  0  0  0  0  0  0  0  0  0  0  0
  153.5204  141.0144  159.0851 H   0  0  0  0  0  0  0  0  0  0  0  0
  155.0321  139.4698  160.0109 H   0  0  0  0  0  0  0  0  0  0  0  0
  154.7424  139.0535  161.6977 H   0  0  0  0  0  0  0  0  0  0  0  0
  156.0693  140.1431  161.2657 H   0  0  0  0  0  0  0  0  0  0  0  0
  152.2849  135.7235  154.1313 H   0  0  0  0  0  0  0  0  0  0  0  0
  151.1686  144.9124  161.9883 H   0  0  0  0  0  0  0  0  0  0  0  0
  1  2  1  0  0  0  0
  1 26  1  0  0  0  0
  1 27  1  0  0  0  0
  1 28  1  0  0  0  0
  2 24  1  0  0  0  0
  2  3  2  0  0  0  0
  3  4  1  0  0  0  0
  3 29  1  0  0  0  0
  4 22  2  0  0  0  0
  4  5  1  0  0  0  0
  5  6  2  0  0  0  0
  5 57  1  0  0  0  0
  6  7  1  0  0  0  0
  6 30  1  0  0  0  0
  7  8  1  0  0  0  0
  7 22  1  0  0  0  0
  8  9  1  0  0  0  0
  8 31  1  0  0  0  0
  8 32  1  0  0  0  0
  9 10  1  0  0  0  0
  9 11  1  0  0  0  0
  9 33  1  0  0  0  0
 10 34  1  0  0  0  0
 11 12  1  0  0  0  0
 11 35  1  0  0  0  0
 11 36  1  0  0  0  0
 12 21  1  0  0  0  0
 12 13  1  0  0  0  0
 13 14  1  0  0  0  0
 13 37  1  0  0  0  0
 13 38  1  0  0  0  0
 14 15  1  0  0  0  0
 14 39  1  0  0  0  0
 14 40  1  0  0  0  0
 15 16  1  0  0  0  0
 16 17  1  0  0  0  0
 16 21  1  0  0  0  0
 16 41  1  0  0  0  0
 17 18  1  0  0  0  0
 17 42  1  0  0  0  0
 17 43  1  0  0  0  0
 18 19  1  0  0  0  0
 18 20  1  0  0  0  0
 18 56  1  0  0  0  0
 19 44  1  0  0  0  0
 19 45  1  0  0  0  0
 19 46  1  0  0  0  0
 20 47  1  0  0  0  0
 20 48  1  0  0  0  0
 20 49  1  0  0  0  0
 21 50  1  0  0  0  0
 21 51  1  0  0  0  0
 22 23  1  0  0  0  0
 23 24  2  0  0  0  0
 23 52  1  0  0  0  0
 24 25  1  0  0  0  0
 25 53  1  0  0  0  0
 25 54  1  0  0  0  0
 25 55  1  0  0  0  0
M  CHG  1   5   1
M  CHG  1  18   1
M  END
> <s_m_source_file>
AV-unprocessed.smi

> <i_m_source_file_index>
1005

> <i_lp_mmshare_version>
43012

> <i_f3d_flags>
0

> <s_epik_input>
W0NIM11jKFtjSF0xKWMoW0NIM10pW2NIXWMoYzEyKW4oW2NIXW4yKVtDSDJdW0NASF0oW09IXSlbQ0gyXU4zW0NIMl1bQ0gyXU9bQ0BIXShbQ0gyXTMpW0NIMl1OKFtDSDNdKVtDSDNd

> <s_epik_cmdline>
J2VwaWtfcHl0aG9uJywgJy1waCcsICc3LjAnLCAnLXRuJywgJzgnLCAnLW1hJywgJzIwMCcsICctbWV0YWxfYmluZGluZycsICctaW1hZScsICc8aW5maWxlLm1hZT4nLCAnLW9tYWUnLCAnPG91dGZpbGUubWFlPic=

> <r_epik_Ionization_Penalty>
1.3281

> <r_epik_Ionization_Penalty_Charging>
1.21988

> <r_epik_Ionization_Penalty_Neutral>
0.10822

> <r_epik_State_Penalty>
1.32886

> <r_epik_Charging_Adjusted_Penalty>
2.54875

> <i_epik_Tot_Q>
2

> <i_epik_Tot_abs_Q>
2

> <r_epik_Metal_State_Penalty>
5.33912

> <b_epik_Metal_Only>
0

> <s_lp_Force_Field>
OPLS_2005

> <r_lp_Energy>
45.907

> <b_lp_Chiralities_Consistent>
1

> <s_lp_Variant>
AV-unprocessed.smi:1005-14

> <Gold.Version>
5.8.1

> <Gold.Id.Protein>
6NUR|6NUR_protein|mol2

> <Gold.PLP.Fitness>
55.1552

> <Gold.PLP.PLP>
-53.7444

> <Gold.PLP.part.hbond>
-2.0000

> <Gold.PLP.part.metal>
0.0000

> <Gold.PLP.part.buried>
-6.3485

> <Gold.PLP.part.nonpolar>
-45.0774

> <Gold.PLP.part.repulsive>
0.2762

> <Gold.PLP.ligand.clash>
0.0000

> <Gold.PLP.ligand.torsion>
0.8877

> <Gold.PLP.Chemscore.Hbond>
1.0000

> <Gold.PLP.Chemscore.CHOScore>
0.0000

> <Gold.PLP.Chemscore.Metal>
0.0000

> <Gold.Chemscore.Hbonds>
donor molecule, donor type, donor heavy atom, donor atom, acceptor molecule, acceptor atom, score
      L1  H    10    34       P1  8028  0.98

> <Gold.PLP.Chemscore.Internal.Correction>
0.1862

> <Gold.Rescore>
     Score         DG    S(hbond)    S(metal)    S(lipo)     H(rot)  DE(clash)    DE(int)     intcor
     17.39     -18.48       0.99        0.00     137.39       2.49       0.28       0.82       ----

> <Gold.Chemscore.Fitness>
17.3854

> <Gold.Chemscore.DG>
-18.4811

> <Gold.Chemscore.ZeroCoef>
-5.4800

> <Gold.Chemscore.Hbond>
0.9881

> <Gold.Chemscore.Metal>
0.0000

> <Gold.Chemscore.Lipo>
137.3905

> <Gold.Chemscore.Internal_Hbond>
0.0000

> <Gold.Chemscore.DEClash>
0.2762

> <Gold.Chemscore.DEInternal>
0.8195

> <Gold.Chemscore.Rot>
2.4897

> <Gold.Chemscore.Internal.Correction>
   9.000000E+99

> <Gold.Chemscore.Hbonds>
donor molecule, donor type, donor heavy atom, donor atom, acceptor molecule, acceptor atom, score
      L1  H    10    34       P1  8028  0.90

> <Gold.Chemscore.Hbond.Weighted>
-3.3001

> <Gold.Chemscore.Metal.Weighted>
-0.0000

> <Gold.Chemscore.Lipo.Weighted>
-16.0747

> <Gold.Chemscore.Internal_Hbond.Weighted>
0.0000

> <Gold.Chemscore.DEClash.Weighted>
0.2762

> <Gold.Chemscore.DEInternal.Weighted>
0.8195

> <Gold.Chemscore.Rot.Weighted>
6.3737

> <Gold.Chemscore.Internal.Correction.Weighted>
   9.000000E+99

> <Gold.Protein.RotatedTorsions>
[ 6907 6896 6895 6894 ] final  -30.77 input  -60.11 | X-H torsion
[ 7974 7965 7964 7962 ] final   58.77 input  175.53 | X-H torsion
[ 8008 7997 7996 7995 ] final   90.31 input   59.86 | X-H torsion
[ 10167 10162 10161 10158 ] final -145.42 input  -65.29 | X-H torsion
[ 10718 10713 10712 10709 ] final    2.40 input   66.30 | X-H torsion
[ 10763 10752 10751 10750 ] final  -74.25 input  -60.55 | X-H torsion
[ 11005 11000 10999 10996 ] final   25.49 input  -57.11 | X-H torsion

> <Gold.Protein.ActiveResidues>
 VAL166  LYS551  ARG553  GLY616  TRP617  ASP618  TYR619  PRO620  LYS621  CYS622 
 ASP623  PHE694  ASN695  SER759  ASP760  ASP761  ALA762  ILE779  LEU786  VAL792 
 PHE793  MET794  SER795  GLU796  ALA797  LYS798  CYS799  TRP800  GLU811  SER814 

> <Gold.Protein.RotatedAtoms>
  151.1011  134.9972  159.8448 H   0  0  0  0  0  0  0  0  0  0  0  0  # atno 6907 bound_to 6896
  152.5437  134.1949  159.8699 H   0  0  0  0  0  0  0  0  0  0  0  0  # atno 6908 bound_to 6896
  151.1992  133.4576  159.2629 H   0  0  0  0  0  0  0  0  0  0  0  0  # atno 6909 bound_to 6896
  145.9145  139.3680  143.0515 H   0  0  0  0  0  0  0  0  0  0  0  0  # atno 7974 bound_to 7965
  156.0105  140.3351  155.6936 H   0  0  0  0  0  0  0  0  0  0  0  0  # atno 8008 bound_to 7997
  155.6164  140.0670  157.2709 H   0  0  0  0  0  0  0  0  0  0  0  0  # atno 8009 bound_to 7997
  154.4280  140.1784  156.1314 H   0  0  0  0  0  0  0  0  0  0  0  0  # atno 8010 bound_to 7997
  139.7807  143.8104  152.2638 H   0  0  0  0  0  0  0  0  0  0  0  0  # atno 10167 bound_to 10162
  156.8624  130.5591  149.5662 H   0  0  0  0  0  0  0  0  0  0  0  0  # atno 10718 bound_to 10713
  154.4705  135.5870  153.6318 H   0  0  0  0  0  0  0  0  0  0  0  0  # atno 10763 bound_to 10752
  152.9834  135.6065  154.3373 H   0  0  0  0  0  0  0  0  0  0  0  0  # atno 10764 bound_to 10752
  154.3254  135.2843  155.2478 H   0  0  0  0  0  0  0  0  0  0  0  0  # atno 10765 bound_to 10752
  140.3473  134.2268  155.7683 H   0  0  0  0  0  0  0  0  0  0  0  0  # atno 11005 bound_to 11000
  145.8629  140.9465  143.0691 LP  0  0  0  0  0  0  0  0  0  0  0  0  # atno 17320 bound_to 7965
  144.6746  140.0554  143.7477 LP  0  0  0  0  0  0  0  0  0  0  0  0  # atno 17321 bound_to 7965
  139.8166  144.7313  150.9627 LP  0  0  0  0  0  0  0  0  0  0  0  0  # atno 17342 bound_to 10162
  140.7818  143.4199  151.0858 LP  0  0  0  0  0  0  0  0  0  0  0  0  # atno 17343 bound_to 10162
  156.0769  130.5789  150.9491 LP  0  0  0  0  0  0  0  0  0  0  0  0  # atno 17370 bound_to 10713
  157.6242  131.0927  150.8565 LP  0  0  0  0  0  0  0  0  0  0  0  0  # atno 17371 bound_to 10713
  141.2022  133.7943  157.0402 LP  0  0  0  0  0  0  0  0  0  0  0  0  # atno 17394 bound_to 11000
  140.0732  134.9690  157.1502 LP  0  0  0  0  0  0  0  0  0  0  0  0  # atno 17395 bound_to 11000

$$$$
