#       Name:                AV-unprocessed.smi:763
#       Creating user name   scv26
#       Creation time:       Fri Mar 27 01:03:40 2020


#       File generated by GOLD software.
#

@<TRIPOS>MOLECULE
AV-unprocessed.smi:763
    51    52     1
SMALL
NO_CHARGES


@<TRIPOS>ATOM
      1 ****        -2.5526   3.6793  -3.3425 C.3            1 S1                 0.0000
      2 ****        -2.4594   3.2082  -2.0099 O.3            1 S1                 0.0000
      3 ****        -1.7278   4.0876  -1.1718 C.3            1 S1                 0.0000
      4 ****        -1.6730   3.4989   0.2467 C.3            1 S1                 0.0000
      5 ****        -0.7793   2.3875   0.3166 O.3            1 S1                 0.0000
      6 ****         0.5868   2.5963   0.4079 C.ar           1 S1                 0.0000
      7 ****         1.0349   3.8757   0.4813 N.ar           1 S1                 0.0000
      8 ****         2.3606   4.0911   0.5784 C.ar           1 S1                 0.0000
      9 ****         3.3037   3.0513   0.6102 C.ar           1 S1                 0.0000
     10 ****         2.8359   1.7271   0.5362 C.ar           1 S1                 0.0000
     11 ****         1.4468   1.4683   0.4310 C.ar           1 S1                 0.0000
     12 ****         0.9378   0.2266   0.3553 N.pl3          1 S1                -1.0000
     13 ****         1.7685  -1.1600   0.4415 S.o2           1 S1                 0.0000
     14 ****         2.6578  -1.3285  -0.7179 O.2            1 S1                 0.0000
     15 ****         2.3681  -1.3532   1.7713 O.2            1 S1                 0.0000
     16 ****         0.3963  -2.4088   0.2861 C.3            1 S1                 0.0000
     17 ****        -0.4469  -2.4058   1.5814 C.3            1 S1                 0.0000
     18 ****        -1.5769  -3.4432   1.5382 C.3            1 S1                 0.0000
     19 ****        -1.0123  -4.8482   1.2949 C.3            1 S1                 0.0000
     20 ****        -0.1945  -4.8850  -0.0026 C.3            1 S1                 0.0000
     21 ****         0.9344  -3.8346  -0.0035 C.3            1 S1                 0.0000
     22 ****         1.5541  -3.9083  -1.2716 O.3            1 S1                 0.0000
     23 ****        -3.1271   2.9725  -3.9411 H              1 S1                 0.0000
     24 ****        -1.5652   3.7790  -3.7951 H              1 S1                 0.0000
     25 ****        -3.0573   4.6454  -3.3858 H              1 S1                 0.0000
     26 ****        -0.7273   4.2610  -1.5696 H              1 S1                 0.0000
     27 ****        -2.2355   5.0528  -1.1410 H              1 S1                 0.0000
     28 ****        -1.4112   4.2644   0.9784 H              1 S1                 0.0000
     29 ****        -2.6668   3.1548   0.5337 H              1 S1                 0.0000
     30 ****         2.6778   5.1218   0.6331 H              1 S1                 0.0000
     31 ****         4.3597   3.2616   0.6894 H              1 S1                 0.0000
     32 ****         3.5563   0.9230   0.5603 H              1 S1                 0.0000
     33 ****        -0.2300  -2.0918  -0.5485 H              1 S1                 0.0000
     34 ****         0.1909  -2.6149   2.4410 H              1 S1                 0.0000
     35 ****        -0.8722  -1.4163   1.7502 H              1 S1                 0.0000
     36 ****        -2.1360  -3.4230   2.4740 H              1 S1                 0.0000
     37 ****        -2.2832  -3.1856   0.7477 H              1 S1                 0.0000
     38 ****        -0.3829  -5.1435   2.1353 H              1 S1                 0.0000
     39 ****        -1.8249  -5.5733   1.2442 H              1 S1                 0.0000
     40 ****         0.2230  -5.8829  -0.1434 H              1 S1                 0.0000
     41 ****        -0.8624  -4.7092  -0.8475 H              1 S1                 0.0000
     42 ****         1.6739  -4.1008   0.7529 H              1 S1                 0.0000
     43 ****         0.9378  -3.6165  -1.9253 H              1 S1                 0.0000
     44 ****        -2.0039   2.3180  -2.0158 LP             1 S1                 0.0000
     45 ****        -3.3831   3.1075  -1.6402 LP             1 S1                 0.0000
     46 ****        -0.9327   1.8427  -0.5078 LP             1 S1                 0.0000
     47 ****        -1.0436   1.8559   1.1213 LP             1 S1                 0.0000
     48 ****         0.3934   4.6426   0.4636 LP             1 S1                 0.0000
     49 ****        -0.0520   0.1520   0.2337 LP             1 S1                 0.0000
     50 ****         1.8238  -4.8525  -1.4605 LP             1 S1                 0.0000
     51 ****         2.3635  -3.3213  -1.2857 LP             1 S1                 0.0000
@<TRIPOS>BOND
    1    1    2 1     
    2    1   23 1     
    3    1   24 1     
    4    1   25 1     
    5    2    3 1     
    6    3    4 1     
    7    3   26 1     
    8    3   27 1     
    9    4    5 1     
   10    4   28 1     
   11    4   29 1     
   12    5    6 1     
   13    6   11 ar    
   14    6    7 ar    
   15    7    8 ar    
   16    8    9 ar    
   17    8   30 1     
   18    9   10 ar    
   19    9   31 1     
   20   10   11 ar    
   21   10   32 1     
   22   11   12 1     
   23   12   13 1     
   24   13   14 2     
   25   13   15 2     
   26   13   16 1     
   27   16   21 1     
   28   16   17 1     
   29   16   33 1     
   30   17   18 1     
   31   17   34 1     
   32   17   35 1     
   33   18   19 1     
   34   18   36 1     
   35   18   37 1     
   36   19   20 1     
   37   19   38 1     
   38   19   39 1     
   39   20   21 1     
   40   20   40 1     
   41   20   41 1     
   42   21   22 1     
   43   21   42 1     
   44   22   43 1     
   45    2   44 1     
   46    2   45 1     
   47    5   46 1     
   48    5   47 1     
   49    7   48 1     
   50   12   49 1     
   51   22   50 1     
   52   22   51 1     
@<TRIPOS>SUBSTRUCTURE
      1 S1             1
@<TRIPOS>SET
LONE_PAIRS      STATIC     ATOMS    <user>   **** ""
10 44 45 46 47 48 49 14 15 50 51
DONOR_HYDROGENS      STATIC     ATOMS    <user>   **** ""
1 43
ATOM$BLUE        STATIC     ATOMS    COLORGROUP SYSTEM
10 44 45 46 47 48 49 14 15 50 51
ATOM$RED        STATIC     ATOMS    COLORGROUP SYSTEM
1 43
