AV-unprocessed.smi:1827|AV-procd|sdf|7419|dock5
  -GOLD-   22720 9103D 1   1.00000     0.00000
 Structure written by MMmdl.
 43 44  0  0  0  0  0  0  0  0  1 V2000
  149.4771  133.3825  157.1281 C   0  0  0  0  0  0  0  0  0  0  0  0
  150.0779  134.7175  156.7843 C   0  0  0  0  0  0  0  0  0  0  0  0
  150.9154  135.2803  157.6459 N   0  0  0  0  0  0  0  0  0  0  0  0
  151.3266  136.4124  157.0353 N   0  0  0  0  0  0  0  0  0  0  0  0
  150.7714  136.5976  155.7893 C   0  0  0  0  0  0  0  0  0  0  0  0
  151.0995  137.7740  154.9317 C   0  0  0  0  0  0  0  0  0  0  0  0
  149.9382  135.5306  155.6163 C   0  0  0  0  0  0  0  0  0  0  0  0
  149.1731  135.2938  154.4472 N   0  0  0  0  0  0  0  0  0  0  0  0
  148.0658  134.5429  154.3489 C   0  0  0  0  0  0  0  0  0  0  0  0
  147.5164  133.9712  155.2904 O   0  0  0  0  0  0  0  0  0  0  0  0
  147.6109  134.5058  153.0885 N   0  0  0  0  0  0  0  0  0  0  0  0
  146.4282  133.7756  152.6427 C   0  0  0  0  0  0  0  0  0  0  0  0
  146.8213  132.5561  151.7925 C   0  0  0  0  0  0  0  0  0  0  0  0
  145.5779  131.8656  151.2070 C   0  0  0  0  0  0  0  0  0  0  0  0
  144.8022  132.8034  150.3889 N   0  0  0  0  0  0  0  0  0  0  0  0
  143.6893  132.0757  149.7371 C   0  0  0  0  0  0  0  0  0  0  0  0
  143.3188  132.5977  148.3435 C   0  0  0  0  0  0  0  0  0  0  0  0
  142.1472  132.2064  147.8366 N   0  0  0  0  0  0  0  0  0  0  0  0
  144.0794  133.3483  147.7361 O   0  0  0  0  0  0  0  0  0  0  0  0
  144.3362  133.9297  151.2111 C   0  0  0  0  0  0  0  0  0  0  0  0
  145.5311  134.6972  151.8044 C   0  0  0  0  0  0  0  0  0  0  0  0
  151.9860  137.0388  157.4748 H   0  0  0  0  0  0  0  0  0  0  0  0
  149.3280  132.7745  156.2359 H   0  0  0  0  0  0  0  0  0  0  0  0
  148.5115  133.5029  157.6195 H   0  0  0  0  0  0  0  0  0  0  0  0
  150.1214  132.8163  157.8014 H   0  0  0  0  0  0  0  0  0  0  0  0
  150.6881  137.6577  153.9290 H   0  0  0  0  0  0  0  0  0  0  0  0
  152.1786  137.8970  154.8390 H   0  0  0  0  0  0  0  0  0  0  0  0
  150.6894  138.6891  155.3590 H   0  0  0  0  0  0  0  0  0  0  0  0
  149.4462  135.8126  153.6258 H   0  0  0  0  0  0  0  0  0  0  0  0
  148.1245  135.0123  152.3824 H   0  0  0  0  0  0  0  0  0  0  0  0
  145.8625  133.4397  153.5139 H   0  0  0  0  0  0  0  0  0  0  0  0
  147.4814  132.8642  150.9799 H   0  0  0  0  0  0  0  0  0  0  0  0
  147.3854  131.8428  152.3944 H   0  0  0  0  0  0  0  0  0  0  0  0
  145.9013  131.0218  150.5959 H   0  0  0  0  0  0  0  0  0  0  0  0
  144.9597  131.4573  152.0087 H   0  0  0  0  0  0  0  0  0  0  0  0
  143.9646  131.0267  149.6181 H   0  0  0  0  0  0  0  0  0  0  0  0
  142.8100  132.0924  150.3843 H   0  0  0  0  0  0  0  0  0  0  0  0
  141.8611  132.5242  146.9221 H   0  0  0  0  0  0  0  0  0  0  0  0
  141.5511  131.5920  148.3722 H   0  0  0  0  0  0  0  0  0  0  0  0
  143.7493  134.6296  150.6167 H   0  0  0  0  0  0  0  0  0  0  0  0
  143.6844  133.5684  152.0084 H   0  0  0  0  0  0  0  0  0  0  0  0
  145.1692  135.5232  152.4177 H   0  0  0  0  0  0  0  0  0  0  0  0
  146.1090  135.1446  150.9939 H   0  0  0  0  0  0  0  0  0  0  0  0
  1  2  1  0  0  0  0
  1 23  1  0  0  0  0
  1 24  1  0  0  0  0
  1 25  1  0  0  0  0
  2  7  1  0  0  0  0
  2  3  2  0  0  0  0
  3  4  1  0  0  0  0
  4 22  1  0  0  0  0
  4  5  1  0  0  0  0
  5  6  1  0  0  0  0
  5  7  2  0  0  0  0
  6 26  1  0  0  0  0
  6 27  1  0  0  0  0
  6 28  1  0  0  0  0
  7  8  1  0  0  0  0
  8  9  1  0  0  0  0
  8 29  1  0  0  0  0
  9 10  2  0  0  0  0
  9 11  1  0  0  0  0
 11 12  1  0  0  0  0
 11 30  1  0  0  0  0
 12 21  1  0  0  0  0
 12 13  1  0  0  0  0
 12 31  1  0  0  0  0
 13 14  1  0  0  0  0
 13 32  1  0  0  0  0
 13 33  1  0  0  0  0
 14 15  1  0  0  0  0
 14 34  1  0  0  0  0
 14 35  1  0  0  0  0
 15 16  1  0  0  0  0
 15 20  1  0  0  0  0
 16 17  1  0  0  0  0
 16 36  1  0  0  0  0
 16 37  1  0  0  0  0
 17 18  1  0  0  0  0
 17 19  2  0  0  0  0
 18 38  1  0  0  0  0
 18 39  1  0  0  0  0
 20 21  1  0  0  0  0
 20 40  1  0  0  0  0
 20 41  1  0  0  0  0
 21 42  1  0  0  0  0
 21 43  1  0  0  0  0
M  END
> <s_m_source_file>
AV-unprocessed.smi

> <i_m_source_file_index>
1827

> <i_lp_mmshare_version>
43012

> <i_f3d_flags>
0

> <s_epik_input>
W0NIM11jMW5bbkhdYyhbQ0gzXSljMVtOSF1DKD1PKVtOSF1bQ0hdMltDSDJdW0NIMl1OKFtDSDJdW0NIMl0yKVtDSDJdQyg9TylbTkgyXQ==

> <s_epik_cmdline>
J2VwaWtfcHl0aG9uJywgJy1waCcsICc3LjAnLCAnLXRuJywgJzgnLCAnLW1hJywgJzIwMCcsICctbWV0YWxfYmluZGluZycsICctaW1hZScsICc8aW5maWxlLm1hZT4nLCAnLW9tYWUnLCAnPG91dGZpbGUubWFlPic=

> <r_lp_tautomer_probability>
0.5

> <r_epik_Ionization_Penalty>
0.165173

> <r_epik_Ionization_Penalty_Charging>
0

> <r_epik_Ionization_Penalty_Neutral>
0.165173

> <r_epik_State_Penalty>
0.154069

> <r_epik_Charging_Adjusted_Penalty>
0.154069

> <i_epik_Tot_Q>
0

> <i_epik_Tot_abs_Q>
0

> <r_epik_Metal_State_Penalty>
0.171338

> <b_epik_Metal_Only>
0

> <s_lp_Force_Field>
OPLS_2005

> <r_lp_Energy>
14.0389

> <b_lp_Chiralities_Consistent>
1

> <s_lp_Variant>
AV-unprocessed.smi:1827-1

> <Gold.Version>
5.8.1

> <Gold.Id.Protein>
6NUR|6NUR_protein|mol2

> <Gold.PLP.Fitness>
42.4444

> <Gold.PLP.PLP>
-29.5177

> <Gold.PLP.part.hbond>
-6.7339

> <Gold.PLP.part.metal>
0.0000

> <Gold.PLP.part.buried>
-2.5935

> <Gold.PLP.part.nonpolar>
-24.8992

> <Gold.PLP.part.repulsive>
4.7122

> <Gold.PLP.ligand.clash>
0.0000

> <Gold.PLP.ligand.torsion>
0.8382

> <Gold.PLP.Chemscore.Hbond>
4.7693

> <Gold.PLP.Chemscore.CHOScore>
0.0000

> <Gold.PLP.Chemscore.Metal>
0.0000

> <Gold.Chemscore.Hbonds>
donor molecule, donor type, donor heavy atom, donor atom, acceptor molecule, acceptor atom, score
      L1  H     8    29       P1  7948  0.90
      L1  H    11    30       P1  7948  0.98
      L1  H    18    38       P1 10195  0.98
      L1  H    18    39       P1 10952  1.00
      P1  H  6896  6908       L1     3  0.30
      P1  H  7918  7932       L1    19  0.64

> <Gold.PLP.Chemscore.Internal.Correction>
0.2952

> <Gold.Rescore>
     Score         DG    S(hbond)    S(metal)    S(lipo)     H(rot)  DE(clash)    DE(int)     intcor
     18.46     -22.59       4.55        0.00      59.18       1.96       1.99       2.15       ----

> <Gold.Chemscore.Fitness>
18.4596

> <Gold.Chemscore.DG>
-22.5941

> <Gold.Chemscore.ZeroCoef>
-5.4800

> <Gold.Chemscore.Hbond>
4.5543

> <Gold.Chemscore.Metal>
0.0000

> <Gold.Chemscore.Lipo>
59.1823

> <Gold.Chemscore.Internal_Hbond>
0.0000

> <Gold.Chemscore.DEClash>
1.9860

> <Gold.Chemscore.DEInternal>
2.1485

> <Gold.Chemscore.Rot>
1.9616

> <Gold.Chemscore.Internal.Correction>
   9.000000E+99

> <Gold.Chemscore.Hbonds>
donor molecule, donor type, donor heavy atom, donor atom, acceptor molecule, acceptor atom, score
      L1  H     8    29       P1  7948  0.35
      L1  H    11    30       P1  7948  0.67
      L1  H    18    38       P1 10195  0.92
      L1  H    18    39       P1 10952  1.00
      P1  H  6896  6908       L1     3  0.20
      P1  H  7918  7932       L1    19  0.62

> <Gold.Chemscore.Hbond.Weighted>
-15.2114

> <Gold.Chemscore.Metal.Weighted>
-0.0000

> <Gold.Chemscore.Lipo.Weighted>
-6.9243

> <Gold.Chemscore.Internal_Hbond.Weighted>
0.0000

> <Gold.Chemscore.DEClash.Weighted>
1.9860

> <Gold.Chemscore.DEInternal.Weighted>
2.1485

> <Gold.Chemscore.Rot.Weighted>
5.0216

> <Gold.Chemscore.Internal.Correction.Weighted>
   9.000000E+99

> <Gold.Protein.RotatedTorsions>
[ 6907 6896 6895 6894 ] final  153.33 input  -60.11 | X-H torsion
[ 7974 7965 7964 7962 ] final   92.16 input  175.53 | X-H torsion
[ 8008 7997 7996 7995 ] final  -55.21 input   59.86 | X-H torsion
[ 10167 10162 10161 10158 ] final  -60.67 input  -65.29 | X-H torsion
[ 10718 10713 10712 10709 ] final -155.51 input   66.30 | X-H torsion
[ 10763 10752 10751 10750 ] final  178.63 input  -60.55 | X-H torsion
[ 11005 11000 10999 10996 ] final  -94.47 input  -57.11 | X-H torsion

> <Gold.Protein.ActiveResidues>
 VAL166  LYS551  ARG553  GLY616  TRP617  ASP618  TYR619  PRO620  LYS621  CYS622 
 ASP623  PHE694  ASN695  SER759  ASP760  ASP761  ALA762  ILE779  LEU786  VAL792 
 PHE793  MET794  SER795  GLU796  ALA797  LYS798  CYS799  TRP800  GLU811  SER814 

> <Gold.Protein.RotatedAtoms>
  152.0741  133.4121  159.4472 H   0  0  0  0  0  0  0  0  0  0  0  0  # atno 6907 bound_to 6896
  150.6863  134.3057  159.4734 H   0  0  0  0  0  0  0  0  0  0  0  0  # atno 6908 bound_to 6896
  152.0892  134.9418  160.0623 H   0  0  0  0  0  0  0  0  0  0  0  0  # atno 6909 bound_to 6896
  145.4959  139.2276  143.2804 H   0  0  0  0  0  0  0  0  0  0  0  0  # atno 7974 bound_to 7965
  154.4187  140.1158  156.5440 H   0  0  0  0  0  0  0  0  0  0  0  0  # atno 8008 bound_to 7997
  155.6479  140.3496  155.4718 H   0  0  0  0  0  0  0  0  0  0  0  0  # atno 8009 bound_to 7997
  155.9817  140.1161  157.0710 H   0  0  0  0  0  0  0  0  0  0  0  0  # atno 8010 bound_to 7997
  140.6056  143.2372  151.5829 H   0  0  0  0  0  0  0  0  0  0  0  0  # atno 10167 bound_to 10162
  156.5138  130.8447  151.2656 H   0  0  0  0  0  0  0  0  0  0  0  0  # atno 10718 bound_to 10713
  154.5101  135.2788  155.1349 H   0  0  0  0  0  0  0  0  0  0  0  0  # atno 10763 bound_to 10752
  154.2948  135.6260  153.5404 H   0  0  0  0  0  0  0  0  0  0  0  0  # atno 10764 bound_to 10752
  152.9917  135.5682  154.5565 H   0  0  0  0  0  0  0  0  0  0  0  0  # atno 10765 bound_to 10752
  141.1469  133.7959  157.0303 H   0  0  0  0  0  0  0  0  0  0  0  0  # atno 11005 bound_to 11000
  146.2255  140.5757  142.8998 LP  0  0  0  0  0  0  0  0  0  0  0  0  # atno 17320 bound_to 7965
  144.7807  140.5834  143.6607 LP  0  0  0  0  0  0  0  0  0  0  0  0  # atno 17321 bound_to 7965
  139.5322  144.2882  152.1174 LP  0  0  0  0  0  0  0  0  0  0  0  0  # atno 17342 bound_to 10162
  140.2071  144.4600  150.6403 LP  0  0  0  0  0  0  0  0  0  0  0  0  # atno 17343 bound_to 10162
  157.7447  130.9940  150.2694 LP  0  0  0  0  0  0  0  0  0  0  0  0  # atno 17370 bound_to 10713
  156.3215  130.3786  149.7571 LP  0  0  0  0  0  0  0  0  0  0  0  0  # atno 17371 bound_to 10713
  140.0758  134.9676  157.1543 LP  0  0  0  0  0  0  0  0  0  0  0  0  # atno 17394 bound_to 11000
  140.3646  134.2457  155.7183 LP  0  0  0  0  0  0  0  0  0  0  0  0  # atno 17395 bound_to 11000

$$$$
