AV-unprocessed.smi:2580|AV-procd|sdf|10130|dock9
  -GOLD-   2272014143D 1   1.00000     0.00000
 Structure written by MMmdl.
 29 30  0  0  0  0  0  0  0  0  1 V2000
  148.9808  138.9072  156.6256 C   0  0  0  0  0  0  0  0  0  0  0  0
  150.4058  138.6600  156.1055 C   0  0  1  0  0  0  0  0  0  0  0  0
  150.4485  138.1128  154.6932 C   0  0  0  0  0  0  0  0  0  0  0  0
  151.8851  138.4117  154.2803 C   0  0  0  0  0  0  0  0  0  0  0  0
  152.2442  139.6069  154.9660 O   0  0  0  0  0  0  0  0  0  0  0  0
  151.2702  139.9237  155.9625 C   0  0  2  0  0  0  0  0  0  0  0  0
  151.9679  140.3892  157.2503 C   0  0  0  0  0  0  0  0  0  0  0  0
  152.9092  139.7412  157.7087 O   0  0  0  0  0  0  0  0  0  0  0  0
  151.4701  141.5065  157.8130 N   0  0  0  0  0  0  0  0  0  0  0  0
  151.8967  142.1752  158.9930 C   0  0  0  0  0  0  0  0  0  0  0  0
  152.1274  141.5315  160.1654 N   0  0  0  0  0  0  0  0  0  0  0  0
  152.5304  142.2380  161.2417 C   0  0  0  0  0  0  0  0  0  0  0  0
  152.7283  143.6299  161.2175 C   0  0  0  0  0  0  0  0  0  0  0  0
  152.4923  144.3107  160.0104 C   0  0  0  0  0  0  0  0  0  0  0  0
  152.0714  143.5784  158.8826 C   0  0  0  0  0  0  0  0  0  0  0  0
  151.7807  144.4142  157.3956 Cl  0  0  0  0  0  0  0  0  0  0  0  0
  148.4431  139.6140  155.9931 H   0  0  0  0  0  0  0  0  0  0  0  0
  148.9902  139.3095  157.6384 H   0  0  0  0  0  0  0  0  0  0  0  0
  148.4094  137.9790  156.6468 H   0  0  0  0  0  0  0  0  0  0  0  0
  150.9061  137.9483  156.7652 H   0  0  0  0  0  0  0  0  0  0  0  0
  150.2023  137.0521  154.6360 H   0  0  0  0  0  0  0  0  0  0  0  0
  149.7559  138.6593  154.0511 H   0  0  0  0  0  0  0  0  0  0  0  0
  152.5492  137.6116  154.6091 H   0  0  0  0  0  0  0  0  0  0  0  0
  151.9949  138.5220  153.2013 H   0  0  0  0  0  0  0  0  0  0  0  0
  150.6638  140.7448  155.5772 H   0  0  0  0  0  0  0  0  0  0  0  0
  150.6966  141.9378  157.3273 H   0  0  0  0  0  0  0  0  0  0  0  0
  152.6991  141.6765  162.1486 H   0  0  0  0  0  0  0  0  0  0  0  0
  153.0518  144.1602  162.1009 H   0  0  0  0  0  0  0  0  0  0  0  0
  152.6324  145.3800  159.9506 H   0  0  0  0  0  0  0  0  0  0  0  0
  1  2  1  0  0  0  0
  1 17  1  0  0  0  0
  1 18  1  0  0  0  0
  1 19  1  0  0  0  0
  2  6  1  0  0  0  0
  2  3  1  0  0  0  0
  2 20  1  0  0  0  0
  3  4  1  0  0  0  0
  3 21  1  0  0  0  0
  3 22  1  0  0  0  0
  4  5  1  0  0  0  0
  4 23  1  0  0  0  0
  4 24  1  0  0  0  0
  5  6  1  0  0  0  0
  6  7  1  0  0  0  0
  6 25  1  0  0  0  0
  7  8  2  0  0  0  0
  7  9  1  0  0  0  0
  9 10  1  0  0  0  0
  9 26  1  0  0  0  0
 10 15  1  0  0  0  0
 10 11  2  0  0  0  0
 11 12  1  0  0  0  0
 12 13  2  0  0  0  0
 12 27  1  0  0  0  0
 13 14  1  0  0  0  0
 13 28  1  0  0  0  0
 14 15  2  0  0  0  0
 14 29  1  0  0  0  0
 15 16  1  0  0  0  0
M  END
> <s_m_source_file>
AV-unprocessed.smi

> <i_m_source_file_index>
2580

> <i_lp_mmshare_version>
43012

> <i_f3d_flags>
0

> <s_epik_input>
W0NIM11bQ0BASF0xW0NIMl1bQ0gyXU9bQ0BIXTFDKD1PKVtOSF1jMm5bY0hdW2NIXVtjSF1jMkNs

> <s_epik_cmdline>
J2VwaWtfcHl0aG9uJywgJy1waCcsICc3LjAnLCAnLXRuJywgJzgnLCAnLW1hJywgJzIwMCcsICctbWV0YWxfYmluZGluZycsICctaW1hZScsICc8aW5maWxlLm1hZT4nLCAnLW9tYWUnLCAnPG91dGZpbGUubWFlPic=

> <r_lp_tautomer_probability>
1

> <r_epik_Ionization_Penalty>
4.32497e-05

> <r_epik_Ionization_Penalty_Charging>
0

> <r_epik_Ionization_Penalty_Neutral>
4.32497e-05

> <r_epik_State_Penalty>
-0

> <r_epik_Charging_Adjusted_Penalty>
0

> <i_epik_Tot_Q>
0

> <i_epik_Tot_abs_Q>
0

> <r_epik_Metal_State_Penalty>
-0

> <b_epik_Metal_Only>
0

> <s_lp_Force_Field>
OPLS_2005

> <r_lp_Energy>
21.1194

> <b_lp_Chiralities_Consistent>
1

> <s_lp_Variant>
AV-unprocessed.smi:2580-4

> <Gold.Version>
5.8.1

> <Gold.Id.Protein>
6NUR|6NUR_protein|mol2

> <Gold.PLP.Fitness>
35.9002

> <Gold.PLP.PLP>
-32.3839

> <Gold.PLP.part.hbond>
-2.0000

> <Gold.PLP.part.metal>
0.0000

> <Gold.PLP.part.buried>
-5.9878

> <Gold.PLP.part.nonpolar>
-23.8867

> <Gold.PLP.part.repulsive>
0.0894

> <Gold.PLP.ligand.clash>
0.0000

> <Gold.PLP.ligand.torsion>
0.6835

> <Gold.PLP.Chemscore.Hbond>
1.6272

> <Gold.PLP.Chemscore.CHOScore>
0.0000

> <Gold.PLP.Chemscore.Metal>
0.0000

> <Gold.Chemscore.Hbonds>
donor molecule, donor type, donor heavy atom, donor atom, acceptor molecule, acceptor atom, score
      P1  H  7989  7998       L1     5  0.63
      P1  H  7997  8010       L1     8  1.00

> <Gold.PLP.Chemscore.Internal.Correction>
0.0017

> <Gold.Rescore>
     Score         DG    S(hbond)    S(metal)    S(lipo)     H(rot)  DE(clash)    DE(int)     intcor
     17.26     -18.61       1.85        0.00      81.18       1.00       0.50       0.86       ----

> <Gold.Chemscore.Fitness>
17.2611

> <Gold.Chemscore.DG>
-18.6112

> <Gold.Chemscore.ZeroCoef>
-5.4800

> <Gold.Chemscore.Hbond>
1.8542

> <Gold.Chemscore.Metal>
0.0000

> <Gold.Chemscore.Lipo>
81.1816

> <Gold.Chemscore.Internal_Hbond>
0.0000

> <Gold.Chemscore.DEClash>
0.4952

> <Gold.Chemscore.DEInternal>
0.8550

> <Gold.Chemscore.Rot>
1.0000

> <Gold.Chemscore.Internal.Correction>
   9.000000E+99

> <Gold.Chemscore.Hbonds>
donor molecule, donor type, donor heavy atom, donor atom, acceptor molecule, acceptor atom, score
      P1  H  7989  7998       L1     5  0.02
      P1  H  7997  8010       L1     8  0.53

> <Gold.Chemscore.Hbond.Weighted>
-6.1930

> <Gold.Chemscore.Metal.Weighted>
-0.0000

> <Gold.Chemscore.Lipo.Weighted>
-9.4982

> <Gold.Chemscore.Internal_Hbond.Weighted>
0.0000

> <Gold.Chemscore.DEClash.Weighted>
0.4952

> <Gold.Chemscore.DEInternal.Weighted>
0.8550

> <Gold.Chemscore.Rot.Weighted>
2.5600

> <Gold.Chemscore.Internal.Correction.Weighted>
   9.000000E+99

> <Gold.Protein.RotatedTorsions>
[ 6907 6896 6895 6894 ] final   40.38 input  -60.11 | X-H torsion
[ 7974 7965 7964 7962 ] final   36.70 input  175.53 | X-H torsion
[ 8008 7997 7996 7995 ] final   63.43 input   59.86 | X-H torsion
[ 10167 10162 10161 10158 ] final -132.61 input  -65.29 | X-H torsion
[ 10718 10713 10712 10709 ] final -115.46 input   66.30 | X-H torsion
[ 10763 10752 10751 10750 ] final  130.64 input  -60.55 | X-H torsion
[ 11005 11000 10999 10996 ] final  -58.99 input  -57.11 | X-H torsion

> <Gold.Protein.ActiveResidues>
 VAL166  LYS551  ARG553  GLY616  TRP617  ASP618  TYR619  PRO620  LYS621  CYS622 
 ASP623  PHE694  ASN695  SER759  ASP760  ASP761  ALA762  ILE779  LEU786  VAL792 
 PHE793  MET794  SER795  GLU796  ALA797  LYS798  CYS799  TRP800  GLU811  SER814 

> <Gold.Protein.RotatedAtoms>
  152.1817  134.8748  160.0525 H   0  0  0  0  0  0  0  0  0  0  0  0  # atno 6907 bound_to 6896
  151.9670  133.3708  159.4065 H   0  0  0  0  0  0  0  0  0  0  0  0  # atno 6908 bound_to 6896
  150.6919  134.4104  159.5203 H   0  0  0  0  0  0  0  0  0  0  0  0  # atno 6909 bound_to 6896
  146.1192  139.5985  142.9301 H   0  0  0  0  0  0  0  0  0  0  0  0  # atno 7974 bound_to 7965
  155.6302  140.3496  155.4680 H   0  0  0  0  0  0  0  0  0  0  0  0  # atno 8008 bound_to 7997
  156.0009  140.1213  157.0571 H   0  0  0  0  0  0  0  0  0  0  0  0  # atno 8009 bound_to 7997
  154.4248  140.1100  156.5682 H   0  0  0  0  0  0  0  0  0  0  0  0  # atno 8010 bound_to 7997
  139.9068  143.6542  152.2584 H   0  0  0  0  0  0  0  0  0  0  0  0  # atno 10167 bound_to 10162
  156.0897  130.6082  150.8908 H   0  0  0  0  0  0  0  0  0  0  0  0  # atno 10718 bound_to 10713
  153.7613  135.3195  155.3337 H   0  0  0  0  0  0  0  0  0  0  0  0  # atno 10763 bound_to 10752
  154.8229  135.4590  154.0835 H   0  0  0  0  0  0  0  0  0  0  0  0  # atno 10764 bound_to 10752
  153.2067  135.6930  153.8248 H   0  0  0  0  0  0  0  0  0  0  0  0  # atno 10765 bound_to 10752
  141.1230  133.6614  156.5004 H   0  0  0  0  0  0  0  0  0  0  0  0  # atno 11005 bound_to 11000
  145.5502  141.0414  143.2282 LP  0  0  0  0  0  0  0  0  0  0  0  0  # atno 17320 bound_to 7965
  144.7581  139.7024  143.7245 LP  0  0  0  0  0  0  0  0  0  0  0  0  # atno 17321 bound_to 7965
  139.6977  144.7639  151.1327 LP  0  0  0  0  0  0  0  0  0  0  0  0  # atno 17342 bound_to 10162
  140.7694  143.5500  150.9215 LP  0  0  0  0  0  0  0  0  0  0  0  0  # atno 17343 bound_to 10162
  157.6042  131.0940  150.8907 LP  0  0  0  0  0  0  0  0  0  0  0  0  # atno 17370 bound_to 10713
  156.9059  130.5263  149.5281 LP  0  0  0  0  0  0  0  0  0  0  0  0  # atno 17371 bound_to 10713
  140.4450  134.6980  157.5011 LP  0  0  0  0  0  0  0  0  0  0  0  0  # atno 17394 bound_to 11000
  140.0203  134.6557  155.9249 LP  0  0  0  0  0  0  0  0  0  0  0  0  # atno 17395 bound_to 11000

$$$$
