AV-unprocessed.smi:2024|AV-procd|sdf|8192|dock3
  -GOLD-   2272010443D 1   1.00000     0.00000
 Structure written by MMmdl.
 44 45  0  0  0  0  0  0  0  0  2 V2000
  145.9214  143.1481  156.7665 C   0  0  0  0  0  0  0  0  0  0  0  0
  144.9521  142.8599  155.7150 N   0  0  0  0  0  0  0  0  0  0  0  0
  145.4726  143.0841  154.3671 C   0  0  0  0  0  0  0  0  0  0  0  0
  146.5172  142.0231  153.9651 C   0  0  0  0  0  0  0  0  0  0  0  0
  145.9374  140.6496  154.0350 N   0  3  0  0  0  0  0  0  0  0  0  0
  146.7992  139.5526  153.4554 C   0  0  0  0  0  0  0  0  0  0  0  0
  146.9668  139.7284  151.9258 C   0  0  0  0  0  0  0  0  0  0  0  0
  148.2156  139.5626  154.0904 C   0  0  0  0  0  0  0  0  0  0  0  0
  146.1422  138.1764  153.7895 C   0  0  0  0  0  0  0  0  0  0  0  0
  146.5674  137.0778  152.9214 N   0  0  0  0  0  0  0  0  0  0  0  0
  145.7782  136.0976  152.4575 C   0  0  0  0  0  0  0  0  0  0  0  0
  144.5756  136.0189  152.7100 O   0  0  0  0  0  0  0  0  0  0  0  0
  146.4705  135.2374  151.6907 N   0  0  0  0  0  0  0  0  0  0  0  0
  145.9897  134.0917  151.0043 C   0  0  0  0  0  0  0  0  0  0  0  0
  146.7668  133.0977  150.5587 N   0  0  0  0  0  0  0  0  0  0  0  0
  146.0261  132.0987  149.9220 C   0  0  0  0  0  0  0  0  0  0  0  0
  144.6769  132.3495  149.8931 C   0  0  0  0  0  0  0  0  0  0  0  0
  144.2801  133.8594  150.6690 S   0  0  0  0  0  0  0  0  0  0  0  0
  145.4085  140.4199  155.4112 C   0  0  0  0  0  0  0  0  0  0  0  0
  144.3914  141.5132  155.8039 C   0  0  0  0  0  0  0  0  0  0  0  0
  146.2668  144.1794  156.6885 H   0  0  0  0  0  0  0  0  0  0  0  0
  146.7932  142.4961  156.7260 H   0  0  0  0  0  0  0  0  0  0  0  0
  145.4592  143.0290  157.7472 H   0  0  0  0  0  0  0  0  0  0  0  0
  144.6401  143.0623  153.6622 H   0  0  0  0  0  0  0  0  0  0  0  0
  145.9036  144.0840  154.3052 H   0  0  0  0  0  0  0  0  0  0  0  0
  146.8519  142.2614  152.9585 H   0  0  0  0  0  0  0  0  0  0  0  0
  147.3961  142.1030  154.6047 H   0  0  0  0  0  0  0  0  0  0  0  0
  147.6934  139.0237  151.5203 H   0  0  0  0  0  0  0  0  0  0  0  0
  147.3234  140.7258  151.6687 H   0  0  0  0  0  0  0  0  0  0  0  0
  146.0335  139.5590  151.3884 H   0  0  0  0  0  0  0  0  0  0  0  0
  148.8170  138.7136  153.7662 H   0  0  0  0  0  0  0  0  0  0  0  0
  148.1661  139.5257  155.1793 H   0  0  0  0  0  0  0  0  0  0  0  0
  148.7899  140.4441  153.8052 H   0  0  0  0  0  0  0  0  0  0  0  0
  146.3958  137.8926  154.8115 H   0  0  0  0  0  0  0  0  0  0  0  0
  145.0550  138.2276  153.7651 H   0  0  0  0  0  0  0  0  0  0  0  0
  147.5426  137.0600  152.6601 H   0  0  0  0  0  0  0  0  0  0  0  0
  147.4557  135.4259  151.5791 H   0  0  0  0  0  0  0  0  0  0  0  0
  146.5417  131.2403  149.5175 H   0  0  0  0  0  0  0  0  0  0  0  0
  143.8957  131.7397  149.4644 H   0  0  0  0  0  0  0  0  0  0  0  0
  144.8707  139.4761  155.4746 H   0  0  0  0  0  0  0  0  0  0  0  0
  146.2253  140.3665  156.1313 H   0  0  0  0  0  0  0  0  0  0  0  0
  144.0187  141.3400  156.8140 H   0  0  0  0  0  0  0  0  0  0  0  0
  143.5251  141.4564  155.1434 H   0  0  0  0  0  0  0  0  0  0  0  0
  145.1173  140.6708  153.4459 H   0  0  0  0  0  0  0  0  0  0  0  0
  1  2  1  0  0  0  0
  1 21  1  0  0  0  0
  1 22  1  0  0  0  0
  1 23  1  0  0  0  0
  2 20  1  0  0  0  0
  2  3  1  0  0  0  0
  3  4  1  0  0  0  0
  3 24  1  0  0  0  0
  3 25  1  0  0  0  0
  4  5  1  0  0  0  0
  4 26  1  0  0  0  0
  4 27  1  0  0  0  0
  5  6  1  0  0  0  0
  5 19  1  0  0  0  0
  5 44  1  0  0  0  0
  6  7  1  0  0  0  0
  6  8  1  0  0  0  0
  6  9  1  0  0  0  0
  7 28  1  0  0  0  0
  7 29  1  0  0  0  0
  7 30  1  0  0  0  0
  8 31  1  0  0  0  0
  8 32  1  0  0  0  0
  8 33  1  0  0  0  0
  9 10  1  0  0  0  0
  9 34  1  0  0  0  0
  9 35  1  0  0  0  0
 10 11  1  0  0  0  0
 10 36  1  0  0  0  0
 11 12  2  0  0  0  0
 11 13  1  0  0  0  0
 13 14  1  0  0  0  0
 13 37  1  0  0  0  0
 14 18  1  0  0  0  0
 14 15  2  0  0  0  0
 15 16  1  0  0  0  0
 16 17  2  0  0  0  0
 16 38  1  0  0  0  0
 17 18  1  0  0  0  0
 17 39  1  0  0  0  0
 19 20  1  0  0  0  0
 19 40  1  0  0  0  0
 19 41  1  0  0  0  0
 20 42  1  0  0  0  0
 20 43  1  0  0  0  0
M  CHG  1   5   1
M  END
> <s_m_source_file>
AV-unprocessed.smi

> <i_m_source_file_index>
2024

> <i_lp_mmshare_version>
43012

> <i_f3d_flags>
0

> <s_epik_input>
W0NIM11OMVtDSDJdW0NIMl1OKFtDSDJdW0NIMl0xKUMoW0NIM10pKFtDSDNdKVtDSDJdW05IXUMoPU8pW05IXWMybltjSF1bY0hdczI=

> <s_epik_cmdline>
J2VwaWtfcHl0aG9uJywgJy1waCcsICc3LjAnLCAnLXRuJywgJzgnLCAnLW1hJywgJzIwMCcsICctbWV0YWxfYmluZGluZycsICctaW1hZScsICc8aW5maWxlLm1hZT4nLCAnLW9tYWUnLCAnPG91dGZpbGUubWFlPic=

> <r_epik_Ionization_Penalty>
0.100627

> <r_epik_Ionization_Penalty_Charging>
0.0985296

> <r_epik_Ionization_Penalty_Neutral>
0.00209722

> <r_epik_State_Penalty>
1.056

> <r_epik_Charging_Adjusted_Penalty>
1.15453

> <i_epik_Tot_Q>
1

> <i_epik_Tot_abs_Q>
1

> <r_epik_Metal_State_Penalty>
1.08856

> <b_epik_Metal_Only>
0

> <s_lp_Force_Field>
OPLS_2005

> <r_lp_Energy>
25.1468

> <b_lp_Chiralities_Consistent>
1

> <s_lp_Variant>
AV-unprocessed.smi:2024-2

> <Gold.Version>
5.8.1

> <Gold.Id.Protein>
6NUR|6NUR_protein|mol2

> <Gold.PLP.Fitness>
43.2145

> <Gold.PLP.PLP>
-30.3376

> <Gold.PLP.part.hbond>
-3.0000

> <Gold.PLP.part.metal>
0.0000

> <Gold.PLP.part.buried>
-2.0255

> <Gold.PLP.part.nonpolar>
-26.4713

> <Gold.PLP.part.repulsive>
0.5783

> <Gold.PLP.ligand.clash>
0.0000

> <Gold.PLP.ligand.torsion>
0.7611

> <Gold.PLP.Chemscore.Hbond>
4.0000

> <Gold.PLP.Chemscore.CHOScore>
0.7711

> <Gold.PLP.Chemscore.Metal>
0.0000

> <Gold.Chemscore.Hbonds>
donor molecule, donor type, donor heavy atom, donor atom, acceptor molecule, acceptor atom, score
      L1  H     5    44       P1 10175  2.00
      L1  H    10    36       P1  7948  1.00
      L1  H    13    37       P1  7948  1.00
      L1  C    16    38       P1 10747  0.72

> <Gold.PLP.Chemscore.Internal.Correction>
0.0857

> <Gold.Rescore>
     Score         DG    S(hbond)    S(metal)    S(lipo)     H(rot)  DE(clash)    DE(int)     intcor
     17.31     -19.14       2.87        0.00      69.65       1.60       0.11       1.72       ----

> <Gold.Chemscore.Fitness>
17.3092

> <Gold.Chemscore.DG>
-19.1372

> <Gold.Chemscore.ZeroCoef>
-5.4800

> <Gold.Chemscore.Hbond>
2.8749

> <Gold.Chemscore.Metal>
0.0000

> <Gold.Chemscore.Lipo>
69.6467

> <Gold.Chemscore.Internal_Hbond>
0.0000

> <Gold.Chemscore.DEClash>
0.1053

> <Gold.Chemscore.DEInternal>
1.7227

> <Gold.Chemscore.Rot>
1.5991

> <Gold.Chemscore.Internal.Correction>
   9.000000E+99

> <Gold.Chemscore.Hbonds>
donor molecule, donor type, donor heavy atom, donor atom, acceptor molecule, acceptor atom, score
      L1  H     5    44       P1 10175  0.94
      L1  H    10    36       P1  7948  0.94
      L1  H    13    37       P1  7948  0.94

> <Gold.Chemscore.Hbond.Weighted>
-9.6021

> <Gold.Chemscore.Metal.Weighted>
-0.0000

> <Gold.Chemscore.Lipo.Weighted>
-8.1487

> <Gold.Chemscore.Internal_Hbond.Weighted>
0.0000

> <Gold.Chemscore.DEClash.Weighted>
0.1053

> <Gold.Chemscore.DEInternal.Weighted>
1.7227

> <Gold.Chemscore.Rot.Weighted>
4.0936

> <Gold.Chemscore.Internal.Correction.Weighted>
   9.000000E+99

> <Gold.Protein.RotatedTorsions>
[ 6907 6896 6895 6894 ] final -156.73 input  -60.11 | X-H torsion
[ 7974 7965 7964 7962 ] final -150.09 input  175.53 | X-H torsion
[ 8008 7997 7996 7995 ] final  107.68 input   59.86 | X-H torsion
[ 10167 10162 10161 10158 ] final  -94.04 input  -65.29 | X-H torsion
[ 10718 10713 10712 10709 ] final -159.46 input   66.30 | X-H torsion
[ 10763 10752 10751 10750 ] final  -30.08 input  -60.55 | X-H torsion
[ 11005 11000 10999 10996 ] final   69.28 input  -57.11 | X-H torsion

> <Gold.Protein.ActiveResidues>
 VAL166  LYS551  ARG553  GLY616  TRP617  ASP618  TYR619  PRO620  LYS621  CYS622 
 ASP623  PHE694  ASN695  SER759  ASP760  ASP761  ALA762  ILE779  LEU786  VAL792 
 PHE793  MET794  SER795  GLU796  ALA797  LYS798  CYS799  TRP800  GLU811  SER814 

> <Gold.Protein.RotatedAtoms>
  151.2921  133.4160  159.2633 H   0  0  0  0  0  0  0  0  0  0  0  0  # atno 6907 bound_to 6896
  151.0268  134.9510  159.8100 H   0  0  0  0  0  0  0  0  0  0  0  0  # atno 6908 bound_to 6896
  152.5337  134.2883  159.9086 H   0  0  0  0  0  0  0  0  0  0  0  0  # atno 6909 bound_to 6896
  144.7928  140.4978  143.5761 H   0  0  0  0  0  0  0  0  0  0  0  0  # atno 7974 bound_to 7965
  156.1843  140.3090  155.9209 H   0  0  0  0  0  0  0  0  0  0  0  0  # atno 8008 bound_to 7997
  155.3315  140.0461  157.3059 H   0  0  0  0  0  0  0  0  0  0  0  0  # atno 8009 bound_to 7997
  154.5378  140.2252  155.8702 H   0  0  0  0  0  0  0  0  0  0  0  0  # atno 8010 bound_to 7997
  140.3185  143.3063  152.0072 H   0  0  0  0  0  0  0  0  0  0  0  0  # atno 10167 bound_to 10162
  156.5685  130.8678  151.2830 H   0  0  0  0  0  0  0  0  0  0  0  0  # atno 10718 bound_to 10713
  153.7752  135.6909  153.4899 H   0  0  0  0  0  0  0  0  0  0  0  0  # atno 10763 bound_to 10752
  153.1848  135.4493  155.0073 H   0  0  0  0  0  0  0  0  0  0  0  0  # atno 10764 bound_to 10752
  154.8103  135.3374  154.7258 H   0  0  0  0  0  0  0  0  0  0  0  0  # atno 10765 bound_to 10752
  139.9662  134.6976  156.0540 H   0  0  0  0  0  0  0  0  0  0  0  0  # atno 11005 bound_to 11000
  145.5750  139.1485  143.3267 LP  0  0  0  0  0  0  0  0  0  0  0  0  # atno 17320 bound_to 7965
  146.2186  140.5882  142.9027 LP  0  0  0  0  0  0  0  0  0  0  0  0  # atno 17321 bound_to 7965
  139.4879  144.6330  151.7033 LP  0  0  0  0  0  0  0  0  0  0  0  0  # atno 17342 bound_to 10162
  140.5505  144.0433  150.6125 LP  0  0  0  0  0  0  0  0  0  0  0  0  # atno 17343 bound_to 10162
  157.7353  130.9760  150.2076 LP  0  0  0  0  0  0  0  0  0  0  0  0  # atno 17370 bound_to 10713
  156.2736  130.3725  149.8006 LP  0  0  0  0  0  0  0  0  0  0  0  0  # atno 17371 bound_to 10713
  141.1342  133.6579  156.3548 LP  0  0  0  0  0  0  0  0  0  0  0  0  # atno 17394 bound_to 11000
  140.5391  134.6138  157.5374 LP  0  0  0  0  0  0  0  0  0  0  0  0  # atno 17395 bound_to 11000

$$$$
