AV-unprocessed.smi:249|AV-procd|sdf|1919|dock3
  -GOLD-   2262021 23D 1   1.00000     0.00000
 Structure written by MMmdl.
 64 67  0  0  0  0  0  0  0  0  2 V2000
  144.6695  134.7661  150.8090 C   0  0  0  0  0  0  0  0  0  0  0  0
  143.8528  133.7783  151.6581 C   0  0  0  0  0  0  0  0  0  0  0  0
  144.5268  133.3929  152.9318 N   0  3  1  0  0  0  0  0  0  0  0  0
  145.7124  132.5219  152.6837 C   0  0  0  0  0  0  0  0  0  0  0  0
  146.3790  132.0550  153.9878 C   0  0  0  0  0  0  0  0  0  0  0  0
  146.8222  133.2472  154.8512 C   0  0  1  0  0  0  0  0  0  0  0  0
  147.9189  134.0087  154.2301 N   0  0  0  0  0  0  0  0  0  0  0  0
  148.9627  133.2564  153.5416 C   0  0  0  0  0  0  0  0  0  0  0  0
  148.4603  135.0036  154.9685 C   0  0  0  0  0  0  0  0  0  0  0  0
  149.6886  134.7813  155.4978 N   0  0  0  0  0  0  0  0  0  0  0  0
  150.2850  135.7336  156.2211 C   0  0  0  0  0  0  0  0  0  0  0  0
  149.8383  136.9542  156.5245 N   0  0  0  0  0  0  0  0  0  0  0  0
  148.5984  137.1750  156.0007 C   0  0  0  0  0  0  0  0  0  0  0  0
  147.8373  136.2576  155.2241 C   0  0  0  0  0  0  0  0  0  0  0  0
  146.6186  136.8268  154.8751 N   0  0  0  0  0  0  0  0  0  0  0  0
  146.6635  138.0205  155.4007 C   0  0  0  0  0  0  0  0  0  0  0  0
  147.8234  138.3184  156.0792 N   0  0  0  0  0  0  0  0  0  0  0  0
  148.1460  139.5763  156.7296 C   0  0  0  0  0  0  0  0  0  0  0  0
  149.3033  140.3397  156.0365 C   0  0  1  0  0  0  0  0  0  0  0  0
  149.0743  140.3990  154.5072 C   0  0  0  0  0  0  0  0  0  0  0  0
  150.0849  139.6890  153.8218 O   0  0  0  0  0  0  0  0  0  0  0  0
  149.5736  141.7279  156.6864 C   0  0  2  0  0  0  0  0  0  0  0  0
  150.9421  142.3545  156.4202 C   0  0  0  0  0  0  0  0  0  0  0  0
  151.3358  142.9775  157.7622 C   0  0  0  0  0  0  0  0  0  0  0  0
  150.1392  142.9894  158.5264 O   0  0  0  0  0  0  0  0  0  0  0  0
  149.4383  141.7989  158.2101 C   0  0  0  0  0  0  0  0  0  0  0  0
  145.5517  134.0850  155.1148 C   0  0  0  0  0  0  0  0  0  0  0  0
  144.8625  134.5585  153.8140 C   0  0  2  0  0  0  0  0  0  0  0  0
  143.6293  135.4042  154.1951 C   0  0  0  0  0  0  0  0  0  0  0  0
  144.2142  134.8878  149.8257 H   0  0  0  0  0  0  0  0  0  0  0  0
  145.6882  134.4083  150.6567 H   0  0  0  0  0  0  0  0  0  0  0  0
  144.7183  135.7580  151.2571 H   0  0  0  0  0  0  0  0  0  0  0  0
  142.8631  134.1857  151.8698 H   0  0  0  0  0  0  0  0  0  0  0  0
  143.6985  132.9052  151.0289 H   0  0  0  0  0  0  0  0  0  0  0  0
  145.4195  131.6319  152.1295 H   0  0  0  0  0  0  0  0  0  0  0  0
  146.4328  133.0548  152.0614 H   0  0  0  0  0  0  0  0  0  0  0  0
  145.6706  131.4456  154.5507 H   0  0  0  0  0  0  0  0  0  0  0  0
  147.2177  131.3944  153.7679 H   0  0  0  0  0  0  0  0  0  0  0  0
  147.1875  132.8559  155.8011 H   0  0  0  0  0  0  0  0  0  0  0  0
  149.8484  133.8641  153.3472 H   0  0  0  0  0  0  0  0  0  0  0  0
  148.5979  132.9007  152.5782 H   0  0  0  0  0  0  0  0  0  0  0  0
  149.2681  132.3929  154.1334 H   0  0  0  0  0  0  0  0  0  0  0  0
  151.2622  135.4845  156.6080 H   0  0  0  0  0  0  0  0  0  0  0  0
  145.8524  138.7268  155.2961 H   0  0  0  0  0  0  0  0  0  0  0  0
  147.2391  140.1813  156.7420 H   0  0  0  0  0  0  0  0  0  0  0  0
  148.3961  139.3787  157.7724 H   0  0  0  0  0  0  0  0  0  0  0  0
  150.2117  139.7563  156.1976 H   0  0  0  0  0  0  0  0  0  0  0  0
  148.1064  139.9795  154.2334 H   0  0  0  0  0  0  0  0  0  0  0  0
  149.0946  141.4208  154.1346 H   0  0  0  0  0  0  0  0  0  0  0  0
  149.7946  139.5313  152.9365 H   0  0  0  0  0  0  0  0  0  0  0  0
  148.8306  142.4347  156.3158 H   0  0  0  0  0  0  0  0  0  0  0  0
  151.6950  141.6366  156.0971 H   0  0  0  0  0  0  0  0  0  0  0  0
  150.8654  143.1166  155.6445 H   0  0  0  0  0  0  0  0  0  0  0  0
  152.0764  142.3564  158.2681 H   0  0  0  0  0  0  0  0  0  0  0  0
  151.7492  143.9805  157.6544 H   0  0  0  0  0  0  0  0  0  0  0  0
  148.3988  141.8498  158.5352 H   0  0  0  0  0  0  0  0  0  0  0  0
  149.9146  140.9640  158.7221 H   0  0  0  0  0  0  0  0  0  0  0  0
  144.8477  133.4797  155.6878 H   0  0  0  0  0  0  0  0  0  0  0  0
  145.7736  134.9379  155.7566 H   0  0  0  0  0  0  0  0  0  0  0  0
  145.5545  135.2032  153.2700 H   0  0  0  0  0  0  0  0  0  0  0  0
  143.8821  136.1379  154.9613 H   0  0  0  0  0  0  0  0  0  0  0  0
  142.8258  134.7819  154.5910 H   0  0  0  0  0  0  0  0  0  0  0  0
  143.2381  135.9755  153.3543 H   0  0  0  0  0  0  0  0  0  0  0  0
  143.8631  132.8347  153.4493 H   0  0  0  0  0  0  0  0  0  0  0  0
  1  2  1  0  0  0  0
  1 30  1  0  0  0  0
  1 31  1  0  0  0  0
  1 32  1  0  0  0  0
  2  3  1  0  0  0  0
  2 33  1  0  0  0  0
  2 34  1  0  0  0  0
  3 28  1  0  0  0  0
  3  4  1  0  0  0  0
  3 64  1  0  0  0  0
  4  5  1  0  0  0  0
  4 35  1  0  0  0  0
  4 36  1  0  0  0  0
  5  6  1  0  0  0  0
  5 37  1  0  0  0  0
  5 38  1  0  0  0  0
  6  7  1  0  0  0  0
  6 27  1  0  0  0  0
  6 39  1  0  0  0  0
  7  8  1  0  0  0  0
  7  9  1  0  0  0  0
  8 40  1  0  0  0  0
  8 41  1  0  0  0  0
  8 42  1  0  0  0  0
  9 14  1  0  0  0  0
  9 10  2  0  0  0  0
 10 11  1  0  0  0  0
 11 12  2  0  0  0  0
 11 43  1  0  0  0  0
 12 13  1  0  0  0  0
 13 17  1  0  0  0  0
 13 14  2  0  0  0  0
 14 15  1  0  0  0  0
 15 16  2  0  0  0  0
 16 17  1  0  0  0  0
 16 44  1  0  0  0  0
 17 18  1  0  0  0  0
 18 19  1  0  0  0  0
 18 45  1  0  0  0  0
 18 46  1  0  0  0  0
 19 20  1  0  0  0  0
 19 22  1  0  0  0  0
 19 47  1  0  0  0  0
 20 21  1  0  0  0  0
 20 48  1  0  0  0  0
 20 49  1  0  0  0  0
 21 50  1  0  0  0  0
 22 26  1  0  0  0  0
 22 23  1  0  0  0  0
 22 51  1  0  0  0  0
 23 24  1  0  0  0  0
 23 52  1  0  0  0  0
 23 53  1  0  0  0  0
 24 25  1  0  0  0  0
 24 54  1  0  0  0  0
 24 55  1  0  0  0  0
 25 26  1  0  0  0  0
 26 56  1  0  0  0  0
 26 57  1  0  0  0  0
 27 28  1  0  0  0  0
 27 58  1  0  0  0  0
 27 59  1  0  0  0  0
 28 29  1  0  0  0  0
 28 60  1  0  0  0  0
 29 61  1  0  0  0  0
 29 62  1  0  0  0  0
 29 63  1  0  0  0  0
M  CHG  1   3   1
M  END
> <s_m_source_file>
AV-unprocessed.smi

> <i_m_source_file_index>
249

> <i_lp_mmshare_version>
43012

> <i_f3d_flags>
0

> <s_epik_input>
W0NIM11bQ0gyXU4xW0NIMl1bQ0gyXVtDQEhdKFtDSDJdW0NASF0xW0NIM10pTihbQ0gzXSljKG5bY0hdbjIpYyhjMjMpbltjSF1uM1tDSDJdW0NASF0oW0NIMl1bT0hdKVtDQEBIXTRbQ0gyXVtDSDJdT1tDSDJdNA==

> <s_epik_cmdline>
J2VwaWtfcHl0aG9uJywgJy1waCcsICc3LjAnLCAnLXRuJywgJzgnLCAnLW1hJywgJzIwMCcsICctbWV0YWxfYmluZGluZycsICctaW1hZScsICc8aW5maWxlLm1hZT4nLCAnLW9tYWUnLCAnPG91dGZpbGUubWFlPic=

> <r_lp_tautomer_probability>
1

> <r_epik_Ionization_Penalty>
0.00294688

> <r_epik_Ionization_Penalty_Charging>
0.00169971

> <r_epik_Ionization_Penalty_Neutral>
0.00124717

> <r_epik_State_Penalty>
-0

> <r_epik_Charging_Adjusted_Penalty>
0.00169971

> <i_epik_Tot_Q>
1

> <i_epik_Tot_abs_Q>
1

> <r_epik_Metal_State_Penalty>
-0

> <b_epik_Metal_Only>
0

> <s_lp_Force_Field>
OPLS_2005

> <r_lp_Energy>
56.7339

> <b_lp_Chiralities_Consistent>
1

> <s_lp_Variant>
AV-unprocessed.smi:249-22

> <Gold.Version>
5.8.1

> <Gold.Id.Protein>
6NUR|6NUR_protein|mol2

> <Gold.PLP.Fitness>
39.7683

> <Gold.PLP.PLP>
-31.1429

> <Gold.PLP.part.hbond>
-2.9822

> <Gold.PLP.part.metal>
0.0000

> <Gold.PLP.part.buried>
-7.0745

> <Gold.PLP.part.nonpolar>
-21.3199

> <Gold.PLP.part.repulsive>
0.3816

> <Gold.PLP.ligand.clash>
0.0000

> <Gold.PLP.ligand.torsion>
1.9265

> <Gold.PLP.Chemscore.Hbond>
3.9280

> <Gold.PLP.Chemscore.CHOScore>
0.0000

> <Gold.PLP.Chemscore.Metal>
0.0000

> <Gold.Chemscore.Hbonds>
donor molecule, donor type, donor heavy atom, donor atom, acceptor molecule, acceptor atom, score
      L1  H     3    64       P1 10957  1.76
      L1  H    21    50       P1  7957  1.00
      P1  H  7989  7998       L1    21  0.93

> <Gold.PLP.Chemscore.Internal.Correction>
0.6944

> <Gold.Rescore>
     Score         DG    S(hbond)    S(metal)    S(lipo)     H(rot)  DE(clash)    DE(int)     intcor
     12.53     -14.68       2.44        0.00      72.55       2.90       0.10       2.04       ----

> <Gold.Chemscore.Fitness>
12.5306

> <Gold.Chemscore.DG>
-14.6762

> <Gold.Chemscore.ZeroCoef>
-5.4800

> <Gold.Chemscore.Hbond>
2.4353

> <Gold.Chemscore.Metal>
0.0000

> <Gold.Chemscore.Lipo>
72.5458

> <Gold.Chemscore.Internal_Hbond>
0.0000

> <Gold.Chemscore.DEClash>
0.1007

> <Gold.Chemscore.DEInternal>
2.0449

> <Gold.Chemscore.Rot>
2.9006

> <Gold.Chemscore.Internal.Correction>
   9.000000E+99

> <Gold.Chemscore.Hbonds>
donor molecule, donor type, donor heavy atom, donor atom, acceptor molecule, acceptor atom, score
      L1  H     3    64       P1 10957  0.56
      L1  H    21    50       P1  7957  0.96
      P1  H  7989  7998       L1    21  0.17

> <Gold.Chemscore.Hbond.Weighted>
-8.1340

> <Gold.Chemscore.Metal.Weighted>
-0.0000

> <Gold.Chemscore.Lipo.Weighted>
-8.4879

> <Gold.Chemscore.Internal_Hbond.Weighted>
0.0000

> <Gold.Chemscore.DEClash.Weighted>
0.1007

> <Gold.Chemscore.DEInternal.Weighted>
2.0449

> <Gold.Chemscore.Rot.Weighted>
7.4256

> <Gold.Chemscore.Internal.Correction.Weighted>
   9.000000E+99

> <Gold.Protein.RotatedTorsions>
[ 6907 6896 6895 6894 ] final  101.07 input  -60.11 | X-H torsion
[ 7974 7965 7964 7962 ] final  139.36 input  175.53 | X-H torsion
[ 8008 7997 7996 7995 ] final -126.06 input   59.86 | X-H torsion
[ 10167 10162 10161 10158 ] final   96.39 input  -65.29 | X-H torsion
[ 10718 10713 10712 10709 ] final   -6.22 input   66.30 | X-H torsion
[ 10763 10752 10751 10750 ] final    7.72 input  -60.55 | X-H torsion
[ 11005 11000 10999 10996 ] final  129.17 input  -57.11 | X-H torsion

> <Gold.Protein.ActiveResidues>
 VAL166  LYS551  ARG553  GLY616  TRP617  ASP618  TYR619  PRO620  LYS621  CYS622 
 ASP623  PHE694  ASN695  SER759  ASP760  ASP761  ALA762  ILE779  LEU786  VAL792 
 PHE793  MET794  SER795  GLU796  ALA797  LYS798  CYS799  TRP800  GLU811  SER814 

> <Gold.Protein.RotatedAtoms>
  152.5358  134.0182  159.7969 H   0  0  0  0  0  0  0  0  0  0  0  0  # atno 6907 bound_to 6896
  151.0373  133.5730  159.2662 H   0  0  0  0  0  0  0  0  0  0  0  0  # atno 6908 bound_to 6896
  151.2712  135.0692  159.9188 H   0  0  0  0  0  0  0  0  0  0  0  0  # atno 6909 bound_to 6896
  144.9286  139.5076  143.5629 H   0  0  0  0  0  0  0  0  0  0  0  0  # atno 7974 bound_to 7965
  155.2234  140.0423  157.2952 H   0  0  0  0  0  0  0  0  0  0  0  0  # atno 8008 bound_to 7997
  154.5934  140.2433  155.7860 H   0  0  0  0  0  0  0  0  0  0  0  0  # atno 8009 bound_to 7997
  156.2274  140.2950  156.0111 H   0  0  0  0  0  0  0  0  0  0  0  0  # atno 8010 bound_to 7997
  139.7898  144.6856  150.9907 H   0  0  0  0  0  0  0  0  0  0  0  0  # atno 10167 bound_to 10162
  156.7350  130.5192  149.5837 H   0  0  0  0  0  0  0  0  0  0  0  0  # atno 10718 bound_to 10713
  153.2331  135.6895  153.7867 H   0  0  0  0  0  0  0  0  0  0  0  0  # atno 10763 bound_to 10752
  153.7025  135.3295  155.3229 H   0  0  0  0  0  0  0  0  0  0  0  0  # atno 10764 bound_to 10752
  154.8323  135.4571  154.1224 H   0  0  0  0  0  0  0  0  0  0  0  0  # atno 10765 bound_to 10752
  139.9601  134.9604  156.9109 H   0  0  0  0  0  0  0  0  0  0  0  0  # atno 11005 bound_to 11000
  146.3237  139.8219  142.8925 LP  0  0  0  0  0  0  0  0  0  0  0  0  # atno 17320 bound_to 7965
  145.3179  141.0236  143.3517 LP  0  0  0  0  0  0  0  0  0  0  0  0  # atno 17321 bound_to 7965
  140.7820  143.4392  151.0577 LP  0  0  0  0  0  0  0  0  0  0  0  0  # atno 17342 bound_to 10162
  139.8069  143.8004  152.3168 LP  0  0  0  0  0  0  0  0  0  0  0  0  # atno 17343 bound_to 10162
  156.1503  130.6305  151.0586 LP  0  0  0  0  0  0  0  0  0  0  0  0  # atno 17370 bound_to 10713
  157.6843  131.0829  150.7286 LP  0  0  0  0  0  0  0  0  0  0  0  0  # atno 17371 bound_to 10713
  140.5521  134.0617  155.7372 LP  0  0  0  0  0  0  0  0  0  0  0  0  # atno 17394 bound_to 11000
  141.1277  133.9356  157.2602 LP  0  0  0  0  0  0  0  0  0  0  0  0  # atno 17395 bound_to 11000

$$$$
