AV-unprocessed.smi:1142|AV-procd|sdf|4874|dock2
  -GOLD-   22720 3443D 1   1.00000     0.00000
 Structure written by MMmdl.
 32 33  0  0  0  0  0  0  0  0  2 V2000
  152.2719  144.6719  158.1351 C   0  0  0  0  0  0  0  0  0  0  0  0
  151.5085  143.7263  158.0148 C   0  0  0  0  0  0  0  0  0  0  0  0
  150.5869  142.5871  157.8864 C   0  0  0  0  0  0  0  0  0  0  0  0
  150.1065  142.4820  156.5138 N   0  5  0  0  0  0  0  0  0  0  0  0
  150.3896  141.4401  155.6826 C   0  0  0  0  0  0  0  0  0  0  0  0
  151.4328  140.7897  155.5555 O   0  0  0  0  0  0  0  0  0  0  0  0
  149.1962  141.0164  154.8655 C   0  0  0  0  0  0  0  0  0  0  0  0
  148.2238  141.9870  154.5381 C   0  0  0  0  0  0  0  0  0  0  0  0
  147.0932  141.6136  153.7891 C   0  0  0  0  0  0  0  0  0  0  0  0
  146.9683  140.2686  153.4005 C   0  0  0  0  0  0  0  0  0  0  0  0
  147.8713  139.3202  153.7207 N   0  0  0  0  0  0  0  0  0  0  0  0
  148.9632  139.6731  154.4445 C   0  0  0  0  0  0  0  0  0  0  0  0
  149.8465  138.6327  154.7832 N   0  0  0  0  0  0  0  0  0  0  0  0
  151.0428  138.5858  153.9539 C   0  0  0  0  0  0  0  0  0  0  0  0
  152.0341  137.5614  154.5314 C   0  0  0  0  0  0  0  0  0  0  0  0
  151.3974  136.2910  154.6462 O   0  0  0  0  0  0  0  0  0  0  0  0
  150.2684  136.3348  155.5155 C   0  0  0  0  0  0  0  0  0  0  0  0
  149.2292  137.3258  154.9633 C   0  0  0  0  0  0  0  0  0  0  0  0
  152.9413  145.4949  158.2435 H   0  0  0  0  0  0  0  0  0  0  0  0
  151.1294  141.6995  158.2147 H   0  0  0  0  0  0  0  0  0  0  0  0
  149.7757  142.7424  158.5980 H   0  0  0  0  0  0  0  0  0  0  0  0
  148.3451  143.0146  154.8496 H   0  0  0  0  0  0  0  0  0  0  0  0
  146.3422  142.3410  153.5193 H   0  0  0  0  0  0  0  0  0  0  0  0
  146.1157  139.9429  152.8231 H   0  0  0  0  0  0  0  0  0  0  0  0
  150.7708  138.3111  152.9339 H   0  0  0  0  0  0  0  0  0  0  0  0
  151.5061  139.5723  153.9108 H   0  0  0  0  0  0  0  0  0  0  0  0
  152.9024  137.4689  153.8791 H   0  0  0  0  0  0  0  0  0  0  0  0
  152.4007  137.8841  155.5072 H   0  0  0  0  0  0  0  0  0  0  0  0
  149.8357  135.3372  155.5886 H   0  0  0  0  0  0  0  0  0  0  0  0
  150.5820  136.6216  156.5207 H   0  0  0  0  0  0  0  0  0  0  0  0
  148.3846  137.4072  155.6484 H   0  0  0  0  0  0  0  0  0  0  0  0
  148.8420  136.9639  154.0099 H   0  0  0  0  0  0  0  0  0  0  0  0
  1  2  3  0  0  0  0
  1 19  1  0  0  0  0
  2  3  1  0  0  0  0
  3  4  1  0  0  0  0
  3 20  1  0  0  0  0
  3 21  1  0  0  0  0
  4  5  1  0  0  0  0
  5  6  2  0  0  0  0
  5  7  1  0  0  0  0
  7 12  1  0  0  0  0
  7  8  2  0  0  0  0
  8  9  1  0  0  0  0
  8 22  1  0  0  0  0
  9 10  2  0  0  0  0
  9 23  1  0  0  0  0
 10 11  1  0  0  0  0
 10 24  1  0  0  0  0
 11 12  2  0  0  0  0
 12 13  1  0  0  0  0
 13 18  1  0  0  0  0
 13 14  1  0  0  0  0
 14 15  1  0  0  0  0
 14 25  1  0  0  0  0
 14 26  1  0  0  0  0
 15 16  1  0  0  0  0
 15 27  1  0  0  0  0
 15 28  1  0  0  0  0
 16 17  1  0  0  0  0
 17 18  1  0  0  0  0
 17 29  1  0  0  0  0
 17 30  1  0  0  0  0
 18 31  1  0  0  0  0
 18 32  1  0  0  0  0
M  CHG  1   4  -1
M  END
> <s_m_source_file>
AV-unprocessed.smi

> <i_m_source_file_index>
1142

> <i_lp_mmshare_version>
43012

> <i_f3d_flags>
0

> <s_epik_input>
W0NIXSNDW0NIMl1bTkhdQyg9TyljMVtjSF1bY0hdW2NIXW5jMU4yW0NIMl1bQ0gyXU9bQ0gyXVtDSDJdMg==

> <s_epik_cmdline>
J2VwaWtfcHl0aG9uJywgJy1waCcsICc3LjAnLCAnLXRuJywgJzgnLCAnLW1hJywgJzIwMCcsICctbWV0YWxfYmluZGluZycsICctaW1hZScsICc8aW5maWxlLm1hZT4nLCAnLW9tYWUnLCAnPG91dGZpbGUubWFlPic=

> <r_lp_tautomer_probability>
1

> <r_epik_Ionization_Penalty>
6.8086

> <r_epik_Ionization_Penalty_Charging>
6.808

> <r_epik_Ionization_Penalty_Neutral>
0.000606165

> <r_epik_State_Penalty>
6.80799

> <r_epik_Charging_Adjusted_Penalty>
13.616

> <i_epik_Tot_Q>
-1

> <i_epik_Tot_abs_Q>
1

> <r_epik_Metal_State_Penalty>
2.72724

> <b_epik_Metal_Only>
1

> <s_lp_Force_Field>
OPLS_2005

> <r_lp_Energy>
27.7

> <b_lp_Chiralities_Consistent>
1

> <s_lp_Variant>
AV-unprocessed.smi:1142-2

> <Gold.Version>
5.8.1

> <Gold.Id.Protein>
6NUR|6NUR_protein|mol2

> <Gold.PLP.Fitness>
34.7746

> <Gold.PLP.PLP>
-30.7631

> <Gold.PLP.part.hbond>
-2.0000

> <Gold.PLP.part.metal>
0.0000

> <Gold.PLP.part.buried>
-0.9770

> <Gold.PLP.part.nonpolar>
-29.8358

> <Gold.PLP.part.repulsive>
3.3871

> <Gold.PLP.ligand.clash>
0.0000

> <Gold.PLP.ligand.torsion>
1.3006

> <Gold.PLP.Chemscore.Hbond>
0.9629

> <Gold.PLP.Chemscore.CHOScore>
1.0000

> <Gold.PLP.Chemscore.Metal>
0.0000

> <Gold.Chemscore.Hbonds>
donor molecule, donor type, donor heavy atom, donor atom, acceptor molecule, acceptor atom, score
      P1  H  7989  7998       L1     6  0.66
      P1  H 10752 10765       L1    16  0.35
      L1  C    10    24       P1 10175  1.00

> <Gold.PLP.Chemscore.Internal.Correction>
0.7238

> <Gold.Rescore>
     Score         DG    S(hbond)    S(metal)    S(lipo)     H(rot)  DE(clash)    DE(int)     intcor
      8.01     -13.90       0.57        0.00      81.31       1.17       1.63       4.26       ----

> <Gold.Chemscore.Fitness>
8.0102

> <Gold.Chemscore.DG>
-13.9012

> <Gold.Chemscore.ZeroCoef>
-5.4800

> <Gold.Chemscore.Hbond>
0.5715

> <Gold.Chemscore.Metal>
0.0000

> <Gold.Chemscore.Lipo>
81.3142

> <Gold.Chemscore.Internal_Hbond>
0.0000

> <Gold.Chemscore.DEClash>
1.6339

> <Gold.Chemscore.DEInternal>
4.2571

> <Gold.Chemscore.Rot>
1.1725

> <Gold.Chemscore.Internal.Correction>
   9.000000E+99

> <Gold.Chemscore.Hbonds>
donor molecule, donor type, donor heavy atom, donor atom, acceptor molecule, acceptor atom, score
      P1  H  7989  7998       L1     6  0.16
      P1  H 10752 10765       L1    16  0.01

> <Gold.Chemscore.Hbond.Weighted>
-1.9089

> <Gold.Chemscore.Metal.Weighted>
-0.0000

> <Gold.Chemscore.Lipo.Weighted>
-9.5138

> <Gold.Chemscore.Internal_Hbond.Weighted>
0.0000

> <Gold.Chemscore.DEClash.Weighted>
1.6339

> <Gold.Chemscore.DEInternal.Weighted>
4.2571

> <Gold.Chemscore.Rot.Weighted>
3.0015

> <Gold.Chemscore.Internal.Correction.Weighted>
   9.000000E+99

> <Gold.Protein.RotatedTorsions>
[ 6907 6896 6895 6894 ] final   15.02 input  -60.11 | X-H torsion
[ 7974 7965 7964 7962 ] final  -39.02 input  175.53 | X-H torsion
[ 8008 7997 7996 7995 ] final -126.04 input   59.86 | X-H torsion
[ 10167 10162 10161 10158 ] final -135.53 input  -65.29 | X-H torsion
[ 10718 10713 10712 10709 ] final   33.86 input   66.30 | X-H torsion
[ 10763 10752 10751 10750 ] final  171.30 input  -60.55 | X-H torsion
[ 11005 11000 10999 10996 ] final -103.75 input  -57.11 | X-H torsion

> <Gold.Protein.ActiveResidues>
 VAL166  LYS551  ARG553  GLY616  TRP617  ASP618  TYR619  PRO620  LYS621  CYS622 
 ASP623  PHE694  ASN695  SER759  ASP760  ASP761  ALA762  ILE779  LEU786  VAL792 
 PHE793  MET794  SER795  GLU796  ALA797  LYS798  CYS799  TRP800  GLU811  SER814 

> <Gold.Protein.RotatedAtoms>
  151.8115  135.0679  160.0413 H   0  0  0  0  0  0  0  0  0  0  0  0  # atno 6907 bound_to 6896
  152.3017  133.5657  159.5631 H   0  0  0  0  0  0  0  0  0  0  0  0  # atno 6908 bound_to 6896
  150.7276  134.0198  159.3739 H   0  0  0  0  0  0  0  0  0  0  0  0  # atno 6909 bound_to 6896
  146.0434  140.6578  142.9076 H   0  0  0  0  0  0  0  0  0  0  0  0  # atno 7974 bound_to 7965
  155.2231  140.0422  157.2951 H   0  0  0  0  0  0  0  0  0  0  0  0  # atno 8008 bound_to 7997
  154.5936  140.2433  155.7857 H   0  0  0  0  0  0  0  0  0  0  0  0  # atno 8009 bound_to 7997
  156.2276  140.2949  156.0114 H   0  0  0  0  0  0  0  0  0  0  0  0  # atno 8010 bound_to 7997
  139.8770  143.6886  152.2632 H   0  0  0  0  0  0  0  0  0  0  0  0  # atno 10167 bound_to 10162
  157.3031  130.7361  149.6679 H   0  0  0  0  0  0  0  0  0  0  0  0  # atno 10718 bound_to 10713
  154.4100  135.2756  155.2043 H   0  0  0  0  0  0  0  0  0  0  0  0  # atno 10763 bound_to 10752
  154.4033  135.6039  153.5913 H   0  0  0  0  0  0  0  0  0  0  0  0  # atno 10764 bound_to 10752
  152.9831  135.5931  154.4380 H   0  0  0  0  0  0  0  0  0  0  0  0  # atno 10765 bound_to 10752
  141.1132  133.8666  157.1525 H   0  0  0  0  0  0  0  0  0  0  0  0  # atno 11005 bound_to 11000
  144.7086  140.3950  143.7098 LP  0  0  0  0  0  0  0  0  0  0  0  0  # atno 17320 bound_to 7965
  145.6846  139.1626  143.2681 LP  0  0  0  0  0  0  0  0  0  0  0  0  # atno 17321 bound_to 7965
  139.7231  144.7598  151.0923 LP  0  0  0  0  0  0  0  0  0  0  0  0  # atno 17342 bound_to 10162
  140.7751  143.5182  150.9568 LP  0  0  0  0  0  0  0  0  0  0  0  0  # atno 17343 bound_to 10162
  155.9673  130.4274  150.4741 LP  0  0  0  0  0  0  0  0  0  0  0  0  # atno 17370 bound_to 10713
  157.2726  131.0590  151.2250 LP  0  0  0  0  0  0  0  0  0  0  0  0  # atno 17371 bound_to 10713
  140.0038  135.0017  157.0247 LP  0  0  0  0  0  0  0  0  0  0  0  0  # atno 17394 bound_to 11000
  140.4719  134.1378  155.7204 LP  0  0  0  0  0  0  0  0  0  0  0  0  # atno 17395 bound_to 11000

$$$$
