#       Name:                AV-unprocessed.smi:1638
#       Creating user name   scv26
#       Creation time:       Fri Mar 27 07:23:05 2020


#       File generated by GOLD software.
#

@<TRIPOS>MOLECULE
AV-unprocessed.smi:1638
    45    46     1
SMALL
NO_CHARGES


@<TRIPOS>ATOM
      1 ****        -8.1663   2.4425  -1.1027 C.3            1 S1                 0.0000
      2 ****        -6.7415   2.0064  -1.0651 C.2            1 S1                 0.0000
      3 ****        -5.7204   2.8705  -1.0167 N.2            1 S1                 0.0000
      4 ****        -4.4895   2.2296  -0.9933 N.2            1 S1                 0.0000
      5 ****        -4.6196   0.8962  -1.0268 C.2            1 S1                 0.0000
      6 ****        -3.5206  -0.0035  -1.0206 N.am           1 S1                 0.0000
      7 ****        -2.2085   0.2867  -0.9674 C.2            1 S1                 0.0000
      8 ****        -1.7305   1.4181  -0.8791 O.2            1 S1                 0.0000
      9 ****        -1.4594  -0.8246  -1.0167 N.am           1 S1                 0.0000
     10 ****        -0.0012  -0.8434  -0.9868 C.3            1 S1                 0.0000
     11 ****         0.5349  -0.6574   0.4467 C.3            1 S1                 0.0000
     12 ****         2.0200  -0.7044   0.5228 N.4            1 S1                 1.0000
     13 ****         2.5115  -0.9237   1.9089 C.3            1 S1                 0.0000
     14 ****         3.7112  -1.8868   1.9192 C.3            1 S1                 0.0000
     15 ****         5.0485  -1.2451   1.5240 C.3            1 S1                 0.0000
     16 ****         5.0401  -0.5630   0.1476 C.3            1 S1                 0.0000
     17 ****         4.1499   0.6887   0.1232 C.3            1 S1                 0.0000
     18 ****         2.6652   0.4285  -0.2029 C.3            1 S1                 0.0000
     19 ****        -6.2732   0.3104  -1.0882 S.3            1 S1                 0.0000
     20 ****        -8.2609   3.4752  -0.7652 H              1 S1                 0.0000
     21 ****        -8.7701   1.8080  -0.4540 H              1 S1                 0.0000
     22 ****        -8.5501   2.3700  -2.1203 H              1 S1                 0.0000
     23 ****        -3.7633  -0.9817  -1.0749 H              1 S1                 0.0000
     24 ****        -1.9286  -1.7156  -1.0911 H              1 S1                 0.0000
     25 ****         0.3353  -1.7994  -1.3889 H              1 S1                 0.0000
     26 ****         0.3747  -0.0724  -1.6602 H              1 S1                 0.0000
     27 ****         0.1819   0.2807   0.8779 H              1 S1                 0.0000
     28 ****         0.1131  -1.4565   1.0580 H              1 S1                 0.0000
     29 ****         2.7301   0.0181   2.4141 H              1 S1                 0.0000
     30 ****         1.7301  -1.3952   2.5057 H              1 S1                 0.0000
     31 ****         3.8208  -2.2947   2.9247 H              1 S1                 0.0000
     32 ****         3.5039  -2.7426   1.2751 H              1 S1                 0.0000
     33 ****         5.3451  -0.5233   2.2861 H              1 S1                 0.0000
     34 ****         5.8194  -2.0165   1.5306 H              1 S1                 0.0000
     35 ****         6.0630  -0.2616  -0.0811 H              1 S1                 0.0000
     36 ****         4.7501  -1.2631  -0.6369 H              1 S1                 0.0000
     37 ****         4.2431   1.2305   1.0652 H              1 S1                 0.0000
     38 ****         4.5354   1.3738  -0.6327 H              1 S1                 0.0000
     39 ****         2.5807   0.2336  -1.2719 H              1 S1                 0.0000
     40 ****         2.1086   1.3476  -0.0125 H              1 S1                 0.0000
     41 ****         2.2868  -1.5422   0.0260 H              1 S1                 0.0000
     42 ****        -5.8317   3.8642  -0.9994 LP             1 S1                 0.0000
     43 ****        -3.6109   2.7058  -0.9559 LP             1 S1                 0.0000
     44 ****        -2.3342   2.2144  -0.8411 LP             1 S1                 0.0000
     45 ****        -0.7386   1.5406  -0.8454 LP             1 S1                 0.0000
@<TRIPOS>BOND
    1    1    2 1     
    2    1   20 1     
    3    1   21 1     
    4    1   22 1     
    5    2   19 1     
    6    2    3 2     
    7    3    4 1     
    8    4    5 2     
    9    5    6 1     
   10    5   19 1     
   11    6    7 am    
   12    6   23 1     
   13    7    8 2     
   14    7    9 am    
   15    9   10 1     
   16    9   24 1     
   17   10   11 1     
   18   10   25 1     
   19   10   26 1     
   20   11   12 1     
   21   11   27 1     
   22   11   28 1     
   23   12   18 1     
   24   12   13 1     
   25   12   41 1     
   26   13   14 1     
   27   13   29 1     
   28   13   30 1     
   29   14   15 1     
   30   14   31 1     
   31   14   32 1     
   32   15   16 1     
   33   15   33 1     
   34   15   34 1     
   35   16   17 1     
   36   16   35 1     
   37   16   36 1     
   38   17   18 1     
   39   17   37 1     
   40   17   38 1     
   41   18   39 1     
   42   18   40 1     
   43    3   42 1     
   44    4   43 1     
   45    8   44 1     
   46    8   45 1     
@<TRIPOS>SUBSTRUCTURE
      1 S1             1
@<TRIPOS>SET
LONE_PAIRS      STATIC     ATOMS    <user>   **** ""
4 42 43 44 45
DONOR_HYDROGENS      STATIC     ATOMS    <user>   **** ""
3 23 24 41
ATOM$BLUE        STATIC     ATOMS    COLORGROUP SYSTEM
4 42 43 44 45
ATOM$RED        STATIC     ATOMS    COLORGROUP SYSTEM
3 23 24 41
