#       Name:                AV-unprocessed.smi:1133
#       Creating user name   scv26
#       Creation time:       Fri Mar 27 03:42:41 2020


#       File generated by GOLD software.
#

@<TRIPOS>MOLECULE
AV-unprocessed.smi:1133
    46    47     1
SMALL
NO_CHARGES


@<TRIPOS>ATOM
      1 ****        -5.6279   0.1213  -1.3977 C.3            1 S1                 0.0000
      2 ****        -5.2873   0.3899   0.0700 C.2            1 S1                 0.0000
      3 ****        -6.0331  -0.0765   0.9314 O.2            1 S1                 0.0000
      4 ****        -4.1861   1.1192   0.3718 N.am           1 S1                 0.0000
      5 ****        -3.7395   1.3488   1.7506 C.3            1 S1                 0.0000
      6 ****        -2.4563   0.5349   1.9974 C.3            1 S1                 0.0000
      7 ****        -1.3608   0.8838   0.9667 C.3            1 S1                 0.0000
      8 ****        -0.2382  -0.0376   1.1129 N.am           1 S1                 0.0000
      9 ****         1.0277   0.2273   0.7609 C.2            1 S1                 0.0000
     10 ****         1.4017   1.2973   0.2801 O.2            1 S1                 0.0000
     11 ****         1.8367  -0.8171   0.9869 N.am           1 S1                 0.0000
     12 ****         3.2651  -0.8423   0.6956 C.3            1 S1                 0.0000
     13 ****         3.5343  -1.0532  -0.8038 C.3            1 S1                 0.0000
     14 ****         4.9541  -1.1043  -1.0855 N.pl3          1 S1                 0.0000
     15 ****         5.7452  -2.2390  -1.2055 C.2            1 S1                 0.0000
     16 ****         7.0222  -1.8004  -1.4742 C.2            1 S1                 0.0000
     17 ****         7.0399  -0.4084  -1.5214 N.2            1 S1                 0.0000
     18 ****         5.7801  -0.0675  -1.2820 C.2            1 S1                 0.0000
     19 ****        -1.9105   0.8435  -0.4785 C.3            1 S1                 0.0000
     20 ****        -3.2200   1.6425  -0.6017 C.3            1 S1                 0.0000
     21 ****        -4.8080  -0.3959  -1.8973 H              1 S1                 0.0000
     22 ****        -5.8334   1.0539  -1.9237 H              1 S1                 0.0000
     23 ****        -6.5150  -0.5080  -1.4774 H              1 S1                 0.0000
     24 ****        -3.5439   2.4123   1.8963 H              1 S1                 0.0000
     25 ****        -4.4961   1.0829   2.4899 H              1 S1                 0.0000
     26 ****        -2.0904   0.7155   3.0088 H              1 S1                 0.0000
     27 ****        -2.6944  -0.5285   1.9397 H              1 S1                 0.0000
     28 ****        -1.0211   1.8997   1.1779 H              1 S1                 0.0000
     29 ****        -0.4438  -0.9470   1.4999 H              1 S1                 0.0000
     30 ****         1.4368  -1.6546   1.3842 H              1 S1                 0.0000
     31 ****         3.7313   0.0813   1.0437 H              1 S1                 0.0000
     32 ****         3.7133  -1.6527   1.2712 H              1 S1                 0.0000
     33 ****         3.0775  -1.9825  -1.1471 H              1 S1                 0.0000
     34 ****         3.0964  -0.2472  -1.3944 H              1 S1                 0.0000
     35 ****         5.3456  -3.2361  -1.0930 H              1 S1                 0.0000
     36 ****         7.9226  -2.3747  -1.6347 H              1 S1                 0.0000
     37 ****         5.4504   0.9607  -1.2466 H              1 S1                 0.0000
     38 ****        -1.1694   1.2378  -1.1747 H              1 S1                 0.0000
     39 ****        -2.0944  -0.1901  -0.7761 H              1 S1                 0.0000
     40 ****        -3.5766   1.6147  -1.6303 H              1 S1                 0.0000
     41 ****        -3.0332   2.6962  -0.3894 H              1 S1                 0.0000
     42 ****        -6.8334  -0.6126   0.6628 LP             1 S1                 0.0000
     43 ****        -5.8386   0.0808   1.8996 LP             1 S1                 0.0000
     44 ****         0.7437   2.0353   0.1303 LP             1 S1                 0.0000
     45 ****         2.3634   1.4283   0.0393 LP             1 S1                 0.0000
     46 ****         7.8195   0.1932  -1.6951 LP             1 S1                 0.0000
@<TRIPOS>BOND
    1    1    2 1     
    2    1   21 1     
    3    1   22 1     
    4    1   23 1     
    5    2    3 2     
    6    2    4 am    
    7    4   20 1     
    8    4    5 1     
    9    5    6 1     
   10    5   24 1     
   11    5   25 1     
   12    6    7 1     
   13    6   26 1     
   14    6   27 1     
   15    7    8 1     
   16    7   19 1     
   17    7   28 1     
   18    8    9 am    
   19    8   29 1     
   20    9   10 2     
   21    9   11 am    
   22   11   12 1     
   23   11   30 1     
   24   12   13 1     
   25   12   31 1     
   26   12   32 1     
   27   13   14 1     
   28   13   33 1     
   29   13   34 1     
   30   14   18 1     
   31   14   15 1     
   32   15   16 2     
   33   15   35 1     
   34   16   17 1     
   35   16   36 1     
   36   17   18 2     
   37   18   37 1     
   38   19   20 1     
   39   19   38 1     
   40   19   39 1     
   41   20   40 1     
   42   20   41 1     
   43    3   42 1     
   44    3   43 1     
   45   10   44 1     
   46   10   45 1     
   47   17   46 1     
@<TRIPOS>SUBSTRUCTURE
      1 S1             1
@<TRIPOS>SET
LONE_PAIRS      STATIC     ATOMS    <user>   **** ""
5 42 43 44 45 46
DONOR_HYDROGENS      STATIC     ATOMS    <user>   **** ""
2 29 30
ATOM$BLUE        STATIC     ATOMS    COLORGROUP SYSTEM
5 42 43 44 45 46
ATOM$RED        STATIC     ATOMS    COLORGROUP SYSTEM
2 29 30
