AV-unprocessed.smi:2527|AV-procd|sdf|9943|dock1
  -GOLD-   2272013583D 1   1.00000     0.00000
 Structure written by MMmdl.
 35 37  0  0  0  0  0  0  0  0  2 V2000
  152.9467  137.5223  160.2232 C   0  0  0  0  0  0  0  0  0  0  0  0
  151.8279  137.1121  159.4579 O   0  0  0  0  0  0  0  0  0  0  0  0
  151.0426  138.2069  159.0131 C   0  0  0  0  0  0  0  0  0  0  0  0
  151.7546  138.9164  157.8526 C   0  0  0  0  0  0  0  0  0  0  0  0
  151.2440  140.2628  157.6396 N   0  0  0  0  0  0  0  0  0  0  0  0
  150.3623  140.6791  156.6964 C   0  0  0  0  0  0  0  0  0  0  0  0
  149.6687  139.5470  155.5265 S   0  0  0  0  0  0  0  0  0  0  0  0
  148.1346  140.4222  155.0984 C   0  0  0  0  0  0  0  0  0  0  0  0
  147.2865  139.6983  154.0931 C   0  0  0  0  0  0  0  0  0  0  0  0
  147.7804  139.4782  152.8454 N   0  5  0  0  0  0  0  0  0  0  0  0
  146.7874  138.8211  152.2203 C   0  0  0  0  0  0  0  0  0  0  0  0
  146.7326  138.3938  151.0690 O   0  0  0  0  0  0  0  0  0  0  0  0
  145.7940  138.6932  153.1030 N   0  0  0  0  0  0  0  0  0  0  0  0
  146.1042  139.2459  154.2876 N   0  0  0  0  0  0  0  0  0  0  0  0
  150.0594  141.9787  156.7328 N   0  0  0  0  0  0  0  0  0  0  0  0
  150.8134  142.4441  157.7912 C   0  0  0  0  0  0  0  0  0  0  0  0
  150.9297  143.7433  158.3347 C   0  0  0  0  0  0  0  0  0  0  0  0
  151.7739  143.9822  159.4391 C   0  0  0  0  0  0  0  0  0  0  0  0
  151.9044  145.5742  160.0907 Cl  0  0  0  0  0  0  0  0  0  0  0  0
  152.5111  142.9263  160.0142 C   0  0  0  0  0  0  0  0  0  0  0  0
  152.4094  141.6244  159.4871 C   0  0  0  0  0  0  0  0  0  0  0  0
  151.5667  141.3930  158.3835 C   0  0  0  0  0  0  0  0  0  0  0  0
  144.8965  138.2516  152.9671 H   0  0  0  0  0  0  0  0  0  0  0  0
  153.5141  136.6473  160.5396 H   0  0  0  0  0  0  0  0  0  0  0  0
  152.6355  138.0638  161.1175 H   0  0  0  0  0  0  0  0  0  0  0  0
  153.6107  138.1611  159.6394 H   0  0  0  0  0  0  0  0  0  0  0  0
  150.0638  137.8544  158.6853 H   0  0  0  0  0  0  0  0  0  0  0  0
  150.8782  138.9070  159.8337 H   0  0  0  0  0  0  0  0  0  0  0  0
  152.8245  138.9767  158.0535 H   0  0  0  0  0  0  0  0  0  0  0  0
  151.6518  138.3422  156.9317 H   0  0  0  0  0  0  0  0  0  0  0  0
  147.5577  140.5799  156.0102 H   0  0  0  0  0  0  0  0  0  0  0  0
  148.3910  141.4119  154.7180 H   0  0  0  0  0  0  0  0  0  0  0  0
  150.3669  144.5564  157.9003 H   0  0  0  0  0  0  0  0  0  0  0  0
  153.1545  143.1144  160.8613 H   0  0  0  0  0  0  0  0  0  0  0  0
  152.9704  140.8135  159.9273 H   0  0  0  0  0  0  0  0  0  0  0  0
  1  2  1  0  0  0  0
  1 24  1  0  0  0  0
  1 25  1  0  0  0  0
  1 26  1  0  0  0  0
  2  3  1  0  0  0  0
  3  4  1  0  0  0  0
  3 27  1  0  0  0  0
  3 28  1  0  0  0  0
  4  5  1  0  0  0  0
  4 29  1  0  0  0  0
  4 30  1  0  0  0  0
  5 22  1  0  0  0  0
  5  6  1  0  0  0  0
  6  7  1  0  0  0  0
  6 15  2  0  0  0  0
  7  8  1  0  0  0  0
  8 31  1  0  0  0  0
  8 32  1  0  0  0  0
  8  9  1  0  0  0  0
  9 14  2  0  0  0  0
  9 10  1  0  0  0  0
 10 11  1  0  0  0  0
 11 13  1  0  0  0  0
 11 12  2  0  0  0  0
 13 14  1  0  0  0  0
 13 23  1  0  0  0  0
 15 16  1  0  0  0  0
 16 22  2  0  0  0  0
 16 17  1  0  0  0  0
 17 18  2  0  0  0  0
 17 33  1  0  0  0  0
 18 19  1  0  0  0  0
 18 20  1  0  0  0  0
 20 21  2  0  0  0  0
 20 34  1  0  0  0  0
 21 22  1  0  0  0  0
 21 35  1  0  0  0  0
M  CHG  1  10  -1
M  END
> <s_m_source_file>
AV-unprocessed.smi

> <i_m_source_file_index>
2527

> <i_lp_mmshare_version>
43012

> <i_f3d_flags>
0

> <s_epik_input>
W2NIXTFjKENsKVtjSF1bY0hdYyhjMTIpbihbQ0gyXVtDSDJdT1tDSDNdKWMobjIpU1tDSDJdYzNuYyg9TylbbkhdW25IXTM=

> <s_epik_cmdline>
J2VwaWtfcHl0aG9uJywgJy1waCcsICc3LjAnLCAnLXRuJywgJzgnLCAnLW1hJywgJzIwMCcsICctbWV0YWxfYmluZGluZycsICctaW1hZScsICc8aW5maWxlLm1hZT4nLCAnLW9tYWUnLCAnPG91dGZpbGUubWFlPic=

> <r_lp_tautomer_probability>
0.992605

> <r_epik_Ionization_Penalty>
1.73518

> <r_epik_Ionization_Penalty_Charging>
3.40377e-05

> <r_epik_Ionization_Penalty_Neutral>
1.73514

> <r_epik_State_Penalty>
1.84086

> <r_epik_Charging_Adjusted_Penalty>
1.8409

> <i_epik_Tot_Q>
-1

> <i_epik_Tot_abs_Q>
1

> <r_epik_Metal_State_Penalty>
0.488407

> <b_epik_Metal_Only>
0

> <s_lp_Force_Field>
OPLS_2005

> <r_lp_Energy>
20.2593

> <b_lp_Chiralities_Consistent>
1

> <s_lp_Variant>
AV-unprocessed.smi:2527-2

> <Gold.Version>
5.8.1

> <Gold.Id.Protein>
6NUR|6NUR_protein|mol2

> <Gold.PLP.Fitness>
41.8638

> <Gold.PLP.PLP>
-37.3424

> <Gold.PLP.part.hbond>
-3.0000

> <Gold.PLP.part.metal>
0.0000

> <Gold.PLP.part.buried>
-8.2785

> <Gold.PLP.part.nonpolar>
-32.0333

> <Gold.PLP.part.repulsive>
4.6959

> <Gold.PLP.ligand.clash>
0.0000

> <Gold.PLP.ligand.torsion>
0.7540

> <Gold.PLP.Chemscore.Hbond>
1.9913

> <Gold.PLP.Chemscore.CHOScore>
0.0000

> <Gold.PLP.Chemscore.Metal>
0.0000

> <Gold.Chemscore.Hbonds>
donor molecule, donor type, donor heavy atom, donor atom, acceptor molecule, acceptor atom, score
      P1  H  6896  6907       L1     2  1.00
      P1  H  7954  7966       L1    12  1.00

> <Gold.PLP.Chemscore.Internal.Correction>
0.0557

> <Gold.Rescore>
     Score         DG    S(hbond)    S(metal)    S(lipo)     H(rot)  DE(clash)    DE(int)     intcor
     12.93     -15.26       1.92        0.00      90.22       2.81       1.71       0.63       ----

> <Gold.Chemscore.Fitness>
12.9285

> <Gold.Chemscore.DG>
-15.2636

> <Gold.Chemscore.ZeroCoef>
-5.4800

> <Gold.Chemscore.Hbond>
1.9219

> <Gold.Chemscore.Metal>
0.0000

> <Gold.Chemscore.Lipo>
90.2227

> <Gold.Chemscore.Internal_Hbond>
0.0000

> <Gold.Chemscore.DEClash>
1.7067

> <Gold.Chemscore.DEInternal>
0.6285

> <Gold.Chemscore.Rot>
2.8092

> <Gold.Chemscore.Internal.Correction>
   9.000000E+99

> <Gold.Chemscore.Hbonds>
donor molecule, donor type, donor heavy atom, donor atom, acceptor molecule, acceptor atom, score
      P1  H  6896  6907       L1     2  0.47
      P1  H  7954  7966       L1    12  0.98

> <Gold.Chemscore.Hbond.Weighted>
-6.4192

> <Gold.Chemscore.Metal.Weighted>
-0.0000

> <Gold.Chemscore.Lipo.Weighted>
-10.5561

> <Gold.Chemscore.Internal_Hbond.Weighted>
0.0000

> <Gold.Chemscore.DEClash.Weighted>
1.7067

> <Gold.Chemscore.DEInternal.Weighted>
0.6285

> <Gold.Chemscore.Rot.Weighted>
7.1916

> <Gold.Chemscore.Internal.Correction.Weighted>
   9.000000E+99

> <Gold.Protein.RotatedTorsions>
[ 6907 6896 6895 6894 ] final   -3.38 input  -60.11 | X-H torsion
[ 7974 7965 7964 7962 ] final  -14.02 input  175.53 | X-H torsion
[ 8008 7997 7996 7995 ] final  172.47 input   59.86 | X-H torsion
[ 10167 10162 10161 10158 ] final  -73.58 input  -65.29 | X-H torsion
[ 10718 10713 10712 10709 ] final -120.74 input   66.30 | X-H torsion
[ 10763 10752 10751 10750 ] final   33.35 input  -60.55 | X-H torsion
[ 11005 11000 10999 10996 ] final  104.22 input  -57.11 | X-H torsion

> <Gold.Protein.ActiveResidues>
 VAL166  LYS551  ARG553  GLY616  TRP617  ASP618  TYR619  PRO620  LYS621  CYS622 
 ASP623  PHE694  ASN695  SER759  ASP760  ASP761  ALA762  ILE779  LEU786  VAL792 
 PHE793  MET794  SER795  GLU796  ALA797  LYS798  CYS799  TRP800  GLU811  SER814 

> <Gold.Protein.RotatedAtoms>
  151.5147  135.1066  159.9862 H   0  0  0  0  0  0  0  0  0  0  0  0  # atno 6907 bound_to 6896
  152.4646  133.7891  159.6903 H   0  0  0  0  0  0  0  0  0  0  0  0  # atno 6908 bound_to 6896
  150.8624  133.7560  159.3013 H   0  0  0  0  0  0  0  0  0  0  0  0  # atno 6909 bound_to 6896
  146.2091  140.3287  142.8397 H   0  0  0  0  0  0  0  0  0  0  0  0  # atno 7974 bound_to 7965
  156.1172  140.1485  156.9256 H   0  0  0  0  0  0  0  0  0  0  0  0  # atno 8008 bound_to 7997
  154.4809  140.0880  156.7416 H   0  0  0  0  0  0  0  0  0  0  0  0  # atno 8009 bound_to 7997
  155.4493  140.3434  155.4301 H   0  0  0  0  0  0  0  0  0  0  0  0  # atno 8010 bound_to 7997
  140.5098  143.2347  151.7612 H   0  0  0  0  0  0  0  0  0  0  0  0  # atno 10167 bound_to 10162
  156.1282  130.6375  150.9578 H   0  0  0  0  0  0  0  0  0  0  0  0  # atno 10718 bound_to 10713
  153.0216  135.6389  154.1497 H   0  0  0  0  0  0  0  0  0  0  0  0  # atno 10763 bound_to 10752
  154.1231  135.2845  155.3205 H   0  0  0  0  0  0  0  0  0  0  0  0  # atno 10764 bound_to 10752
  154.6249  135.5512  153.7678 H   0  0  0  0  0  0  0  0  0  0  0  0  # atno 10765 bound_to 10752
  139.8790  134.9292  156.5328 H   0  0  0  0  0  0  0  0  0  0  0  0  # atno 11005 bound_to 11000
  144.8867  140.7472  143.5952 LP  0  0  0  0  0  0  0  0  0  0  0  0  # atno 17320 bound_to 7965
  145.3209  139.1789  143.4588 LP  0  0  0  0  0  0  0  0  0  0  0  0  # atno 17321 bound_to 7965
  139.4893  144.4406  151.9769 LP  0  0  0  0  0  0  0  0  0  0  0  0  # atno 17342 bound_to 10162
  140.3498  144.3103  150.5951 LP  0  0  0  0  0  0  0  0  0  0  0  0  # atno 17343 bound_to 10162
  157.6462  131.0903  150.8148 LP  0  0  0  0  0  0  0  0  0  0  0  0  # atno 17370 bound_to 10713
  156.8236  130.4992  149.5340 LP  0  0  0  0  0  0  0  0  0  0  0  0  # atno 17371 bound_to 10713
  140.8368  133.8236  155.9036 LP  0  0  0  0  0  0  0  0  0  0  0  0  # atno 17394 bound_to 11000
  140.9276  134.2063  157.4886 LP  0  0  0  0  0  0  0  0  0  0  0  0  # atno 17395 bound_to 11000

$$$$
