AV-unprocessed.smi:3198|AV-procd|sdf|12228|dock9
  -GOLD-   2272018 63D 1   1.00000     0.00000
 Structure written by MMmdl.
 38 39  0  0  0  0  0  0  0  0  2 V2000
  150.5512  138.1696  154.1443 C   0  0  0  0  0  0  0  0  0  0  0  0
  149.4548  139.2017  153.9885 C   0  0  0  0  0  0  0  0  0  0  0  0
  149.5108  140.4618  154.6187 C   0  0  0  0  0  0  0  0  0  0  0  0
  148.4512  141.3701  154.4265 C   0  0  0  0  0  0  0  0  0  0  0  0
  147.3635  141.0022  153.6088 C   0  0  0  0  0  0  0  0  0  0  0  0
  147.3586  139.7295  152.9873 C   0  0  0  0  0  0  0  0  0  0  0  0
  146.3460  139.2638  152.1354 N   0  0  0  0  0  0  0  0  0  0  0  0
  146.4349  137.9337  151.5438 C   0  0  0  0  0  0  0  0  0  0  0  0
  145.2632  137.0288  151.9563 C   0  0  0  0  0  0  0  0  0  0  0  0
  145.3491  135.8115  151.2385 O   0  0  0  0  0  0  0  0  0  0  0  0
  144.4246  134.8273  151.6659 C   0  0  0  0  0  0  0  0  0  0  0  0
  144.6862  133.5269  150.8930 C   0  0  1  0  0  0  0  0  0  0  0  0
  146.0923  132.9392  151.0441 C   0  0  0  0  0  0  0  0  0  0  0  0
  145.8749  131.4371  150.9124 C   0  0  0  0  0  0  0  0  0  0  0  0
  144.3554  131.2755  150.8240 C   0  0  0  0  0  0  0  0  0  0  0  0
  143.8347  132.4872  151.3479 O   0  0  0  0  0  0  0  0  0  0  0  0
  148.3947  138.8898  153.2100 N   0  3  0  0  0  0  0  0  0  0  0  0
  151.2686  138.4717  154.9079 H   0  0  0  0  0  0  0  0  0  0  0  0
  151.0866  138.0414  153.2033 H   0  0  0  0  0  0  0  0  0  0  0  0
  150.1305  137.2069  154.4362 H   0  0  0  0  0  0  0  0  0  0  0  0
  150.3521  140.7313  155.2408 H   0  0  0  0  0  0  0  0  0  0  0  0
  148.4734  142.3410  154.8990 H   0  0  0  0  0  0  0  0  0  0  0  0
  146.5569  141.7045  153.4640 H   0  0  0  0  0  0  0  0  0  0  0  0
  145.4180  139.6385  152.2693 H   0  0  0  0  0  0  0  0  0  0  0  0
  146.4084  138.0679  150.4622 H   0  0  0  0  0  0  0  0  0  0  0  0
  147.3933  137.4635  151.7617 H   0  0  0  0  0  0  0  0  0  0  0  0
  145.2808  136.8529  153.0331 H   0  0  0  0  0  0  0  0  0  0  0  0
  144.3163  137.5152  151.7190 H   0  0  0  0  0  0  0  0  0  0  0  0
  144.5323  134.6435  152.7360 H   0  0  0  0  0  0  0  0  0  0  0  0
  143.4053  135.1751  151.4920 H   0  0  0  0  0  0  0  0  0  0  0  0
  144.4772  133.6905  149.8340 H   0  0  0  0  0  0  0  0  0  0  0  0
  146.7803  133.3317  150.2948 H   0  0  0  0  0  0  0  0  0  0  0  0
  146.5119  133.1586  152.0264 H   0  0  0  0  0  0  0  0  0  0  0  0
  146.3688  131.0237  150.0326 H   0  0  0  0  0  0  0  0  0  0  0  0
  146.2691  130.9220  151.7891 H   0  0  0  0  0  0  0  0  0  0  0  0
  144.0408  131.1701  149.7844 H   0  0  0  0  0  0  0  0  0  0  0  0
  143.9912  130.4110  151.3793 H   0  0  0  0  0  0  0  0  0  0  0  0
  148.3820  137.9740  152.7608 H   0  0  0  0  0  0  0  0  0  0  0  0
  1  2  1  0  0  0  0
  1 18  1  0  0  0  0
  1 19  1  0  0  0  0
  1 20  1  0  0  0  0
  2 17  1  0  0  0  0
  2  3  2  0  0  0  0
  3  4  1  0  0  0  0
  3 21  1  0  0  0  0
  4  5  2  0  0  0  0
  4 22  1  0  0  0  0
  5  6  1  0  0  0  0
  5 23  1  0  0  0  0
  6  7  1  0  0  0  0
  6 17  2  0  0  0  0
  7  8  1  0  0  0  0
  7 24  1  0  0  0  0
  8  9  1  0  0  0  0
  8 25  1  0  0  0  0
  8 26  1  0  0  0  0
  9 10  1  0  0  0  0
  9 27  1  0  0  0  0
  9 28  1  0  0  0  0
 10 11  1  0  0  0  0
 11 12  1  0  0  0  0
 11 29  1  0  0  0  0
 11 30  1  0  0  0  0
 12 16  1  0  0  0  0
 12 13  1  0  0  0  0
 12 31  1  0  0  0  0
 13 14  1  0  0  0  0
 13 32  1  0  0  0  0
 13 33  1  0  0  0  0
 14 15  1  0  0  0  0
 14 34  1  0  0  0  0
 14 35  1  0  0  0  0
 15 16  1  0  0  0  0
 15 36  1  0  0  0  0
 15 37  1  0  0  0  0
 17 38  1  0  0  0  0
M  CHG  1  17   1
M  END
> <s_m_source_file>
AV-unprocessed.smi

> <i_m_source_file_index>
3198

> <i_lp_mmshare_version>
43012

> <i_f3d_flags>
0

> <s_epik_input>
W0NIM11jMVtjSF1bY0hdW2NIXWMobjEpW05IXVtDSDJdW0NIMl1PW0NIMl1bQ0BASF0yW0NIMl1bQ0gyXVtDSDJdTzI=

> <s_epik_cmdline>
J2VwaWtfcHl0aG9uJywgJy1waCcsICc3LjAnLCAnLXRuJywgJzgnLCAnLW1hJywgJzIwMCcsICctbWV0YWxfYmluZGluZycsICctaW1hZScsICc8aW5maWxlLm1hZT4nLCAnLW9tYWUnLCAnPG91dGZpbGUubWFlPic=

> <r_lp_tautomer_probability>
0.999994

> <r_epik_Ionization_Penalty>
0.0710016

> <r_epik_Ionization_Penalty_Charging>
0.0710012

> <r_epik_Ionization_Penalty_Neutral>
3.47026e-07

> <r_epik_State_Penalty>
0.0622974

> <r_epik_Charging_Adjusted_Penalty>
0.133299

> <i_epik_Tot_Q>
1

> <i_epik_Tot_abs_Q>
1

> <r_epik_Metal_State_Penalty>
2.79497

> <b_epik_Metal_Only>
0

> <s_lp_Force_Field>
OPLS_2005

> <r_lp_Energy>
24.0011

> <b_lp_Chiralities_Consistent>
1

> <s_lp_Variant>
AV-unprocessed.smi:3198-2

> <Gold.Version>
5.8.1

> <Gold.Id.Protein>
6NUR|6NUR_protein|mol2

> <Gold.PLP.Fitness>
45.2476

> <Gold.PLP.PLP>
-33.4953

> <Gold.PLP.part.hbond>
-3.0000

> <Gold.PLP.part.metal>
0.0000

> <Gold.PLP.part.buried>
2.0483

> <Gold.PLP.part.nonpolar>
-33.3543

> <Gold.PLP.part.repulsive>
0.5306

> <Gold.PLP.ligand.clash>
0.2098

> <Gold.PLP.ligand.torsion>
0.0338

> <Gold.PLP.Chemscore.Hbond>
4.0000

> <Gold.PLP.Chemscore.CHOScore>
0.0000

> <Gold.PLP.Chemscore.Metal>
0.0000

> <Gold.Chemscore.Hbonds>
donor molecule, donor type, donor heavy atom, donor atom, acceptor molecule, acceptor atom, score
      L1  H     7    24       P1 10175  2.00
      L1  H    17    38       P1  7948  2.00

> <Gold.PLP.Chemscore.Internal.Correction>
0.0298

> <Gold.Rescore>
     Score         DG    S(hbond)    S(metal)    S(lipo)     H(rot)  DE(clash)    DE(int)     intcor
     17.43     -18.37       1.96        0.00      91.68       1.71       0.92       0.02       ----

> <Gold.Chemscore.Fitness>
17.4302

> <Gold.Chemscore.DG>
-18.3716

> <Gold.Chemscore.ZeroCoef>
-5.4800

> <Gold.Chemscore.Hbond>
1.9561

> <Gold.Chemscore.Metal>
0.0000

> <Gold.Chemscore.Lipo>
91.6781

> <Gold.Chemscore.Internal_Hbond>
0.0000

> <Gold.Chemscore.DEClash>
0.9225

> <Gold.Chemscore.DEInternal>
0.0189

> <Gold.Chemscore.Rot>
1.7063

> <Gold.Chemscore.Internal.Correction>
   9.000000E+99

> <Gold.Chemscore.Hbonds>
donor molecule, donor type, donor heavy atom, donor atom, acceptor molecule, acceptor atom, score
      L1  H     7    24       P1 10175  0.97
      L1  H    17    38       P1  7948  0.94

> <Gold.Chemscore.Hbond.Weighted>
-6.5334

> <Gold.Chemscore.Metal.Weighted>
-0.0000

> <Gold.Chemscore.Lipo.Weighted>
-10.7263

> <Gold.Chemscore.Internal_Hbond.Weighted>
0.0000

> <Gold.Chemscore.DEClash.Weighted>
0.9225

> <Gold.Chemscore.DEInternal.Weighted>
0.0189

> <Gold.Chemscore.Rot.Weighted>
4.3681

> <Gold.Chemscore.Internal.Correction.Weighted>
   9.000000E+99

> <Gold.Protein.RotatedTorsions>
[ 6907 6896 6895 6894 ] final  -51.20 input  -60.11 | X-H torsion
[ 7974 7965 7964 7962 ] final  -24.96 input  175.53 | X-H torsion
[ 8008 7997 7996 7995 ] final -110.02 input   59.86 | X-H torsion
[ 10167 10162 10161 10158 ] final  -45.46 input  -65.29 | X-H torsion
[ 10718 10713 10712 10709 ] final  148.94 input   66.30 | X-H torsion
[ 10763 10752 10751 10750 ] final   92.02 input  -60.55 | X-H torsion
[ 11005 11000 10999 10996 ] final  -17.18 input  -57.11 | X-H torsion

> <Gold.Protein.ActiveResidues>
 VAL166  LYS551  ARG553  GLY616  TRP617  ASP618  TYR619  PRO620  LYS621  CYS622 
 ASP623  PHE694  ASN695  SER759  ASP760  ASP761  ALA762  ILE779  LEU786  VAL792 
 PHE793  MET794  SER795  GLU796  ALA797  LYS798  CYS799  TRP800  GLU811  SER814 

> <Gold.Protein.RotatedAtoms>
  150.8634  134.7991  159.7099 H   0  0  0  0  0  0  0  0  0  0  0  0  # atno 6907 bound_to 6896
  152.4663  134.5063  159.9750 H   0  0  0  0  0  0  0  0  0  0  0  0  # atno 6908 bound_to 6896
  151.5163  133.3437  159.2929 H   0  0  0  0  0  0  0  0  0  0  0  0  # atno 6909 bound_to 6896
  146.1522  140.4822  142.8606 H   0  0  0  0  0  0  0  0  0  0  0  0  # atno 7974 bound_to 7965
  154.9682  140.0398  157.2222 H   0  0  0  0  0  0  0  0  0  0  0  0  # atno 8008 bound_to 7997
  154.7826  140.2821  155.6030 H   0  0  0  0  0  0  0  0  0  0  0  0  # atno 8009 bound_to 7997
  156.2938  140.2589  156.2654 H   0  0  0  0  0  0  0  0  0  0  0  0  # atno 8010 bound_to 7997
  140.6857  143.2878  151.3642 H   0  0  0  0  0  0  0  0  0  0  0  0  # atno 10167 bound_to 10162
  157.3024  131.0873  151.1380 H   0  0  0  0  0  0  0  0  0  0  0  0  # atno 10718 bound_to 10713
  153.2146  135.4376  155.0420 H   0  0  0  0  0  0  0  0  0  0  0  0  # atno 10763 bound_to 10752
  154.8218  135.3341  154.7017 H   0  0  0  0  0  0  0  0  0  0  0  0  # atno 10764 bound_to 10752
  153.7453  135.7002  153.5013 H   0  0  0  0  0  0  0  0  0  0  0  0  # atno 10765 bound_to 10752
  140.8143  133.8117  155.9594 H   0  0  0  0  0  0  0  0  0  0  0  0  # atno 11005 bound_to 11000
  144.7918  140.6046  143.6536 LP  0  0  0  0  0  0  0  0  0  0  0  0  # atno 17320 bound_to 7965
  145.4796  139.1496  143.3769 LP  0  0  0  0  0  0  0  0  0  0  0  0  # atno 17321 bound_to 7965
  139.6214  144.0900  152.2394 LP  0  0  0  0  0  0  0  0  0  0  0  0  # atno 17342 bound_to 10162
  140.0346  144.6055  150.7460 LP  0  0  0  0  0  0  0  0  0  0  0  0  # atno 17343 bound_to 10162
  157.2734  130.6715  149.6030 LP  0  0  0  0  0  0  0  0  0  0  0  0  # atno 17370 bound_to 10713
  155.9672  130.4472  150.5571 LP  0  0  0  0  0  0  0  0  0  0  0  0  # atno 17371 bound_to 10713
  140.9166  134.2195  157.4953 LP  0  0  0  0  0  0  0  0  0  0  0  0  # atno 17394 bound_to 11000
  139.8712  134.9773  156.4956 LP  0  0  0  0  0  0  0  0  0  0  0  0  # atno 17395 bound_to 11000

$$$$
