AV-unprocessed.smi:1998|AV-procd|sdf|8091|dock6
  -GOLD-   2272010313D 1   1.00000     0.00000
 Structure written by MMmdl.
 48 49  0  0  0  0  0  0  0  0  2 V2000
  153.4816  141.1526  161.7333 C   0  0  0  0  0  0  0  0  0  0  0  0
  152.9063  141.8873  160.5584 C   0  0  0  0  0  0  0  0  0  0  0  0
  152.8639  143.2913  160.3315 C   0  0  0  0  0  0  0  0  0  0  0  0
  152.2381  143.4193  159.1236 C   0  0  0  0  0  0  0  0  0  0  0  0
  151.8943  144.6433  158.3402 C   0  0  0  0  0  0  0  0  0  0  0  0
  151.9399  142.1401  158.6889 N   0  0  0  0  0  0  0  0  0  0  0  0
  151.2722  141.7190  157.4652 C   0  0  0  0  0  0  0  0  0  0  0  0
  151.4183  140.2168  157.1925 C   0  0  0  0  0  0  0  0  0  0  0  0
  152.5079  139.6524  157.3005 O   0  0  0  0  0  0  0  0  0  0  0  0
  150.2961  139.5806  156.8218 N   0  0  0  0  0  0  0  0  0  0  0  0
  150.1895  138.1610  156.4835 C   0  0  0  0  0  0  0  0  0  0  0  0
  150.2221  137.8703  154.9511 C   0  0  0  0  0  0  0  0  0  0  0  0
  149.4911  139.0383  154.2367 C   0  0  0  0  0  0  0  0  0  0  0  0
  151.6798  137.8376  154.4290 C   0  0  0  0  0  0  0  0  0  0  0  0
  149.5247  136.5545  154.6985 N   0  3  0  0  0  0  0  0  0  0  0  0
  150.1983  135.3353  155.2323 C   0  0  0  0  0  0  0  0  0  0  0  0
  149.4624  134.0591  154.7860 C   0  0  0  0  0  0  0  0  0  0  0  0
  148.1016  134.1118  155.1868 O   0  0  0  0  0  0  0  0  0  0  0  0
  147.4266  135.2110  154.5945 C   0  0  0  0  0  0  0  0  0  0  0  0
  148.0795  136.5189  155.0677 C   0  0  0  0  0  0  0  0  0  0  0  0
  152.3529  141.2033  159.5705 N   0  0  0  0  0  0  0  0  0  0  0  0
  153.9260  141.8431  162.4502 H   0  0  0  0  0  0  0  0  0  0  0  0
  154.2588  140.4555  161.4191 H   0  0  0  0  0  0  0  0  0  0  0  0
  152.7124  140.5826  162.2550 H   0  0  0  0  0  0  0  0  0  0  0  0
  153.2364  144.0854  160.9619 H   0  0  0  0  0  0  0  0  0  0  0  0
  152.1732  145.5452  158.8852 H   0  0  0  0  0  0  0  0  0  0  0  0
  150.8238  144.6900  158.1401 H   0  0  0  0  0  0  0  0  0  0  0  0
  152.4198  144.6527  157.3852 H   0  0  0  0  0  0  0  0  0  0  0  0
  150.2163  141.9826  157.5359 H   0  0  0  0  0  0  0  0  0  0  0  0
  151.6826  142.2760  156.6215 H   0  0  0  0  0  0  0  0  0  0  0  0
  149.4488  140.1262  156.7569 H   0  0  0  0  0  0  0  0  0  0  0  0
  150.9673  137.6154  157.0157 H   0  0  0  0  0  0  0  0  0  0  0  0
  149.2480  137.8014  156.9002 H   0  0  0  0  0  0  0  0  0  0  0  0
  149.9226  140.0071  154.4881 H   0  0  0  0  0  0  0  0  0  0  0  0
  148.4356  139.0758  154.5082 H   0  0  0  0  0  0  0  0  0  0  0  0
  149.5610  138.9655  153.1513 H   0  0  0  0  0  0  0  0  0  0  0  0
  152.1445  138.8227  154.4802 H   0  0  0  0  0  0  0  0  0  0  0  0
  151.7290  137.5210  153.3872 H   0  0  0  0  0  0  0  0  0  0  0  0
  152.3090  137.1652  155.0126 H   0  0  0  0  0  0  0  0  0  0  0  0
  151.2210  135.2488  154.8692 H   0  0  0  0  0  0  0  0  0  0  0  0
  150.2410  135.3800  156.3211 H   0  0  0  0  0  0  0  0  0  0  0  0
  149.5283  133.9311  153.7042 H   0  0  0  0  0  0  0  0  0  0  0  0
  149.9274  133.1821  155.2366 H   0  0  0  0  0  0  0  0  0  0  0  0
  147.4473  135.1312  153.5063 H   0  0  0  0  0  0  0  0  0  0  0  0
  146.3795  135.1836  154.8960 H   0  0  0  0  0  0  0  0  0  0  0  0
  147.9655  136.5930  156.1498 H   0  0  0  0  0  0  0  0  0  0  0  0
  147.5309  137.3517  154.6338 H   0  0  0  0  0  0  0  0  0  0  0  0
  149.5517  136.4408  153.6951 H   0  0  0  0  0  0  0  0  0  0  0  0
  1  2  1  0  0  0  0
  1 22  1  0  0  0  0
  1 23  1  0  0  0  0
  1 24  1  0  0  0  0
  2 21  2  0  0  0  0
  2  3  1  0  0  0  0
  3  4  2  0  0  0  0
  3 25  1  0  0  0  0
  4  5  1  0  0  0  0
  4  6  1  0  0  0  0
  5 26  1  0  0  0  0
  5 27  1  0  0  0  0
  5 28  1  0  0  0  0
  6  7  1  0  0  0  0
  6 21  1  0  0  0  0
  7  8  1  0  0  0  0
  7 29  1  0  0  0  0
  7 30  1  0  0  0  0
  8  9  2  0  0  0  0
  8 10  1  0  0  0  0
 10 11  1  0  0  0  0
 10 31  1  0  0  0  0
 11 12  1  0  0  0  0
 11 32  1  0  0  0  0
 11 33  1  0  0  0  0
 12 13  1  0  0  0  0
 12 14  1  0  0  0  0
 12 15  1  0  0  0  0
 13 34  1  0  0  0  0
 13 35  1  0  0  0  0
 13 36  1  0  0  0  0
 14 37  1  0  0  0  0
 14 38  1  0  0  0  0
 14 39  1  0  0  0  0
 15 20  1  0  0  0  0
 15 16  1  0  0  0  0
 15 48  1  0  0  0  0
 16 17  1  0  0  0  0
 16 40  1  0  0  0  0
 16 41  1  0  0  0  0
 17 18  1  0  0  0  0
 17 42  1  0  0  0  0
 17 43  1  0  0  0  0
 18 19  1  0  0  0  0
 19 20  1  0  0  0  0
 19 44  1  0  0  0  0
 19 45  1  0  0  0  0
 20 46  1  0  0  0  0
 20 47  1  0  0  0  0
M  CHG  1  15   1
M  END
> <s_m_source_file>
AV-unprocessed.smi

> <i_m_source_file_index>
1998

> <i_lp_mmshare_version>
43012

> <i_f3d_flags>
0

> <s_epik_input>
W0NIM11jMVtjSF1jKFtDSDNdKW4objEpW0NIMl1DKD1PKVtOSF1bQ0gyXUMoW0NIM10pKFtDSDNdKU4yW0NIMl1bQ0gyXU9bQ0gyXVtDSDJdMg==

> <s_epik_cmdline>
J2VwaWtfcHl0aG9uJywgJy1waCcsICc3LjAnLCAnLXRuJywgJzgnLCAnLW1hJywgJzIwMCcsICctbWV0YWxfYmluZGluZycsICctaW1hZScsICc8aW5maWxlLm1hZT4nLCAnLW9tYWUnLCAnPG91dGZpbGUubWFlPic=

> <r_lp_tautomer_probability>
1

> <r_epik_Ionization_Penalty>
0.748602

> <r_epik_Ionization_Penalty_Charging>
0.748396

> <r_epik_Ionization_Penalty_Neutral>
0.000205295

> <r_epik_State_Penalty>
0.775162

> <r_epik_Charging_Adjusted_Penalty>
1.52356

> <i_epik_Tot_Q>
1

> <i_epik_Tot_abs_Q>
1

> <r_epik_Metal_State_Penalty>
0.775274

> <b_epik_Metal_Only>
0

> <s_lp_Force_Field>
OPLS_2005

> <r_lp_Energy>
25.5475

> <b_lp_Chiralities_Consistent>
1

> <s_lp_Variant>
AV-unprocessed.smi:1998-2

> <Gold.Version>
5.8.1

> <Gold.Id.Protein>
6NUR|6NUR_protein|mol2

> <Gold.PLP.Fitness>
48.3860

> <Gold.PLP.PLP>
-41.1015

> <Gold.PLP.part.hbond>
-2.0000

> <Gold.PLP.part.metal>
0.0000

> <Gold.PLP.part.buried>
-5.2414

> <Gold.PLP.part.nonpolar>
-34.0852

> <Gold.PLP.part.repulsive>
0.0991

> <Gold.PLP.ligand.clash>
0.0000

> <Gold.PLP.ligand.torsion>
0.9116

> <Gold.PLP.Chemscore.Hbond>
3.0000

> <Gold.PLP.Chemscore.CHOScore>
0.0000

> <Gold.PLP.Chemscore.Metal>
0.0000

> <Gold.Chemscore.Hbonds>
donor molecule, donor type, donor heavy atom, donor atom, acceptor molecule, acceptor atom, score
      L1  H    15    48       P1  7948  2.00
      P1  H  7997  8010       L1     9  0.86

> <Gold.PLP.Chemscore.Internal.Correction>
0.1077

> <Gold.Rescore>
     Score         DG    S(hbond)    S(metal)    S(lipo)     H(rot)  DE(clash)    DE(int)     intcor
     17.35     -19.75       1.97        0.00     103.80       1.74       0.13       2.26       ----

> <Gold.Chemscore.Fitness>
17.3523

> <Gold.Chemscore.DG>
-19.7500

> <Gold.Chemscore.ZeroCoef>
-5.4800

> <Gold.Chemscore.Hbond>
1.9686

> <Gold.Chemscore.Metal>
0.0000

> <Gold.Chemscore.Lipo>
103.8034

> <Gold.Chemscore.Internal_Hbond>
0.0000

> <Gold.Chemscore.DEClash>
0.1343

> <Gold.Chemscore.DEInternal>
2.2634

> <Gold.Chemscore.Rot>
1.7383

> <Gold.Chemscore.Internal.Correction>
   9.000000E+99

> <Gold.Chemscore.Hbonds>
donor molecule, donor type, donor heavy atom, donor atom, acceptor molecule, acceptor atom, score
      L1  H    15    48       P1  7948  0.70
      P1  H  7997  8010       L1     9  0.81

> <Gold.Chemscore.Hbond.Weighted>
-6.5751

> <Gold.Chemscore.Metal.Weighted>
-0.0000

> <Gold.Chemscore.Lipo.Weighted>
-12.1450

> <Gold.Chemscore.Internal_Hbond.Weighted>
0.0000

> <Gold.Chemscore.DEClash.Weighted>
0.1343

> <Gold.Chemscore.DEInternal.Weighted>
2.2634

> <Gold.Chemscore.Rot.Weighted>
4.4501

> <Gold.Chemscore.Internal.Correction.Weighted>
   9.000000E+99

> <Gold.Protein.RotatedTorsions>
[ 6907 6896 6895 6894 ] final -132.65 input  -60.11 | X-H torsion
[ 7974 7965 7964 7962 ] final   32.16 input  175.53 | X-H torsion
[ 8008 7997 7996 7995 ] final   74.20 input   59.86 | X-H torsion
[ 10167 10162 10161 10158 ] final  166.50 input  -65.29 | X-H torsion
[ 10718 10713 10712 10709 ] final  -13.22 input   66.30 | X-H torsion
[ 10763 10752 10751 10750 ] final  153.85 input  -60.55 | X-H torsion
[ 11005 11000 10999 10996 ] final  -67.78 input  -57.11 | X-H torsion

> <Gold.Protein.ActiveResidues>
 VAL166  LYS551  ARG553  GLY616  TRP617  ASP618  TYR619  PRO620  LYS621  CYS622 
 ASP623  PHE694  ASN695  SER759  ASP760  ASP761  ALA762  ILE779  LEU786  VAL792 
 PHE793  MET794  SER795  GLU796  ALA797  LYS798  CYS799  TRP800  GLU811  SER814 

> <Gold.Protein.RotatedAtoms>
  150.9648  133.6406  159.2747 H   0  0  0  0  0  0  0  0  0  0  0  0  # atno 6907 bound_to 6896
  151.3716  135.0922  159.9477 H   0  0  0  0  0  0  0  0  0  0  0  0  # atno 6908 bound_to 6896
  152.5161  133.9201  159.7585 H   0  0  0  0  0  0  0  0  0  0  0  0  # atno 6909 bound_to 6896
  146.1504  139.6562  142.9103 H   0  0  0  0  0  0  0  0  0  0  0  0  # atno 7974 bound_to 7965
  155.7949  140.3478  155.5370 H   0  0  0  0  0  0  0  0  0  0  0  0  # atno 8008 bound_to 7997
  155.8597  140.0969  157.1642 H   0  0  0  0  0  0  0  0  0  0  0  0  # atno 8009 bound_to 7997
  154.4011  140.1361  156.3932 H   0  0  0  0  0  0  0  0  0  0  0  0  # atno 8010 bound_to 7997
  139.4926  144.4021  151.9397 H   0  0  0  0  0  0  0  0  0  0  0  0  # atno 10167 bound_to 10162
  156.6333  130.4907  149.6121 H   0  0  0  0  0  0  0  0  0  0  0  0  # atno 10718 bound_to 10713
  154.1428  135.2820  155.3156 H   0  0  0  0  0  0  0  0  0  0  0  0  # atno 10763 bound_to 10752
  154.6274  135.5447  153.7645 H   0  0  0  0  0  0  0  0  0  0  0  0  # atno 10764 bound_to 10752
  153.0245  135.6454  154.1575 H   0  0  0  0  0  0  0  0  0  0  0  0  # atno 10765 bound_to 10752
  141.1516  133.6726  156.6345 H   0  0  0  0  0  0  0  0  0  0  0  0  # atno 11005 bound_to 11000
  145.4837  141.0438  143.2631 LP  0  0  0  0  0  0  0  0  0  0  0  0  # atno 17320 bound_to 7965
  144.7897  139.6354  143.7119 LP  0  0  0  0  0  0  0  0  0  0  0  0  # atno 17321 bound_to 7965
  140.3460  144.3146  150.5958 LP  0  0  0  0  0  0  0  0  0  0  0  0  # atno 17342 bound_to 10162
  140.5525  143.2204  151.7903 LP  0  0  0  0  0  0  0  0  0  0  0  0  # atno 17343 bound_to 10162
  156.2217  130.6741  151.1375 LP  0  0  0  0  0  0  0  0  0  0  0  0  # atno 17370 bound_to 10713
  157.7193  131.0691  150.6200 LP  0  0  0  0  0  0  0  0  0  0  0  0  # atno 17371 bound_to 10713
  140.3441  134.7824  157.4419 LP  0  0  0  0  0  0  0  0  0  0  0  0  # atno 17394 bound_to 11000
  140.0914  134.5596  155.8441 LP  0  0  0  0  0  0  0  0  0  0  0  0  # atno 17395 bound_to 11000

$$$$
