AV-unprocessed.smi:1419|AV-procd|sdf|5785|dock8
  -GOLD-   22720 5433D 1   1.00000     0.00000
 Structure written by MMmdl.
 41 42  0  0  0  0  0  0  0  0  1 V2000
  148.8843  140.6581  157.0915 C   0  0  0  0  0  0  0  0  0  0  0  0
  150.2226  140.9075  156.3770 C   0  0  1  0  0  0  0  0  0  0  0  0
  150.0567  141.5641  154.9885 C   0  0  0  0  0  0  0  0  0  0  0  0
  148.7354  141.3607  154.4253 N   0  0  0  0  0  0  0  0  0  0  0  0
  148.3601  140.4111  153.4841 C   0  0  0  0  0  0  0  0  0  0  0  0
  147.0148  140.5940  153.2567 C   0  0  0  0  0  0  0  0  0  0  0  0
  146.5438  141.6408  154.0459 N   0  0  0  0  0  0  0  0  0  0  0  0
  147.6183  142.0430  154.7122 C   0  0  0  0  0  0  0  0  0  0  0  0
  151.0674  141.7382  157.2293 N   0  0  0  0  0  0  0  0  0  0  0  0
  151.3382  141.5113  158.5259 C   0  0  0  0  0  0  0  0  0  0  0  0
  150.8736  140.5456  159.1335 O   0  0  0  0  0  0  0  0  0  0  0  0
  152.1617  142.4228  159.1004 N   0  0  0  0  0  0  0  0  0  0  0  0
  152.8264  142.3175  160.4061 C   0  0  0  0  0  0  0  0  0  0  0  0
  152.1738  143.3341  161.3622 C   0  0  1  0  0  0  0  0  0  0  0  0
  152.8498  143.3478  162.7375 C   0  0  0  0  0  0  0  0  0  0  0  0
  152.2789  144.6476  160.8062 O   0  0  0  0  0  0  0  0  0  0  0  0
  151.7491  144.8084  159.4860 C   0  0  2  0  0  0  0  0  0  0  0  0
  150.2093  144.8038  159.4948 C   0  0  0  0  0  0  0  0  0  0  0  0
  152.3740  143.7598  158.5409 C   0  0  0  0  0  0  0  0  0  0  0  0
  148.2557  139.9635  156.5339 H   0  0  0  0  0  0  0  0  0  0  0  0
  148.3247  141.5853  157.2189 H   0  0  0  0  0  0  0  0  0  0  0  0
  149.0427  140.2261  158.0802 H   0  0  0  0  0  0  0  0  0  0  0  0
  150.7092  139.9386  156.2496 H   0  0  0  0  0  0  0  0  0  0  0  0
  150.2434  142.6370  155.0527 H   0  0  0  0  0  0  0  0  0  0  0  0
  150.7869  141.1628  154.2841 H   0  0  0  0  0  0  0  0  0  0  0  0
  149.0617  139.7059  153.0634 H   0  0  0  0  0  0  0  0  0  0  0  0
  146.3546  140.0562  152.5924 H   0  0  0  0  0  0  0  0  0  0  0  0
  147.5934  142.8553  155.4241 H   0  0  0  0  0  0  0  0  0  0  0  0
  151.4844  142.5508  156.7991 H   0  0  0  0  0  0  0  0  0  0  0  0
  152.7889  141.3191  160.8418 H   0  0  0  0  0  0  0  0  0  0  0  0
  153.8874  142.5424  160.2861 H   0  0  0  0  0  0  0  0  0  0  0  0
  151.1226  143.0807  161.5033 H   0  0  0  0  0  0  0  0  0  0  0  0
  152.7880  142.3701  163.2156 H   0  0  0  0  0  0  0  0  0  0  0  0
  152.3718  144.0714  163.3981 H   0  0  0  0  0  0  0  0  0  0  0  0
  153.9037  143.6157  162.6571 H   0  0  0  0  0  0  0  0  0  0  0  0
  152.0649  145.7953  159.1468 H   0  0  0  0  0  0  0  0  0  0  0  0
  149.8171  145.0182  158.5004 H   0  0  0  0  0  0  0  0  0  0  0  0
  149.8236  145.5655  160.1725 H   0  0  0  0  0  0  0  0  0  0  0  0
  149.7970  143.8441  159.8049 H   0  0  0  0  0  0  0  0  0  0  0  0
  153.4460  143.9386  158.4462 H   0  0  0  0  0  0  0  0  0  0  0  0
  151.9672  143.8709  157.5348 H   0  0  0  0  0  0  0  0  0  0  0  0
  1  2  1  0  0  0  0
  1 20  1  0  0  0  0
  1 21  1  0  0  0  0
  1 22  1  0  0  0  0
  2  3  1  0  0  0  0
  2  9  1  0  0  0  0
  2 23  1  0  0  0  0
  3  4  1  0  0  0  0
  3 24  1  0  0  0  0
  3 25  1  0  0  0  0
  4  8  1  0  0  0  0
  4  5  1  0  0  0  0
  5  6  2  0  0  0  0
  5 26  1  0  0  0  0
  6  7  1  0  0  0  0
  6 27  1  0  0  0  0
  7  8  2  0  0  0  0
  8 28  1  0  0  0  0
  9 10  1  0  0  0  0
  9 29  1  0  0  0  0
 10 11  2  0  0  0  0
 10 12  1  0  0  0  0
 12 19  1  0  0  0  0
 12 13  1  0  0  0  0
 13 14  1  0  0  0  0
 13 30  1  0  0  0  0
 13 31  1  0  0  0  0
 14 15  1  0  0  0  0
 14 16  1  0  0  0  0
 14 32  1  0  0  0  0
 15 33  1  0  0  0  0
 15 34  1  0  0  0  0
 15 35  1  0  0  0  0
 16 17  1  0  0  0  0
 17 18  1  0  0  0  0
 17 19  1  0  0  0  0
 17 36  1  0  0  0  0
 18 37  1  0  0  0  0
 18 38  1  0  0  0  0
 18 39  1  0  0  0  0
 19 40  1  0  0  0  0
 19 41  1  0  0  0  0
M  END
> <s_m_source_file>
AV-unprocessed.smi

> <i_m_source_file_index>
1419

> <i_lp_mmshare_version>
43012

> <i_f3d_flags>
0

> <s_epik_input>
W2NIXTFuW2NIXVtjSF1uMVtDSDJdW0NAQEhdKFtDSDNdKVtOSF1DKD1PKU4yW0NIMl1bQ0BASF0oW0NIM10pT1tDQEBIXShbQ0gzXSlbQ0gyXTI=

> <s_epik_cmdline>
J2VwaWtfcHl0aG9uJywgJy1waCcsICc3LjAnLCAnLXRuJywgJzgnLCAnLW1hJywgJzIwMCcsICctbWV0YWxfYmluZGluZycsICctaW1hZScsICc8aW5maWxlLm1hZT4nLCAnLW9tYWUnLCAnPG91dGZpbGUubWFlPic=

> <r_lp_tautomer_probability>
1

> <r_epik_Ionization_Penalty>
0.625124

> <r_epik_Ionization_Penalty_Charging>
0.625093

> <r_epik_Ionization_Penalty_Neutral>
3.17415e-05

> <r_epik_State_Penalty>
0.641455

> <r_epik_Charging_Adjusted_Penalty>
1.26655

> <i_epik_Tot_Q>
0

> <i_epik_Tot_abs_Q>
0

> <r_epik_Metal_State_Penalty>
0.307717

> <b_epik_Metal_Only>
0

> <s_lp_Force_Field>
OPLS_2005

> <r_lp_Energy>
31.3243

> <b_lp_Chiralities_Consistent>
1

> <s_lp_Variant>
AV-unprocessed.smi:1419-12

> <Gold.Version>
5.8.1

> <Gold.Id.Protein>
6NUR|6NUR_protein|mol2

> <Gold.PLP.Fitness>
46.5426

> <Gold.PLP.PLP>
-40.5473

> <Gold.PLP.part.hbond>
0.0000

> <Gold.PLP.part.metal>
0.0000

> <Gold.PLP.part.buried>
-0.8410

> <Gold.PLP.part.nonpolar>
-39.2345

> <Gold.PLP.part.repulsive>
0.3504

> <Gold.PLP.ligand.clash>
0.3179

> <Gold.PLP.ligand.torsion>
0.9771

> <Gold.PLP.Chemscore.Hbond>
0.0000

> <Gold.PLP.Chemscore.CHOScore>
2.7441

> <Gold.PLP.Chemscore.Metal>
0.0000

> <Gold.Chemscore.Hbonds>
donor molecule, donor type, donor heavy atom, donor atom, acceptor molecule, acceptor atom, score
      L1  C     5    26       P1  7957  0.68
      L1  C     6    27       P1 10175  0.50
      L1  C     8    28       P1  8028  1.00

> <Gold.PLP.Chemscore.Internal.Correction>
0.0350

> <Gold.Rescore>
     Score         DG    S(hbond)    S(metal)    S(lipo)     H(rot)  DE(clash)    DE(int)     intcor
     10.29     -12.99       0.00        0.00      98.66       1.58       0.26       2.43       ----

> <Gold.Chemscore.Fitness>
10.2888

> <Gold.Chemscore.DG>
-12.9865

> <Gold.Chemscore.ZeroCoef>
-5.4800

> <Gold.Chemscore.Hbond>
0.0000

> <Gold.Chemscore.Metal>
0.0000

> <Gold.Chemscore.Lipo>
98.6615

> <Gold.Chemscore.Internal_Hbond>
0.0000

> <Gold.Chemscore.DEClash>
0.2641

> <Gold.Chemscore.DEInternal>
2.4336

> <Gold.Chemscore.Rot>
1.5769

> <Gold.Chemscore.Internal.Correction>
   9.000000E+99

> <Gold.Chemscore.Hbond.Weighted>
-0.0000

> <Gold.Chemscore.Metal.Weighted>
-0.0000

> <Gold.Chemscore.Lipo.Weighted>
-11.5434

> <Gold.Chemscore.Internal_Hbond.Weighted>
0.0000

> <Gold.Chemscore.DEClash.Weighted>
0.2641

> <Gold.Chemscore.DEInternal.Weighted>
2.4336

> <Gold.Chemscore.Rot.Weighted>
4.0369

> <Gold.Chemscore.Internal.Correction.Weighted>
   9.000000E+99

> <Gold.Protein.RotatedTorsions>
[ 6907 6896 6895 6894 ] final  -54.40 input  -60.11 | X-H torsion
[ 7974 7965 7964 7962 ] final  -62.17 input  175.53 | X-H torsion
[ 8008 7997 7996 7995 ] final -161.11 input   59.86 | X-H torsion
[ 10167 10162 10161 10158 ] final   34.81 input  -65.29 | X-H torsion
[ 10718 10713 10712 10709 ] final  -95.07 input   66.30 | X-H torsion
[ 10763 10752 10751 10750 ] final -171.41 input  -60.55 | X-H torsion
[ 11005 11000 10999 10996 ] final  109.45 input  -57.11 | X-H torsion

> <Gold.Protein.ActiveResidues>
 VAL166  LYS551  ARG553  GLY616  TRP617  ASP618  TYR619  PRO620  LYS621  CYS622 
 ASP623  PHE694  ASN695  SER759  ASP760  ASP761  ALA762  ILE779  LEU786  VAL792 
 PHE793  MET794  SER795  GLU796  ALA797  LYS798  CYS799  TRP800  GLU811  SER814 

> <Gold.Protein.RotatedAtoms>
  150.8342  134.7608  159.6878 H   0  0  0  0  0  0  0  0  0  0  0  0  # atno 6907 bound_to 6896
  152.4441  134.5527  159.9881 H   0  0  0  0  0  0  0  0  0  0  0  0  # atno 6908 bound_to 6896
  151.5681  133.3356  159.3020 H   0  0  0  0  0  0  0  0  0  0  0  0  # atno 6909 bound_to 6896
  145.7946  140.8690  143.0263 H   0  0  0  0  0  0  0  0  0  0  0  0  # atno 7974 bound_to 7965
  155.7874  140.0873  157.2027 H   0  0  0  0  0  0  0  0  0  0  0  0  # atno 8008 bound_to 7997
  154.3987  140.1496  156.3181 H   0  0  0  0  0  0  0  0  0  0  0  0  # atno 8009 bound_to 7997
  155.8593  140.3431  155.5748 H   0  0  0  0  0  0  0  0  0  0  0  0  # atno 8010 bound_to 7997
  140.4280  144.1365  150.6156 H   0  0  0  0  0  0  0  0  0  0  0  0  # atno 10167 bound_to 10162
  156.0037  130.5094  150.6021 H   0  0  0  0  0  0  0  0  0  0  0  0  # atno 10718 bound_to 10713
  154.6307  135.2886  155.0219 H   0  0  0  0  0  0  0  0  0  0  0  0  # atno 10763 bound_to 10752
  154.1381  135.6523  153.4940 H   0  0  0  0  0  0  0  0  0  0  0  0  # atno 10764 bound_to 10752
  153.0278  135.5326  154.7134 H   0  0  0  0  0  0  0  0  0  0  0  0  # atno 10765 bound_to 10752
  139.8862  134.9458  156.6128 H   0  0  0  0  0  0  0  0  0  0  0  0  # atno 11005 bound_to 11000
  144.6777  140.0172  143.7484 LP  0  0  0  0  0  0  0  0  0  0  0  0  # atno 17320 bound_to 7965
  145.9941  139.3038  143.0967 LP  0  0  0  0  0  0  0  0  0  0  0  0  # atno 17321 bound_to 7965
  140.4459  143.2507  151.9412 LP  0  0  0  0  0  0  0  0  0  0  0  0  # atno 17342 bound_to 10162
  139.4784  144.5609  151.8240 LP  0  0  0  0  0  0  0  0  0  0  0  0  # atno 17343 bound_to 10162
  157.3868  131.0789  151.1429 LP  0  0  0  0  0  0  0  0  0  0  0  0  # atno 17370 bound_to 10713
  157.2133  130.6448  149.5782 LP  0  0  0  0  0  0  0  0  0  0  0  0  # atno 17371 bound_to 10713
  140.7799  133.8669  155.8559 LP  0  0  0  0  0  0  0  0  0  0  0  0  # atno 17394 bound_to 11000
  140.9769  134.1456  157.4528 LP  0  0  0  0  0  0  0  0  0  0  0  0  # atno 17395 bound_to 11000

$$$$
