AV-unprocessed.smi:2567|AV-procd|sdf|10080|dock2
  -GOLD-   2272014103D 1   1.00000     0.00000
 Structure written by MMmdl.
 33 34  0  0  0  0  0  0  0  0  1 V2000
  150.6785  144.3302  159.5406 C   0  0  0  0  0  0  0  0  0  0  0  0
  151.9446  143.6599  158.9724 C   0  0  0  0  0  0  0  0  0  0  0  0
  152.8762  144.7312  158.3736 C   0  0  0  0  0  0  0  0  0  0  0  0
  152.6860  142.9740  160.1416 C   0  0  0  0  0  0  0  0  0  0  0  0
  151.5576  142.6699  157.8995 C   0  0  0  0  0  0  0  0  0  0  0  0
  150.7874  142.9798  156.8506 N   0  0  0  0  0  0  0  0  0  0  0  0
  150.5973  141.8852  156.0854 N   0  0  0  0  0  0  0  0  0  0  0  0
  151.2985  140.9631  156.7418 C   0  0  0  0  0  0  0  0  0  0  0  0
  151.3362  139.5441  156.2658 C   0  0  2  0  0  0  0  0  0  0  0  0
  152.7618  138.9593  156.2986 C   0  0  0  0  0  0  0  0  0  0  0  0
  152.7696  137.6112  155.7324 N   0  0  0  0  0  0  0  0  0  0  0  0
  152.1990  137.6008  154.3860 C   0  0  0  0  0  0  0  0  0  0  0  0
  150.7908  138.2228  154.3949 C   0  0  0  0  0  0  0  0  0  0  0  0
  150.8543  139.5430  154.9238 O   0  0  0  0  0  0  0  0  0  0  0  0
  151.9042  141.3847  157.8941 N   0  0  0  0  0  0  0  0  0  0  0  0
  150.9250  145.0456  160.3258 H   0  0  0  0  0  0  0  0  0  0  0  0
  149.9986  143.5924  159.9684 H   0  0  0  0  0  0  0  0  0  0  0  0
  150.1307  144.8721  158.7688 H   0  0  0  0  0  0  0  0  0  0  0  0
  152.3886  145.2798  157.5668 H   0  0  0  0  0  0  0  0  0  0  0  0
  153.7825  144.2831  157.9644 H   0  0  0  0  0  0  0  0  0  0  0  0
  153.1798  145.4603  159.1255 H   0  0  0  0  0  0  0  0  0  0  0  0
  152.9542  143.6929  160.9169 H   0  0  0  0  0  0  0  0  0  0  0  0
  153.6104  142.5003  159.8087 H   0  0  0  0  0  0  0  0  0  0  0  0
  152.0694  142.2071  160.6118 H   0  0  0  0  0  0  0  0  0  0  0  0
  150.6686  138.9464  156.8902 H   0  0  0  0  0  0  0  0  0  0  0  0
  153.4368  139.6014  155.7308 H   0  0  0  0  0  0  0  0  0  0  0  0
  153.1367  138.9378  157.3221 H   0  0  0  0  0  0  0  0  0  0  0  0
  152.8414  138.1622  153.7063 H   0  0  0  0  0  0  0  0  0  0  0  0
  152.1559  136.5801  154.0057 H   0  0  0  0  0  0  0  0  0  0  0  0
  150.3953  138.2693  153.3802 H   0  0  0  0  0  0  0  0  0  0  0  0
  150.0981  137.6144  154.9785 H   0  0  0  0  0  0  0  0  0  0  0  0
  153.7221  137.2616  155.7006 H   0  0  0  0  0  0  0  0  0  0  0  0
  150.3849  143.8801  156.6331 H   0  0  0  0  0  0  0  0  0  0  0  0
  1  2  1  0  0  0  0
  1 16  1  0  0  0  0
  1 17  1  0  0  0  0
  1 18  1  0  0  0  0
  2  3  1  0  0  0  0
  2  4  1  0  0  0  0
  2  5  1  0  0  0  0
  3 19  1  0  0  0  0
  3 20  1  0  0  0  0
  3 21  1  0  0  0  0
  4 22  1  0  0  0  0
  4 23  1  0  0  0  0
  4 24  1  0  0  0  0
  5 15  2  0  0  0  0
  5  6  1  0  0  0  0
  6  7  1  0  0  0  0
  6 33  1  0  0  0  0
  7  8  2  0  0  0  0
  8  9  1  0  0  0  0
  8 15  1  0  0  0  0
  9 14  1  0  0  0  0
  9 10  1  0  0  0  0
  9 25  1  0  0  0  0
 10 11  1  0  0  0  0
 10 26  1  0  0  0  0
 10 27  1  0  0  0  0
 11 12  1  0  0  0  0
 11 32  1  0  0  0  0
 12 13  1  0  0  0  0
 12 28  1  0  0  0  0
 12 29  1  0  0  0  0
 13 14  1  0  0  0  0
 13 30  1  0  0  0  0
 13 31  1  0  0  0  0
M  END
> <s_m_source_file>
AV-unprocessed.smi

> <i_m_source_file_index>
2567

> <i_lp_mmshare_version>
43012

> <i_f3d_flags>
0

> <s_epik_input>
W0NIM11DKFtDSDNdKShbQ0gzXSljMW5bbkhdYyhuMSlbQ0BASF0yW0NIMl1bTkhdW0NIMl1bQ0gyXU8y

> <s_epik_cmdline>
J2VwaWtfcHl0aG9uJywgJy1waCcsICc3LjAnLCAnLXRuJywgJzgnLCAnLW1hJywgJzIwMCcsICctbWV0YWxfYmluZGluZycsICctaW1hZScsICc8aW5maWxlLm1hZT4nLCAnLW9tYWUnLCAnPG91dGZpbGUubWFlPic=

> <r_lp_tautomer_probability>
0.948284

> <r_epik_Ionization_Penalty>
1.10045

> <r_epik_Ionization_Penalty_Charging>
0

> <r_epik_Ionization_Penalty_Neutral>
1.10045

> <r_epik_State_Penalty>
1.2625

> <r_epik_Charging_Adjusted_Penalty>
1.2625

> <i_epik_Tot_Q>
0

> <i_epik_Tot_abs_Q>
0

> <r_epik_Metal_State_Penalty>
1.57133

> <b_epik_Metal_Only>
0

> <s_lp_Force_Field>
OPLS_2005

> <r_lp_Energy>
14.8987

> <b_lp_Chiralities_Consistent>
1

> <s_lp_Variant>
AV-unprocessed.smi:2567-5

> <Gold.Version>
5.8.1

> <Gold.Id.Protein>
6NUR|6NUR_protein|mol2

> <Gold.PLP.Fitness>
37.5528

> <Gold.PLP.PLP>
-33.0042

> <Gold.PLP.part.hbond>
-3.0000

> <Gold.PLP.part.metal>
0.0000

> <Gold.PLP.part.buried>
-4.0120

> <Gold.PLP.part.nonpolar>
-26.8316

> <Gold.PLP.part.repulsive>
0.3384

> <Gold.PLP.ligand.clash>
0.0000

> <Gold.PLP.ligand.torsion>
0.4355

> <Gold.PLP.Chemscore.Hbond>
1.8000

> <Gold.PLP.Chemscore.CHOScore>
0.0000

> <Gold.PLP.Chemscore.Metal>
0.0000

> <Gold.Chemscore.Hbonds>
donor molecule, donor type, donor heavy atom, donor atom, acceptor molecule, acceptor atom, score
      L1  H     6    33       P1  8028  0.86
      P1  H  7989  7998       L1    14  0.83

> <Gold.PLP.Chemscore.Internal.Correction>
0.0195

> <Gold.Rescore>
     Score         DG    S(hbond)    S(metal)    S(lipo)     H(rot)  DE(clash)    DE(int)     intcor
     16.56     -17.72       1.91        0.00      77.29       1.25       0.84       0.32       ----

> <Gold.Chemscore.Fitness>
16.5563

> <Gold.Chemscore.DG>
-17.7212

> <Gold.Chemscore.ZeroCoef>
-5.4800

> <Gold.Chemscore.Hbond>
1.9119

> <Gold.Chemscore.Metal>
0.0000

> <Gold.Chemscore.Lipo>
77.2871

> <Gold.Chemscore.Internal_Hbond>
0.0000

> <Gold.Chemscore.DEClash>
0.8448

> <Gold.Chemscore.DEInternal>
0.3202

> <Gold.Chemscore.Rot>
1.2450

> <Gold.Chemscore.Internal.Correction>
   9.000000E+99

> <Gold.Chemscore.Hbonds>
donor molecule, donor type, donor heavy atom, donor atom, acceptor molecule, acceptor atom, score
      L1  H     6    33       P1  8028  0.84
      P1  H  7989  7998       L1    14  0.60

> <Gold.Chemscore.Hbond.Weighted>
-6.3858

> <Gold.Chemscore.Metal.Weighted>
-0.0000

> <Gold.Chemscore.Lipo.Weighted>
-9.0426

> <Gold.Chemscore.Internal_Hbond.Weighted>
0.0000

> <Gold.Chemscore.DEClash.Weighted>
0.8448

> <Gold.Chemscore.DEInternal.Weighted>
0.3202

> <Gold.Chemscore.Rot.Weighted>
3.1872

> <Gold.Chemscore.Internal.Correction.Weighted>
   9.000000E+99

> <Gold.Protein.RotatedTorsions>
[ 6907 6896 6895 6894 ] final  -22.14 input  -60.11 | X-H torsion
[ 7974 7965 7964 7962 ] final  -71.83 input  175.53 | X-H torsion
[ 8008 7997 7996 7995 ] final -157.48 input   59.86 | X-H torsion
[ 10167 10162 10161 10158 ] final  -29.87 input  -65.29 | X-H torsion
[ 10718 10713 10712 10709 ] final   84.62 input   66.30 | X-H torsion
[ 10763 10752 10751 10750 ] final -175.73 input  -60.55 | X-H torsion
[ 11005 11000 10999 10996 ] final   32.95 input  -57.11 | X-H torsion

> <Gold.Protein.ActiveResidues>
 VAL166  LYS551  ARG553  GLY616  TRP617  ASP618  TYR619  PRO620  LYS621  CYS622 
 ASP623  PHE694  ASN695  SER759  ASP760  ASP761  ALA762  ILE779  LEU786  VAL792 
 PHE793  MET794  SER795  GLU796  ALA797  LYS798  CYS799  TRP800  GLU811  SER814 

> <Gold.Protein.RotatedAtoms>
  151.2230  135.0526  159.8957 H   0  0  0  0  0  0  0  0  0  0  0  0  # atno 6907 bound_to 6896
  152.5413  134.0619  159.8166 H   0  0  0  0  0  0  0  0  0  0  0  0  # atno 6908 bound_to 6896
  151.0788  133.5358  159.2653 H   0  0  0  0  0  0  0  0  0  0  0  0  # atno 6909 bound_to 6896
  145.6730  140.9214  143.0873 H   0  0  0  0  0  0  0  0  0  0  0  0  # atno 7974 bound_to 7965
  155.7330  140.0804  157.2280 H   0  0  0  0  0  0  0  0  0  0  0  0  # atno 8008 bound_to 7997
  154.4030  140.1592  156.2585 H   0  0  0  0  0  0  0  0  0  0  0  0  # atno 8009 bound_to 7997
  155.9091  140.3405  155.6088 H   0  0  0  0  0  0  0  0  0  0  0  0  # atno 8010 bound_to 7997
  140.7256  143.3894  151.1457 H   0  0  0  0  0  0  0  0  0  0  0  0  # atno 10167 bound_to 10162
  157.6901  131.0141  150.2700 H   0  0  0  0  0  0  0  0  0  0  0  0  # atno 10718 bound_to 10713
  154.5809  135.2836  155.0734 H   0  0  0  0  0  0  0  0  0  0  0  0  # atno 10763 bound_to 10752
  154.2070  135.6414  153.5108 H   0  0  0  0  0  0  0  0  0  0  0  0  # atno 10764 bound_to 10752
  153.0088  135.5482  154.6463 H   0  0  0  0  0  0  0  0  0  0  0  0  # atno 10765 bound_to 10752
  140.2682  134.3113  155.7836 H   0  0  0  0  0  0  0  0  0  0  0  0  # atno 11005 bound_to 11000
  144.7050  139.8597  143.7432 LP  0  0  0  0  0  0  0  0  0  0  0  0  # atno 17320 bound_to 7965
  146.1029  139.4026  143.0335 LP  0  0  0  0  0  0  0  0  0  0  0  0  # atno 17321 bound_to 7965
  139.7496  143.8798  152.3073 LP  0  0  0  0  0  0  0  0  0  0  0  0  # atno 17342 bound_to 10162
  139.8648  144.7099  150.9057 LP  0  0  0  0  0  0  0  0  0  0  0  0  # atno 17343 bound_to 10162
  156.3265  130.3794  149.7529 LP  0  0  0  0  0  0  0  0  0  0  0  0  # atno 17370 bound_to 10713
  156.5082  130.8160  151.3159 LP  0  0  0  0  0  0  0  0  0  0  0  0  # atno 17371 bound_to 10713
  141.2181  133.7450  156.9293 LP  0  0  0  0  0  0  0  0  0  0  0  0  # atno 17394 bound_to 11000
  140.1399  134.9300  157.2452 LP  0  0  0  0  0  0  0  0  0  0  0  0  # atno 17395 bound_to 11000

$$$$
