AV-unprocessed.smi:2597|AV-procd|sdf|10176|dock2
  -GOLD-   2272014193D 1   1.00000     0.00000
 Structure written by MMmdl.
 30 31  0  0  0  0  0  0  0  0  1 V2000
  153.3003  140.0370  158.6012 N   0  0  0  0  0  0  0  0  0  0  0  0
  152.4377  141.0822  159.1247 C   0  0  1  0  0  0  0  0  0  0  0  0
  153.1629  141.7677  160.2988 C   0  0  0  0  0  0  0  0  0  0  0  0
  152.3475  142.9456  160.8525 C   0  0  0  0  0  0  0  0  0  0  0  0
  152.0243  143.9611  159.7468 C   0  0  0  0  0  0  0  0  0  0  0  0
  151.2840  143.2891  158.5805 C   0  0  0  0  0  0  0  0  0  0  0  0
  152.0846  142.0996  158.0092 C   0  0  2  0  0  0  0  0  0  0  0  0
  151.3675  141.4823  156.9000 N   0  0  0  0  0  0  0  0  0  0  0  0
  150.1304  141.8223  156.3926 C   0  0  0  0  0  0  0  0  0  0  0  0
  149.9380  140.9203  155.3847 C   0  0  0  0  0  0  0  0  0  0  0  0
  148.7751  140.7727  154.4514 C   0  0  0  0  0  0  0  0  0  0  0  0
  149.1921  141.2719  153.1988 O   0  0  0  0  0  0  0  0  0  0  0  0
  151.0481  140.0796  155.3205 N   0  0  0  0  0  0  0  0  0  0  0  0
  151.8962  140.4226  156.2381 N   0  0  0  0  0  0  0  0  0  0  0  0
  151.5259  140.6147  159.4984 H   0  0  0  0  0  0  0  0  0  0  0  0
  153.0174  142.4968  157.6042 H   0  0  0  0  0  0  0  0  0  0  0  0
  153.9479  139.7448  159.3197 H   0  0  0  0  0  0  0  0  0  0  0  0
  152.7459  139.2252  158.3702 H   0  0  0  0  0  0  0  0  0  0  0  0
  153.3512  141.0470  161.0956 H   0  0  0  0  0  0  0  0  0  0  0  0
  154.1393  142.1310  159.9737 H   0  0  0  0  0  0  0  0  0  0  0  0
  151.4210  142.5752  161.2931 H   0  0  0  0  0  0  0  0  0  0  0  0
  152.8988  143.4342  161.6566 H   0  0  0  0  0  0  0  0  0  0  0  0
  151.4195  144.7724  160.1527 H   0  0  0  0  0  0  0  0  0  0  0  0
  152.9474  144.4143  159.3832 H   0  0  0  0  0  0  0  0  0  0  0  0
  150.3062  142.9514  158.9269 H   0  0  0  0  0  0  0  0  0  0  0  0
  151.0963  144.0227  157.7957 H   0  0  0  0  0  0  0  0  0  0  0  0
  149.5253  142.6310  156.7741 H   0  0  0  0  0  0  0  0  0  0  0  0
  148.4804  139.7282  154.3499 H   0  0  0  0  0  0  0  0  0  0  0  0
  147.9059  141.3333  154.7967 H   0  0  0  0  0  0  0  0  0  0  0  0
  149.2442  140.5502  152.5912 H   0  0  0  0  0  0  0  0  0  0  0  0
  1  2  1  0  0  0  0
  1 17  1  0  0  0  0
  1 18  1  0  0  0  0
  2 15  1  0  0  0  0
  2  7  1  0  0  0  0
  2  3  1  0  0  0  0
  3  4  1  0  0  0  0
  3 19  1  0  0  0  0
  3 20  1  0  0  0  0
  4  5  1  0  0  0  0
  4 21  1  0  0  0  0
  4 22  1  0  0  0  0
  5  6  1  0  0  0  0
  5 23  1  0  0  0  0
  5 24  1  0  0  0  0
  6  7  1  0  0  0  0
  6 25  1  0  0  0  0
  6 26  1  0  0  0  0
  7 16  1  0  0  0  0
  7  8  1  0  0  0  0
  8 14  1  0  0  0  0
  8  9  1  0  0  0  0
  9 10  2  0  0  0  0
  9 27  1  0  0  0  0
 10 11  1  0  0  0  0
 10 13  1  0  0  0  0
 11 12  1  0  0  0  0
 11 28  1  0  0  0  0
 11 29  1  0  0  0  0
 12 30  1  0  0  0  0
 13 14  2  0  0  0  0
M  END
> <s_m_source_file>
AV-unprocessed.smi

> <i_m_source_file_index>
2597

> <i_lp_mmshare_version>
43012

> <i_f3d_flags>
0

> <s_epik_input>
W05IMl1bQ0BIXTFbQ0gyXVtDSDJdW0NIMl1bQ0gyXVtDQEhdMW4yW2NIXWMobm4yKVtDSDJdW09IXQ==

> <s_epik_cmdline>
J2VwaWtfcHl0aG9uJywgJy1waCcsICc3LjAnLCAnLXRuJywgJzgnLCAnLW1hJywgJzIwMCcsICctbWV0YWxfYmluZGluZycsICctaW1hZScsICc8aW5maWxlLm1hZT4nLCAnLW9tYWUnLCAnPG91dGZpbGUubWFlPic=

> <r_lp_tautomer_probability>
1

> <r_epik_Ionization_Penalty>
2.21303

> <r_epik_Ionization_Penalty_Charging>
0

> <r_epik_Ionization_Penalty_Neutral>
2.21303

> <r_epik_State_Penalty>
2.3573

> <r_epik_Charging_Adjusted_Penalty>
2.3573

> <i_epik_Tot_Q>
0

> <i_epik_Tot_abs_Q>
0

> <r_epik_Metal_State_Penalty>
2.35724

> <b_epik_Metal_Only>
0

> <s_lp_Force_Field>
OPLS_2005

> <r_lp_Energy>
13.5857

> <b_lp_Chiralities_Consistent>
1

> <s_lp_Variant>
AV-unprocessed.smi:2597-7

> <Gold.Version>
5.8.1

> <Gold.Id.Protein>
6NUR|6NUR_protein|mol2

> <Gold.PLP.Fitness>
43.8436

> <Gold.PLP.PLP>
-30.7767

> <Gold.PLP.part.hbond>
-4.5388

> <Gold.PLP.part.metal>
0.0000

> <Gold.PLP.part.buried>
-3.1584

> <Gold.PLP.part.nonpolar>
-22.1614

> <Gold.PLP.part.repulsive>
0.0300

> <Gold.PLP.ligand.clash>
0.0000

> <Gold.PLP.ligand.torsion>
0.1952

> <Gold.PLP.Chemscore.Hbond>
3.5121

> <Gold.PLP.Chemscore.CHOScore>
0.9657

> <Gold.PLP.Chemscore.Metal>
0.0000

> <Gold.Chemscore.Hbonds>
donor molecule, donor type, donor heavy atom, donor atom, acceptor molecule, acceptor atom, score
      L1  H    12    30       P1  7957  0.94
      P1  H  7989  7998       L1    13  0.55
      P1  H  7997  8010       L1     1  0.94
      P1  H  8011  8017       L1    12  1.00
      L1  C     9    27       P1  8028  0.98

> <Gold.PLP.Chemscore.Internal.Correction>
0.0239

> <Gold.Rescore>
     Score         DG    S(hbond)    S(metal)    S(lipo)     H(rot)  DE(clash)    DE(int)     intcor
     14.01     -15.64       1.53        0.00      82.93       1.82       0.06       1.57       ----

> <Gold.Chemscore.Fitness>
14.0105

> <Gold.Chemscore.DG>
-15.6401

> <Gold.Chemscore.ZeroCoef>
-5.4800

> <Gold.Chemscore.Hbond>
1.5334

> <Gold.Chemscore.Metal>
0.0000

> <Gold.Chemscore.Lipo>
82.9347

> <Gold.Chemscore.Internal_Hbond>
0.0000

> <Gold.Chemscore.DEClash>
0.0580

> <Gold.Chemscore.DEInternal>
1.5716

> <Gold.Chemscore.Rot>
1.8222

> <Gold.Chemscore.Internal.Correction>
   9.000000E+99

> <Gold.Chemscore.Hbonds>
donor molecule, donor type, donor heavy atom, donor atom, acceptor molecule, acceptor atom, score
      L1  H    12    30       P1  7957  0.89
      P1  H  7989  7998       L1    13  0.03
      P1  H  7997  8010       L1     1  0.05
      P1  H  8011  8017       L1    12  0.24

> <Gold.Chemscore.Hbond.Weighted>
-5.1217

> <Gold.Chemscore.Metal.Weighted>
-0.0000

> <Gold.Chemscore.Lipo.Weighted>
-9.7034

> <Gold.Chemscore.Internal_Hbond.Weighted>
0.0000

> <Gold.Chemscore.DEClash.Weighted>
0.0580

> <Gold.Chemscore.DEInternal.Weighted>
1.5716

> <Gold.Chemscore.Rot.Weighted>
4.6649

> <Gold.Chemscore.Internal.Correction.Weighted>
   9.000000E+99

> <Gold.Protein.RotatedTorsions>
[ 6907 6896 6895 6894 ] final  176.23 input  -60.11 | X-H torsion
[ 7974 7965 7964 7962 ] final -150.20 input  175.53 | X-H torsion
[ 8008 7997 7996 7995 ] final   36.23 input   59.86 | X-H torsion
[ 10167 10162 10161 10158 ] final -171.32 input  -65.29 | X-H torsion
[ 10718 10713 10712 10709 ] final   49.59 input   66.30 | X-H torsion
[ 10763 10752 10751 10750 ] final   11.11 input  -60.55 | X-H torsion
[ 11005 11000 10999 10996 ] final    5.99 input  -57.11 | X-H torsion

> <Gold.Protein.ActiveResidues>
 VAL166  LYS551  ARG553  GLY616  TRP617  ASP618  TYR619  PRO620  LYS621  CYS622 
 ASP623  PHE694  ASN695  SER759  ASP760  ASP761  ALA762  ILE779  LEU786  VAL792 
 PHE793  MET794  SER795  GLU796  ALA797  LYS798  CYS799  TRP800  GLU811  SER814 

> <Gold.Protein.RotatedAtoms>
  151.7235  133.3315  159.3321 H   0  0  0  0  0  0  0  0  0  0  0  0  # atno 6907 bound_to 6896
  150.7643  134.6427  159.6255 H   0  0  0  0  0  0  0  0  0  0  0  0  # atno 6908 bound_to 6896
  152.3637  134.6837  160.0250 H   0  0  0  0  0  0  0  0  0  0  0  0  # atno 6909 bound_to 6896
  144.7922  140.4964  143.5765 H   0  0  0  0  0  0  0  0  0  0  0  0  # atno 7974 bound_to 7965
  155.1841  140.3302  155.4370 H   0  0  0  0  0  0  0  0  0  0  0  0  # atno 8008 bound_to 7997
  156.2466  140.1922  156.6888 H   0  0  0  0  0  0  0  0  0  0  0  0  # atno 8009 bound_to 7997
  154.6251  140.0590  156.9649 H   0  0  0  0  0  0  0  0  0  0  0  0  # atno 8010 bound_to 7997
  139.5809  144.1426  152.1513 H   0  0  0  0  0  0  0  0  0  0  0  0  # atno 10167 bound_to 10162
  157.4801  130.8310  149.8084 H   0  0  0  0  0  0  0  0  0  0  0  0  # atno 10718 bound_to 10713
  153.1960  135.6849  153.8291 H   0  0  0  0  0  0  0  0  0  0  0  0  # atno 10763 bound_to 10752
  153.7574  135.3215  155.3332 H   0  0  0  0  0  0  0  0  0  0  0  0  # atno 10764 bound_to 10752
  154.8145  135.4695  154.0705 H   0  0  0  0  0  0  0  0  0  0  0  0  # atno 10765 bound_to 10752
  140.5645  134.0160  155.7984 H   0  0  0  0  0  0  0  0  0  0  0  0  # atno 11005 bound_to 11000
  145.5765  139.1486  143.3259 LP  0  0  0  0  0  0  0  0  0  0  0  0  # atno 17320 bound_to 7965
  146.2178  140.5897  142.9031 LP  0  0  0  0  0  0  0  0  0  0  0  0  # atno 17321 bound_to 7965
  140.0979  144.5565  150.7009 LP  0  0  0  0  0  0  0  0  0  0  0  0  # atno 17342 bound_to 10162
  140.7087  143.2488  151.4647 LP  0  0  0  0  0  0  0  0  0  0  0  0  # atno 17343 bound_to 10162
  156.0117  130.3830  150.2242 LP  0  0  0  0  0  0  0  0  0  0  0  0  # atno 17370 bound_to 10713
  157.0428  131.0040  151.3278 LP  0  0  0  0  0  0  0  0  0  0  0  0  # atno 17371 bound_to 10713
  141.1094  133.9641  157.2938 LP  0  0  0  0  0  0  0  0  0  0  0  0  # atno 17394 bound_to 11000
  139.9391  135.0193  156.8652 LP  0  0  0  0  0  0  0  0  0  0  0  0  # atno 17395 bound_to 11000

$$$$
