AV-unprocessed.smi:711|AV-procd|sdf|3467|dock10
  -GOLD-   22720 0453D 1   1.00000     0.00000
 Structure written by MMmdl.
 28 29  0  0  0  0  0  0  0  0  2 V2000
  154.8690  134.6979  161.9780 O   0  0  0  0  0  0  0  0  0  0  0  0
  154.4647  135.7647  161.5178 C   0  0  0  0  0  0  0  0  0  0  0  0
  154.0801  135.9066  160.2157 N   0  5  0  0  0  0  0  0  0  0  0  0
  153.6242  137.0835  159.6856 C   0  0  0  0  0  0  0  0  0  0  0  0
  153.2845  137.1841  158.5067 O   0  0  0  0  0  0  0  0  0  0  0  0
  153.5432  138.1808  160.4952 N   0  0  0  0  0  0  0  0  0  0  0  0
  153.0679  139.4864  160.0153 C   0  0  0  0  0  0  0  0  0  0  0  0
  153.9263  140.6505  160.5535 C   0  0  1  0  0  0  0  0  0  0  0  0
  155.1501  140.6865  159.8452 O   0  0  0  0  0  0  0  0  0  0  0  0
  153.1748  141.9710  160.4364 C   0  0  0  0  0  0  0  0  0  0  0  0
  152.6534  142.3889  159.1909 C   0  0  0  0  0  0  0  0  0  0  0  0
  151.9454  143.6016  159.0851 C   0  0  0  0  0  0  0  0  0  0  0  0
  151.7493  144.4036  160.2250 C   0  0  0  0  0  0  0  0  0  0  0  0
  151.0671  145.5689  160.1248 F   0  0  0  0  0  0  0  0  0  0  0  0
  152.2597  143.9908  161.4702 C   0  0  0  0  0  0  0  0  0  0  0  0
  152.9677  142.7778  161.5785 C   0  0  0  0  0  0  0  0  0  0  0  0
  153.4412  142.3919  162.7880 F   0  0  0  0  0  0  0  0  0  0  0  0
  153.9320  138.0899  161.8426 C   0  0  0  0  0  0  0  0  0  0  0  0
  154.3845  136.9412  162.3812 C   0  0  0  0  0  0  0  0  0  0  0  0
  154.8582  136.8602  164.0407 Cl  0  0  0  0  0  0  0  0  0  0  0  0
  152.9821  139.5319  158.9281 H   0  0  0  0  0  0  0  0  0  0  0  0
  152.0444  139.6048  160.3750 H   0  0  0  0  0  0  0  0  0  0  0  0
  154.1689  140.4788  161.6026 H   0  0  0  0  0  0  0  0  0  0  0  0
  155.6155  141.4715  160.0895 H   0  0  0  0  0  0  0  0  0  0  0  0
  152.7905  141.7778  158.3106 H   0  0  0  0  0  0  0  0  0  0  0  0
  151.5508  143.9143  158.1297 H   0  0  0  0  0  0  0  0  0  0  0  0
  152.1052  144.6045  162.3452 H   0  0  0  0  0  0  0  0  0  0  0  0
  153.8435  139.0085  162.4047 H   0  0  0  0  0  0  0  0  0  0  0  0
  1  2  2  0  0  0  0
  2 19  1  0  0  0  0
  2  3  1  0  0  0  0
  3  4  1  0  0  0  0
  4  5  2  0  0  0  0
  4  6  1  0  0  0  0
  6  7  1  0  0  0  0
  6 18  1  0  0  0  0
  7  8  1  0  0  0  0
  7 21  1  0  0  0  0
  7 22  1  0  0  0  0
  8  9  1  0  0  0  0
  8 10  1  0  0  0  0
  8 23  1  0  0  0  0
  9 24  1  0  0  0  0
 10 16  1  0  0  0  0
 10 11  2  0  0  0  0
 11 12  1  0  0  0  0
 11 25  1  0  0  0  0
 12 13  2  0  0  0  0
 12 26  1  0  0  0  0
 13 14  1  0  0  0  0
 13 15  1  0  0  0  0
 15 16  2  0  0  0  0
 15 27  1  0  0  0  0
 16 17  1  0  0  0  0
 18 19  2  0  0  0  0
 18 28  1  0  0  0  0
 19 20  1  0  0  0  0
M  CHG  1   3  -1
M  END
> <s_m_source_file>
AV-unprocessed.smi

> <i_m_source_file_index>
711

> <i_lp_mmshare_version>
43012

> <i_f3d_flags>
0

> <s_epik_input>
Tz1jMVtuSF1jKD1PKW4oW2NIXWMxQ2wpW0NIMl1bQ0BIXShbT0hdKWMyW2NIXVtjSF1jKEYpW2NIXWMyRg==

> <s_epik_cmdline>
J2VwaWtfcHl0aG9uJywgJy1waCcsICc3LjAnLCAnLXRuJywgJzgnLCAnLW1hJywgJzIwMCcsICctbWV0YWxfYmluZGluZycsICctaW1hZScsICc8aW5maWxlLm1hZT4nLCAnLW9tYWUnLCAnPG91dGZpbGUubWFlPic=

> <r_epik_Ionization_Penalty>
1.7979

> <r_epik_Ionization_Penalty_Charging>
3.23819e-08

> <r_epik_Ionization_Penalty_Neutral>
1.7979

> <r_epik_State_Penalty>
1.91135

> <r_epik_Charging_Adjusted_Penalty>
1.91135

> <i_epik_Tot_Q>
-1

> <i_epik_Tot_abs_Q>
1

> <r_epik_Metal_State_Penalty>
0.014155

> <b_epik_Metal_Only>
0

> <s_lp_Force_Field>
OPLS_2005

> <r_lp_Energy>
21.7913

> <b_lp_Chiralities_Consistent>
1

> <s_lp_Variant>
AV-unprocessed.smi:711-4

> <Gold.Version>
5.8.1

> <Gold.Id.Protein>
6NUR|6NUR_protein|mol2

> <Gold.PLP.Fitness>
54.6513

> <Gold.PLP.PLP>
-49.5340

> <Gold.PLP.part.hbond>
-0.9732

> <Gold.PLP.part.metal>
0.0000

> <Gold.PLP.part.buried>
-5.2181

> <Gold.PLP.part.nonpolar>
-43.9257

> <Gold.PLP.part.repulsive>
0.0000

> <Gold.PLP.ligand.clash>
0.0000

> <Gold.PLP.ligand.torsion>
0.4463

> <Gold.PLP.Chemscore.Hbond>
2.0000

> <Gold.PLP.Chemscore.CHOScore>
0.0000

> <Gold.PLP.Chemscore.Metal>
0.0000

> <Gold.Chemscore.Hbonds>
donor molecule, donor type, donor heavy atom, donor atom, acceptor molecule, acceptor atom, score
      P1  H  6896  6907       L1     3  1.92

> <Gold.PLP.Chemscore.Internal.Correction>
0.0100

> <Gold.Rescore>
     Score         DG    S(hbond)    S(metal)    S(lipo)     H(rot)  DE(clash)    DE(int)     intcor
     14.25     -14.94       0.92        0.00     105.26       2.32       0.01       0.69       ----

> <Gold.Chemscore.Fitness>
14.2464

> <Gold.Chemscore.DG>
-14.9437

> <Gold.Chemscore.ZeroCoef>
-5.4800

> <Gold.Chemscore.Hbond>
0.9215

> <Gold.Chemscore.Metal>
0.0000

> <Gold.Chemscore.Lipo>
105.2640

> <Gold.Chemscore.Internal_Hbond>
0.0000

> <Gold.Chemscore.DEClash>
0.0105

> <Gold.Chemscore.DEInternal>
0.6868

> <Gold.Chemscore.Rot>
2.3164

> <Gold.Chemscore.Internal.Correction>
   9.000000E+99

> <Gold.Chemscore.Hbonds>
donor molecule, donor type, donor heavy atom, donor atom, acceptor molecule, acceptor atom, score
      P1  H  6896  6907       L1     3  0.14

> <Gold.Chemscore.Hbond.Weighted>
-3.0779

> <Gold.Chemscore.Metal.Weighted>
-0.0000

> <Gold.Chemscore.Lipo.Weighted>
-12.3159

> <Gold.Chemscore.Internal_Hbond.Weighted>
0.0000

> <Gold.Chemscore.DEClash.Weighted>
0.0105

> <Gold.Chemscore.DEInternal.Weighted>
0.6868

> <Gold.Chemscore.Rot.Weighted>
5.9301

> <Gold.Chemscore.Internal.Correction.Weighted>
   9.000000E+99

> <Gold.Protein.RotatedTorsions>
[ 6907 6896 6895 6894 ] final   55.32 input  -60.11 | X-H torsion
[ 7974 7965 7964 7962 ] final  132.07 input  175.53 | X-H torsion
[ 8008 7997 7996 7995 ] final  102.82 input   59.86 | X-H torsion
[ 10167 10162 10161 10158 ] final  131.05 input  -65.29 | X-H torsion
[ 10718 10713 10712 10709 ] final   88.65 input   66.30 | X-H torsion
[ 10763 10752 10751 10750 ] final  142.23 input  -60.55 | X-H torsion
[ 11005 11000 10999 10996 ] final   79.80 input  -57.11 | X-H torsion

> <Gold.Protein.ActiveResidues>
 VAL166  LYS551  ARG553  GLY616  TRP617  ASP618  TYR619  PRO620  LYS621  CYS622 
 ASP623  PHE694  ASN695  SER759  ASP760  ASP761  ALA762  ILE779  LEU786  VAL792 
 PHE793  MET794  SER795  GLU796  ALA797  LYS798  CYS799  TRP800  GLU811  SER814 

> <Gold.Protein.RotatedAtoms>
  152.3527  134.6983  160.0231 H   0  0  0  0  0  0  0  0  0  0  0  0  # atno 6907 bound_to 6896
  151.7332  133.3313  159.3354 H   0  0  0  0  0  0  0  0  0  0  0  0  # atno 6908 bound_to 6896
  150.7551  134.6278  159.6215 H   0  0  0  0  0  0  0  0  0  0  0  0  # atno 6909 bound_to 6896
  145.0007  139.4315  143.5294 H   0  0  0  0  0  0  0  0  0  0  0  0  # atno 7974 bound_to 7965
  156.1428  140.3175  155.8523 H   0  0  0  0  0  0  0  0  0  0  0  0  # atno 8008 bound_to 7997
  155.4121  140.0506  157.3048 H   0  0  0  0  0  0  0  0  0  0  0  0  # atno 8009 bound_to 7997
  154.4991  140.2122  155.9397 H   0  0  0  0  0  0  0  0  0  0  0  0  # atno 8010 bound_to 7997
  139.5402  144.6722  151.4652 H   0  0  0  0  0  0  0  0  0  0  0  0  # atno 10167 bound_to 10162
  157.6950  131.0303  150.3306 H   0  0  0  0  0  0  0  0  0  0  0  0  # atno 10718 bound_to 10713
  153.9524  135.2968  155.3438 H   0  0  0  0  0  0  0  0  0  0  0  0  # atno 10763 bound_to 10752
  154.7419  135.5021  153.9140 H   0  0  0  0  0  0  0  0  0  0  0  0  # atno 10764 bound_to 10752
  153.0987  135.6728  153.9822 H   0  0  0  0  0  0  0  0  0  0  0  0  # atno 10765 bound_to 10752
  139.9159  134.7870  156.1825 H   0  0  0  0  0  0  0  0  0  0  0  0  # atno 11005 bound_to 11000
  146.3451  139.9393  142.8743 LP  0  0  0  0  0  0  0  0  0  0  0  0  # atno 17320 bound_to 7965
  145.2157  140.9914  143.4074 LP  0  0  0  0  0  0  0  0  0  0  0  0  # atno 17321 bound_to 7965
  140.6628  143.8463  150.6907 LP  0  0  0  0  0  0  0  0  0  0  0  0  # atno 17342 bound_to 10162
  140.1862  143.4073  152.1896 LP  0  0  0  0  0  0  0  0  0  0  0  0  # atno 17343 bound_to 10162
  156.3781  130.3875  149.7123 LP  0  0  0  0  0  0  0  0  0  0  0  0  # atno 17370 bound_to 10713
  156.4515  130.7909  151.2930 LP  0  0  0  0  0  0  0  0  0  0  0  0  # atno 17371 bound_to 10713
  141.0633  133.6831  156.1995 LP  0  0  0  0  0  0  0  0  0  0  0  0  # atno 17394 bound_to 11000
  140.6625  134.4952  157.5584 LP  0  0  0  0  0  0  0  0  0  0  0  0  # atno 17395 bound_to 11000

$$$$
