#       Name:                AV-unprocessed.smi:2095
#       Creating user name   scv26
#       Creation time:       Fri Mar 27 11:27:56 2020


#       File generated by GOLD software.
#

@<TRIPOS>MOLECULE
AV-unprocessed.smi:2095
    47    48     1
SMALL
NO_CHARGES


@<TRIPOS>ATOM
      1 ****        -3.1309  -2.3752  -1.8299 C.3            1 S1                 0.0000
      2 ****        -1.6715  -2.8528  -1.7296 C.3            1 S1                 0.0000
      3 ****        -0.9152  -2.7407  -3.0677 C.3            1 S1                 0.0000
      4 ****        -0.5611  -1.2816  -3.3925 C.3            1 S1                 0.0000
      5 ****         0.1924  -0.6263  -2.2248 C.3            1 S1                 0.0000
      6 ****        -0.6044  -0.7178  -0.9714 N.4            1 S1                 1.0000
      7 ****        -0.1051   0.1047   0.1692 C.3            1 S1                 0.0000
      8 ****        -0.3777   1.6005  -0.0859 C.3            1 S1                 0.0000
      9 ****         1.3687  -0.2007   0.5425 C.3            1 S1                 0.0000
     10 ****         1.7978   0.5519   1.7173 N.am           1 S1                 0.0000
     11 ****         2.5505   1.6641   1.6969 C.2            1 S1                 0.0000
     12 ****         3.0330   2.1399   0.6699 O.2            1 S1                 0.0000
     13 ****         2.7627   2.3671   3.0374 C.3            1 S1                 0.0000
     14 ****         1.5535   3.0566   3.4476 N.pl3          1 S1                 0.0000
     15 ****         0.5596   2.6796   4.2545 C.2            1 S1                 0.0000
     16 ****        -0.3829   3.6058   4.3354 N.2            1 S1                 0.0000
     17 ****         0.0942   4.6130   3.5136 N.2            1 S1                 0.0000
     18 ****         1.2425   4.2928   2.9834 N.2            1 S1                 0.0000
     19 ****        -0.8983  -2.1299  -0.6068 C.3            1 S1                 0.0000
     20 ****        -3.1980  -1.3132  -2.0660 H              1 S1                 0.0000
     21 ****        -3.6600  -2.5366  -0.8902 H              1 S1                 0.0000
     22 ****        -3.6689  -2.9217  -2.6050 H              1 S1                 0.0000
     23 ****        -1.7131  -3.9111  -1.4686 H              1 S1                 0.0000
     24 ****         0.0047  -3.3241  -3.0086 H              1 S1                 0.0000
     25 ****        -1.5007  -3.1779  -3.8773 H              1 S1                 0.0000
     26 ****         0.0476  -1.2414  -4.2962 H              1 S1                 0.0000
     27 ****        -1.4675  -0.7160  -3.6105 H              1 S1                 0.0000
     28 ****         1.1565  -1.1189  -2.0937 H              1 S1                 0.0000
     29 ****         0.3973   0.4142  -2.4742 H              1 S1                 0.0000
     30 ****        -0.7195  -0.1570   1.0321 H              1 S1                 0.0000
     31 ****        -0.2365   2.1909   0.8199 H              1 S1                 0.0000
     32 ****        -1.4055   1.7626  -0.4118 H              1 S1                 0.0000
     33 ****         0.2843   2.0119  -0.8476 H              1 S1                 0.0000
     34 ****         1.4877  -1.2582   0.7768 H              1 S1                 0.0000
     35 ****         2.0357   0.0012  -0.2965 H              1 S1                 0.0000
     36 ****         1.4554   0.2312   2.6117 H              1 S1                 0.0000
     37 ****         3.0375   1.6412   3.8038 H              1 S1                 0.0000
     38 ****         3.5790   3.0873   2.9636 H              1 S1                 0.0000
     39 ****         0.5213   1.7305   4.7685 H              1 S1                 0.0000
     40 ****        -1.4772  -2.1699   0.3167 H              1 S1                 0.0000
     41 ****         0.0372  -2.6555  -0.4111 H              1 S1                 0.0000
     42 ****        -1.5047  -0.3185  -1.1960 H              1 S1                 0.0000
     43 ****         2.8719   1.6948  -0.2110 LP             1 S1                 0.0000
     44 ****         3.5862   2.9716   0.7161 LP             1 S1                 0.0000
     45 ****        -1.2328   3.5834   4.8620 LP             1 S1                 0.0000
     46 ****        -0.3814   5.4768   3.3475 LP             1 S1                 0.0000
     47 ****         1.7873   4.8501   2.3569 LP             1 S1                 0.0000
@<TRIPOS>BOND
    1    1    2 1     
    2    1   20 1     
    3    1   21 1     
    4    1   22 1     
    5    2   19 1     
    6    2    3 1     
    7    2   23 1     
    8    3    4 1     
    9    3   24 1     
   10    3   25 1     
   11    4    5 1     
   12    4   26 1     
   13    4   27 1     
   14    5    6 1     
   15    5   28 1     
   16    5   29 1     
   17    6    7 1     
   18    6   19 1     
   19    6   42 1     
   20    7    8 1     
   21    7    9 1     
   22    7   30 1     
   23    8   31 1     
   24    8   32 1     
   25    8   33 1     
   26    9   10 1     
   27    9   34 1     
   28    9   35 1     
   29   10   11 am    
   30   10   36 1     
   31   11   12 2     
   32   11   13 1     
   33   13   14 1     
   34   13   37 1     
   35   13   38 1     
   36   14   18 1     
   37   14   15 1     
   38   15   16 2     
   39   15   39 1     
   40   16   17 1     
   41   17   18 2     
   42   19   40 1     
   43   19   41 1     
   44   12   43 1     
   45   12   44 1     
   46   16   45 1     
   47   17   46 1     
   48   18   47 1     
@<TRIPOS>SUBSTRUCTURE
      1 S1             1
@<TRIPOS>SET
LONE_PAIRS      STATIC     ATOMS    <user>   **** ""
5 43 44 45 46 47
DONOR_HYDROGENS      STATIC     ATOMS    <user>   **** ""
2 42 36
ATOM$BLUE        STATIC     ATOMS    COLORGROUP SYSTEM
5 43 44 45 46 47
ATOM$RED        STATIC     ATOMS    COLORGROUP SYSTEM
2 42 36
