#       Name:                AV-unprocessed.smi:887
#       Creating user name   scv26
#       Creation time:       Fri Mar 27 01:54:09 2020


#       File generated by GOLD software.
#

@<TRIPOS>MOLECULE
AV-unprocessed.smi:887
    37    38     1
SMALL
NO_CHARGES


@<TRIPOS>ATOM
      1 ****        -3.8844  -0.0317   2.9650 C.3            1 S1                 0.0000
      2 ****        -2.4658   0.2725   2.8584 N.am           1 S1                 0.0000
      3 ****        -1.9442   1.5008   2.9964 C.2            1 S1                 0.0000
      4 ****        -2.6225   2.4999   3.2349 O.2            1 S1                 0.0000
      5 ****        -0.4258   1.6230   2.8531 C.3            1 S1                 0.0000
      6 ****        -0.0237   1.5925   1.4131 C.2            1 S1                 0.0000
      7 ****         0.0410   2.7040   0.6896 N.2            1 S1                 0.0000
      8 ****         0.4637   2.2482  -0.5670 O.3            1 S1                 0.0000
      9 ****         0.5716   0.9018  -0.4581 C.2            1 S1                 0.0000
     10 ****         1.0979   0.1264  -1.6250 C.3            1 S1                 0.0000
     11 ****         2.6148  -0.1366  -1.4996 C.3            1 S1                 0.0000
     12 ****         3.1159  -1.1731  -2.4906 C.2            1 S1                 0.0000
     13 ****         2.3055  -1.9603  -3.2183 C.2            1 S1                 0.0000
     14 ****         0.7919  -1.9121  -3.1272 C.3            1 S1                 0.0000
     15 ****         0.3103  -1.1762  -1.8637 C.3            1 S1                 0.0000
     16 ****         0.3193   0.4436   0.7669 N.2            1 S1                 0.0000
     17 ****        -4.0422  -1.1069   2.8802 H              1 S1                 0.0000
     18 ****        -4.4459   0.4593   2.1693 H              1 S1                 0.0000
     19 ****        -4.2829   0.2958   3.9262 H              1 S1                 0.0000
     20 ****        -1.8410  -0.4960   2.6605 H              1 S1                 0.0000
     21 ****        -0.0849   2.5530   3.3106 H              1 S1                 0.0000
     22 ****         0.0633   0.8091   3.3899 H              1 S1                 0.0000
     23 ****         0.9480   0.7489  -2.5088 H              1 S1                 0.0000
     24 ****         3.1689   0.7934  -1.6310 H              1 S1                 0.0000
     25 ****         2.8528  -0.5075  -0.5019 H              1 S1                 0.0000
     26 ****         4.1870  -1.2669  -2.5937 H              1 S1                 0.0000
     27 ****         2.7289  -2.6642  -3.9199 H              1 S1                 0.0000
     28 ****         0.4154  -1.4149  -4.0214 H              1 S1                 0.0000
     29 ****         0.3971  -2.9284  -3.1379 H              1 S1                 0.0000
     30 ****         0.4256  -1.8323  -0.9997 H              1 S1                 0.0000
     31 ****        -0.7562  -0.9649  -1.9505 H              1 S1                 0.0000
     32 ****        -3.6141   2.4187   3.3354 LP             1 S1                 0.0000
     33 ****        -2.1819   3.3928   3.3282 LP             1 S1                 0.0000
     34 ****        -0.1628   3.6411   0.9730 LP             1 S1                 0.0000
     35 ****         1.3486   2.6499  -0.8029 LP             1 S1                 0.0000
     36 ****        -0.2084   2.4875  -1.2677 LP             1 S1                 0.0000
     37 ****         0.3685  -0.4916   1.1176 LP             1 S1                 0.0000
@<TRIPOS>BOND
    1    1    2 1     
    2    1   17 1     
    3    1   18 1     
    4    1   19 1     
    5    2    3 am    
    6    2   20 1     
    7    3    4 2     
    8    3    5 1     
    9    5    6 1     
   10    5   21 1     
   11    5   22 1     
   12    6   16 1     
   13    6    7 2     
   14    7    8 1     
   15    8    9 1     
   16    9   10 1     
   17    9   16 2     
   18   10   15 1     
   19   10   11 1     
   20   10   23 1     
   21   11   12 1     
   22   11   24 1     
   23   11   25 1     
   24   12   13 2     
   25   12   26 1     
   26   13   14 1     
   27   13   27 1     
   28   14   15 1     
   29   14   28 1     
   30   14   29 1     
   31   15   30 1     
   32   15   31 1     
   33    4   32 1     
   34    4   33 1     
   35    7   34 1     
   36    8   35 1     
   37    8   36 1     
   38   16   37 1     
@<TRIPOS>SUBSTRUCTURE
      1 S1             1
@<TRIPOS>SET
LONE_PAIRS      STATIC     ATOMS    <user>   **** ""
6 32 33 34 35 36 37
DONOR_HYDROGENS      STATIC     ATOMS    <user>   **** ""
1 20
ATOM$BLUE        STATIC     ATOMS    COLORGROUP SYSTEM
6 32 33 34 35 36 37
ATOM$RED        STATIC     ATOMS    COLORGROUP SYSTEM
1 20
