AV-unprocessed.smi:773|AV-procd|sdf|3689|dock7
  -GOLD-   22720 1103D 1   1.00000     0.00000
 Structure written by MMmdl.
 39 40  0  0  0  0  0  0  0  0  1 V2000
  153.2386  138.6817  154.3359 C   0  0  0  0  0  0  0  0  0  0  0  0
  152.0133  138.1387  155.0126 C   0  0  0  0  0  0  0  0  0  0  0  0
  151.6677  136.8781  154.8134 N   0  0  0  0  0  0  0  0  0  0  0  0
  150.5014  136.6784  155.5577 O   0  0  0  0  0  0  0  0  0  0  0  0
  150.1894  137.8392  156.1873 C   0  0  0  0  0  0  0  0  0  0  0  0
  148.9536  137.8293  157.0218 C   0  0  0  0  0  0  0  0  0  0  0  0
  151.1105  138.8066  155.8893 C   0  0  0  0  0  0  0  0  0  0  0  0
  151.1617  140.2411  156.3555 C   0  0  0  0  0  0  0  0  0  0  0  0
  149.8548  141.0194  156.0881 C   0  0  2  0  0  0  0  0  0  0  0  0
  149.4639  140.9745  154.6046 C   0  0  0  0  0  0  0  0  0  0  0  0
  149.9678  142.4146  156.5148 N   0  0  0  0  0  0  0  0  0  0  0  0
  150.6286  142.8529  157.5971 C   0  0  0  0  0  0  0  0  0  0  0  0
  151.2205  142.1221  158.3920 O   0  0  0  0  0  0  0  0  0  0  0  0
  150.5818  144.1870  157.7005 N   0  0  0  0  0  0  0  0  0  0  0  0
  151.2333  144.9481  158.7585 C   0  0  0  0  0  0  0  0  0  0  0  0
  152.5939  144.3739  159.1795 C   0  0  0  0  0  0  0  0  0  0  0  0
  152.1844  144.6731  160.6274 C   0  0  0  0  0  0  0  0  0  0  0  0
  150.7259  144.5827  160.1592 C   0  0  0  0  0  0  0  0  0  0  0  0
  153.1553  139.7555  154.1702 H   0  0  0  0  0  0  0  0  0  0  0  0
  153.3979  138.2129  153.3643 H   0  0  0  0  0  0  0  0  0  0  0  0
  154.1280  138.5066  154.9414 H   0  0  0  0  0  0  0  0  0  0  0  0
  148.9140  138.6987  157.6777 H   0  0  0  0  0  0  0  0  0  0  0  0
  148.9126  136.9357  157.6447 H   0  0  0  0  0  0  0  0  0  0  0  0
  148.0655  137.8440  156.3901 H   0  0  0  0  0  0  0  0  0  0  0  0
  151.3873  140.2824  157.4216 H   0  0  0  0  0  0  0  0  0  0  0  0
  151.9874  140.7634  155.8714 H   0  0  0  0  0  0  0  0  0  0  0  0
  149.0524  140.5353  156.6472 H   0  0  0  0  0  0  0  0  0  0  0  0
  149.3346  139.9465  154.2646 H   0  0  0  0  0  0  0  0  0  0  0  0
  150.2258  141.4386  153.9774 H   0  0  0  0  0  0  0  0  0  0  0  0
  148.5238  141.4986  154.4294 H   0  0  0  0  0  0  0  0  0  0  0  0
  149.5189  143.1017  155.9272 H   0  0  0  0  0  0  0  0  0  0  0  0
  150.0742  144.7094  157.0015 H   0  0  0  0  0  0  0  0  0  0  0  0
  151.2616  146.0281  158.5953 H   0  0  0  0  0  0  0  0  0  0  0  0
  152.6984  143.3049  158.9835 H   0  0  0  0  0  0  0  0  0  0  0  0
  153.4567  144.9373  158.8228 H   0  0  0  0  0  0  0  0  0  0  0  0
  152.4802  143.9152  161.3532 H   0  0  0  0  0  0  0  0  0  0  0  0
  152.4664  145.6770  160.9500 H   0  0  0  0  0  0  0  0  0  0  0  0
  150.0565  145.3172  160.6080 H   0  0  0  0  0  0  0  0  0  0  0  0
  150.3238  143.5700  160.2299 H   0  0  0  0  0  0  0  0  0  0  0  0
  1  2  1  0  0  0  0
  1 19  1  0  0  0  0
  1 20  1  0  0  0  0
  1 21  1  0  0  0  0
  2  7  1  0  0  0  0
  2  3  2  0  0  0  0
  3  4  1  0  0  0  0
  4  5  1  0  0  0  0
  5  6  1  0  0  0  0
  5  7  2  0  0  0  0
  6 22  1  0  0  0  0
  6 23  1  0  0  0  0
  6 24  1  0  0  0  0
  7  8  1  0  0  0  0
  8  9  1  0  0  0  0
  8 25  1  0  0  0  0
  8 26  1  0  0  0  0
  9 10  1  0  0  0  0
  9 11  1  0  0  0  0
  9 27  1  0  0  0  0
 10 28  1  0  0  0  0
 10 29  1  0  0  0  0
 10 30  1  0  0  0  0
 11 12  1  0  0  0  0
 11 31  1  0  0  0  0
 12 13  2  0  0  0  0
 12 14  1  0  0  0  0
 14 15  1  0  0  0  0
 14 32  1  0  0  0  0
 15 18  1  0  0  0  0
 15 16  1  0  0  0  0
 15 33  1  0  0  0  0
 16 17  1  0  0  0  0
 16 34  1  0  0  0  0
 16 35  1  0  0  0  0
 17 18  1  0  0  0  0
 17 36  1  0  0  0  0
 17 37  1  0  0  0  0
 18 38  1  0  0  0  0
 18 39  1  0  0  0  0
M  END
> <s_m_source_file>
AV-unprocessed.smi

> <i_m_source_file_index>
773

> <i_lp_mmshare_version>
43012

> <i_f3d_flags>
0

> <s_epik_input>
W0NIM11jMW5vYyhbQ0gzXSljMVtDSDJdW0NASF0oW0NIM10pW05IXUMoPU8pW05IXVtDSF0yW0NIMl1bQ0gyXVtDSDJdMg==

> <s_epik_cmdline>
J2VwaWtfcHl0aG9uJywgJy1waCcsICc3LjAnLCAnLXRuJywgJzgnLCAnLW1hJywgJzIwMCcsICctbWV0YWxfYmluZGluZycsICctaW1hZScsICc8aW5maWxlLm1hZT4nLCAnLW9tYWUnLCAnPG91dGZpbGUubWFlPic=

> <r_lp_tautomer_probability>
1

> <r_epik_Ionization_Penalty>
6.63278e-05

> <r_epik_Ionization_Penalty_Charging>
0

> <r_epik_Ionization_Penalty_Neutral>
6.63278e-05

> <r_epik_State_Penalty>
-0

> <r_epik_Charging_Adjusted_Penalty>
0

> <i_epik_Tot_Q>
0

> <i_epik_Tot_abs_Q>
0

> <r_epik_Metal_State_Penalty>
-0

> <b_epik_Metal_Only>
0

> <s_lp_Force_Field>
OPLS_2005

> <r_lp_Energy>
7.52074

> <b_lp_Chiralities_Consistent>
1

> <s_lp_Variant>
AV-unprocessed.smi:773-1

> <Gold.Version>
5.8.1

> <Gold.Id.Protein>
6NUR|6NUR_protein|mol2

> <Gold.PLP.Fitness>
43.0404

> <Gold.PLP.PLP>
-34.8042

> <Gold.PLP.part.hbond>
-3.4925

> <Gold.PLP.part.metal>
0.0000

> <Gold.PLP.part.buried>
-4.8578

> <Gold.PLP.part.nonpolar>
-26.9550

> <Gold.PLP.part.repulsive>
0.3504

> <Gold.PLP.ligand.clash>
0.0000

> <Gold.PLP.ligand.torsion>
0.5069

> <Gold.PLP.Chemscore.Hbond>
3.0000

> <Gold.PLP.Chemscore.CHOScore>
0.0000

> <Gold.PLP.Chemscore.Metal>
0.0000

> <Gold.Chemscore.Hbonds>
donor molecule, donor type, donor heavy atom, donor atom, acceptor molecule, acceptor atom, score
      L1  H    11    31       P1  8028  1.00
      L1  H    14    32       P1  8028  1.00
      P1  H 10752 10764       L1     3  1.00

> <Gold.PLP.Chemscore.Internal.Correction>
0.2501

> <Gold.Rescore>
     Score         DG    S(hbond)    S(metal)    S(lipo)     H(rot)  DE(clash)    DE(int)     intcor
     15.91     -20.25       2.34        0.00      93.76       1.56       0.06       4.29       ----

> <Gold.Chemscore.Fitness>
15.9094

> <Gold.Chemscore.DG>
-20.2537

> <Gold.Chemscore.ZeroCoef>
-5.4800

> <Gold.Chemscore.Hbond>
2.3366

> <Gold.Chemscore.Metal>
0.0000

> <Gold.Chemscore.Lipo>
93.7561

> <Gold.Chemscore.Internal_Hbond>
0.0000

> <Gold.Chemscore.DEClash>
0.0579

> <Gold.Chemscore.DEInternal>
4.2864

> <Gold.Chemscore.Rot>
1.5625

> <Gold.Chemscore.Internal.Correction>
   9.000000E+99

> <Gold.Chemscore.Hbonds>
donor molecule, donor type, donor heavy atom, donor atom, acceptor molecule, acceptor atom, score
      L1  H    11    31       P1  8028  0.95
      L1  H    14    32       P1  8028  0.38
      P1  H 10752 10764       L1     3  0.94

> <Gold.Chemscore.Hbond.Weighted>
-7.8043

> <Gold.Chemscore.Metal.Weighted>
-0.0000

> <Gold.Chemscore.Lipo.Weighted>
-10.9695

> <Gold.Chemscore.Internal_Hbond.Weighted>
0.0000

> <Gold.Chemscore.DEClash.Weighted>
0.0579

> <Gold.Chemscore.DEInternal.Weighted>
4.2864

> <Gold.Chemscore.Rot.Weighted>
4.0000

> <Gold.Chemscore.Internal.Correction.Weighted>
   9.000000E+99

> <Gold.Protein.RotatedTorsions>
[ 6907 6896 6895 6894 ] final -102.42 input  -60.11 | X-H torsion
[ 7974 7965 7964 7962 ] final  -39.84 input  175.53 | X-H torsion
[ 8008 7997 7996 7995 ] final   35.90 input   59.86 | X-H torsion
[ 10167 10162 10161 10158 ] final   -4.64 input  -65.29 | X-H torsion
[ 10718 10713 10712 10709 ] final -110.21 input   66.30 | X-H torsion
[ 10763 10752 10751 10750 ] final  -79.32 input  -60.55 | X-H torsion
[ 11005 11000 10999 10996 ] final  152.51 input  -57.11 | X-H torsion

> <Gold.Protein.ActiveResidues>
 VAL166  LYS551  ARG553  GLY616  TRP617  ASP618  TYR619  PRO620  LYS621  CYS622 
 ASP623  PHE694  ASN695  SER759  ASP760  ASP761  ALA762  ILE779  LEU786  VAL792 
 PHE793  MET794  SER795  GLU796  ALA797  LYS798  CYS799  TRP800  GLU811  SER814 

> <Gold.Protein.RotatedAtoms>
  150.7195  134.0584  159.3822 H   0  0  0  0  0  0  0  0  0  0  0  0  # atno 6907 bound_to 6896
  151.8563  135.0538  160.0474 H   0  0  0  0  0  0  0  0  0  0  0  0  # atno 6908 bound_to 6896
  152.2752  133.5383  159.5500 H   0  0  0  0  0  0  0  0  0  0  0  0  # atno 6909 bound_to 6896
  146.0359  140.6671  142.9110 H   0  0  0  0  0  0  0  0  0  0  0  0  # atno 7974 bound_to 7965
  155.1786  140.3298  155.4379 H   0  0  0  0  0  0  0  0  0  0  0  0  # atno 8008 bound_to 7997
  156.2485  140.1931  156.6836 H   0  0  0  0  0  0  0  0  0  0  0  0  # atno 8009 bound_to 7997
  154.6287  140.0585  156.9691 H   0  0  0  0  0  0  0  0  0  0  0  0  # atno 8010 bound_to 7997
  140.6935  143.6400  150.8444 H   0  0  0  0  0  0  0  0  0  0  0  0  # atno 10167 bound_to 10162
  156.0578  130.5803  150.8206 H   0  0  0  0  0  0  0  0  0  0  0  0  # atno 10718 bound_to 10713
  154.5371  135.5699  153.6808 H   0  0  0  0  0  0  0  0  0  0  0  0  # atno 10763 bound_to 10752
  152.9954  135.6219  154.2551 H   0  0  0  0  0  0  0  0  0  0  0  0  # atno 10764 bound_to 10752
  154.2480  135.2860  155.2807 H   0  0  0  0  0  0  0  0  0  0  0  0  # atno 10765 bound_to 10752
  140.1314  134.8799  157.2208 H   0  0  0  0  0  0  0  0  0  0  0  0  # atno 11005 bound_to 11000
  144.7052  140.3821  143.7124 LP  0  0  0  0  0  0  0  0  0  0  0  0  # atno 17320 bound_to 7965
  145.6964  139.1651  143.2618 LP  0  0  0  0  0  0  0  0  0  0  0  0  # atno 17321 bound_to 7965
  140.0115  143.5637  152.2837 LP  0  0  0  0  0  0  0  0  0  0  0  0  # atno 17342 bound_to 10162
  139.6363  144.7650  151.2431 LP  0  0  0  0  0  0  0  0  0  0  0  0  # atno 17343 bound_to 10162
  157.5563  131.0945  150.9624 LP  0  0  0  0  0  0  0  0  0  0  0  0  # atno 17370 bound_to 10713
  156.9872  130.5549  149.5300 LP  0  0  0  0  0  0  0  0  0  0  0  0  # atno 17371 bound_to 10713
  140.2838  134.3320  155.7335 LP  0  0  0  0  0  0  0  0  0  0  0  0  # atno 17394 bound_to 11000
  141.2171  133.7494  156.9402 LP  0  0  0  0  0  0  0  0  0  0  0  0  # atno 17395 bound_to 11000

$$$$
