AV-unprocessed.smi:1994|AV-procd|sdf|8074|dock4
  -GOLD-   2272010283D 1   1.00000     0.00000
 Structure written by MMmdl.
 40 42  0  0  0  0  0  0  0  0  2 V2000
  150.8121  140.8283  156.5421 C   0  0  0  0  0  0  0  0  0  0  0  0
  151.1171  141.8942  157.5406 C   0  0  0  0  0  0  0  0  0  0  0  0
  150.7939  143.2133  157.4301 N   0  3  0  0  0  0  0  0  0  0  0  0
  151.2447  143.9056  158.5550 C   0  0  0  0  0  0  0  0  0  0  0  0
  151.1516  145.2523  158.8924 C   0  0  0  0  0  0  0  0  0  0  0  0
  151.7194  145.6368  160.1246 C   0  0  0  0  0  0  0  0  0  0  0  0
  152.3464  144.6974  160.9687 C   0  0  0  0  0  0  0  0  0  0  0  0
  152.4337  143.3342  160.6165 C   0  0  0  0  0  0  0  0  0  0  0  0
  151.8729  142.9621  159.3944 C   0  0  0  0  0  0  0  0  0  0  0  0
  151.7695  141.7349  158.7273 N   0  0  0  0  0  0  0  0  0  0  0  0
  152.3354  140.5190  159.3338 C   0  0  0  0  0  0  0  0  0  0  0  0
  153.7941  140.7063  159.7954 C   0  0  2  0  0  0  0  0  0  0  0  0
  154.6776  140.1393  158.8490 O   0  0  0  0  0  0  0  0  0  0  0  0
  154.0637  140.0640  161.1638 C   0  0  0  0  0  0  0  0  0  0  0  0
  154.2300  138.6636  160.9861 O   0  0  0  0  0  0  0  0  0  0  0  0
  154.3944  137.8756  162.1055 C   0  0  0  0  0  0  0  0  0  0  0  0
  154.5383  138.3837  163.4217 C   0  0  0  0  0  0  0  0  0  0  0  0
  154.7002  137.5059  164.5113 C   0  0  0  0  0  0  0  0  0  0  0  0
  154.7208  136.1147  164.3015 C   0  0  0  0  0  0  0  0  0  0  0  0
  154.5799  135.6016  162.9991 C   0  0  0  0  0  0  0  0  0  0  0  0
  154.4177  136.4781  161.9087 C   0  0  0  0  0  0  0  0  0  0  0  0
  154.2834  135.9715  160.6596 F   0  0  0  0  0  0  0  0  0  0  0  0
  150.2542  141.2388  155.7001 H   0  0  0  0  0  0  0  0  0  0  0  0
  150.2155  140.0402  157.0015 H   0  0  0  0  0  0  0  0  0  0  0  0
  151.7369  140.3908  156.1653 H   0  0  0  0  0  0  0  0  0  0  0  0
  150.6701  145.9732  158.2478 H   0  0  0  0  0  0  0  0  0  0  0  0
  151.6721  146.6727  160.4290 H   0  0  0  0  0  0  0  0  0  0  0  0
  152.7691  145.0290  161.9063 H   0  0  0  0  0  0  0  0  0  0  0  0
  152.9124  142.6241  161.2744 H   0  0  0  0  0  0  0  0  0  0  0  0
  151.7052  140.2649  160.1868 H   0  0  0  0  0  0  0  0  0  0  0  0
  152.2439  139.6870  158.6357 H   0  0  0  0  0  0  0  0  0  0  0  0
  154.0238  141.7707  159.8569 H   0  0  0  0  0  0  0  0  0  0  0  0
  155.5252  140.0386  159.2545 H   0  0  0  0  0  0  0  0  0  0  0  0
  154.9517  140.5066  161.6191 H   0  0  0  0  0  0  0  0  0  0  0  0
  153.2154  140.2456  161.8262 H   0  0  0  0  0  0  0  0  0  0  0  0
  154.5268  139.4440  163.6232 H   0  0  0  0  0  0  0  0  0  0  0  0
  154.8085  137.9013  165.5106 H   0  0  0  0  0  0  0  0  0  0  0  0
  154.8442  135.4427  165.1377 H   0  0  0  0  0  0  0  0  0  0  0  0
  154.5959  134.5341  162.8353 H   0  0  0  0  0  0  0  0  0  0  0  0
  150.3011  143.6096  156.6400 H   0  0  0  0  0  0  0  0  0  0  0  0
  1  2  1  0  0  0  0
  1 23  1  0  0  0  0
  1 24  1  0  0  0  0
  1 25  1  0  0  0  0
  2 10  1  0  0  0  0
  2  3  2  0  0  0  0
  3  4  1  0  0  0  0
  3 40  1  0  0  0  0
  4  9  2  0  0  0  0
  4  5  1  0  0  0  0
  5  6  2  0  0  0  0
  5 26  1  0  0  0  0
  6  7  1  0  0  0  0
  6 27  1  0  0  0  0
  7  8  2  0  0  0  0
  7 28  1  0  0  0  0
  8  9  1  0  0  0  0
  8 29  1  0  0  0  0
  9 10  1  0  0  0  0
 10 11  1  0  0  0  0
 11 12  1  0  0  0  0
 11 30  1  0  0  0  0
 11 31  1  0  0  0  0
 12 13  1  0  0  0  0
 12 14  1  0  0  0  0
 12 32  1  0  0  0  0
 13 33  1  0  0  0  0
 14 15  1  0  0  0  0
 14 34  1  0  0  0  0
 14 35  1  0  0  0  0
 15 16  1  0  0  0  0
 16 21  1  0  0  0  0
 16 17  2  0  0  0  0
 17 18  1  0  0  0  0
 17 36  1  0  0  0  0
 18 19  2  0  0  0  0
 18 37  1  0  0  0  0
 19 20  1  0  0  0  0
 19 38  1  0  0  0  0
 20 21  2  0  0  0  0
 20 39  1  0  0  0  0
 21 22  1  0  0  0  0
M  CHG  1   3   1
M  END
> <s_m_source_file>
AV-unprocessed.smi

> <i_m_source_file_index>
1994

> <i_lp_mmshare_version>
43012

> <i_f3d_flags>
0

> <s_epik_input>
W2NIXTFbY0hdW2NIXVtjSF1jKGMxMiluKGMobjIpW0NIM10pW0NIMl1bQ0BIXShbT0hdKVtDSDJdT2MzW2NIXVtjSF1bY0hdW2NIXWMzRg==

> <s_epik_cmdline>
J2VwaWtfcHl0aG9uJywgJy1waCcsICc3LjAnLCAnLXRuJywgJzgnLCAnLW1hJywgJzIwMCcsICctbWV0YWxfYmluZGluZycsICctaW1hZScsICc8aW5maWxlLm1hZT4nLCAnLW9tYWUnLCAnPG91dGZpbGUubWFlPic=

> <r_lp_tautomer_probability>
1

> <r_epik_Ionization_Penalty>
1.03916

> <r_epik_Ionization_Penalty_Charging>
1.03916

> <r_epik_Ionization_Penalty_Neutral>
2.3993e-06

> <r_epik_State_Penalty>
1.09101

> <r_epik_Charging_Adjusted_Penalty>
2.13018

> <i_epik_Tot_Q>
1

> <i_epik_Tot_abs_Q>
1

> <r_epik_Metal_State_Penalty>
5.08156

> <b_epik_Metal_Only>
0

> <s_lp_Force_Field>
OPLS_2005

> <r_lp_Energy>
18.7982

> <b_lp_Chiralities_Consistent>
1

> <s_lp_Variant>
AV-unprocessed.smi:1994-3

> <Gold.Version>
5.8.1

> <Gold.Id.Protein>
6NUR|6NUR_protein|mol2

> <Gold.PLP.Fitness>
54.3939

> <Gold.PLP.PLP>
-47.8015

> <Gold.PLP.part.hbond>
-1.8925

> <Gold.PLP.part.metal>
0.0000

> <Gold.PLP.part.buried>
-4.2023

> <Gold.PLP.part.nonpolar>
-41.5361

> <Gold.PLP.part.repulsive>
0.0022

> <Gold.PLP.ligand.clash>
0.0000

> <Gold.PLP.ligand.torsion>
0.8731

> <Gold.PLP.Chemscore.Hbond>
2.7645

> <Gold.PLP.Chemscore.CHOScore>
0.0000

> <Gold.PLP.Chemscore.Metal>
0.0000

> <Gold.Chemscore.Hbonds>
donor molecule, donor type, donor heavy atom, donor atom, acceptor molecule, acceptor atom, score
      L1  H     3    40       P1  8028  1.95
      P1  H  7997  8010       L1    13  0.94

> <Gold.PLP.Chemscore.Internal.Correction>
0.0451

> <Gold.Rescore>
     Score         DG    S(hbond)    S(metal)    S(lipo)     H(rot)  DE(clash)    DE(int)     intcor
     18.65     -21.03       1.51        0.00     139.48       2.27       1.56       0.83       ----

> <Gold.Chemscore.Fitness>
18.6463

> <Gold.Chemscore.DG>
-21.0308

> <Gold.Chemscore.ZeroCoef>
-5.4800

> <Gold.Chemscore.Hbond>
1.5104

> <Gold.Chemscore.Metal>
0.0000

> <Gold.Chemscore.Lipo>
139.4776

> <Gold.Chemscore.Internal_Hbond>
0.0000

> <Gold.Chemscore.DEClash>
1.5562

> <Gold.Chemscore.DEInternal>
0.8283

> <Gold.Chemscore.Rot>
2.2706

> <Gold.Chemscore.Internal.Correction>
   9.000000E+99

> <Gold.Chemscore.Hbonds>
donor molecule, donor type, donor heavy atom, donor atom, acceptor molecule, acceptor atom, score
      L1  H     3    40       P1  8028  0.91
      P1  H  7997  8010       L1    13  0.23

> <Gold.Chemscore.Hbond.Weighted>
-5.0447

> <Gold.Chemscore.Metal.Weighted>
-0.0000

> <Gold.Chemscore.Lipo.Weighted>
-16.3189

> <Gold.Chemscore.Internal_Hbond.Weighted>
0.0000

> <Gold.Chemscore.DEClash.Weighted>
1.5562

> <Gold.Chemscore.DEInternal.Weighted>
0.8283

> <Gold.Chemscore.Rot.Weighted>
5.8128

> <Gold.Chemscore.Internal.Correction.Weighted>
   9.000000E+99

> <Gold.Protein.RotatedTorsions>
[ 6907 6896 6895 6894 ] final -153.65 input  -60.11 | X-H torsion
[ 7974 7965 7964 7962 ] final -140.98 input  175.53 | X-H torsion
[ 8008 7997 7996 7995 ] final    0.92 input   59.86 | X-H torsion
[ 10167 10162 10161 10158 ] final  -66.83 input  -65.29 | X-H torsion
[ 10718 10713 10712 10709 ] final   77.05 input   66.30 | X-H torsion
[ 10763 10752 10751 10750 ] final  -13.62 input  -60.55 | X-H torsion
[ 11005 11000 10999 10996 ] final -102.09 input  -57.11 | X-H torsion

> <Gold.Protein.ActiveResidues>
 VAL166  LYS551  ARG553  GLY616  TRP617  ASP618  TYR619  PRO620  LYS621  CYS622 
 ASP623  PHE694  ASN695  SER759  ASP760  ASP761  ALA762  ILE779  LEU786  VAL792 
 PHE793  MET794  SER795  GLU796  ALA797  LYS798  CYS799  TRP800  GLU811  SER814 

> <Gold.Protein.RotatedAtoms>
  151.2457  133.4376  159.2608 H   0  0  0  0  0  0  0  0  0  0  0  0  # atno 6907 bound_to 6896
  151.0664  134.9770  159.8296 H   0  0  0  0  0  0  0  0  0  0  0  0  # atno 6908 bound_to 6896
  152.5406  134.2405  159.8912 H   0  0  0  0  0  0  0  0  0  0  0  0  # atno 6909 bound_to 6896
  144.8555  140.6135  143.5362 H   0  0  0  0  0  0  0  0  0  0  0  0  # atno 7974 bound_to 7965
  154.6736  140.2617  155.6981 H   0  0  0  0  0  0  0  0  0  0  0  0  # atno 8008 bound_to 7997
  156.2669  140.2824  156.1177 H   0  0  0  0  0  0  0  0  0  0  0  0  # atno 8009 bound_to 7997
  155.1132  140.0376  157.2720 H   0  0  0  0  0  0  0  0  0  0  0  0  # atno 8010 bound_to 7997
  140.5628  143.2313  151.6694 H   0  0  0  0  0  0  0  0  0  0  0  0  # atno 10167 bound_to 10162
  157.6696  130.9803  150.1585 H   0  0  0  0  0  0  0  0  0  0  0  0  # atno 10718 bound_to 10713
  153.5161  135.7016  153.5756 H   0  0  0  0  0  0  0  0  0  0  0  0  # atno 10763 bound_to 10752
  153.3825  135.3916  155.1867 H   0  0  0  0  0  0  0  0  0  0  0  0  # atno 10764 bound_to 10752
  154.8699  135.3838  154.4645 H   0  0  0  0  0  0  0  0  0  0  0  0  # atno 10765 bound_to 10752
  141.1204  133.8530  157.1316 H   0  0  0  0  0  0  0  0  0  0  0  0  # atno 11005 bound_to 11000
  145.4415  139.1535  143.3967 LP  0  0  0  0  0  0  0  0  0  0  0  0  # atno 17320 bound_to 7965
  146.2819  140.4537  142.8773 LP  0  0  0  0  0  0  0  0  0  0  0  0  # atno 17321 bound_to 7965
  139.5078  144.3633  152.0541 LP  0  0  0  0  0  0  0  0  0  0  0  0  # atno 17342 bound_to 10162
  140.2761  144.3911  150.6134 LP  0  0  0  0  0  0  0  0  0  0  0  0  # atno 17343 bound_to 10162
  156.2367  130.3687  149.8383 LP  0  0  0  0  0  0  0  0  0  0  0  0  # atno 17370 bound_to 10713
  156.6195  130.8620  151.3472 LP  0  0  0  0  0  0  0  0  0  0  0  0  # atno 17371 bound_to 10713
  140.0156  134.9969  157.0487 LP  0  0  0  0  0  0  0  0  0  0  0  0  # atno 17394 bound_to 11000
  140.4525  134.1567  155.7183 LP  0  0  0  0  0  0  0  0  0  0  0  0  # atno 17395 bound_to 11000

$$$$
