AV-unprocessed.smi:2464|AV-procd|sdf|9721|dock6
  -GOLD-   2272013363D 1   1.00000     0.00000
 Structure written by MMmdl.
 32 33  0  0  0  0  0  0  0  0  3 V2000
  152.3544  142.6014  160.4236 C   0  0  0  0  0  0  0  0  0  0  0  0
  151.8846  143.3990  159.2026 C   0  0  0  0  0  0  0  0  0  0  0  0
  151.8521  142.5319  158.0227 N   0  0  0  0  0  0  0  0  0  0  0  0
  150.7619  141.9671  157.4803 C   0  0  0  0  0  0  0  0  0  0  0  0
  149.6223  142.1201  157.9206 O   0  0  0  0  0  0  0  0  0  0  0  0
  151.0860  141.2080  156.4201 N   0  0  0  0  0  0  0  0  0  0  0  0
  150.2212  140.4260  155.6031 C   0  0  0  0  0  0  0  0  0  0  0  0
  148.9351  140.8872  155.2304 C   0  0  0  0  0  0  0  0  0  0  0  0
  148.1465  140.0949  154.3759 C   0  0  0  0  0  0  0  0  0  0  0  0
  148.5572  138.9138  153.8743 N   0  0  0  0  0  0  0  0  0  0  0  0
  149.7883  138.4803  154.2154 C   0  0  0  0  0  0  0  0  0  0  0  0
  150.6663  139.1839  155.0720 C   0  0  0  0  0  0  0  0  0  0  0  0
  151.9902  138.6087  155.3777 N   0  3  0  0  0  0  0  0  0  0  0  0
  152.2338  137.4623  155.0155 O   0  0  0  0  0  0  0  0  0  0  0  0
  152.7965  139.3227  155.9640 O   0  5  0  0  0  0  0  0  0  0  0  0
  150.6130  144.2663  159.3264 C   0  0  0  0  0  0  0  0  0  0  0  0
  151.5217  145.4563  159.6444 C   0  0  0  0  0  0  0  0  0  0  0  0
  152.6200  144.7132  158.8779 C   0  0  0  0  0  0  0  0  0  0  0  0
  152.4970  143.2445  161.2922 H   0  0  0  0  0  0  0  0  0  0  0  0
  153.3050  142.1023  160.2320 H   0  0  0  0  0  0  0  0  0  0  0  0
  151.6321  141.8358  160.7075 H   0  0  0  0  0  0  0  0  0  0  0  0
  152.7427  142.3415  157.5869 H   0  0  0  0  0  0  0  0  0  0  0  0
  152.0731  141.0941  156.2424 H   0  0  0  0  0  0  0  0  0  0  0  0
  148.5497  141.8371  155.5687 H   0  0  0  0  0  0  0  0  0  0  0  0
  147.1630  140.4263  154.0776 H   0  0  0  0  0  0  0  0  0  0  0  0
  150.0780  137.5297  153.7919 H   0  0  0  0  0  0  0  0  0  0  0  0
  150.0722  144.3970  158.3865 H   0  0  0  0  0  0  0  0  0  0  0  0
  149.9407  143.9799  160.1358 H   0  0  0  0  0  0  0  0  0  0  0  0
  151.2114  146.4015  159.1987 H   0  0  0  0  0  0  0  0  0  0  0  0
  151.7347  145.5587  160.7097 H   0  0  0  0  0  0  0  0  0  0  0  0
  153.6153  144.8028  159.3143 H   0  0  0  0  0  0  0  0  0  0  0  0
  152.6268  144.9648  157.8153 H   0  0  0  0  0  0  0  0  0  0  0  0
  1  2  1  0  0  0  0
  1 19  1  0  0  0  0
  1 20  1  0  0  0  0
  1 21  1  0  0  0  0
  2 18  1  0  0  0  0
  2  3  1  0  0  0  0
  2 16  1  0  0  0  0
  3  4  1  0  0  0  0
  3 22  1  0  0  0  0
  4  5  2  0  0  0  0
  4  6  1  0  0  0  0
  6  7  1  0  0  0  0
  6 23  1  0  0  0  0
  7 12  1  0  0  0  0
  7  8  2  0  0  0  0
  8  9  1  0  0  0  0
  8 24  1  0  0  0  0
  9 10  2  0  0  0  0
  9 25  1  0  0  0  0
 10 11  1  0  0  0  0
 11 12  2  0  0  0  0
 11 26  1  0  0  0  0
 12 13  1  0  0  0  0
 13 14  2  0  0  0  0
 13 15  1  0  0  0  0
 16 17  1  0  0  0  0
 16 27  1  0  0  0  0
 16 28  1  0  0  0  0
 17 18  1  0  0  0  0
 17 29  1  0  0  0  0
 17 30  1  0  0  0  0
 18 31  1  0  0  0  0
 18 32  1  0  0  0  0
M  CHG  1  13   1
M  CHG  1  15  -1
M  END
> <s_m_source_file>
AV-unprocessed.smi

> <i_m_source_file_index>
2464

> <i_lp_mmshare_version>
43012

> <i_f3d_flags>
0

> <s_epik_input>
W0NIMl0xW0NIMl1bQ0gyXUMxKFtDSDNdKVtOSF1DKD1PKVtOSF1jMltjSF1bY0hdbltjSF1jMltOK10oPU8pW08tXQ==

> <s_epik_cmdline>
J2VwaWtfcHl0aG9uJywgJy1waCcsICc3LjAnLCAnLXRuJywgJzgnLCAnLW1hJywgJzIwMCcsICctbWV0YWxfYmluZGluZycsICctaW1hZScsICc8aW5maWxlLm1hZT4nLCAnLW9tYWUnLCAnPG91dGZpbGUubWFlPic=

> <r_lp_tautomer_probability>
1

> <r_epik_Ionization_Penalty>
0.000161487

> <r_epik_Ionization_Penalty_Charging>
0

> <r_epik_Ionization_Penalty_Neutral>
0.000161487

> <r_epik_State_Penalty>
-0

> <r_epik_Charging_Adjusted_Penalty>
0

> <i_epik_Tot_Q>
0

> <i_epik_Tot_abs_Q>
2

> <r_epik_Metal_State_Penalty>
-0

> <b_epik_Metal_Only>
0

> <s_lp_Force_Field>
OPLS_2005

> <r_lp_Energy>
25.6435

> <b_lp_Chiralities_Consistent>
1

> <s_lp_Variant>
AV-unprocessed.smi:2464-1

> <Gold.Version>
5.8.1

> <Gold.Id.Protein>
6NUR|6NUR_protein|mol2

> <Gold.PLP.Fitness>
44.5584

> <Gold.PLP.PLP>
-38.0474

> <Gold.PLP.part.hbond>
-2.0000

> <Gold.PLP.part.metal>
0.0000

> <Gold.PLP.part.buried>
-5.9417

> <Gold.PLP.part.nonpolar>
-32.4065

> <Gold.PLP.part.repulsive>
1.2462

> <Gold.PLP.ligand.clash>
0.0000

> <Gold.PLP.ligand.torsion>
0.6545

> <Gold.PLP.Chemscore.Hbond>
1.4644

> <Gold.PLP.Chemscore.CHOScore>
1.0421

> <Gold.PLP.Chemscore.Metal>
0.0000

> <Gold.Chemscore.Hbonds>
donor molecule, donor type, donor heavy atom, donor atom, acceptor molecule, acceptor atom, score
      P1  H  7997  8009       L1    15  1.00
      P1  H 10752 10765       L1    14  0.66
      L1  C    11    26       P1  7948  0.95

> <Gold.PLP.Chemscore.Internal.Correction>
0.3005

> <Gold.Rescore>
     Score         DG    S(hbond)    S(metal)    S(lipo)     H(rot)  DE(clash)    DE(int)     intcor
     15.07     -19.86       1.80        0.00      93.26       1.00       0.52       4.27       ----

> <Gold.Chemscore.Fitness>
15.0692

> <Gold.Chemscore.DG>
-19.8576

> <Gold.Chemscore.ZeroCoef>
-5.4800

> <Gold.Chemscore.Hbond>
1.8044

> <Gold.Chemscore.Metal>
0.0000

> <Gold.Chemscore.Lipo>
93.2550

> <Gold.Chemscore.Internal_Hbond>
0.0000

> <Gold.Chemscore.DEClash>
0.5155

> <Gold.Chemscore.DEInternal>
4.2729

> <Gold.Chemscore.Rot>
1.0000

> <Gold.Chemscore.Internal.Correction>
   9.000000E+99

> <Gold.Chemscore.Hbonds>
donor molecule, donor type, donor heavy atom, donor atom, acceptor molecule, acceptor atom, score
      P1  H  7997  8009       L1    15  0.94
      P1  H 10752 10765       L1    14  0.62

> <Gold.Chemscore.Hbond.Weighted>
-6.0267

> <Gold.Chemscore.Metal.Weighted>
-0.0000

> <Gold.Chemscore.Lipo.Weighted>
-10.9108

> <Gold.Chemscore.Internal_Hbond.Weighted>
0.0000

> <Gold.Chemscore.DEClash.Weighted>
0.5155

> <Gold.Chemscore.DEInternal.Weighted>
4.2729

> <Gold.Chemscore.Rot.Weighted>
2.5600

> <Gold.Chemscore.Internal.Correction.Weighted>
   9.000000E+99

> <Gold.Protein.RotatedTorsions>
[ 6907 6896 6895 6894 ] final   31.74 input  -60.11 | X-H torsion
[ 7974 7965 7964 7962 ] final  -58.62 input  175.53 | X-H torsion
[ 8008 7997 7996 7995 ] final -137.03 input   59.86 | X-H torsion
[ 10167 10162 10161 10158 ] final -136.58 input  -65.29 | X-H torsion
[ 10718 10713 10712 10709 ] final  -95.76 input   66.30 | X-H torsion
[ 10763 10752 10751 10750 ] final  162.84 input  -60.55 | X-H torsion
[ 11005 11000 10999 10996 ] final  -27.69 input  -57.11 | X-H torsion

> <Gold.Protein.ActiveResidues>
 VAL166  LYS551  ARG553  GLY616  TRP617  ASP618  TYR619  PRO620  LYS621  CYS622 
 ASP623  PHE694  ASN695  SER759  ASP760  ASP761  ALA762  ILE779  LEU786  VAL792 
 PHE793  MET794  SER795  GLU796  ALA797  LYS798  CYS799  TRP800  GLU811  SER814 

> <Gold.Protein.RotatedAtoms>
  152.0646  134.9573  160.0574 H   0  0  0  0  0  0  0  0  0  0  0  0  # atno 6907 bound_to 6896
  152.0922  133.4202  159.4557 H   0  0  0  0  0  0  0  0  0  0  0  0  # atno 6908 bound_to 6896
  150.6837  134.2777  159.4658 H   0  0  0  0  0  0  0  0  0  0  0  0  # atno 6909 bound_to 6896
  145.8372  140.8441  143.0053 H   0  0  0  0  0  0  0  0  0  0  0  0  # atno 7974 bound_to 7965
  155.4050  140.0508  157.3035 H   0  0  0  0  0  0  0  0  0  0  0  0  # atno 8008 bound_to 7997
  154.4973  140.2143  155.9381 H   0  0  0  0  0  0  0  0  0  0  0  0  # atno 8009 bound_to 7997
  156.1422  140.3152  155.8518 H   0  0  0  0  0  0  0  0  0  0  0  0  # atno 8010 bound_to 7997
  139.8663  143.7013  152.2645 H   0  0  0  0  0  0  0  0  0  0  0  0  # atno 10167 bound_to 10162
  156.0049  130.5123  150.6125 H   0  0  0  0  0  0  0  0  0  0  0  0  # atno 10718 bound_to 10713
  154.2845  135.2762  155.2682 H   0  0  0  0  0  0  0  0  0  0  0  0  # atno 10763 bound_to 10752
  154.5188  135.5762  153.6668 H   0  0  0  0  0  0  0  0  0  0  0  0  # atno 10764 bound_to 10752
  152.9924  135.6199  154.3006 H   0  0  0  0  0  0  0  0  0  0  0  0  # atno 10765 bound_to 10752
  140.9141  133.7441  156.0711 H   0  0  0  0  0  0  0  0  0  0  0  0  # atno 11005 bound_to 11000
  144.6736  140.0759  143.7471 LP  0  0  0  0  0  0  0  0  0  0  0  0  # atno 17320 bound_to 7965
  145.9505  139.2731  143.1215 LP  0  0  0  0  0  0  0  0  0  0  0  0  # atno 17321 bound_to 7965
  139.7326  144.7579  151.0778 LP  0  0  0  0  0  0  0  0  0  0  0  0  # atno 17342 bound_to 10162
  140.7767  143.5070  150.9700 LP  0  0  0  0  0  0  0  0  0  0  0  0  # atno 17343 bound_to 10162
  157.3955  131.0802  151.1356 LP  0  0  0  0  0  0  0  0  0  0  0  0  # atno 17370 bound_to 10713
  157.2034  130.6405  149.5747 LP  0  0  0  0  0  0  0  0  0  0  0  0  # atno 17371 bound_to 10713
  140.8072  134.3441  157.5422 LP  0  0  0  0  0  0  0  0  0  0  0  0  # atno 17394 bound_to 11000
  139.8763  134.9232  156.3320 LP  0  0  0  0  0  0  0  0  0  0  0  0  # atno 17395 bound_to 11000

$$$$
