AV-unprocessed.smi:2881|AV-procd|sdf|11066|dock3
  -GOLD-   2272015543D 1   1.00000     0.00000
 Structure written by MMmdl.
 40 42  0  0  0  0  0  0  0  0  1 V2000
  153.2948  142.8334  162.7175 C   0  0  0  0  0  0  0  0  0  0  0  0
  152.6326  142.9672  161.3775 C   0  0  0  0  0  0  0  0  0  0  0  0
  152.9157  142.2411  160.1840 C   0  0  0  0  0  0  0  0  0  0  0  0
  152.0313  142.7379  159.2676 C   0  0  0  0  0  0  0  0  0  0  0  0
  151.7888  142.3807  157.8350 C   0  0  0  0  0  0  0  0  0  0  0  0
  150.3700  141.8422  157.6473 C   0  0  0  0  0  0  0  0  0  0  0  0
  149.5907  141.8117  158.5991 O   0  0  0  0  0  0  0  0  0  0  0  0
  150.0620  141.3945  156.4198 N   0  0  0  0  0  0  0  0  0  0  0  0
  148.8206  140.7195  156.0443 C   0  0  1  0  0  0  0  0  0  0  0  0
  147.8611  141.7142  155.3564 C   0  0  2  0  0  0  0  0  0  0  0  0
  146.4500  141.1004  155.3084 C   0  0  0  0  0  0  0  0  0  0  0  0
  146.6035  139.9936  154.2478 C   0  0  0  0  0  0  0  0  0  0  0  0
  148.0813  140.1228  153.8271 C   0  0  1  0  0  0  0  0  0  0  0  0
  148.2843  141.6312  153.8946 C   0  0  0  0  0  0  0  0  0  0  0  0
  148.9886  139.6019  154.9690 C   0  0  1  0  0  0  0  0  0  0  0  0
  150.4370  139.3053  154.5123 C   0  0  0  0  0  0  0  0  0  0  0  0
  150.4419  138.3755  153.4501 O   0  0  0  0  0  0  0  0  0  0  0  0
  151.3015  143.7030  159.9242 N   0  0  0  0  0  0  0  0  0  0  0  0
  151.6574  143.8490  161.2136 N   0  0  0  0  0  0  0  0  0  0  0  0
  150.5616  144.2544  159.5127 H   0  0  0  0  0  0  0  0  0  0  0  0
  153.5100  141.7890  162.9435 H   0  0  0  0  0  0  0  0  0  0  0  0
  152.6647  143.2205  163.5191 H   0  0  0  0  0  0  0  0  0  0  0  0
  154.2379  143.3795  162.7416 H   0  0  0  0  0  0  0  0  0  0  0  0
  153.6504  141.4652  160.0284 H   0  0  0  0  0  0  0  0  0  0  0  0
  152.5047  141.6261  157.5073 H   0  0  0  0  0  0  0  0  0  0  0  0
  151.9390  143.2544  157.1992 H   0  0  0  0  0  0  0  0  0  0  0  0
  150.7691  141.4685  155.7027 H   0  0  0  0  0  0  0  0  0  0  0  0
  148.3478  140.3169  156.9421 H   0  0  0  0  0  0  0  0  0  0  0  0
  147.8773  142.7170  155.7854 H   0  0  0  0  0  0  0  0  0  0  0  0
  146.1297  140.7114  156.2757 H   0  0  0  0  0  0  0  0  0  0  0  0
  145.7157  141.8398  154.9864 H   0  0  0  0  0  0  0  0  0  0  0  0
  146.3668  139.0038  154.6397 H   0  0  0  0  0  0  0  0  0  0  0  0
  145.9420  140.1823  153.4014 H   0  0  0  0  0  0  0  0  0  0  0  0
  148.2874  139.6769  152.8538 H   0  0  0  0  0  0  0  0  0  0  0  0
  147.6278  142.1864  153.2223 H   0  0  0  0  0  0  0  0  0  0  0  0
  149.3152  141.9428  153.7207 H   0  0  0  0  0  0  0  0  0  0  0  0
  148.5784  138.6708  155.3639 H   0  0  0  0  0  0  0  0  0  0  0  0
  150.9540  140.2112  154.1946 H   0  0  0  0  0  0  0  0  0  0  0  0
  151.0144  138.8716  155.3286 H   0  0  0  0  0  0  0  0  0  0  0  0
  150.2650  138.8390  152.6453 H   0  0  0  0  0  0  0  0  0  0  0  0
  1 21  1  0  0  0  0
  1 22  1  0  0  0  0
  1 23  1  0  0  0  0
  1  2  1  0  0  0  0
  2 19  2  0  0  0  0
  2  3  1  0  0  0  0
  3  4  2  0  0  0  0
  3 24  1  0  0  0  0
  4 18  1  0  0  0  0
  4  5  1  0  0  0  0
  5  6  1  0  0  0  0
  5 25  1  0  0  0  0
  5 26  1  0  0  0  0
  6  7  2  0  0  0  0
  6  8  1  0  0  0  0
  8  9  1  0  0  0  0
  8 27  1  0  0  0  0
  9 15  1  0  0  0  0
  9 10  1  0  0  0  0
  9 28  1  0  0  0  0
 10 14  1  0  0  0  0
 10 11  1  0  0  0  0
 10 29  1  0  0  0  0
 11 12  1  0  0  0  0
 11 30  1  0  0  0  0
 11 31  1  0  0  0  0
 12 13  1  0  0  0  0
 12 32  1  0  0  0  0
 12 33  1  0  0  0  0
 13 14  1  0  0  0  0
 13 15  1  0  0  0  0
 13 34  1  0  0  0  0
 14 35  1  0  0  0  0
 14 36  1  0  0  0  0
 15 16  1  0  0  0  0
 15 37  1  0  0  0  0
 16 17  1  0  0  0  0
 16 38  1  0  0  0  0
 16 39  1  0  0  0  0
 17 40  1  0  0  0  0
 18 19  1  0  0  0  0
 18 20  1  0  0  0  0
M  END
> <s_m_source_file>
AV-unprocessed.smi

> <i_m_source_file_index>
2881

> <i_lp_mmshare_version>
43012

> <i_f3d_flags>
0

> <s_epik_input>
W0NIM11jMVtjSF1jKG5bbkhdMSlbQ0gyXUMoPU8pW05IXVtDQEhdKFtDQEBIXTIzKVtDQEhdKFtDSDJdW09IXSlbQ0BASF0oW0NIMl0zKVtDSDJdW0NIMl0y

> <s_epik_cmdline>
J2VwaWtfcHl0aG9uJywgJy1waCcsICc3LjAnLCAnLXRuJywgJzgnLCAnLW1hJywgJzIwMCcsICctbWV0YWxfYmluZGluZycsICctaW1hZScsICc8aW5maWxlLm1hZT4nLCAnLW9tYWUnLCAnPG91dGZpbGUubWFlPic=

> <r_lp_tautomer_probability>
0.5

> <r_epik_Ionization_Penalty>
0.00013396

> <r_epik_Ionization_Penalty_Charging>
0

> <r_epik_Ionization_Penalty_Neutral>
0.00013396

> <r_epik_State_Penalty>
0.41068

> <r_epik_Charging_Adjusted_Penalty>
0.41068

> <i_epik_Tot_Q>
0

> <i_epik_Tot_abs_Q>
0

> <r_epik_Metal_State_Penalty>
0.41066

> <b_epik_Metal_Only>
0

> <s_lp_Force_Field>
OPLS_2005

> <r_lp_Energy>
46.6503

> <b_lp_Chiralities_Consistent>
1

> <s_lp_Variant>
AV-unprocessed.smi:2881-12

> <Gold.Version>
5.8.1

> <Gold.Id.Protein>
6NUR|6NUR_protein|mol2

> <Gold.PLP.Fitness>
38.5209

> <Gold.PLP.PLP>
-36.1770

> <Gold.PLP.part.hbond>
-3.0558

> <Gold.PLP.part.metal>
0.0000

> <Gold.PLP.part.buried>
-2.6926

> <Gold.PLP.part.nonpolar>
-29.1684

> <Gold.PLP.part.repulsive>
0.3608

> <Gold.PLP.ligand.clash>
0.0000

> <Gold.PLP.ligand.torsion>
0.3435

> <Gold.PLP.Chemscore.Hbond>
1.0000

> <Gold.PLP.Chemscore.CHOScore>
0.0000

> <Gold.PLP.Chemscore.Metal>
0.0000

> <Gold.Chemscore.Hbonds>
donor molecule, donor type, donor heavy atom, donor atom, acceptor molecule, acceptor atom, score
      L1  H    17    40       P1  7957  1.00

> <Gold.PLP.Chemscore.Internal.Correction>
0.0310

> <Gold.Rescore>
     Score         DG    S(hbond)    S(metal)    S(lipo)     H(rot)  DE(clash)    DE(int)     intcor
     12.84     -13.52       0.91        0.00      92.66       2.28       0.24       0.43       ----

> <Gold.Chemscore.Fitness>
12.8433

> <Gold.Chemscore.DG>
-13.5185

> <Gold.Chemscore.ZeroCoef>
-5.4800

> <Gold.Chemscore.Hbond>
0.9050

> <Gold.Chemscore.Metal>
0.0000

> <Gold.Chemscore.Lipo>
92.6579

> <Gold.Chemscore.Internal_Hbond>
0.0000

> <Gold.Chemscore.DEClash>
0.2429

> <Gold.Chemscore.DEInternal>
0.4322

> <Gold.Chemscore.Rot>
2.2755

> <Gold.Chemscore.Internal.Correction>
   9.000000E+99

> <Gold.Chemscore.Hbonds>
donor molecule, donor type, donor heavy atom, donor atom, acceptor molecule, acceptor atom, score
      L1  H    17    40       P1  7957  0.34

> <Gold.Chemscore.Hbond.Weighted>
-3.0227

> <Gold.Chemscore.Metal.Weighted>
-0.0000

> <Gold.Chemscore.Lipo.Weighted>
-10.8410

> <Gold.Chemscore.Internal_Hbond.Weighted>
0.0000

> <Gold.Chemscore.DEClash.Weighted>
0.2429

> <Gold.Chemscore.DEInternal.Weighted>
0.4322

> <Gold.Chemscore.Rot.Weighted>
5.8252

> <Gold.Chemscore.Internal.Correction.Weighted>
   9.000000E+99

> <Gold.Protein.RotatedTorsions>
[ 6907 6896 6895 6894 ] final  136.51 input  -60.11 | X-H torsion
[ 7974 7965 7964 7962 ] final -102.58 input  175.53 | X-H torsion
[ 8008 7997 7996 7995 ] final   48.86 input   59.86 | X-H torsion
[ 10167 10162 10161 10158 ] final  -72.27 input  -65.29 | X-H torsion
[ 10718 10713 10712 10709 ] final -179.46 input   66.30 | X-H torsion
[ 10763 10752 10751 10750 ] final  -29.62 input  -60.55 | X-H torsion
[ 11005 11000 10999 10996 ] final  -18.89 input  -57.11 | X-H torsion

> <Gold.Protein.ActiveResidues>
 VAL166  LYS551  ARG553  GLY616  TRP617  ASP618  TYR619  PRO620  LYS621  CYS622 
 ASP623  PHE694  ASN695  SER759  ASP760  ASP761  ALA762  ILE779  LEU786  VAL792 
 PHE793  MET794  SER795  GLU796  ALA797  LYS798  CYS799  TRP800  GLU811  SER814 

> <Gold.Protein.RotatedAtoms>
  152.2886  133.5539  159.5542 H   0  0  0  0  0  0  0  0  0  0  0  0  # atno 6907 bound_to 6896
  150.7225  134.0461  159.3791 H   0  0  0  0  0  0  0  0  0  0  0  0  # atno 6908 bound_to 6896
  151.8368  135.0603  160.0494 H   0  0  0  0  0  0  0  0  0  0  0  0  # atno 6909 bound_to 6896
  145.2669  140.9286  143.3009 H   0  0  0  0  0  0  0  0  0  0  0  0  # atno 7974 bound_to 7965
  155.3927  140.3434  155.4252 H   0  0  0  0  0  0  0  0  0  0  0  0  # atno 8008 bound_to 7997
  156.1548  140.1582  156.8743 H   0  0  0  0  0  0  0  0  0  0  0  0  # atno 8009 bound_to 7997
  154.5085  140.0796  156.7924 H   0  0  0  0  0  0  0  0  0  0  0  0  # atno 8010 bound_to 7997
  140.5205  143.2332  151.7437 H   0  0  0  0  0  0  0  0  0  0  0  0  # atno 10167 bound_to 10162
  156.8594  130.9746  151.3085 H   0  0  0  0  0  0  0  0  0  0  0  0  # atno 10718 bound_to 10713
  153.7676  135.6914  153.4913 H   0  0  0  0  0  0  0  0  0  0  0  0  # atno 10763 bound_to 10752
  153.1896  135.4476  155.0131 H   0  0  0  0  0  0  0  0  0  0  0  0  # atno 10764 bound_to 10752
  154.8130  135.3386  154.7187 H   0  0  0  0  0  0  0  0  0  0  0  0  # atno 10765 bound_to 10752
  140.8313  133.7995  155.9761 H   0  0  0  0  0  0  0  0  0  0  0  0  # atno 11005 bound_to 11000
  144.9369  139.4233  143.6468 LP  0  0  0  0  0  0  0  0  0  0  0  0  # atno 17320 bound_to 7965
  146.3258  139.8309  142.8908 LP  0  0  0  0  0  0  0  0  0  0  0  0  # atno 17321 bound_to 7965
  139.4922  144.4261  151.9924 LP  0  0  0  0  0  0  0  0  0  0  0  0  # atno 17342 bound_to 10162
  140.3357  144.3263  150.5977 LP  0  0  0  0  0  0  0  0  0  0  0  0  # atno 17343 bound_to 10162
  157.6259  130.8691  149.9188 LP  0  0  0  0  0  0  0  0  0  0  0  0  # atno 17370 bound_to 10713
  156.0785  130.3676  150.0629 LP  0  0  0  0  0  0  0  0  0  0  0  0  # atno 17371 bound_to 10713
  140.8995  134.2396  157.5049 LP  0  0  0  0  0  0  0  0  0  0  0  0  # atno 17394 bound_to 11000
  139.8705  134.9700  156.4685 LP  0  0  0  0  0  0  0  0  0  0  0  0  # atno 17395 bound_to 11000

$$$$
