AV-unprocessed.smi:1|AV-procd|sdf|16|dock2
  -GOLD-   2262015113D 1   1.00000     0.00000
 Structure written by MMmdl.
 57 62  0  0  0  0  0  0  0  0  1 V2000
  154.5541  139.4775  159.9428 O   0  0  0  0  0  0  0  0  0  0  0  0
  153.7121  140.2543  159.4835 C   0  0  0  0  0  0  0  0  0  0  0  0
  153.0226  140.1781  158.2803 N   0  0  0  0  0  0  0  0  0  0  0  0
  151.9533  139.4470  158.1868 C   0  0  0  0  0  0  0  0  0  0  0  0
  151.2655  138.6520  159.1131 N   0  0  0  0  0  0  0  0  0  0  0  0
  150.0914  137.9246  158.8626 C   0  0  0  0  0  0  0  0  0  0  0  0
  149.4694  137.8818  157.7145 N   0  0  0  0  0  0  0  0  0  0  0  0
  150.1196  138.6465  156.7561 C   0  0  0  0  0  0  0  0  0  0  0  0
  151.2672  139.3993  156.8778 C   0  0  0  0  0  0  0  0  0  0  0  0
  151.5879  140.0092  155.6700 N   0  0  0  0  0  0  0  0  0  0  0  0
  150.6134  139.5922  154.8656 C   0  0  0  0  0  0  0  0  0  0  0  0
  149.7044  138.7753  155.4345 N   0  0  0  0  0  0  0  0  0  0  0  0
  148.4989  138.1422  154.8047 C   0  0  1  0  0  0  0  0  0  0  0  0
  147.8961  137.2977  155.7407 O   0  0  0  0  0  0  0  0  0  0  0  0
  146.7625  137.9443  156.3028 C   0  0  2  0  0  0  0  0  0  0  0  0
  145.8112  136.9328  156.9561 C   0  0  0  0  0  0  0  0  0  0  0  0
  146.3963  136.3902  158.1294 O   0  0  0  0  0  0  0  0  0  0  0  0
  146.5486  137.1565  159.2259 C   0  0  0  0  0  0  0  0  0  0  0  0
  146.4125  138.3817  159.2267 O   0  0  0  0  0  0  0  0  0  0  0  0
  146.8951  136.3651  160.4415 C   0  0  0  0  0  0  0  0  0  0  0  0
  146.9413  137.0109  161.6991 C   0  0  0  0  0  0  0  0  0  0  0  0
  147.2619  136.2890  162.8652 C   0  0  0  0  0  0  0  0  0  0  0  0
  147.5415  134.9122  162.7877 C   0  0  0  0  0  0  0  0  0  0  0  0
  147.5002  134.2582  161.5425 C   0  0  0  0  0  0  0  0  0  0  0  0
  147.1790  134.9784  160.3754 C   0  0  0  0  0  0  0  0  0  0  0  0
  146.1820  138.7405  155.1324 C   0  0  1  0  0  0  0  0  0  0  0  0
  145.4564  139.8767  155.5679 O   0  0  0  0  0  0  0  0  0  0  0  0
  146.4773  141.1987  155.5821 S   0  0  0  0  0  0  0  0  0  0  0  0
  145.9248  142.2171  154.6760 O   0  0  0  0  0  0  0  0  0  0  0  0
  146.8356  141.4906  156.9784 O   0  0  0  0  0  0  0  0  0  0  0  0
  147.8003  140.5009  154.8422 O   0  0  0  0  0  0  0  0  0  0  0  0
  147.4487  139.1994  154.3950 C   0  0  1  0  0  0  0  0  0  0  0  0
  153.3111  141.4258  160.3200 C   0  0  0  0  0  0  0  0  0  0  0  0
  152.5327  142.4609  159.7594 C   0  0  0  0  0  0  0  0  0  0  0  0
  152.1600  143.5693  160.5450 C   0  0  0  0  0  0  0  0  0  0  0  0
  152.5656  143.6472  161.8914 C   0  0  0  0  0  0  0  0  0  0  0  0
  153.3457  142.6174  162.4526 C   0  0  0  0  0  0  0  0  0  0  0  0
  153.7188  141.5081  161.6685 C   0  0  0  0  0  0  0  0  0  0  0  0
  149.7172  137.3756  159.7280 H   0  0  0  0  0  0  0  0  0  0  0  0
  150.5648  139.8941  153.8299 H   0  0  0  0  0  0  0  0  0  0  0  0
  148.8967  137.5656  153.9689 H   0  0  0  0  0  0  0  0  0  0  0  0
  147.1220  138.6333  157.0681 H   0  0  0  0  0  0  0  0  0  0  0  0
  144.8647  137.4146  157.2045 H   0  0  0  0  0  0  0  0  0  0  0  0
  145.5938  136.1288  156.2514 H   0  0  0  0  0  0  0  0  0  0  0  0
  146.7301  138.0673  161.7835 H   0  0  0  0  0  0  0  0  0  0  0  0
  147.2928  136.7927  163.8201 H   0  0  0  0  0  0  0  0  0  0  0  0
  147.7874  134.3585  163.6818 H   0  0  0  0  0  0  0  0  0  0  0  0
  147.7149  133.2015  161.4816 H   0  0  0  0  0  0  0  0  0  0  0  0
  147.1564  134.4454  159.4361 H   0  0  0  0  0  0  0  0  0  0  0  0
  145.5735  138.1149  154.4788 H   0  0  0  0  0  0  0  0  0  0  0  0
  147.3166  139.2040  153.3127 H   0  0  0  0  0  0  0  0  0  0  0  0
  152.2199  142.4094  158.7265 H   0  0  0  0  0  0  0  0  0  0  0  0
  151.5642  144.3605  160.1140 H   0  0  0  0  0  0  0  0  0  0  0  0
  152.2800  144.4977  162.4927 H   0  0  0  0  0  0  0  0  0  0  0  0
  153.6589  142.6785  163.4844 H   0  0  0  0  0  0  0  0  0  0  0  0
  154.3190  140.7231  162.1058 H   0  0  0  0  0  0  0  0  0  0  0  0
  151.6470  138.6036  160.0469 H   0  0  0  0  0  0  0  0  0  0  0  0
  1  2  2  0  0  0  0
  2  3  1  0  0  0  0
  2 33  1  0  0  0  0
  3  4  2  0  0  0  0
  4  9  1  0  0  0  0
  4  5  1  0  0  0  0
  5  6  1  0  0  0  0
  5 57  1  0  0  0  0
  6  7  2  0  0  0  0
  6 39  1  0  0  0  0
  7  8  1  0  0  0  0
  8 12  1  0  0  0  0
  8  9  2  0  0  0  0
  9 10  1  0  0  0  0
 10 11  2  0  0  0  0
 11 12  1  0  0  0  0
 11 40  1  0  0  0  0
 12 13  1  0  0  0  0
 13 32  1  0  0  0  0
 13 14  1  0  0  0  0
 13 41  1  0  0  0  0
 14 15  1  0  0  0  0
 15 16  1  0  0  0  0
 15 26  1  0  0  0  0
 15 42  1  0  0  0  0
 16 17  1  0  0  0  0
 16 43  1  0  0  0  0
 16 44  1  0  0  0  0
 17 18  1  0  0  0  0
 18 19  2  0  0  0  0
 18 20  1  0  0  0  0
 20 25  1  0  0  0  0
 20 21  2  0  0  0  0
 21 22  1  0  0  0  0
 21 45  1  0  0  0  0
 22 23  2  0  0  0  0
 22 46  1  0  0  0  0
 23 24  1  0  0  0  0
 23 47  1  0  0  0  0
 24 25  2  0  0  0  0
 24 48  1  0  0  0  0
 25 49  1  0  0  0  0
 26 32  1  0  0  0  0
 26 27  1  0  0  0  0
 26 50  1  0  0  0  0
 27 28  1  0  0  0  0
 28 29  2  0  0  0  0
 28 30  2  0  0  0  0
 28 31  1  0  0  0  0
 31 32  1  0  0  0  0
 32 51  1  0  0  0  0
 33 38  1  0  0  0  0
 33 34  2  0  0  0  0
 34 35  1  0  0  0  0
 34 52  1  0  0  0  0
 35 36  2  0  0  0  0
 35 53  1  0  0  0  0
 36 37  1  0  0  0  0
 36 54  1  0  0  0  0
 37 38  2  0  0  0  0
 37 55  1  0  0  0  0
 38 56  1  0  0  0  0
M  END
> <s_m_source_file>
AV-unprocessed.smi

> <i_m_source_file_index>
1

> <i_lp_mmshare_version>
43012

> <i_f3d_flags>
0

> <s_epik_input>
W2NIXTFbY0hdW2NIXVtjSF1bY0hdYzFDKD1PKVtOSF1jKG5bY0hdbjIpYyhjMjMpbltjSF1uM1tDQEBIXShbQ0BIXShbQ0BIXTQ1KU9TKE81KSg9Tyk9TylPW0NASF00W0NIMl1PQyg9TyljNltjSF1bY0hdW2NIXVtjSF1bY0hdNg==

> <s_epik_cmdline>
J2VwaWtfcHl0aG9uJywgJy1waCcsICc3LjAnLCAnLXRuJywgJzgnLCAnLW1hJywgJzIwMCcsICctbWV0YWxfYmluZGluZycsICctaW1hZScsICc8aW5maWxlLm1hZT4nLCAnLW9tYWUnLCAnPG91dGZpbGUubWFlPic=

> <r_epik_Ionization_Penalty>
0.122545

> <r_epik_Ionization_Penalty_Charging>
0.122545

> <r_epik_Ionization_Penalty_Neutral>
7.8935e-16

> <r_epik_State_Penalty>
2.69178

> <r_epik_Charging_Adjusted_Penalty>
2.81433

> <i_epik_Tot_Q>
0

> <i_epik_Tot_abs_Q>
0

> <r_epik_Metal_State_Penalty>
3.02665

> <b_epik_Metal_Only>
0

> <s_epik_Chemistry_Notes>
This compound has an ester and may undergo hydrolysis at high or low pH. This compound contains an acetal/aminal-like group ( X-CH(R)-Y where X, Y are N, S, or O) that may be acid/base labile, releasing an aldehyde.

> <s_lp_Force_Field>
OPLS_2005

> <r_lp_Energy>
59.1261

> <b_lp_Chiralities_Consistent>
1

> <s_lp_Variant>
AV-unprocessed.smi:1-16

> <Gold.Version>
5.8.1

> <Gold.Id.Protein>
6NUR|6NUR_protein|mol2

> <Gold.PLP.Fitness>
58.4904

> <Gold.PLP.PLP>
-54.6901

> <Gold.PLP.part.hbond>
-2.4480

> <Gold.PLP.part.metal>
0.0000

> <Gold.PLP.part.buried>
-6.6094

> <Gold.PLP.part.nonpolar>
-45.0068

> <Gold.PLP.part.repulsive>
0.5969

> <Gold.PLP.ligand.clash>
0.0000

> <Gold.PLP.ligand.torsion>
1.0855

> <Gold.PLP.Chemscore.Hbond>
1.5200

> <Gold.PLP.Chemscore.CHOScore>
0.2823

> <Gold.PLP.Chemscore.Metal>
0.0000

> <Gold.Chemscore.Hbonds>
donor molecule, donor type, donor heavy atom, donor atom, acceptor molecule, acceptor atom, score
      P1  H  6934  6947       L1    19  0.50
      P1  H  7997  8010       L1     3  0.98
      L1  C    11    40       P1  7957  0.25

> <Gold.PLP.Chemscore.Internal.Correction>
0.5644

> <Gold.Rescore>
     Score         DG    S(hbond)    S(metal)    S(lipo)     H(rot)  DE(clash)    DE(int)     intcor
     13.15     -18.14       1.33        0.00     116.76       2.13       0.20       4.78       ----

> <Gold.Chemscore.Fitness>
13.1537

> <Gold.Chemscore.DG>
-18.1357

> <Gold.Chemscore.ZeroCoef>
-5.4800

> <Gold.Chemscore.Hbond>
1.3341

> <Gold.Chemscore.Metal>
0.0000

> <Gold.Chemscore.Lipo>
116.7624

> <Gold.Chemscore.Internal_Hbond>
0.0000

> <Gold.Chemscore.DEClash>
0.2021

> <Gold.Chemscore.DEInternal>
4.7799

> <Gold.Chemscore.Rot>
2.1333

> <Gold.Chemscore.Internal.Correction>
   9.000000E+99

> <Gold.Chemscore.Hbonds>
donor molecule, donor type, donor heavy atom, donor atom, acceptor molecule, acceptor atom, score
      P1  H  6934  6947       L1    19  0.32
      P1  H  7997  8010       L1     3  0.27

> <Gold.Chemscore.Hbond.Weighted>
-4.4559

> <Gold.Chemscore.Metal.Weighted>
-0.0000

> <Gold.Chemscore.Lipo.Weighted>
-13.6612

> <Gold.Chemscore.Internal_Hbond.Weighted>
0.0000

> <Gold.Chemscore.DEClash.Weighted>
0.2021

> <Gold.Chemscore.DEInternal.Weighted>
4.7799

> <Gold.Chemscore.Rot.Weighted>
5.4614

> <Gold.Chemscore.Internal.Correction.Weighted>
   9.000000E+99

> <Gold.Protein.RotatedTorsions>
[ 6907 6896 6895 6894 ] final   79.87 input  -60.11 | X-H torsion
[ 7974 7965 7964 7962 ] final -154.96 input  175.53 | X-H torsion
[ 8008 7997 7996 7995 ] final   38.28 input   59.86 | X-H torsion
[ 10167 10162 10161 10158 ] final  -46.44 input  -65.29 | X-H torsion
[ 10718 10713 10712 10709 ] final   63.38 input   66.30 | X-H torsion
[ 10763 10752 10751 10750 ] final  -56.30 input  -60.55 | X-H torsion
[ 11005 11000 10999 10996 ] final  139.41 input  -57.11 | X-H torsion

> <Gold.Protein.ActiveResidues>
 VAL166  LYS551  ARG553  GLY616  TRP617  ASP618  TYR619  PRO620  LYS621  CYS622 
 ASP623  PHE694  ASN695  SER759  ASP760  ASP761  ALA762  ILE779  LEU786  VAL792 
 PHE793  MET794  SER795  GLU796  ALA797  LYS798  CYS799  TRP800  GLU811  SER814 

> <Gold.Protein.RotatedAtoms>
  152.5214  134.3445  159.9228 H   0  0  0  0  0  0  0  0  0  0  0  0  # atno 6907 bound_to 6896
  151.3395  133.3962  159.2677 H   0  0  0  0  0  0  0  0  0  0  0  0  # atno 6908 bound_to 6896
  150.9815  134.9187  159.7905 H   0  0  0  0  0  0  0  0  0  0  0  0  # atno 6909 bound_to 6896
  144.7663  140.4315  143.5939 H   0  0  0  0  0  0  0  0  0  0  0  0  # atno 7974 bound_to 7965
  155.2175  140.3328  155.4320 H   0  0  0  0  0  0  0  0  0  0  0  0  # atno 8008 bound_to 7997
  156.2346  140.1866  156.7201 H   0  0  0  0  0  0  0  0  0  0  0  0  # atno 8009 bound_to 7997
  154.6037  140.0619  156.9388 H   0  0  0  0  0  0  0  0  0  0  0  0  # atno 8010 bound_to 7997
  140.6817  143.2831  151.3783 H   0  0  0  0  0  0  0  0  0  0  0  0  # atno 10167 bound_to 10162
  157.5967  130.9102  149.9708 H   0  0  0  0  0  0  0  0  0  0  0  0  # atno 10718 bound_to 10713
  154.2045  135.6405  153.5097 H   0  0  0  0  0  0  0  0  0  0  0  0  # atno 10763 bound_to 10752
  153.0004  135.5459  154.6280 H   0  0  0  0  0  0  0  0  0  0  0  0  # atno 10764 bound_to 10752
  154.5701  135.2916  155.0809 H   0  0  0  0  0  0  0  0  0  0  0  0  # atno 10765 bound_to 10752
  140.0253  134.9378  157.0555 H   0  0  0  0  0  0  0  0  0  0  0  0  # atno 11005 bound_to 11000
  145.6459  139.1557  143.2889 LP  0  0  0  0  0  0  0  0  0  0  0  0  # atno 17320 bound_to 7965
  146.1773  140.6552  142.9205 LP  0  0  0  0  0  0  0  0  0  0  0  0  # atno 17321 bound_to 7965
  139.6145  144.1031  152.2332 LP  0  0  0  0  0  0  0  0  0  0  0  0  # atno 17342 bound_to 10162
  140.0456  144.5973  150.7376 LP  0  0  0  0  0  0  0  0  0  0  0  0  # atno 17343 bound_to 10162
  156.1031  130.3654  150.0182 LP  0  0  0  0  0  0  0  0  0  0  0  0  # atno 17370 bound_to 10713
  156.8294  130.9387  151.3638 LP  0  0  0  0  0  0  0  0  0  0  0  0  # atno 17371 bound_to 10713
  140.4317  134.1773  155.7168 LP  0  0  0  0  0  0  0  0  0  0  0  0  # atno 17394 bound_to 11000
  141.1799  133.8436  157.1295 LP  0  0  0  0  0  0  0  0  0  0  0  0  # atno 17395 bound_to 11000

$$$$
