AV-unprocessed.smi:3124|AV-procd|sdf|11903|dock6
  -GOLD-   2272017283D 1   1.00000     0.00000
 Structure written by MMmdl.
 24 24  0  0  0  0  0  0  0  0  2 V2000
  147.2520  141.7119  153.3692 C   0  0  0  0  0  0  0  0  0  0  0  0
  148.4560  141.2669  154.1278 C   0  0  0  0  0  0  0  0  0  0  0  0
  148.9665  141.6661  155.3310 C   0  0  0  0  0  0  0  0  0  0  0  0
  150.1328  140.8636  155.5032 C   0  0  0  0  0  0  0  0  0  0  0  0
  151.1016  140.8722  156.6550 C   0  0  0  0  0  0  0  0  0  0  0  0
  150.8314  142.0113  157.6572 C   0  0  1  0  0  0  0  0  0  0  0  0
  151.5424  141.7703  158.9959 C   0  0  0  0  0  0  0  0  0  0  0  0
  151.2309  143.3159  157.0976 N   0  3  0  0  0  0  0  0  0  0  0  0
  150.3283  140.0329  154.4895 N   0  0  0  0  0  0  0  0  0  0  0  0
  149.3003  140.2873  153.6586 N   0  0  0  0  0  0  0  0  0  0  0  0
  149.1909  139.7944  152.7833 H   0  0  0  0  0  0  0  0  0  0  0  0
  146.8029  142.5913  153.8314 H   0  0  0  0  0  0  0  0  0  0  0  0
  146.4990  140.9243  153.3412 H   0  0  0  0  0  0  0  0  0  0  0  0
  147.5125  141.9685  152.3421 H   0  0  0  0  0  0  0  0  0  0  0  0
  148.5677  142.4231  155.9900 H   0  0  0  0  0  0  0  0  0  0  0  0
  152.1218  140.9512  156.2765 H   0  0  0  0  0  0  0  0  0  0  0  0
  151.0532  139.9140  157.1745 H   0  0  0  0  0  0  0  0  0  0  0  0
  149.7591  142.0593  157.8509 H   0  0  0  0  0  0  0  0  0  0  0  0
  151.2238  140.8293  159.4455 H   0  0  0  0  0  0  0  0  0  0  0  0
  151.3201  142.5650  159.7090 H   0  0  0  0  0  0  0  0  0  0  0  0
  152.6250  141.7275  158.8702 H   0  0  0  0  0  0  0  0  0  0  0  0
  150.4530  143.7232  156.5990 H   0  0  0  0  0  0  0  0  0  0  0  0
  152.0073  143.1881  156.4643 H   0  0  0  0  0  0  0  0  0  0  0  0
  151.5082  143.9317  157.8491 H   0  0  0  0  0  0  0  0  0  0  0  0
  1 12  1  0  0  0  0
  1 13  1  0  0  0  0
  1 14  1  0  0  0  0
  1  2  1  0  0  0  0
  2 10  1  0  0  0  0
  2  3  2  0  0  0  0
  3  4  1  0  0  0  0
  3 15  1  0  0  0  0
  4  5  1  0  0  0  0
  4  9  2  0  0  0  0
  5  6  1  0  0  0  0
  5 16  1  0  0  0  0
  5 17  1  0  0  0  0
  6  7  1  0  0  0  0
  6  8  1  0  0  0  0
  6 18  1  0  0  0  0
  7 19  1  0  0  0  0
  7 20  1  0  0  0  0
  7 21  1  0  0  0  0
  8 22  1  0  0  0  0
  8 23  1  0  0  0  0
  8 24  1  0  0  0  0
  9 10  1  0  0  0  0
 10 11  1  0  0  0  0
M  CHG  1   8   1
M  END
> <s_m_source_file>
AV-unprocessed.smi

> <i_m_source_file_index>
3124

> <i_lp_mmshare_version>
43012

> <i_f3d_flags>
0

> <s_epik_input>
W0NIM11jMVtjSF1jKFtuSF1uMSlbQ0gyXVtDQEhdKFtDSDNdKVtOSDJd

> <s_epik_cmdline>
J2VwaWtfcHl0aG9uJywgJy1waCcsICc3LjAnLCAnLXRuJywgJzgnLCAnLW1hJywgJzIwMCcsICctbWV0YWxfYmluZGluZycsICctaW1hZScsICc8aW5maWxlLm1hZT4nLCAnLW9tYWUnLCAnPG91dGZpbGUubWFlPic=

> <r_lp_tautomer_probability>
0.5

> <r_epik_Ionization_Penalty>
0.00151643

> <r_epik_Ionization_Penalty_Charging>
0.00146569

> <r_epik_Ionization_Penalty_Neutral>
5.07401e-05

> <r_epik_State_Penalty>
0.379573

> <r_epik_Charging_Adjusted_Penalty>
0.381038

> <i_epik_Tot_Q>
1

> <i_epik_Tot_abs_Q>
1

> <r_epik_Metal_State_Penalty>
0.378341

> <b_epik_Metal_Only>
0

> <s_lp_Force_Field>
OPLS_2005

> <r_lp_Energy>
2.04404

> <b_lp_Chiralities_Consistent>
1

> <s_lp_Variant>
AV-unprocessed.smi:3124-2

> <Gold.Version>
5.8.1

> <Gold.Id.Protein>
6NUR|6NUR_protein|mol2

> <Gold.PLP.Fitness>
32.7037

> <Gold.PLP.PLP>
-21.8100

> <Gold.PLP.part.hbond>
-2.8206

> <Gold.PLP.part.metal>
0.0000

> <Gold.PLP.part.buried>
-4.4083

> <Gold.PLP.part.nonpolar>
-15.0767

> <Gold.PLP.part.repulsive>
1.1200

> <Gold.PLP.ligand.clash>
0.0000

> <Gold.PLP.ligand.torsion>
0.1587

> <Gold.PLP.Chemscore.Hbond>
3.7360

> <Gold.PLP.Chemscore.CHOScore>
0.0000

> <Gold.PLP.Chemscore.Metal>
0.0000

> <Gold.Chemscore.Hbonds>
donor molecule, donor type, donor heavy atom, donor atom, acceptor molecule, acceptor atom, score
      L1  H     8    22       P1  8028  1.82
      L1  H    10    11       P1  7957  0.75
      P1  H  7989  7998       L1     9  0.80

> <Gold.PLP.Chemscore.Internal.Correction>
0.0031

> <Gold.Rescore>
     Score         DG    S(hbond)    S(metal)    S(lipo)     H(rot)  DE(clash)    DE(int)     intcor
     16.28     -16.72       2.70        0.00      47.53       1.30       0.07       0.38       ----

> <Gold.Chemscore.Fitness>
16.2794

> <Gold.Chemscore.DG>
-16.7249

> <Gold.Chemscore.ZeroCoef>
-5.4800

> <Gold.Chemscore.Hbond>
2.6970

> <Gold.Chemscore.Metal>
0.0000

> <Gold.Chemscore.Lipo>
47.5333

> <Gold.Chemscore.Internal_Hbond>
0.0000

> <Gold.Chemscore.DEClash>
0.0659

> <Gold.Chemscore.DEInternal>
0.3795

> <Gold.Chemscore.Rot>
1.2987

> <Gold.Chemscore.Internal.Correction>
   9.000000E+99

> <Gold.Chemscore.Hbonds>
donor molecule, donor type, donor heavy atom, donor atom, acceptor molecule, acceptor atom, score
      L1  H     8    22       P1  8028  0.87
      L1  H    10    11       P1  7957  0.74
      P1  H  7989  7998       L1     9  0.05

> <Gold.Chemscore.Hbond.Weighted>
-9.0081

> <Gold.Chemscore.Metal.Weighted>
-0.0000

> <Gold.Chemscore.Lipo.Weighted>
-5.5614

> <Gold.Chemscore.Internal_Hbond.Weighted>
0.0000

> <Gold.Chemscore.DEClash.Weighted>
0.0659

> <Gold.Chemscore.DEInternal.Weighted>
0.3795

> <Gold.Chemscore.Rot.Weighted>
3.3246

> <Gold.Chemscore.Internal.Correction.Weighted>
   9.000000E+99

> <Gold.Protein.RotatedTorsions>
[ 6907 6896 6895 6894 ] final   24.84 input  -60.11 | X-H torsion
[ 7974 7965 7964 7962 ] final  -73.33 input  175.53 | X-H torsion
[ 8008 7997 7996 7995 ] final   19.97 input   59.86 | X-H torsion
[ 10167 10162 10161 10158 ] final  -63.69 input  -65.29 | X-H torsion
[ 10718 10713 10712 10709 ] final -155.96 input   66.30 | X-H torsion
[ 10763 10752 10751 10750 ] final  137.88 input  -60.55 | X-H torsion
[ 11005 11000 10999 10996 ] final   -8.09 input  -57.11 | X-H torsion

> <Gold.Protein.ActiveResidues>
 VAL166  LYS551  ARG553  GLY616  TRP617  ASP618  TYR619  PRO620  LYS621  CYS622 
 ASP623  PHE694  ASN695  SER759  ASP760  ASP761  ALA762  ILE779  LEU786  VAL792 
 PHE793  MET794  SER795  GLU796  ALA797  LYS798  CYS799  TRP800  GLU811  SER814 

> <Gold.Protein.RotatedAtoms>
  151.9636  135.0111  160.0548 H   0  0  0  0  0  0  0  0  0  0  0  0  # atno 6907 bound_to 6896
  152.1846  133.4726  159.4984 H   0  0  0  0  0  0  0  0  0  0  0  0  # atno 6908 bound_to 6896
  150.6923  134.1707  159.4254 H   0  0  0  0  0  0  0  0  0  0  0  0  # atno 6909 bound_to 6896
  145.6536  140.9275  143.0971 H   0  0  0  0  0  0  0  0  0  0  0  0  # atno 7974 bound_to 7965
  154.9287  140.3037  155.5179 H   0  0  0  0  0  0  0  0  0  0  0  0  # atno 8008 bound_to 7997
  156.3005  140.2358  156.4281 H   0  0  0  0  0  0  0  0  0  0  0  0  # atno 8009 bound_to 7997
  154.8259  140.0421  157.1432 H   0  0  0  0  0  0  0  0  0  0  0  0  # atno 8010 bound_to 7997
  140.5853  143.2333  151.6256 H   0  0  0  0  0  0  0  0  0  0  0  0  # atno 10167 bound_to 10162
  156.5200  130.8474  151.2678 H   0  0  0  0  0  0  0  0  0  0  0  0  # atno 10718 bound_to 10713
  153.8804  135.3045  155.3445 H   0  0  0  0  0  0  0  0  0  0  0  0  # atno 10763 bound_to 10752
  154.7764  135.4859  153.9756 H   0  0  0  0  0  0  0  0  0  0  0  0  # atno 10764 bound_to 10752
  153.1355  135.6813  153.9207 H   0  0  0  0  0  0  0  0  0  0  0  0  # atno 10765 bound_to 10752
  140.7197  133.8838  155.8812 H   0  0  0  0  0  0  0  0  0  0  0  0  # atno 11005 bound_to 11000
  144.7114  139.8358  143.7413 LP  0  0  0  0  0  0  0  0  0  0  0  0  # atno 17320 bound_to 7965
  146.1183  139.4197  143.0244 LP  0  0  0  0  0  0  0  0  0  0  0  0  # atno 17321 bound_to 7965
  139.5194  144.3255  152.0873 LP  0  0  0  0  0  0  0  0  0  0  0  0  # atno 17342 bound_to 10162
  140.2411  144.4268  150.6260 LP  0  0  0  0  0  0  0  0  0  0  0  0  # atno 17343 bound_to 10162
  157.7438  130.9920  150.2622 LP  0  0  0  0  0  0  0  0  0  0  0  0  # atno 17370 bound_to 10713
  156.3158  130.3778  149.7620 LP  0  0  0  0  0  0  0  0  0  0  0  0  # atno 17371 bound_to 10713
  141.0014  134.1145  157.4314 LP  0  0  0  0  0  0  0  0  0  0  0  0  # atno 17394 bound_to 11000
  139.8851  135.0069  156.6413 LP  0  0  0  0  0  0  0  0  0  0  0  0  # atno 17395 bound_to 11000

$$$$
