AV-unprocessed.smi:1126|AV-procd|sdf|4837|dock2
  -GOLD-   22720 3403D 1   1.00000     0.00000
 Structure written by MMmdl.
 48 49  0  0  0  0  0  0  0  0  2 V2000
  145.7012  133.0726  151.1275 C   0  0  0  0  0  0  0  0  0  0  0  0
  146.2093  132.2986  152.2005 O   0  0  0  0  0  0  0  0  0  0  0  0
  147.3330  132.9009  152.8213 C   0  0  0  0  0  0  0  0  0  0  0  0
  146.8477  134.0223  153.7534 C   0  0  0  0  0  0  0  0  0  0  0  0
  147.9243  134.9846  154.1018 N   0  3  2  0  0  0  0  0  0  0  0  0
  149.0903  134.3152  154.7330 C   0  0  0  0  0  0  0  0  0  0  0  0
  150.2501  135.3012  154.9509 C   0  0  0  0  0  0  0  0  0  0  0  0
  149.8088  136.5126  155.7955 C   0  0  1  0  0  0  0  0  0  0  0  0
  150.9375  137.5420  155.9907 C   0  0  0  0  0  0  0  0  0  0  0  0
  150.4242  138.8091  156.4937 N   0  0  0  0  0  0  0  0  0  0  0  0
  150.3821  139.9459  155.7839 C   0  0  0  0  0  0  0  0  0  0  0  0
  150.7884  140.0373  154.6259 O   0  0  0  0  0  0  0  0  0  0  0  0
  149.7900  141.1675  156.4874 C   0  0  0  0  0  0  0  0  0  0  0  0
  150.7363  141.7362  157.4303 N   0  0  0  0  0  0  0  0  0  0  0  0
  151.1768  143.0400  157.5198 C   0  0  0  0  0  0  0  0  0  0  0  0
  152.0570  143.1061  158.5625 C   0  0  0  0  0  0  0  0  0  0  0  0
  152.8156  144.2963  159.0752 C   0  0  0  0  0  0  0  0  0  0  0  0
  152.0871  141.7704  159.0552 C   0  0  0  0  0  0  0  0  0  0  0  0
  151.2962  140.9536  158.3780 N   0  0  0  0  0  0  0  0  0  0  0  0
  148.5780  137.1576  155.1357 C   0  0  0  0  0  0  0  0  0  0  0  0
  147.4520  136.1329  154.9193 C   0  0  0  0  0  0  0  0  0  0  0  0
  144.8484  132.5626  150.6795 H   0  0  0  0  0  0  0  0  0  0  0  0
  146.4539  133.2137  150.3509 H   0  0  0  0  0  0  0  0  0  0  0  0
  145.3648  134.0514  151.4719 H   0  0  0  0  0  0  0  0  0  0  0  0
  147.9218  132.1576  153.3589 H   0  0  0  0  0  0  0  0  0  0  0  0
  147.9838  133.3272  152.0562 H   0  0  0  0  0  0  0  0  0  0  0  0
  146.0100  134.5569  153.3032 H   0  0  0  0  0  0  0  0  0  0  0  0
  146.4626  133.5584  154.6627 H   0  0  0  0  0  0  0  0  0  0  0  0
  148.7871  133.8732  155.6835 H   0  0  0  0  0  0  0  0  0  0  0  0
  149.4341  133.4976  154.0985 H   0  0  0  0  0  0  0  0  0  0  0  0
  151.0768  134.7794  155.4342 H   0  0  0  0  0  0  0  0  0  0  0  0
  150.6247  135.6416  153.9842 H   0  0  0  0  0  0  0  0  0  0  0  0
  149.5096  136.1509  156.7809 H   0  0  0  0  0  0  0  0  0  0  0  0
  151.6866  137.1512  156.6816 H   0  0  0  0  0  0  0  0  0  0  0  0
  151.4441  137.7243  155.0416 H   0  0  0  0  0  0  0  0  0  0  0  0
  150.0616  138.8216  157.4362 H   0  0  0  0  0  0  0  0  0  0  0  0
  149.5045  141.9222  155.7525 H   0  0  0  0  0  0  0  0  0  0  0  0
  148.8848  140.8857  157.0268 H   0  0  0  0  0  0  0  0  0  0  0  0
  150.8285  143.8049  156.8411 H   0  0  0  0  0  0  0  0  0  0  0  0
  153.5919  144.0081  159.7842 H   0  0  0  0  0  0  0  0  0  0  0  0
  152.1593  145.0008  159.5862 H   0  0  0  0  0  0  0  0  0  0  0  0
  153.3051  144.8402  158.2672 H   0  0  0  0  0  0  0  0  0  0  0  0
  152.6572  141.3727  159.8818 H   0  0  0  0  0  0  0  0  0  0  0  0
  148.2102  137.9770  155.7545 H   0  0  0  0  0  0  0  0  0  0  0  0
  148.8585  137.5976  154.1775 H   0  0  0  0  0  0  0  0  0  0  0  0
  146.6163  136.6319  154.4305 H   0  0  0  0  0  0  0  0  0  0  0  0
  147.0840  135.7710  155.8808 H   0  0  0  0  0  0  0  0  0  0  0  0
  148.2582  135.3627  153.2264 H   0  0  0  0  0  0  0  0  0  0  0  0
  1  2  1  0  0  0  0
  1 22  1  0  0  0  0
  1 23  1  0  0  0  0
  1 24  1  0  0  0  0
  2  3  1  0  0  0  0
  3  4  1  0  0  0  0
  3 25  1  0  0  0  0
  3 26  1  0  0  0  0
  4  5  1  0  0  0  0
  4 27  1  0  0  0  0
  4 28  1  0  0  0  0
  5 21  1  0  0  0  0
  5  6  1  0  0  0  0
  5 48  1  0  0  0  0
  6  7  1  0  0  0  0
  6 29  1  0  0  0  0
  6 30  1  0  0  0  0
  7  8  1  0  0  0  0
  7 31  1  0  0  0  0
  7 32  1  0  0  0  0
  8  9  1  0  0  0  0
  8 20  1  0  0  0  0
  8 33  1  0  0  0  0
  9 10  1  0  0  0  0
  9 34  1  0  0  0  0
  9 35  1  0  0  0  0
 10 11  1  0  0  0  0
 10 36  1  0  0  0  0
 11 12  2  0  0  0  0
 11 13  1  0  0  0  0
 13 14  1  0  0  0  0
 13 37  1  0  0  0  0
 13 38  1  0  0  0  0
 14 19  1  0  0  0  0
 14 15  1  0  0  0  0
 15 16  2  0  0  0  0
 15 39  1  0  0  0  0
 16 17  1  0  0  0  0
 16 18  1  0  0  0  0
 17 40  1  0  0  0  0
 17 41  1  0  0  0  0
 17 42  1  0  0  0  0
 18 19  2  0  0  0  0
 18 43  1  0  0  0  0
 20 21  1  0  0  0  0
 20 44  1  0  0  0  0
 20 45  1  0  0  0  0
 21 46  1  0  0  0  0
 21 47  1  0  0  0  0
M  CHG  1   5   1
M  END
> <s_m_source_file>
AV-unprocessed.smi

> <i_m_source_file_index>
1126

> <i_lp_mmshare_version>
43012

> <i_f3d_flags>
0

> <s_epik_input>
W0NIM11PW0NIMl1bQ0gyXU4xW0NIMl1bQ0gyXVtDSF0oW0NIMl1bQ0gyXTEpW0NIMl1bTkhdQyg9TylbQ0gyXW4yW2NIXWMoW0NIM10pW2NIXW4y

> <s_epik_cmdline>
J2VwaWtfcHl0aG9uJywgJy1waCcsICc3LjAnLCAnLXRuJywgJzgnLCAnLW1hJywgJzIwMCcsICctbWV0YWxfYmluZGluZycsICctaW1hZScsICc8aW5maWxlLm1hZT4nLCAnLW9tYWUnLCAnPG91dGZpbGUubWFlPic=

> <r_lp_tautomer_probability>
1

> <r_epik_Ionization_Penalty>
0.00992859

> <r_epik_Ionization_Penalty_Charging>
0.00990284

> <r_epik_Ionization_Penalty_Neutral>
2.57527e-05

> <r_epik_State_Penalty>
0.00754525

> <r_epik_Charging_Adjusted_Penalty>
0.0174481

> <i_epik_Tot_Q>
1

> <i_epik_Tot_abs_Q>
1

> <r_epik_Metal_State_Penalty>
0.00754529

> <b_epik_Metal_Only>
0

> <s_lp_Force_Field>
OPLS_2005

> <r_lp_Energy>
19.6202

> <b_lp_Chiralities_Consistent>
1

> <s_lp_Variant>
AV-unprocessed.smi:1126-1

> <Gold.Version>
5.8.1

> <Gold.Id.Protein>
6NUR|6NUR_protein|mol2

> <Gold.PLP.Fitness>
44.3500

> <Gold.PLP.PLP>
-33.4922

> <Gold.PLP.part.hbond>
-1.9365

> <Gold.PLP.part.metal>
0.0000

> <Gold.PLP.part.buried>
-3.4703

> <Gold.PLP.part.nonpolar>
-29.0300

> <Gold.PLP.part.repulsive>
0.2414

> <Gold.PLP.ligand.clash>
0.0000

> <Gold.PLP.ligand.torsion>
0.5892

> <Gold.PLP.Chemscore.Hbond>
3.0000

> <Gold.PLP.Chemscore.CHOScore>
1.0000

> <Gold.PLP.Chemscore.Metal>
0.0000

> <Gold.Chemscore.Hbonds>
donor molecule, donor type, donor heavy atom, donor atom, acceptor molecule, acceptor atom, score
      L1  H     5    48       P1  7948  2.00
      P1  H  7989  7998       L1    12  1.00
      L1  C    15    39       P1  8028  1.00

> <Gold.PLP.Chemscore.Internal.Correction>
0.0362

> <Gold.Rescore>
     Score         DG    S(hbond)    S(metal)    S(lipo)     H(rot)  DE(clash)    DE(int)     intcor
     16.85     -17.66       1.96        0.00      94.18       2.10       0.05       0.75       ----

> <Gold.Chemscore.Fitness>
16.8531

> <Gold.Chemscore.DG>
-17.6575

> <Gold.Chemscore.ZeroCoef>
-5.4800

> <Gold.Chemscore.Hbond>
1.9567

> <Gold.Chemscore.Metal>
0.0000

> <Gold.Chemscore.Lipo>
94.1848

> <Gold.Chemscore.Internal_Hbond>
0.0000

> <Gold.Chemscore.DEClash>
0.0497

> <Gold.Chemscore.DEInternal>
0.7547

> <Gold.Chemscore.Rot>
2.1006

> <Gold.Chemscore.Internal.Correction>
   9.000000E+99

> <Gold.Chemscore.Hbonds>
donor molecule, donor type, donor heavy atom, donor atom, acceptor molecule, acceptor atom, score
      L1  H     5    48       P1  7948  0.99
      P1  H  7989  7998       L1    12  1.00

> <Gold.Chemscore.Hbond.Weighted>
-6.5354

> <Gold.Chemscore.Metal.Weighted>
-0.0000

> <Gold.Chemscore.Lipo.Weighted>
-11.0196

> <Gold.Chemscore.Internal_Hbond.Weighted>
0.0000

> <Gold.Chemscore.DEClash.Weighted>
0.0497

> <Gold.Chemscore.DEInternal.Weighted>
0.7547

> <Gold.Chemscore.Rot.Weighted>
5.3775

> <Gold.Chemscore.Internal.Correction.Weighted>
   9.000000E+99

> <Gold.Protein.RotatedTorsions>
[ 6907 6896 6895 6894 ] final   61.12 input  -60.11 | X-H torsion
[ 7974 7965 7964 7962 ] final  -52.20 input  175.53 | X-H torsion
[ 8008 7997 7996 7995 ] final  -45.04 input   59.86 | X-H torsion
[ 10167 10162 10161 10158 ] final   94.83 input  -65.29 | X-H torsion
[ 10718 10713 10712 10709 ] final  -97.51 input   66.30 | X-H torsion
[ 10763 10752 10751 10750 ] final  163.01 input  -60.55 | X-H torsion
[ 11005 11000 10999 10996 ] final   94.08 input  -57.11 | X-H torsion

> <Gold.Protein.ActiveResidues>
 VAL166  LYS551  ARG553  GLY616  TRP617  ASP618  TYR619  PRO620  LYS621  CYS622 
 ASP623  PHE694  ASN695  SER759  ASP760  ASP761  ALA762  ILE779  LEU786  VAL792 
 PHE793  MET794  SER795  GLU796  ALA797  LYS798  CYS799  TRP800  GLU811  SER814 

> <Gold.Protein.RotatedAtoms>
  152.4062  134.6203  160.0048 H   0  0  0  0  0  0  0  0  0  0  0  0  # atno 6907 bound_to 6896
  151.6394  133.3321  159.3135 H   0  0  0  0  0  0  0  0  0  0  0  0  # atno 6908 bound_to 6896
  150.7956  134.7055  159.6619 H   0  0  0  0  0  0  0  0  0  0  0  0  # atno 6909 bound_to 6896
  145.9106  140.7918  142.9697 H   0  0  0  0  0  0  0  0  0  0  0  0  # atno 7974 bound_to 7965
  154.3999  140.1407  156.3782 H   0  0  0  0  0  0  0  0  0  0  0  0  # atno 8008 bound_to 7997
  155.8029  140.3475  155.5392 H   0  0  0  0  0  0  0  0  0  0  0  0  # atno 8009 bound_to 7997
  155.8465  140.0935  157.1692 H   0  0  0  0  0  0  0  0  0  0  0  0  # atno 8010 bound_to 7997
  139.8046  144.6799  150.9720 H   0  0  0  0  0  0  0  0  0  0  0  0  # atno 10167 bound_to 10162
  156.0085  130.5197  150.6385 H   0  0  0  0  0  0  0  0  0  0  0  0  # atno 10718 bound_to 10713
  154.2872  135.2762  155.2671 H   0  0  0  0  0  0  0  0  0  0  0  0  # atno 10763 bound_to 10752
  154.5166  135.5768  153.6650 H   0  0  0  0  0  0  0  0  0  0  0  0  # atno 10764 bound_to 10752
  152.9920  135.6194  154.3034 H   0  0  0  0  0  0  0  0  0  0  0  0  # atno 10765 bound_to 10752
  139.8802  134.8826  156.3812 H   0  0  0  0  0  0  0  0  0  0  0  0  # atno 11005 bound_to 11000
  144.6743  140.1820  143.7405 LP  0  0  0  0  0  0  0  0  0  0  0  0  # atno 17320 bound_to 7965
  145.8676  139.2255  143.1680 LP  0  0  0  0  0  0  0  0  0  0  0  0  # atno 17321 bound_to 7965
  140.7819  143.4247  151.0787 LP  0  0  0  0  0  0  0  0  0  0  0  0  # atno 17342 bound_to 10162
  139.7917  143.8209  152.3152 LP  0  0  0  0  0  0  0  0  0  0  0  0  # atno 17343 bound_to 10162
  157.4169  131.0831  151.1168 LP  0  0  0  0  0  0  0  0  0  0  0  0  # atno 17370 bound_to 10713
  157.1782  130.6297  149.5663 LP  0  0  0  0  0  0  0  0  0  0  0  0  # atno 17371 bound_to 10713
  140.9397  133.7523  156.0131 LP  0  0  0  0  0  0  0  0  0  0  0  0  # atno 17394 bound_to 11000
  140.8233  134.3263  157.5374 LP  0  0  0  0  0  0  0  0  0  0  0  0  # atno 17395 bound_to 11000

$$$$
