AV-unprocessed.smi:112|AV-procd|sdf|1085|dock5
  -GOLD-   2262018183D 1   1.00000     0.00000
 Structure written by MMmdl.
 54 57  0  0  0  0  0  0  0  0  3 V2000
  149.8322  134.1974  155.3729 C   0  0  0  0  0  0  0  0  0  0  0  0
  149.3654  135.6251  155.1353 C   0  0  0  0  0  0  0  0  0  0  0  0
  148.0583  135.9714  155.1846 C   0  0  0  0  0  0  0  0  0  0  0  0
  147.6019  137.2606  154.9759 N   0  0  0  0  0  0  0  0  0  0  0  0
  146.1350  137.6191  155.0704 C   0  0  2  0  0  0  0  0  0  0  0  0
  145.6219  137.3956  156.5016 C   0  0  0  0  0  0  0  0  0  0  0  0
  144.2683  136.7558  156.2653 C   0  0  2  0  0  0  0  0  0  0  0  0
  143.9009  135.9311  157.3521 O   0  0  0  0  0  0  0  0  0  0  0  0
  144.5393  135.9563  154.9892 C   0  0  1  0  0  0  0  0  0  0  0  0
  143.3179  135.5111  154.1668 C   0  0  0  0  0  0  0  0  0  0  0  0
  142.5529  134.5362  154.8439 O   0  0  0  0  0  0  0  0  0  0  0  0
  145.3906  136.7963  154.2175 O   0  0  0  0  0  0  0  0  0  0  0  0
  148.5240  138.2925  154.7130 C   0  0  0  0  0  0  0  0  0  0  0  0
  148.1410  139.4546  154.5577 O   0  0  0  0  0  0  0  0  0  0  0  0
  149.8961  137.9627  154.6453 N   0  0  0  0  0  0  0  0  0  0  0  0
  150.8692  139.0477  154.3847 C   0  0  0  0  0  0  0  0  0  0  0  0
  151.6837  139.4644  155.6297 C   0  0  0  0  0  0  0  0  0  0  0  0
  152.8175  139.0070  155.7783 O   0  0  0  0  0  0  0  0  0  0  0  0
  151.1094  140.3276  156.5042 N   0  0  0  0  0  0  0  0  0  0  0  0
  149.7587  140.8883  156.3248 C   0  0  0  0  0  0  0  0  0  0  0  0
  149.5220  141.8412  157.5166 C   0  0  0  0  0  0  0  0  0  0  0  0
  150.7866  141.7091  158.3122 C   0  0  0  0  0  0  0  0  0  0  0  0
  151.0886  142.3589  159.5206 C   0  0  0  0  0  0  0  0  0  0  0  0
  152.3420  142.1149  160.1347 C   0  0  0  0  0  0  0  0  0  0  0  0
  152.6943  142.7811  161.4043 N   0  3  0  0  0  0  0  0  0  0  0  0
  152.1008  143.8118  161.7052 O   0  0  0  0  0  0  0  0  0  0  0  0
  153.5658  142.2743  162.1035 O   0  5  0  0  0  0  0  0  0  0  0  0
  153.2534  141.2213  159.5116 C   0  0  0  0  0  0  0  0  0  0  0  0
  152.9329  140.5757  158.2973 C   0  0  0  0  0  0  0  0  0  0  0  0
  151.6787  140.8345  157.7028 C   0  0  0  0  0  0  0  0  0  0  0  0
  150.3770  136.6469  154.8543 C   0  0  0  0  0  0  0  0  0  0  0  0
  151.5845  136.4047  154.8075 O   0  0  0  0  0  0  0  0  0  0  0  0
  148.9963  133.5213  155.5549 H   0  0  0  0  0  0  0  0  0  0  0  0
  150.4920  134.1527  156.2400 H   0  0  0  0  0  0  0  0  0  0  0  0
  150.3783  133.8239  154.5060 H   0  0  0  0  0  0  0  0  0  0  0  0
  147.3464  135.1909  155.4050 H   0  0  0  0  0  0  0  0  0  0  0  0
  146.0424  138.6489  154.7212 H   0  0  0  0  0  0  0  0  0  0  0  0
  146.2894  136.7072  157.0240 H   0  0  0  0  0  0  0  0  0  0  0  0
  145.5755  138.3329  157.0569 H   0  0  0  0  0  0  0  0  0  0  0  0
  143.5184  137.5313  156.1059 H   0  0  0  0  0  0  0  0  0  0  0  0
  143.0833  135.5055  157.1429 H   0  0  0  0  0  0  0  0  0  0  0  0
  145.1245  135.0706  155.2440 H   0  0  0  0  0  0  0  0  0  0  0  0
  142.6880  136.3664  153.9213 H   0  0  0  0  0  0  0  0  0  0  0  0
  143.6493  135.0777  153.2229 H   0  0  0  0  0  0  0  0  0  0  0  0
  142.7516  133.6897  154.4732 H   0  0  0  0  0  0  0  0  0  0  0  0
  151.5648  138.7647  153.5935 H   0  0  0  0  0  0  0  0  0  0  0  0
  150.3489  139.9181  153.9833 H   0  0  0  0  0  0  0  0  0  0  0  0
  149.6806  141.4292  155.3808 H   0  0  0  0  0  0  0  0  0  0  0  0
  149.0116  140.0934  156.3283 H   0  0  0  0  0  0  0  0  0  0  0  0
  149.3853  142.8726  157.1901 H   0  0  0  0  0  0  0  0  0  0  0  0
  148.6597  141.5418  158.1132 H   0  0  0  0  0  0  0  0  0  0  0  0
  150.3669  143.0308  159.9616 H   0  0  0  0  0  0  0  0  0  0  0  0
  154.2142  141.0200  159.9622 H   0  0  0  0  0  0  0  0  0  0  0  0
  153.6529  139.9031  157.8585 H   0  0  0  0  0  0  0  0  0  0  0  0
  1  2  1  0  0  0  0
  1 33  1  0  0  0  0
  1 34  1  0  0  0  0
  1 35  1  0  0  0  0
  2 31  1  0  0  0  0
  2  3  2  0  0  0  0
  3  4  1  0  0  0  0
  3 36  1  0  0  0  0
  4  5  1  0  0  0  0
  4 13  1  0  0  0  0
  5 12  1  0  0  0  0
  5  6  1  0  0  0  0
  5 37  1  0  0  0  0
  6  7  1  0  0  0  0
  6 38  1  0  0  0  0
  6 39  1  0  0  0  0
  7  8  1  0  0  0  0
  7  9  1  0  0  0  0
  7 40  1  0  0  0  0
  8 41  1  0  0  0  0
  9 10  1  0  0  0  0
  9 12  1  0  0  0  0
  9 42  1  0  0  0  0
 10 11  1  0  0  0  0
 10 43  1  0  0  0  0
 10 44  1  0  0  0  0
 11 45  1  0  0  0  0
 13 14  2  0  0  0  0
 13 15  1  0  0  0  0
 15 16  1  0  0  0  0
 15 31  1  0  0  0  0
 16 17  1  0  0  0  0
 16 46  1  0  0  0  0
 16 47  1  0  0  0  0
 17 18  2  0  0  0  0
 17 19  1  0  0  0  0
 19 30  1  0  0  0  0
 19 20  1  0  0  0  0
 20 21  1  0  0  0  0
 20 48  1  0  0  0  0
 20 49  1  0  0  0  0
 21 22  1  0  0  0  0
 21 50  1  0  0  0  0
 21 51  1  0  0  0  0
 22 30  2  0  0  0  0
 22 23  1  0  0  0  0
 23 24  2  0  0  0  0
 23 52  1  0  0  0  0
 24 25  1  0  0  0  0
 24 28  1  0  0  0  0
 25 26  2  0  0  0  0
 25 27  1  0  0  0  0
 28 29  2  0  0  0  0
 28 53  1  0  0  0  0
 29 30  1  0  0  0  0
 29 54  1  0  0  0  0
 31 32  2  0  0  0  0
M  CHG  1  25   1
M  CHG  1  27  -1
M  END
> <s_m_source_file>
AV-unprocessed.smi

> <i_m_source_file_index>
112

> <i_lp_mmshare_version>
43012

> <i_f3d_flags>
0

> <s_epik_input>
W09IXVtDSDJdW0NAQEhdKE8xKVtDQEhdKFtPSF0pW0NIMl1bQ0BIXTFuKFtjSF1jMltDSDNdKWMoPU8pbihjMj1PKVtDSDJdQyg9TylOKFtDSDJdW0NIMl0zKWMoYzM0KVtjSF1bY0hdYyhbY0hdNClbTitdKD1PKVtPLV0=

> <s_epik_cmdline>
J2VwaWtfcHl0aG9uJywgJy1waCcsICc3LjAnLCAnLXRuJywgJzgnLCAnLW1hJywgJzIwMCcsICctbWV0YWxfYmluZGluZycsICctaW1hZScsICc8aW5maWxlLm1hZT4nLCAnLW9tYWUnLCAnPG91dGZpbGUubWFlPic=

> <r_lp_tautomer_probability>
1

> <r_epik_Ionization_Penalty>
2.5696e-07

> <r_epik_Ionization_Penalty_Charging>
1.04886e-08

> <r_epik_Ionization_Penalty_Neutral>
2.46472e-07

> <r_epik_State_Penalty>
-0

> <r_epik_Charging_Adjusted_Penalty>
1.04886e-08

> <i_epik_Tot_Q>
0

> <i_epik_Tot_abs_Q>
2

> <r_epik_Metal_State_Penalty>
-0

> <b_epik_Metal_Only>
0

> <s_epik_Chemistry_Notes>
This compound contains an acetal/aminal-like group ( X-CH(R)-Y where X, Y are N, S, or O) that may be acid/base labile, releasing an aldehyde.

> <s_lp_Force_Field>
OPLS_2005

> <r_lp_Energy>
57.8842

> <b_lp_Chiralities_Consistent>
1

> <s_lp_Variant>
AV-unprocessed.smi:112-3

> <Gold.Version>
5.8.1

> <Gold.Id.Protein>
6NUR|6NUR_protein|mol2

> <Gold.PLP.Fitness>
48.2892

> <Gold.PLP.PLP>
-39.5949

> <Gold.PLP.part.hbond>
-4.0000

> <Gold.PLP.part.metal>
0.0000

> <Gold.PLP.part.buried>
-5.4321

> <Gold.PLP.part.nonpolar>
-30.6612

> <Gold.PLP.part.repulsive>
0.5205

> <Gold.PLP.ligand.clash>
0.0000

> <Gold.PLP.ligand.torsion>
0.7683

> <Gold.PLP.Chemscore.Hbond>
3.4015

> <Gold.PLP.Chemscore.CHOScore>
0.0000

> <Gold.PLP.Chemscore.Metal>
0.0000

> <Gold.Chemscore.Hbonds>
donor molecule, donor type, donor heavy atom, donor atom, acceptor molecule, acceptor atom, score
      L1  H    11    45       P1 10957  0.88
      P1  H  7997  8008       L1    18  1.00
      P1  H 10752 10763       L1    32  1.00
      P1  H 11000 11005       L1    11  0.39

> <Gold.PLP.Chemscore.Internal.Correction>
0.0265

> <Gold.Rescore>
     Score         DG    S(hbond)    S(metal)    S(lipo)     H(rot)  DE(clash)    DE(int)     intcor
     11.43     -16.30       2.99        0.00      79.11       3.29       0.57       4.31       ----

> <Gold.Chemscore.Fitness>
11.4307

> <Gold.Chemscore.DG>
-16.3029

> <Gold.Chemscore.ZeroCoef>
-5.4800

> <Gold.Chemscore.Hbond>
2.9922

> <Gold.Chemscore.Metal>
0.0000

> <Gold.Chemscore.Lipo>
79.1071

> <Gold.Chemscore.Internal_Hbond>
0.0000

> <Gold.Chemscore.DEClash>
0.5651

> <Gold.Chemscore.DEInternal>
4.3071

> <Gold.Chemscore.Rot>
3.2916

> <Gold.Chemscore.Internal.Correction>
   9.000000E+99

> <Gold.Chemscore.Hbonds>
donor molecule, donor type, donor heavy atom, donor atom, acceptor molecule, acceptor atom, score
      L1  H    11    45       P1 10957  0.86
      P1  H  7997  8008       L1    18  0.98
      P1  H 10752 10763       L1    32  0.99
      P1  H 11000 11005       L1    11  0.04

> <Gold.Chemscore.Hbond.Weighted>
-9.9939

> <Gold.Chemscore.Metal.Weighted>
-0.0000

> <Gold.Chemscore.Lipo.Weighted>
-9.2555

> <Gold.Chemscore.Internal_Hbond.Weighted>
0.0000

> <Gold.Chemscore.DEClash.Weighted>
0.5651

> <Gold.Chemscore.DEInternal.Weighted>
4.3071

> <Gold.Chemscore.Rot.Weighted>
8.4265

> <Gold.Chemscore.Internal.Correction.Weighted>
   9.000000E+99

> <Gold.Protein.RotatedTorsions>
[ 6907 6896 6895 6894 ] final   21.86 input  -60.11 | X-H torsion
[ 7974 7965 7964 7962 ] final  -98.07 input  175.53 | X-H torsion
[ 8008 7997 7996 7995 ] final  -33.95 input   59.86 | X-H torsion
[ 10167 10162 10161 10158 ] final -107.59 input  -65.29 | X-H torsion
[ 10718 10713 10712 10709 ] final  -61.47 input   66.30 | X-H torsion
[ 10763 10752 10751 10750 ] final   65.15 input  -60.55 | X-H torsion
[ 11005 11000 10999 10996 ] final  -15.96 input  -57.11 | X-H torsion

> <Gold.Protein.ActiveResidues>
 VAL166  LYS551  ARG553  GLY616  TRP617  ASP618  TYR619  PRO620  LYS621  CYS622 
 ASP623  PHE694  ASN695  SER759  ASP760  ASP761  ALA762  ILE779  LEU786  VAL792 
 PHE793  MET794  SER795  GLU796  ALA797  LYS798  CYS799  TRP800  GLU811  SER814 

> <Gold.Protein.RotatedAtoms>
  151.9183  135.0309  160.0519 H   0  0  0  0  0  0  0  0  0  0  0  0  # atno 6907 bound_to 6896
  152.2221  133.4987  159.5176 H   0  0  0  0  0  0  0  0  0  0  0  0  # atno 6908 bound_to 6896
  150.7002  134.1246  159.4090 H   0  0  0  0  0  0  0  0  0  0  0  0  # atno 6909 bound_to 6896
  145.3254  140.9430  143.2692 H   0  0  0  0  0  0  0  0  0  0  0  0  # atno 7974 bound_to 7965
  154.4134  140.1697  156.1971 H   0  0  0  0  0  0  0  0  0  0  0  0  # atno 8008 bound_to 7997
  155.9555  140.3397  155.6421 H   0  0  0  0  0  0  0  0  0  0  0  0  # atno 8009 bound_to 7997
  155.6815  140.0723  157.2473 H   0  0  0  0  0  0  0  0  0  0  0  0  # atno 8010 bound_to 7997
  140.1753  143.4010  152.1323 H   0  0  0  0  0  0  0  0  0  0  0  0  # atno 10167 bound_to 10162
  156.0920  130.4199  150.0999 H   0  0  0  0  0  0  0  0  0  0  0  0  # atno 10718 bound_to 10713
  153.0084  135.5367  154.6622 H   0  0  0  0  0  0  0  0  0  0  0  0  # atno 10763 bound_to 10752
  154.5827  135.2851  155.0718 H   0  0  0  0  0  0  0  0  0  0  0  0  # atno 10764 bound_to 10752
  154.1841  135.6511  153.5094 H   0  0  0  0  0  0  0  0  0  0  0  0  # atno 10765 bound_to 10752
  140.8020  133.8207  155.9479 H   0  0  0  0  0  0  0  0  0  0  0  0  # atno 11005 bound_to 11000
  144.8906  139.4780  143.6679 LP  0  0  0  0  0  0  0  0  0  0  0  0  # atno 17320 bound_to 7965
  146.3066  139.7602  142.9051 LP  0  0  0  0  0  0  0  0  0  0  0  0  # atno 17321 bound_to 7965
  139.5320  144.7169  151.5023 LP  0  0  0  0  0  0  0  0  0  0  0  0  # atno 17342 bound_to 10162
  140.6555  143.8607  150.6831 LP  0  0  0  0  0  0  0  0  0  0  0  0  # atno 17343 bound_to 10162
  156.9006  130.9619  151.3577 LP  0  0  0  0  0  0  0  0  0  0  0  0  # atno 17370 bound_to 10713
  157.6071  130.8555  149.8892 LP  0  0  0  0  0  0  0  0  0  0  0  0  # atno 17371 bound_to 10713
  140.9285  134.2052  157.4880 LP  0  0  0  0  0  0  0  0  0  0  0  0  # atno 17394 bound_to 11000
  139.8721  134.9823  156.5150 LP  0  0  0  0  0  0  0  0  0  0  0  0  # atno 17395 bound_to 11000

$$$$
