#       Name:                AV-unprocessed.smi:1693
#       Creating user name   scv26
#       Creation time:       Fri Mar 27 07:54:48 2020


#       File generated by GOLD software.
#

@<TRIPOS>MOLECULE
AV-unprocessed.smi:1693
    42    43     1
SMALL
NO_CHARGES


@<TRIPOS>ATOM
      1 ****        -5.6994   3.8006  -0.5494 C.3            1 S1                 0.0000
      2 ****        -4.7195   2.8667  -1.1729 C.2            1 S1                 0.0000
      3 ****        -4.4458   2.8755  -2.4796 N.2            1 S1                 0.0000
      4 ****        -3.5011   1.9188  -2.8221 N.2            1 S1                 0.0000
      5 ****        -3.0684   1.2069  -1.7717 C.2            1 S1                 0.0000
      6 ****        -2.1547   0.2295  -1.8917 N.pl3          1 S1                -1.0000
      7 ****        -0.8598   0.4726  -1.5857 C.2            1 S1                 0.0000
      8 ****        -0.3946   1.5412  -1.1827 O.2            1 S1                 0.0000
      9 ****        -0.0587  -0.5908  -1.7493 N.am           1 S1                 0.0000
     10 ****         1.3820  -0.6444  -1.5002 C.3            1 S1                 0.0000
     11 ****         1.7497  -1.3240  -0.1563 C.3            1 S1                 0.0000
     12 ****         1.5136  -2.7111  -0.3229 O.3            1 S1                 0.0000
     13 ****         3.2635  -1.1445   0.1143 C.3            1 S1                 0.0000
     14 ****         3.7130  -1.7249   1.4672 C.3            1 S1                 0.0000
     15 ****         2.8859  -1.1459   2.6227 C.3            1 S1                 0.0000
     16 ****         1.3874  -1.3854   2.3951 C.3            1 S1                 0.0000
     17 ****         0.9216  -0.8050   1.0477 C.3            1 S1                 0.0000
     18 ****        -3.8311   1.6667  -0.2493 S.3            1 S1                 0.0000
     19 ****        -5.2661   4.7978  -0.4732 H              1 S1                 0.0000
     20 ****        -5.9677   3.4575   0.4498 H              1 S1                 0.0000
     21 ****        -6.6053   3.8552  -1.1535 H              1 S1                 0.0000
     22 ****        -0.4900  -1.4444  -2.0720 H              1 S1                 0.0000
     23 ****         1.8505  -1.1732  -2.3312 H              1 S1                 0.0000
     24 ****         1.7987   0.3635  -1.5291 H              1 S1                 0.0000
     25 ****         1.7294  -3.1487   0.4860 H              1 S1                 0.0000
     26 ****         3.8476  -1.5948  -0.6896 H              1 S1                 0.0000
     27 ****         3.5054  -0.0807   0.1008 H              1 S1                 0.0000
     28 ****         3.6185  -2.8113   1.4555 H              1 S1                 0.0000
     29 ****         4.7705  -1.5124   1.6264 H              1 S1                 0.0000
     30 ****         3.1965  -1.5959   3.5658 H              1 S1                 0.0000
     31 ****         3.0767  -0.0756   2.7114 H              1 S1                 0.0000
     32 ****         1.1785  -2.4553   2.4283 H              1 S1                 0.0000
     33 ****         0.8137  -0.9374   3.2067 H              1 S1                 0.0000
     34 ****         0.9965   0.2825   1.0896 H              1 S1                 0.0000
     35 ****        -0.1370  -1.0310   0.9141 H              1 S1                 0.0000
     36 ****        -4.8720   3.4990  -3.1351 LP             1 S1                 0.0000
     37 ****        -3.1762   1.7750  -3.7568 LP             1 S1                 0.0000
     38 ****        -2.4319  -0.6779  -2.2073 LP             1 S1                 0.0000
     39 ****        -0.9944   2.3312  -1.0549 LP             1 S1                 0.0000
     40 ****         0.5824   1.6179  -0.9837 LP             1 S1                 0.0000
     41 ****         2.0867  -3.0650  -1.0619 LP             1 S1                 0.0000
     42 ****         0.5508  -2.8658  -0.5444 LP             1 S1                 0.0000
@<TRIPOS>BOND
    1    1    2 1     
    2    1   19 1     
    3    1   20 1     
    4    1   21 1     
    5    2   18 1     
    6    2    3 2     
    7    3    4 1     
    8    4    5 2     
    9    5    6 1     
   10    5   18 1     
   11    6    7 1     
   12    7    8 2     
   13    7    9 am    
   14    9   10 1     
   15    9   22 1     
   16   10   11 1     
   17   10   23 1     
   18   10   24 1     
   19   11   17 1     
   20   11   12 1     
   21   11   13 1     
   22   12   25 1     
   23   13   14 1     
   24   13   26 1     
   25   13   27 1     
   26   14   15 1     
   27   14   28 1     
   28   14   29 1     
   29   15   16 1     
   30   15   30 1     
   31   15   31 1     
   32   16   17 1     
   33   16   32 1     
   34   16   33 1     
   35   17   34 1     
   36   17   35 1     
   37    3   36 1     
   38    4   37 1     
   39    6   38 1     
   40    8   39 1     
   41    8   40 1     
   42   12   41 1     
   43   12   42 1     
@<TRIPOS>SUBSTRUCTURE
      1 S1             1
@<TRIPOS>SET
LONE_PAIRS      STATIC     ATOMS    <user>   **** ""
7 36 37 38 39 40 41 42
DONOR_HYDROGENS      STATIC     ATOMS    <user>   **** ""
2 22 25
ATOM$BLUE        STATIC     ATOMS    COLORGROUP SYSTEM
7 36 37 38 39 40 41 42
ATOM$RED        STATIC     ATOMS    COLORGROUP SYSTEM
2 22 25
