AV-unprocessed.smi:3177|AV-procd|sdf|12128|dock1
  -GOLD-   2272017563D 1   1.00000     0.00000
 Structure written by MMmdl.
 30 31  0  0  0  0  0  0  0  0  1 V2000
  153.0936  142.6974  162.5482 C   0  0  0  0  0  0  0  0  0  0  0  0
  152.5624  143.7837  161.7971 O   0  0  0  0  0  0  0  0  0  0  0  0
  152.0574  143.5256  160.5394 C   0  0  0  0  0  0  0  0  0  0  0  0
  151.7391  144.6152  159.7045 C   0  0  0  0  0  0  0  0  0  0  0  0
  151.2252  144.3608  158.4185 C   0  0  0  0  0  0  0  0  0  0  0  0
  151.0540  143.0188  158.0037 C   0  0  0  0  0  0  0  0  0  0  0  0
  150.5245  142.6361  156.7421 N   0  0  0  0  0  0  0  0  0  0  0  0
  150.3237  141.3963  156.2577 C   0  0  0  0  0  0  0  0  0  0  0  0
  150.5210  140.3632  156.8969 O   0  0  0  0  0  0  0  0  0  0  0  0
  149.7600  141.3186  154.8249 C   0  0  2  0  0  0  0  0  0  0  0  0
  148.2821  140.9212  154.7459 C   0  0  0  0  0  0  0  0  0  0  0  0
  148.3169  139.4078  154.8779 C   0  0  0  0  0  0  0  0  0  0  0  0
  149.7152  139.0293  154.3774 C   0  0  0  0  0  0  0  0  0  0  0  0
  150.3839  140.2600  154.1031 O   0  0  0  0  0  0  0  0  0  0  0  0
  151.3875  142.0005  158.9207 C   0  0  0  0  0  0  0  0  0  0  0  0
  151.8812  142.2373  160.1544 N   0  0  0  0  0  0  0  0  0  0  0  0
  153.4532  143.0652  163.5091 H   0  0  0  0  0  0  0  0  0  0  0  0
  153.9371  142.2326  162.0357 H   0  0  0  0  0  0  0  0  0  0  0  0
  152.3334  141.9409  162.7475 H   0  0  0  0  0  0  0  0  0  0  0  0
  151.8816  145.6297  160.0468 H   0  0  0  0  0  0  0  0  0  0  0  0
  150.9607  145.1945  157.7867 H   0  0  0  0  0  0  0  0  0  0  0  0
  150.2216  143.3946  156.1481 H   0  0  0  0  0  0  0  0  0  0  0  0
  149.9415  142.2725  154.3286 H   0  0  0  0  0  0  0  0  0  0  0  0
  147.6499  141.3963  155.4971 H   0  0  0  0  0  0  0  0  0  0  0  0
  147.8865  141.1961  153.7674 H   0  0  0  0  0  0  0  0  0  0  0  0
  148.2029  139.1154  155.9226 H   0  0  0  0  0  0  0  0  0  0  0  0
  147.5224  138.9270  154.3066 H   0  0  0  0  0  0  0  0  0  0  0  0
  150.2612  138.4699  155.1381 H   0  0  0  0  0  0  0  0  0  0  0  0
  149.6751  138.4207  153.4738 H   0  0  0  0  0  0  0  0  0  0  0  0
  151.2594  140.9610  158.6559 H   0  0  0  0  0  0  0  0  0  0  0  0
  1  2  1  0  0  0  0
  1 17  1  0  0  0  0
  1 18  1  0  0  0  0
  1 19  1  0  0  0  0
  2  3  1  0  0  0  0
  3 16  1  0  0  0  0
  3  4  2  0  0  0  0
  4  5  1  0  0  0  0
  4 20  1  0  0  0  0
  5  6  2  0  0  0  0
  5 21  1  0  0  0  0
  6  7  1  0  0  0  0
  6 15  1  0  0  0  0
  7  8  1  0  0  0  0
  7 22  1  0  0  0  0
  8  9  2  0  0  0  0
  8 10  1  0  0  0  0
 10 14  1  0  0  0  0
 10 11  1  0  0  0  0
 10 23  1  0  0  0  0
 11 12  1  0  0  0  0
 11 24  1  0  0  0  0
 11 25  1  0  0  0  0
 12 13  1  0  0  0  0
 12 26  1  0  0  0  0
 12 27  1  0  0  0  0
 13 14  1  0  0  0  0
 13 28  1  0  0  0  0
 13 29  1  0  0  0  0
 15 16  2  0  0  0  0
 15 30  1  0  0  0  0
M  END
> <s_m_source_file>
AV-unprocessed.smi

> <i_m_source_file_index>
3177

> <i_lp_mmshare_version>
43012

> <i_f3d_flags>
0

> <s_epik_input>
W0NIM11PYzFbY0hdW2NIXWMoW2NIXW4xKVtOSF1DKD1PKVtDQEBIXTJbQ0gyXVtDSDJdW0NIMl1PMg==

> <s_epik_cmdline>
J2VwaWtfcHl0aG9uJywgJy1waCcsICc3LjAnLCAnLXRuJywgJzgnLCAnLW1hJywgJzIwMCcsICctbWV0YWxfYmluZGluZycsICctaW1hZScsICc8aW5maWxlLm1hZT4nLCAnLW9tYWUnLCAnPG91dGZpbGUubWFlPic=

> <r_lp_tautomer_probability>
1

> <r_epik_Ionization_Penalty>
2.59882e-05

> <r_epik_Ionization_Penalty_Charging>
0

> <r_epik_Ionization_Penalty_Neutral>
2.59882e-05

> <r_epik_State_Penalty>
-0

> <r_epik_Charging_Adjusted_Penalty>
0

> <i_epik_Tot_Q>
0

> <i_epik_Tot_abs_Q>
0

> <r_epik_Metal_State_Penalty>
-0

> <b_epik_Metal_Only>
0

> <s_lp_Force_Field>
OPLS_2005

> <r_lp_Energy>
23.6564

> <b_lp_Chiralities_Consistent>
1

> <s_lp_Variant>
AV-unprocessed.smi:3177-1

> <Gold.Version>
5.8.1

> <Gold.Id.Protein>
6NUR|6NUR_protein|mol2

> <Gold.PLP.Fitness>
39.2212

> <Gold.PLP.PLP>
-34.4713

> <Gold.PLP.part.hbond>
-2.0827

> <Gold.PLP.part.metal>
0.0000

> <Gold.PLP.part.buried>
-4.3708

> <Gold.PLP.part.nonpolar>
-27.6705

> <Gold.PLP.part.repulsive>
0.8385

> <Gold.PLP.ligand.clash>
0.2332

> <Gold.PLP.ligand.torsion>
0.5227

> <Gold.PLP.Chemscore.Hbond>
1.9920

> <Gold.PLP.Chemscore.CHOScore>
0.0000

> <Gold.PLP.Chemscore.Metal>
0.0000

> <Gold.Chemscore.Hbonds>
donor molecule, donor type, donor heavy atom, donor atom, acceptor molecule, acceptor atom, score
      L1  H     7    22       P1  8028  1.00
      P1  H  7989  7998       L1    14  0.93

> <Gold.PLP.Chemscore.Internal.Correction>
0.0526

> <Gold.Rescore>
     Score         DG    S(hbond)    S(metal)    S(lipo)     H(rot)  DE(clash)    DE(int)     intcor
     14.04     -17.16       1.84        0.00      74.31       1.24       0.08       3.04       ----

> <Gold.Chemscore.Fitness>
14.0417

> <Gold.Chemscore.DG>
-17.1593

> <Gold.Chemscore.ZeroCoef>
-5.4800

> <Gold.Chemscore.Hbond>
1.8425

> <Gold.Chemscore.Metal>
0.0000

> <Gold.Chemscore.Lipo>
74.3149

> <Gold.Chemscore.Internal_Hbond>
0.0000

> <Gold.Chemscore.DEClash>
0.0772

> <Gold.Chemscore.DEInternal>
3.0403

> <Gold.Chemscore.Rot>
1.2381

> <Gold.Chemscore.Internal.Correction>
   9.000000E+99

> <Gold.Chemscore.Hbonds>
donor molecule, donor type, donor heavy atom, donor atom, acceptor molecule, acceptor atom, score
      L1  H     7    22       P1  8028  0.95
      P1  H  7989  7998       L1    14  0.42

> <Gold.Chemscore.Hbond.Weighted>
-6.1538

> <Gold.Chemscore.Metal.Weighted>
-0.0000

> <Gold.Chemscore.Lipo.Weighted>
-8.6948

> <Gold.Chemscore.Internal_Hbond.Weighted>
0.0000

> <Gold.Chemscore.DEClash.Weighted>
0.0772

> <Gold.Chemscore.DEInternal.Weighted>
3.0403

> <Gold.Chemscore.Rot.Weighted>
3.1694

> <Gold.Chemscore.Internal.Correction.Weighted>
   9.000000E+99

> <Gold.Protein.RotatedTorsions>
[ 6907 6896 6895 6894 ] final    2.38 input  -60.11 | X-H torsion
[ 7974 7965 7964 7962 ] final  -37.40 input  175.53 | X-H torsion
[ 8008 7997 7996 7995 ] final   85.24 input   59.86 | X-H torsion
[ 10167 10162 10161 10158 ] final  -83.79 input  -65.29 | X-H torsion
[ 10718 10713 10712 10709 ] final  -40.65 input   66.30 | X-H torsion
[ 10763 10752 10751 10750 ] final  -45.67 input  -60.55 | X-H torsion
[ 11005 11000 10999 10996 ] final    6.30 input  -57.11 | X-H torsion

> <Gold.Protein.ActiveResidues>
 VAL166  LYS551  ARG553  GLY616  TRP617  ASP618  TYR619  PRO620  LYS621  CYS622 
 ASP623  PHE694  ASN695  SER759  ASP760  ASP761  ALA762  ILE779  LEU786  VAL792 
 PHE793  MET794  SER795  GLU796  ALA797  LYS798  CYS799  TRP800  GLU811  SER814 

> <Gold.Protein.RotatedAtoms>
  151.6079  135.1042  160.0074 H   0  0  0  0  0  0  0  0  0  0  0  0  # atno 6907 bound_to 6896
  152.4223  133.7133  159.6502 H   0  0  0  0  0  0  0  0  0  0  0  0  # atno 6908 bound_to 6896
  150.8111  133.8347  159.3203 H   0  0  0  0  0  0  0  0  0  0  0  0  # atno 6909 bound_to 6896
  146.0578  140.6392  142.9011 H   0  0  0  0  0  0  0  0  0  0  0  0  # atno 7974 bound_to 7965
  155.9475  140.3403  155.6379 H   0  0  0  0  0  0  0  0  0  0  0  0  # atno 8008 bound_to 7997
  155.6962  140.0755  157.2447 H   0  0  0  0  0  0  0  0  0  0  0  0  # atno 8009 bound_to 7997
  154.4115  140.1648  156.2128 H   0  0  0  0  0  0  0  0  0  0  0  0  # atno 8010 bound_to 7997
  140.4193  143.2591  151.8911 H   0  0  0  0  0  0  0  0  0  0  0  0  # atno 10167 bound_to 10162
  156.2790  130.4215  149.8357 H   0  0  0  0  0  0  0  0  0  0  0  0  # atno 10718 bound_to 10713
  154.0324  135.6655  153.4782 H   0  0  0  0  0  0  0  0  0  0  0  0  # atno 10763 bound_to 10752
  153.0535  135.5070  154.7920 H   0  0  0  0  0  0  0  0  0  0  0  0  # atno 10764 bound_to 10752
  154.6870  135.3054  154.9499 H   0  0  0  0  0  0  0  0  0  0  0  0  # atno 10765 bound_to 10752
  140.5610  134.0192  155.7972 H   0  0  0  0  0  0  0  0  0  0  0  0  # atno 11005 bound_to 11000
  144.7158  140.4202  143.7046 LP  0  0  0  0  0  0  0  0  0  0  0  0  # atno 17320 bound_to 7965
  145.6613  139.1582  143.2806 LP  0  0  0  0  0  0  0  0  0  0  0  0  # atno 17321 bound_to 7965
  139.4782  144.5454  151.8466 LP  0  0  0  0  0  0  0  0  0  0  0  0  # atno 17342 bound_to 10162
  140.4551  144.1800  150.5901 LP  0  0  0  0  0  0  0  0  0  0  0  0  # atno 17343 bound_to 10162
  156.5811  130.8466  151.3383 LP  0  0  0  0  0  0  0  0  0  0  0  0  # atno 17370 bound_to 10713
  157.7308  130.9691  150.1851 LP  0  0  0  0  0  0  0  0  0  0  0  0  # atno 17371 bound_to 10713
  141.1114  133.9610  157.2902 LP  0  0  0  0  0  0  0  0  0  0  0  0  # atno 17394 bound_to 11000
  139.9408  135.0191  156.8701 LP  0  0  0  0  0  0  0  0  0  0  0  0  # atno 17395 bound_to 11000

$$$$
