AV-unprocessed.smi:1041|AV-procd|sdf|4535|dock5
  -GOLD-   22720 2563D 1   1.00000     0.00000
 Structure written by MMmdl.
 51 52  0  0  0  0  0  0  0  0  2 V2000
  144.1047  132.7234  149.7501 C   0  0  0  0  0  0  0  0  0  0  0  0
  144.5046  131.9721  150.8825 O   0  0  0  0  0  0  0  0  0  0  0  0
  145.7501  131.3206  150.6910 C   0  0  0  0  0  0  0  0  0  0  0  0
  146.2022  130.6386  151.9935 C   0  0  0  0  0  0  0  0  0  0  0  0
  146.6984  131.5340  153.0406 N   0  0  0  0  0  0  0  0  0  0  0  0
  147.7169  132.4663  152.5504 C   0  0  0  0  0  0  0  0  0  0  0  0
  148.2112  133.4323  153.6410 C   0  0  0  0  0  0  0  0  0  0  0  0
  148.7646  132.6619  154.8530 C   0  0  0  0  0  0  0  0  0  0  0  0
  149.2175  133.6192  155.9706 C   0  0  0  0  0  0  0  0  0  0  0  0
  148.1191  133.9263  156.8761 N   0  0  0  0  0  0  0  0  0  0  0  0
  148.1490  133.7458  158.2037 C   0  0  0  0  0  0  0  0  0  0  0  0
  149.1143  133.2696  158.8005 O   0  0  0  0  0  0  0  0  0  0  0  0
  146.9016  134.1803  158.9749 C   0  0  0  0  0  0  0  0  0  0  0  0
  147.1643  134.9551  160.2656 C   0  0  0  0  0  0  0  0  0  0  0  0
  146.8643  134.4658  161.5035 C   0  0  0  0  0  0  0  0  0  0  0  0
  146.2268  133.1042  161.7244 C   0  0  0  0  0  0  0  0  0  0  0  0
  147.1338  135.2101  162.6646 N   0  0  0  0  0  0  0  0  0  0  0  0
  147.6729  136.3649  162.5612 C   0  0  0  0  0  0  0  0  0  0  0  0
  147.9645  137.1603  163.8157 C   0  0  0  0  0  0  0  0  0  0  0  0
  148.0174  136.9473  161.3624 N   0  5  0  0  0  0  0  0  0  0  0  0
  147.7787  136.2933  160.1900 C   0  0  0  0  0  0  0  0  0  0  0  0
  148.0573  136.7893  159.0991 O   0  0  0  0  0  0  0  0  0  0  0  0
  147.7034  131.6474  155.3269 C   0  0  0  0  0  0  0  0  0  0  0  0
  147.2375  130.7612  154.1598 C   0  0  0  0  0  0  0  0  0  0  0  0
  143.1525  133.2132  149.9530 H   0  0  0  0  0  0  0  0  0  0  0  0
  143.9731  132.0811  148.8785 H   0  0  0  0  0  0  0  0  0  0  0  0
  144.8363  133.4956  149.5096 H   0  0  0  0  0  0  0  0  0  0  0  0
  145.6924  130.5927  149.8798 H   0  0  0  0  0  0  0  0  0  0  0  0
  146.4915  132.0671  150.4022 H   0  0  0  0  0  0  0  0  0  0  0  0
  145.3331  130.1100  152.3873 H   0  0  0  0  0  0  0  0  0  0  0  0
  146.9407  129.8667  151.7712 H   0  0  0  0  0  0  0  0  0  0  0  0
  148.5623  131.9110  152.1412 H   0  0  0  0  0  0  0  0  0  0  0  0
  147.3143  133.0662  151.7357 H   0  0  0  0  0  0  0  0  0  0  0  0
  148.9788  134.0887  153.2301 H   0  0  0  0  0  0  0  0  0  0  0  0
  147.3882  134.0759  153.9547 H   0  0  0  0  0  0  0  0  0  0  0  0
  149.6395  132.1020  154.5175 H   0  0  0  0  0  0  0  0  0  0  0  0
  150.0309  133.1689  156.5416 H   0  0  0  0  0  0  0  0  0  0  0  0
  149.6031  134.5452  155.5401 H   0  0  0  0  0  0  0  0  0  0  0  0
  147.2859  134.3246  156.4684 H   0  0  0  0  0  0  0  0  0  0  0  0
  146.2767  134.7987  158.3293 H   0  0  0  0  0  0  0  0  0  0  0  0
  146.2973  133.2934  159.1662 H   0  0  0  0  0  0  0  0  0  0  0  0
  145.2425  133.0615  161.2584 H   0  0  0  0  0  0  0  0  0  0  0  0
  146.0994  132.8970  162.7874 H   0  0  0  0  0  0  0  0  0  0  0  0
  146.8468  132.3133  161.3032 H   0  0  0  0  0  0  0  0  0  0  0  0
  147.6473  138.1965  163.6939 H   0  0  0  0  0  0  0  0  0  0  0  0
  149.0338  137.1481  164.0281 H   0  0  0  0  0  0  0  0  0  0  0  0
  147.4382  136.7434  164.6752 H   0  0  0  0  0  0  0  0  0  0  0  0
  148.1022  131.0169  156.1219 H   0  0  0  0  0  0  0  0  0  0  0  0
  146.8468  132.1744  155.7498 H   0  0  0  0  0  0  0  0  0  0  0  0
  146.4777  130.0712  154.5287 H   0  0  0  0  0  0  0  0  0  0  0  0
  148.0705  130.1454  153.8166 H   0  0  0  0  0  0  0  0  0  0  0  0
  1  2  1  0  0  0  0
  1 25  1  0  0  0  0
  1 26  1  0  0  0  0
  1 27  1  0  0  0  0
  2  3  1  0  0  0  0
  3  4  1  0  0  0  0
  3 28  1  0  0  0  0
  3 29  1  0  0  0  0
  4  5  1  0  0  0  0
  4 30  1  0  0  0  0
  4 31  1  0  0  0  0
  5 24  1  0  0  0  0
  5  6  1  0  0  0  0
  6  7  1  0  0  0  0
  6 32  1  0  0  0  0
  6 33  1  0  0  0  0
  7  8  1  0  0  0  0
  7 34  1  0  0  0  0
  7 35  1  0  0  0  0
  8  9  1  0  0  0  0
  8 23  1  0  0  0  0
  8 36  1  0  0  0  0
  9 10  1  0  0  0  0
  9 37  1  0  0  0  0
  9 38  1  0  0  0  0
 10 11  1  0  0  0  0
 10 39  1  0  0  0  0
 11 12  2  0  0  0  0
 11 13  1  0  0  0  0
 13 14  1  0  0  0  0
 13 40  1  0  0  0  0
 13 41  1  0  0  0  0
 14 21  1  0  0  0  0
 14 15  2  0  0  0  0
 15 16  1  0  0  0  0
 15 17  1  0  0  0  0
 16 42  1  0  0  0  0
 16 43  1  0  0  0  0
 16 44  1  0  0  0  0
 17 18  2  0  0  0  0
 18 19  1  0  0  0  0
 18 20  1  0  0  0  0
 19 45  1  0  0  0  0
 19 46  1  0  0  0  0
 19 47  1  0  0  0  0
 20 21  1  0  0  0  0
 21 22  2  0  0  0  0
 23 24  1  0  0  0  0
 23 48  1  0  0  0  0
 23 49  1  0  0  0  0
 24 50  1  0  0  0  0
 24 51  1  0  0  0  0
M  CHG  1  20  -1
M  END
> <s_m_source_file>
AV-unprocessed.smi

> <i_m_source_file_index>
1041

> <i_lp_mmshare_version>
43012

> <i_f3d_flags>
0

> <s_epik_input>
W0NIM11PW0NIMl1bQ0gyXU4xW0NIMl1bQ0gyXVtDSF0oW0NIMl1bQ0gyXTEpW0NIMl1bTkhdQyg9TylbQ0gyXWMyYyhbQ0gzXSluYyhbQ0gzXSlbbkhdYzI9Tw==

> <s_epik_cmdline>
J2VwaWtfcHl0aG9uJywgJy1waCcsICc3LjAnLCAnLXRuJywgJzgnLCAnLW1hJywgJzIwMCcsICctbWV0YWxfYmluZGluZycsICctaW1hZScsICc8aW5maWxlLm1hZT4nLCAnLW9tYWUnLCAnPG91dGZpbGUubWFlPic=

> <r_lp_tautomer_probability>
0.839158

> <r_epik_Ionization_Penalty>
9.04559

> <r_epik_Ionization_Penalty_Charging>
6.70107e-08

> <r_epik_Ionization_Penalty_Neutral>
9.04559

> <r_epik_State_Penalty>
7.10582

> <r_epik_Charging_Adjusted_Penalty>
7.10582

> <i_epik_Tot_Q>
-1

> <i_epik_Tot_abs_Q>
1

> <r_epik_Metal_State_Penalty>
3.46994

> <b_epik_Metal_Only>
1

> <s_lp_Force_Field>
OPLS_2005

> <r_lp_Energy>
32.0623

> <b_lp_Chiralities_Consistent>
1

> <s_lp_Variant>
AV-unprocessed.smi:1041-8

> <Gold.Version>
5.8.1

> <Gold.Id.Protein>
6NUR|6NUR_protein|mol2

> <Gold.PLP.Fitness>
46.8270

> <Gold.PLP.PLP>
-34.5149

> <Gold.PLP.part.hbond>
-3.0000

> <Gold.PLP.part.metal>
0.0000

> <Gold.PLP.part.buried>
-2.6921

> <Gold.PLP.part.nonpolar>
-29.9483

> <Gold.PLP.part.repulsive>
0.3141

> <Gold.PLP.ligand.clash>
0.0000

> <Gold.PLP.ligand.torsion>
0.6766

> <Gold.PLP.Chemscore.Hbond>
4.5360

> <Gold.PLP.Chemscore.CHOScore>
0.0000

> <Gold.PLP.Chemscore.Metal>
0.0000

> <Gold.Chemscore.Hbonds>
donor molecule, donor type, donor heavy atom, donor atom, acceptor molecule, acceptor atom, score
      P1  H  6896  6909       L1    12  1.00
      P1  H  6931  6943       L1    20  2.00
      P1  H  6934  6947       L1    20  0.56

> <Gold.PLP.Chemscore.Internal.Correction>
0.0573

> <Gold.Rescore>
     Score         DG    S(hbond)    S(metal)    S(lipo)     H(rot)  DE(clash)    DE(int)     intcor
     14.46     -15.46       1.63        0.00      88.65       2.28       0.41       0.59       ----

> <Gold.Chemscore.Fitness>
14.4561

> <Gold.Chemscore.DG>
-15.4563

> <Gold.Chemscore.ZeroCoef>
-5.4800

> <Gold.Chemscore.Hbond>
1.6302

> <Gold.Chemscore.Metal>
0.0000

> <Gold.Chemscore.Lipo>
88.6518

> <Gold.Chemscore.Internal_Hbond>
0.0000

> <Gold.Chemscore.DEClash>
0.4074

> <Gold.Chemscore.DEInternal>
0.5927

> <Gold.Chemscore.Rot>
2.2816

> <Gold.Chemscore.Internal.Correction>
   9.000000E+99

> <Gold.Chemscore.Hbonds>
donor molecule, donor type, donor heavy atom, donor atom, acceptor molecule, acceptor atom, score
      P1  H  6896  6909       L1    12  0.98
      P1  H  6931  6943       L1    20  0.30
      P1  H  6934  6947       L1    20  0.11

> <Gold.Chemscore.Hbond.Weighted>
-5.4449

> <Gold.Chemscore.Metal.Weighted>
-0.0000

> <Gold.Chemscore.Lipo.Weighted>
-10.3723

> <Gold.Chemscore.Internal_Hbond.Weighted>
0.0000

> <Gold.Chemscore.DEClash.Weighted>
0.4074

> <Gold.Chemscore.DEInternal.Weighted>
0.5927

> <Gold.Chemscore.Rot.Weighted>
5.8409

> <Gold.Chemscore.Internal.Correction.Weighted>
   9.000000E+99

> <Gold.Protein.RotatedTorsions>
[ 6907 6896 6895 6894 ] final   16.21 input  -60.11 | X-H torsion
[ 7974 7965 7964 7962 ] final   45.52 input  175.53 | X-H torsion
[ 8008 7997 7996 7995 ] final   60.54 input   59.86 | X-H torsion
[ 10167 10162 10161 10158 ] final   32.14 input  -65.29 | X-H torsion
[ 10718 10713 10712 10709 ] final -143.15 input   66.30 | X-H torsion
[ 10763 10752 10751 10750 ] final  -48.72 input  -60.55 | X-H torsion
[ 11005 11000 10999 10996 ] final  -69.39 input  -57.11 | X-H torsion

> <Gold.Protein.ActiveResidues>
 VAL166  LYS551  ARG553  GLY616  TRP617  ASP618  TYR619  PRO620  LYS621  CYS622 
 ASP623  PHE694  ASN695  SER759  ASP760  ASP761  ALA762  ILE779  LEU786  VAL792 
 PHE793  MET794  SER795  GLU796  ALA797  LYS798  CYS799  TRP800  GLU811  SER814 

> <Gold.Protein.RotatedAtoms>
  151.8303  135.0624  160.0435 H   0  0  0  0  0  0  0  0  0  0  0  0  # atno 6907 bound_to 6896
  152.2886  133.5534  159.5551 H   0  0  0  0  0  0  0  0  0  0  0  0  # atno 6908 bound_to 6896
  150.7220  134.0378  159.3797 H   0  0  0  0  0  0  0  0  0  0  0  0  # atno 6909 bound_to 6896
  146.0472  139.4955  142.9741 H   0  0  0  0  0  0  0  0  0  0  0  0  # atno 7974 bound_to 7965
  155.5839  140.3492  155.4548 H   0  0  0  0  0  0  0  0  0  0  0  0  # atno 8008 bound_to 7997
  156.0352  140.1283  157.0240 H   0  0  0  0  0  0  0  0  0  0  0  0  # atno 8009 bound_to 7997
  154.4369  140.1035  156.6143 H   0  0  0  0  0  0  0  0  0  0  0  0  # atno 8010 bound_to 7997
  140.4525  144.1027  150.6195 H   0  0  0  0  0  0  0  0  0  0  0  0  # atno 10167 bound_to 10162
  156.3545  130.7705  151.1863 H   0  0  0  0  0  0  0  0  0  0  0  0  # atno 10718 bound_to 10713
  154.0824  135.6589  153.4840 H   0  0  0  0  0  0  0  0  0  0  0  0  # atno 10763 bound_to 10752
  153.0351  135.5183  154.7461 H   0  0  0  0  0  0  0  0  0  0  0  0  # atno 10764 bound_to 10752
  154.6560  135.3008  154.9895 H   0  0  0  0  0  0  0  0  0  0  0  0  # atno 10765 bound_to 10752
  141.1553  133.6763  156.6592 H   0  0  0  0  0  0  0  0  0  0  0  0  # atno 11005 bound_to 11000
  145.6785  141.0197  143.1619 LP  0  0  0  0  0  0  0  0  0  0  0  0  # atno 17320 bound_to 7965
  144.7104  139.8394  143.7416 LP  0  0  0  0  0  0  0  0  0  0  0  0  # atno 17321 bound_to 7965
  140.4190  143.2620  151.9739 LP  0  0  0  0  0  0  0  0  0  0  0  0  # atno 17342 bound_to 10162
  139.4798  144.5848  151.7872 LP  0  0  0  0  0  0  0  0  0  0  0  0  # atno 17343 bound_to 10162
  157.7465  131.0418  150.4663 LP  0  0  0  0  0  0  0  0  0  0  0  0  # atno 17370 bound_to 10713
  156.4864  130.4085  149.6432 LP  0  0  0  0  0  0  0  0  0  0  0  0  # atno 17371 bound_to 10713
  140.3261  134.7968  157.4290 LP  0  0  0  0  0  0  0  0  0  0  0  0  # atno 17394 bound_to 11000
  140.1056  134.5414  155.8312 LP  0  0  0  0  0  0  0  0  0  0  0  0  # atno 17395 bound_to 11000

$$$$
