AV-unprocessed.smi:2895|AV-procd|sdf|11130|dock3
  -GOLD-   2272016 03D 1   1.00000     0.00000
 Structure written by MMmdl.
 53 56  0  0  0  0  0  0  0  0  2 V2000
  142.6538  138.4020  155.0327 O   0  0  0  0  0  0  0  0  0  0  0  0
  143.7582  137.9512  154.7266 C   0  0  0  0  0  0  0  0  0  0  0  0
  144.8918  138.4054  155.2883 N   0  0  0  0  0  0  0  0  0  0  0  0
  144.9698  139.4517  156.3016 C   0  0  0  0  0  0  0  0  0  0  0  0
  146.4102  139.6612  156.7990 C   0  0  0  0  0  0  0  0  0  0  0  0
  147.2989  140.2762  155.7351 C   0  0  0  0  0  0  0  0  0  0  0  0
  147.1489  141.6297  155.3691 C   0  0  0  0  0  0  0  0  0  0  0  0
  148.0018  142.1567  154.3786 C   0  0  0  0  0  0  0  0  0  0  0  0
  148.9567  141.4298  153.7590 N   0  0  0  0  0  0  0  0  0  0  0  0
  149.0935  140.1339  154.1139 C   0  0  0  0  0  0  0  0  0  0  0  0
  148.2941  139.5106  155.0932 C   0  0  0  0  0  0  0  0  0  0  0  0
  143.9281  136.9593  153.8148 N   0  0  0  0  0  0  0  0  0  0  0  0
  142.9046  136.4236  152.9025 C   0  0  0  0  0  0  0  0  0  0  0  0
  142.6057  134.9551  153.2707 C   0  0  0  0  0  0  0  0  0  0  0  0
  143.8356  134.1071  153.2663 N   0  3  0  0  0  0  0  0  0  0  0  0
  144.2897  133.7140  151.8932 C   0  0  2  0  0  0  0  0  0  0  0  0
  143.3450  132.6830  151.2162 C   0  0  0  0  0  0  0  0  0  0  0  0
  144.2901  131.5563  150.7710 C   0  0  1  0  0  0  0  0  0  0  0  0
  145.2067  132.0574  149.6418 C   0  0  0  0  0  0  0  0  0  0  0  0
  146.1726  132.9943  150.3877 C   0  0  0  0  0  0  0  0  0  0  0  0
  145.6456  132.9512  151.8354 C   0  0  2  0  0  0  0  0  0  0  0  0
  145.2385  131.4871  151.9583 C   0  0  0  0  0  0  0  0  0  0  0  0
  144.8900  134.7238  154.1238 C   0  0  0  0  0  0  0  0  0  0  0  0
  145.1731  136.1871  153.7309 C   0  0  0  0  0  0  0  0  0  0  0  0
  145.7643  137.9875  155.0002 H   0  0  0  0  0  0  0  0  0  0  0  0
  144.5601  140.3823  155.9052 H   0  0  0  0  0  0  0  0  0  0  0  0
  144.3299  139.1609  157.1352 H   0  0  0  0  0  0  0  0  0  0  0  0
  146.4107  140.2999  157.6833 H   0  0  0  0  0  0  0  0  0  0  0  0
  146.8491  138.7112  157.1058 H   0  0  0  0  0  0  0  0  0  0  0  0
  146.4003  142.2526  155.8370 H   0  0  0  0  0  0  0  0  0  0  0  0
  147.9147  143.1899  154.0763 H   0  0  0  0  0  0  0  0  0  0  0  0
  149.8645  139.5767  153.6029 H   0  0  0  0  0  0  0  0  0  0  0  0
  148.4451  138.4705  155.3422 H   0  0  0  0  0  0  0  0  0  0  0  0
  141.9705  136.9847  152.9039 H   0  0  0  0  0  0  0  0  0  0  0  0
  143.2745  136.4926  151.8789 H   0  0  0  0  0  0  0  0  0  0  0  0
  142.1827  134.9231  154.2758 H   0  0  0  0  0  0  0  0  0  0  0  0
  141.8283  134.5619  152.6185 H   0  0  0  0  0  0  0  0  0  0  0  0
  144.3534  134.6140  151.2811 H   0  0  0  0  0  0  0  0  0  0  0  0
  142.6228  132.2631  151.9171 H   0  0  0  0  0  0  0  0  0  0  0  0
  142.7878  133.1144  150.3838 H   0  0  0  0  0  0  0  0  0  0  0  0
  143.7768  130.6233  150.5368 H   0  0  0  0  0  0  0  0  0  0  0  0
  145.7511  131.2307  149.1834 H   0  0  0  0  0  0  0  0  0  0  0  0
  144.6506  132.5706  148.8563 H   0  0  0  0  0  0  0  0  0  0  0  0
  147.1912  132.6073  150.3377 H   0  0  0  0  0  0  0  0  0  0  0  0
  146.1819  134.0029  149.9730 H   0  0  0  0  0  0  0  0  0  0  0  0
  146.4106  133.2601  152.5431 H   0  0  0  0  0  0  0  0  0  0  0  0
  144.7408  131.2526  152.9011 H   0  0  0  0  0  0  0  0  0  0  0  0
  146.0671  130.7925  151.8085 H   0  0  0  0  0  0  0  0  0  0  0  0
  144.5304  134.7028  155.1538 H   0  0  0  0  0  0  0  0  0  0  0  0
  145.8121  134.1499  154.1411 H   0  0  0  0  0  0  0  0  0  0  0  0
  145.5663  136.2453  152.7154 H   0  0  0  0  0  0  0  0  0  0  0  0
  145.9624  136.5846  154.3705 H   0  0  0  0  0  0  0  0  0  0  0  0
  143.5813  133.2387  153.7151 H   0  0  0  0  0  0  0  0  0  0  0  0
  1  2  2  0  0  0  0
  2  3  1  0  0  0  0
  2 12  1  0  0  0  0
  3  4  1  0  0  0  0
  3 25  1  0  0  0  0
  4  5  1  0  0  0  0
  4 26  1  0  0  0  0
  4 27  1  0  0  0  0
  5  6  1  0  0  0  0
  5 28  1  0  0  0  0
  5 29  1  0  0  0  0
  6 11  1  0  0  0  0
  6  7  2  0  0  0  0
  7  8  1  0  0  0  0
  7 30  1  0  0  0  0
  8  9  2  0  0  0  0
  8 31  1  0  0  0  0
  9 10  1  0  0  0  0
 10 11  2  0  0  0  0
 10 32  1  0  0  0  0
 11 33  1  0  0  0  0
 12 24  1  0  0  0  0
 12 13  1  0  0  0  0
 13 14  1  0  0  0  0
 13 34  1  0  0  0  0
 13 35  1  0  0  0  0
 14 15  1  0  0  0  0
 14 36  1  0  0  0  0
 14 37  1  0  0  0  0
 15 16  1  0  0  0  0
 15 23  1  0  0  0  0
 15 53  1  0  0  0  0
 16 21  1  0  0  0  0
 16 17  1  0  0  0  0
 16 38  1  0  0  0  0
 17 18  1  0  0  0  0
 17 39  1  0  0  0  0
 17 40  1  0  0  0  0
 18 22  1  0  0  0  0
 18 19  1  0  0  0  0
 18 41  1  0  0  0  0
 19 20  1  0  0  0  0
 19 42  1  0  0  0  0
 19 43  1  0  0  0  0
 20 21  1  0  0  0  0
 20 44  1  0  0  0  0
 20 45  1  0  0  0  0
 21 22  1  0  0  0  0
 21 46  1  0  0  0  0
 22 47  1  0  0  0  0
 22 48  1  0  0  0  0
 23 24  1  0  0  0  0
 23 49  1  0  0  0  0
 23 50  1  0  0  0  0
 24 51  1  0  0  0  0
 24 52  1  0  0  0  0
M  CHG  1  15   1
M  END
> <s_m_source_file>
AV-unprocessed.smi

> <i_m_source_file_index>
2895

> <i_lp_mmshare_version>
43012

> <i_f3d_flags>
0

> <s_epik_input>
W0NIMl0xW0NIMl1bQ0BASF0oW0NIMl0yKVtDQEBIXShbQ0gyXVtDQEhdMTIpTihbQ0gyXVtDSDJdMylbQ0gyXVtDSDJdTjNDKD1PKVtOSF1bQ0gyXVtDSDJdYzRbY0hdW2NIXW5bY0hdW2NIXTQ=

> <s_epik_cmdline>
J2VwaWtfcHl0aG9uJywgJy1waCcsICc3LjAnLCAnLXRuJywgJzgnLCAnLW1hJywgJzIwMCcsICctbWV0YWxfYmluZGluZycsICctaW1hZScsICc8aW5maWxlLm1hZT4nLCAnLW9tYWUnLCAnPG91dGZpbGUubWFlPic=

> <r_epik_Ionization_Penalty>
0.0566172

> <r_epik_Ionization_Penalty_Charging>
0.00262064

> <r_epik_Ionization_Penalty_Neutral>
0.0539965

> <r_epik_State_Penalty>
0.0463959

> <r_epik_Charging_Adjusted_Penalty>
0.0490165

> <i_epik_Tot_Q>
1

> <i_epik_Tot_abs_Q>
1

> <r_epik_Metal_State_Penalty>
0.0424856

> <b_epik_Metal_Only>
0

> <s_lp_Force_Field>
OPLS_2005

> <r_lp_Energy>
100.404

> <b_lp_Chiralities_Consistent>
1

> <s_lp_Variant>
AV-unprocessed.smi:2895-3

> <Gold.Version>
5.8.1

> <Gold.Id.Protein>
6NUR|6NUR_protein|mol2

> <Gold.PLP.Fitness>
43.4953

> <Gold.PLP.PLP>
-33.2135

> <Gold.PLP.part.hbond>
-2.2990

> <Gold.PLP.part.metal>
0.0000

> <Gold.PLP.part.buried>
-4.1590

> <Gold.PLP.part.nonpolar>
-27.9780

> <Gold.PLP.part.repulsive>
0.6472

> <Gold.PLP.ligand.clash>
0.9029

> <Gold.PLP.ligand.torsion>
0.4186

> <Gold.PLP.Chemscore.Hbond>
2.7020

> <Gold.PLP.Chemscore.CHOScore>
1.2634

> <Gold.PLP.Chemscore.Metal>
0.0000

> <Gold.Chemscore.Hbonds>
donor molecule, donor type, donor heavy atom, donor atom, acceptor molecule, acceptor atom, score
      L1  H    15    53       P1 10957  1.98
      P1  H  8011  8017       L1     9  0.78
      L1  C     8    31       P1  8028  0.69
      L1  C    10    32       P1  7957  0.55

> <Gold.PLP.Chemscore.Internal.Correction>
0.1258

> <Gold.Rescore>
     Score         DG    S(hbond)    S(metal)    S(lipo)     H(rot)  DE(clash)    DE(int)     intcor
     18.25     -18.54       1.61        0.00      95.69       1.37       0.14       0.15       ----

> <Gold.Chemscore.Fitness>
18.2478

> <Gold.Chemscore.DG>
-18.5373

> <Gold.Chemscore.ZeroCoef>
-5.4800

> <Gold.Chemscore.Hbond>
1.6098

> <Gold.Chemscore.Metal>
0.0000

> <Gold.Chemscore.Lipo>
95.6910

> <Gold.Chemscore.Internal_Hbond>
0.0000

> <Gold.Chemscore.DEClash>
0.1372

> <Gold.Chemscore.DEInternal>
0.1523

> <Gold.Chemscore.Rot>
1.3731

> <Gold.Chemscore.Internal.Correction>
   9.000000E+99

> <Gold.Chemscore.Hbonds>
donor molecule, donor type, donor heavy atom, donor atom, acceptor molecule, acceptor atom, score
      L1  H    15    53       P1 10957  0.91
      P1  H  8011  8017       L1     9  0.61

> <Gold.Chemscore.Hbond.Weighted>
-5.3766

> <Gold.Chemscore.Metal.Weighted>
-0.0000

> <Gold.Chemscore.Lipo.Weighted>
-11.1958

> <Gold.Chemscore.Internal_Hbond.Weighted>
0.0000

> <Gold.Chemscore.DEClash.Weighted>
0.1372

> <Gold.Chemscore.DEInternal.Weighted>
0.1523

> <Gold.Chemscore.Rot.Weighted>
3.5152

> <Gold.Chemscore.Internal.Correction.Weighted>
   9.000000E+99

> <Gold.Protein.RotatedTorsions>
[ 6907 6896 6895 6894 ] final   19.35 input  -60.11 | X-H torsion
[ 7974 7965 7964 7962 ] final  146.42 input  175.53 | X-H torsion
[ 8008 7997 7996 7995 ] final  -18.96 input   59.86 | X-H torsion
[ 10167 10162 10161 10158 ] final -143.93 input  -65.29 | X-H torsion
[ 10718 10713 10712 10709 ] final  124.08 input   66.30 | X-H torsion
[ 10763 10752 10751 10750 ] final  -19.36 input  -60.55 | X-H torsion
[ 11005 11000 10999 10996 ] final    0.19 input  -57.11 | X-H torsion

> <Gold.Protein.ActiveResidues>
 VAL166  LYS551  ARG553  GLY616  TRP617  ASP618  TYR619  PRO620  LYS621  CYS622 
 ASP623  PHE694  ASN695  SER759  ASP760  ASP761  ALA762  ILE779  LEU786  VAL792 
 PHE793  MET794  SER795  GLU796  ALA797  LYS798  CYS799  TRP800  GLU811  SER814 

> <Gold.Protein.RotatedAtoms>
  151.8796  135.0459  160.0487 H   0  0  0  0  0  0  0  0  0  0  0  0  # atno 6907 bound_to 6896
  152.2524  133.5221  159.5341 H   0  0  0  0  0  0  0  0  0  0  0  0  # atno 6908 bound_to 6896
  150.7088  134.0859  159.3957 H   0  0  0  0  0  0  0  0  0  0  0  0  # atno 6909 bound_to 6896
  144.8673  139.5903  143.5903 H   0  0  0  0  0  0  0  0  0  0  0  0  # atno 7974 bound_to 7965
  154.4870  140.2102  155.9634 H   0  0  0  0  0  0  0  0  0  0  0  0  # atno 8008 bound_to 7997
  156.1250  140.3207  155.8233 H   0  0  0  0  0  0  0  0  0  0  0  0  # atno 8009 bound_to 7997
  155.4400  140.0509  157.3002 H   0  0  0  0  0  0  0  0  0  0  0  0  # atno 8010 bound_to 7997
  139.7947  143.7917  152.2653 H   0  0  0  0  0  0  0  0  0  0  0  0  # atno 10167 bound_to 10162
  157.5613  131.1089  150.8532 H   0  0  0  0  0  0  0  0  0  0  0  0  # atno 10718 bound_to 10713
  153.6036  135.6998  153.5374 H   0  0  0  0  0  0  0  0  0  0  0  0  # atno 10763 bound_to 10752
  153.3076  135.4110  155.1307 H   0  0  0  0  0  0  0  0  0  0  0  0  # atno 10764 bound_to 10752
  154.8577  135.3664  154.5572 H   0  0  0  0  0  0  0  0  0  0  0  0  # atno 10765 bound_to 10752
  140.6293  133.9590  155.8266 H   0  0  0  0  0  0  0  0  0  0  0  0  # atno 11005 bound_to 11000
  146.2905  139.7125  142.9164 LP  0  0  0  0  0  0  0  0  0  0  0  0  # atno 17320 bound_to 7965
  145.4198  141.0405  143.2970 LP  0  0  0  0  0  0  0  0  0  0  0  0  # atno 17321 bound_to 7965
  139.8019  144.7370  150.9813 LP  0  0  0  0  0  0  0  0  0  0  0  0  # atno 17342 bound_to 10162
  140.7820  143.4336  151.0656 LP  0  0  0  0  0  0  0  0  0  0  0  0  # atno 17343 bound_to 10162
  156.9029  130.5253  149.5282 LP  0  0  0  0  0  0  0  0  0  0  0  0  # atno 17370 bound_to 10713
  156.0666  130.5708  150.9300 LP  0  0  0  0  0  0  0  0  0  0  0  0  # atno 17371 bound_to 10713
  141.0687  134.0238  157.3557 LP  0  0  0  0  0  0  0  0  0  0  0  0  # atno 17394 bound_to 11000
  139.9122  135.0192  156.7739 LP  0  0  0  0  0  0  0  0  0  0  0  0  # atno 17395 bound_to 11000

$$$$
