#       Name:                AV-unprocessed.smi:44
#       Creating user name   scv26
#       Creation time:       Thu Mar 26 16:25:13 2020


#       File generated by GOLD software.
#

@<TRIPOS>MOLECULE
AV-unprocessed.smi:44
    37    39     1
SMALL
NO_CHARGES


@<TRIPOS>ATOM
      1 ****        -4.2740   3.0907   1.2608 O.2            1 S1                 0.0000
      2 ****        -3.4989   2.6855   0.3971 C.2            1 S1                 0.0000
      3 ****        -3.5938   3.0161  -0.9140 N.am           1 S1                 0.0000
      4 ****        -2.7041   2.5509  -1.9152 C.2            1 S1                 0.0000
      5 ****        -1.6893   1.7520  -1.7056 N.2            1 S1                 0.0000
      6 ****        -1.5683   1.4017  -0.3759 C.2            1 S1                 0.0000
      7 ****        -2.3585   1.7812   0.6759 C.2            1 S1                 0.0000
      8 ****        -1.9211   1.2169   1.8674 N.2            1 S1                 0.0000
      9 ****        -0.8645   0.5090   1.4732 C.2            1 S1                 0.0000
     10 ****        -0.5889   0.5678   0.1546 N.pl3          1 S1                 0.0000
     11 ****         0.5200  -0.1164  -0.5785 C.3            1 S1                 0.0000
     12 ****         0.1663  -1.5885  -0.8193 C.3            1 S1                 0.0000
     13 ****         1.4757  -2.2738  -0.4958 C.3            1 S1                 0.0000
     14 ****         1.9967  -1.4025   0.6455 C.3            1 S1                 0.0000
     15 ****         3.5068  -1.5159   0.8970 C.3            1 S1                 0.0000
     16 ****         3.8195  -2.7840   1.4330 O.3            1 S1                 0.0000
     17 ****         1.6688  -0.0843   0.2186 O.3            1 S1                 0.0000
     18 ****        -4.3471   3.6304  -1.1863 H              1 S1                 0.0000
     19 ****         0.6766   0.4594  -1.4909 H              1 S1                 0.0000
     20 ****         1.4422  -1.6164   1.5608 H              1 S1                 0.0000
     21 ****        -2.9474   2.9301  -2.9088 H              1 S1                 0.0000
     22 ****        -0.2740  -0.0714   2.1663 H              1 S1                 0.0000
     23 ****        -0.6128  -1.9117  -0.1266 H              1 S1                 0.0000
     24 ****        -0.1751  -1.7499  -1.8421 H              1 S1                 0.0000
     25 ****         1.3507  -3.3189  -0.2114 H              1 S1                 0.0000
     26 ****         2.1467  -2.2276  -1.3548 H              1 S1                 0.0000
     27 ****         4.0702  -1.3579  -0.0231 H              1 S1                 0.0000
     28 ****         3.8267  -0.7525   1.6067 H              1 S1                 0.0000
     29 ****         4.7502  -2.8210   1.5922 H              1 S1                 0.0000
     30 ****        -4.1522   2.8107   2.2130 LP             1 S1                 0.0000
     31 ****        -5.0263   3.7004   1.0112 LP             1 S1                 0.0000
     32 ****        -1.0729   1.4323  -2.4252 LP             1 S1                 0.0000
     33 ****        -2.3023   1.3168   2.7864 LP             1 S1                 0.0000
     34 ****         3.5598  -3.4982   0.7831 LP             1 S1                 0.0000
     35 ****         3.3248  -2.9186   2.2915 LP             1 S1                 0.0000
     36 ****         1.5017   0.4919   1.0187 LP             1 S1                 0.0000
     37 ****         2.4294   0.2922  -0.3103 LP             1 S1                 0.0000
@<TRIPOS>BOND
    1    1    2 2     
    2    2    7 1     
    3    2    3 am    
    4    3   18 1     
    5    3    4 1     
    6    4    5 2     
    7    4   21 1     
    8    5    6 1     
    9    6   10 1     
   10    6    7 2     
   11    7    8 1     
   12    8    9 2     
   13    9   10 1     
   14    9   22 1     
   15   10   11 1     
   16   11   19 1     
   17   11   17 1     
   18   11   12 1     
   19   12   13 1     
   20   12   23 1     
   21   12   24 1     
   22   13   14 1     
   23   13   25 1     
   24   13   26 1     
   25   14   20 1     
   26   14   15 1     
   27   14   17 1     
   28   15   16 1     
   29   15   27 1     
   30   15   28 1     
   31   16   29 1     
   32    1   30 1     
   33    1   31 1     
   34    5   32 1     
   35    8   33 1     
   36   16   34 1     
   37   16   35 1     
   38   17   36 1     
   39   17   37 1     
@<TRIPOS>SUBSTRUCTURE
      1 S1             1
@<TRIPOS>SET
LONE_PAIRS      STATIC     ATOMS    <user>   **** ""
8 30 31 32 33 34 35 36 37
DONOR_HYDROGENS      STATIC     ATOMS    <user>   **** ""
2 18 29
ATOM$BLUE        STATIC     ATOMS    COLORGROUP SYSTEM
8 30 31 32 33 34 35 36 37
ATOM$RED        STATIC     ATOMS    COLORGROUP SYSTEM
2 18 29
