AV-unprocessed.smi:1403|AV-procd|sdf|5699|dock4
  -GOLD-   22720 5333D 1   1.00000     0.00000
 Structure written by MMmdl.
 36 37  0  0  0  0  0  0  0  0  1 V2000
  152.8634  139.8728  158.8279 C   0  0  0  0  0  0  0  0  0  0  0  0
  151.9071  141.0362  159.1276 C   0  0  2  0  0  0  0  0  0  0  0  0
  151.4157  141.5774  157.8615 N   0  0  0  0  0  0  0  0  0  0  0  0
  150.7451  140.8973  156.9184 C   0  0  0  0  0  0  0  0  0  0  0  0
  150.4425  139.7083  157.0263 O   0  0  0  0  0  0  0  0  0  0  0  0
  150.3296  141.7008  155.6778 C   0  0  0  0  0  0  0  0  0  0  0  0
  149.3607  140.9899  154.8310 N   0  0  0  0  0  0  0  0  0  0  0  0
  148.1119  141.5407  154.5804 C   0  0  0  0  0  0  0  0  0  0  0  0
  147.1700  140.9362  153.8181 C   0  0  0  0  0  0  0  0  0  0  0  0
  147.4351  139.6380  153.2076 C   0  0  0  0  0  0  0  0  0  0  0  0
  146.6483  139.0124  152.5007 O   0  0  0  0  0  0  0  0  0  0  0  0
  148.7011  139.1158  153.4854 N   0  0  0  0  0  0  0  0  0  0  0  0
  149.6757  139.7323  154.2716 C   0  0  0  0  0  0  0  0  0  0  0  0
  150.7606  139.1821  154.4565 O   0  0  0  0  0  0  0  0  0  0  0  0
  152.5901  142.1431  159.9571 C   0  0  1  0  0  0  0  0  0  0  0  0
  151.7009  143.3398  160.2951 C   0  0  0  0  0  0  0  0  0  0  0  0
  152.4312  143.9383  161.4759 C   0  0  0  0  0  0  0  0  0  0  0  0
  152.9647  142.7008  162.1966 C   0  0  0  0  0  0  0  0  0  0  0  0
  152.9791  141.6482  161.2344 O   0  0  0  0  0  0  0  0  0  0  0  0
  148.9292  138.2171  153.0860 H   0  0  0  0  0  0  0  0  0  0  0  0
  153.2249  139.4126  159.7478 H   0  0  0  0  0  0  0  0  0  0  0  0
  153.7323  140.2074  158.2600 H   0  0  0  0  0  0  0  0  0  0  0  0
  152.3652  139.0951  158.2482 H   0  0  0  0  0  0  0  0  0  0  0  0
  151.0744  140.6342  159.7077 H   0  0  0  0  0  0  0  0  0  0  0  0
  151.6083  142.5528  157.6859 H   0  0  0  0  0  0  0  0  0  0  0  0
  149.9116  142.6498  156.0162 H   0  0  0  0  0  0  0  0  0  0  0  0
  151.2128  141.9678  155.0939 H   0  0  0  0  0  0  0  0  0  0  0  0
  147.8695  142.4997  155.0157 H   0  0  0  0  0  0  0  0  0  0  0  0
  146.2147  141.4154  153.6597 H   0  0  0  0  0  0  0  0  0  0  0  0
  153.4872  142.4979  159.4459 H   0  0  0  0  0  0  0  0  0  0  0  0
  151.5894  144.0385  159.4657 H   0  0  0  0  0  0  0  0  0  0  0  0
  150.7078  143.0058  160.5993 H   0  0  0  0  0  0  0  0  0  0  0  0
  153.2613  144.5528  161.1251 H   0  0  0  0  0  0  0  0  0  0  0  0
  151.7920  144.5569  162.1064 H   0  0  0  0  0  0  0  0  0  0  0  0
  153.9610  142.8703  162.6058 H   0  0  0  0  0  0  0  0  0  0  0  0
  152.3065  142.4133  163.0170 H   0  0  0  0  0  0  0  0  0  0  0  0
  1  2  1  0  0  0  0
  1 21  1  0  0  0  0
  1 22  1  0  0  0  0
  1 23  1  0  0  0  0
  2  3  1  0  0  0  0
  2 15  1  0  0  0  0
  2 24  1  0  0  0  0
  3  4  1  0  0  0  0
  3 25  1  0  0  0  0
  4  5  2  0  0  0  0
  4  6  1  0  0  0  0
  6  7  1  0  0  0  0
  6 26  1  0  0  0  0
  6 27  1  0  0  0  0
  7 13  1  0  0  0  0
  7  8  1  0  0  0  0
  8  9  2  0  0  0  0
  8 28  1  0  0  0  0
  9 10  1  0  0  0  0
  9 29  1  0  0  0  0
 10 11  2  0  0  0  0
 10 12  1  0  0  0  0
 12 20  1  0  0  0  0
 12 13  1  0  0  0  0
 13 14  2  0  0  0  0
 15 19  1  0  0  0  0
 15 16  1  0  0  0  0
 15 30  1  0  0  0  0
 16 17  1  0  0  0  0
 16 31  1  0  0  0  0
 16 32  1  0  0  0  0
 17 18  1  0  0  0  0
 17 33  1  0  0  0  0
 17 34  1  0  0  0  0
 18 19  1  0  0  0  0
 18 35  1  0  0  0  0
 18 36  1  0  0  0  0
M  END
> <s_m_source_file>
AV-unprocessed.smi

> <i_m_source_file_index>
1403

> <i_lp_mmshare_version>
43012

> <i_f3d_flags>
0

> <s_epik_input>
TzFbQ0gyXVtDSDJdW0NIMl1bQ0BIXTFbQ0BIXShbQ0gzXSlbTkhdQyg9TylbQ0gyXW4yW2NIXVtjSF1jKD1PKVtuSF1jMj1P

> <s_epik_cmdline>
J2VwaWtfcHl0aG9uJywgJy1waCcsICc3LjAnLCAnLXRuJywgJzgnLCAnLW1hJywgJzIwMCcsICctbWV0YWxfYmluZGluZycsICctaW1hZScsICc8aW5maWxlLm1hZT4nLCAnLW9tYWUnLCAnPG91dGZpbGUubWFlPic=

> <r_lp_tautomer_probability>
0.999537

> <r_epik_Ionization_Penalty>
0.00331407

> <r_epik_Ionization_Penalty_Charging>
0.00331405

> <r_epik_Ionization_Penalty_Neutral>
2.30132e-08

> <r_epik_State_Penalty>
0.00234266

> <r_epik_Charging_Adjusted_Penalty>
0.00565671

> <i_epik_Tot_Q>
0

> <i_epik_Tot_abs_Q>
0

> <r_epik_Metal_State_Penalty>
0.365604

> <b_epik_Metal_Only>
0

> <s_lp_Force_Field>
OPLS_2005

> <r_lp_Energy>
18.4227

> <b_lp_Chiralities_Consistent>
1

> <s_lp_Variant>
AV-unprocessed.smi:1403-3

> <Gold.Version>
5.8.1

> <Gold.Id.Protein>
6NUR|6NUR_protein|mol2

> <Gold.PLP.Fitness>
42.9411

> <Gold.PLP.PLP>
-37.9606

> <Gold.PLP.part.hbond>
-2.1899

> <Gold.PLP.part.metal>
0.0000

> <Gold.PLP.part.buried>
-3.7518

> <Gold.PLP.part.nonpolar>
-31.1820

> <Gold.PLP.part.repulsive>
0.6114

> <Gold.PLP.ligand.clash>
0.0000

> <Gold.PLP.ligand.torsion>
0.1359

> <Gold.PLP.Chemscore.Hbond>
0.7540

> <Gold.PLP.Chemscore.CHOScore>
0.9913

> <Gold.PLP.Chemscore.Metal>
0.0000

> <Gold.Chemscore.Hbonds>
donor molecule, donor type, donor heavy atom, donor atom, acceptor molecule, acceptor atom, score
      L1  H    12    20       P1  7948  0.31
      P1  H  7989  7998       L1    14  0.27
      L1  C     8    28       P1  8028  1.00

> <Gold.PLP.Chemscore.Internal.Correction>
0.0165

> <Gold.Rescore>
     Score         DG    S(hbond)    S(metal)    S(lipo)     H(rot)  DE(clash)    DE(int)     intcor
      9.90     -12.77       0.96        0.00      79.50       2.04       0.12       2.75       ----

> <Gold.Chemscore.Fitness>
9.9002

> <Gold.Chemscore.DG>
-12.7746

> <Gold.Chemscore.ZeroCoef>
-5.4800

> <Gold.Chemscore.Hbond>
0.9624

> <Gold.Chemscore.Metal>
0.0000

> <Gold.Chemscore.Lipo>
79.4971

> <Gold.Chemscore.Internal_Hbond>
0.0000

> <Gold.Chemscore.DEClash>
0.1214

> <Gold.Chemscore.DEInternal>
2.7530

> <Gold.Chemscore.Rot>
2.0395

> <Gold.Chemscore.Internal.Correction>
   9.000000E+99

> <Gold.Chemscore.Hbonds>
donor molecule, donor type, donor heavy atom, donor atom, acceptor molecule, acceptor atom, score
      L1  H    12    20       P1  7948  0.31
      P1  H  7989  7998       L1    14  0.01

> <Gold.Chemscore.Hbond.Weighted>
-3.2145

> <Gold.Chemscore.Metal.Weighted>
-0.0000

> <Gold.Chemscore.Lipo.Weighted>
-9.3012

> <Gold.Chemscore.Internal_Hbond.Weighted>
0.0000

> <Gold.Chemscore.DEClash.Weighted>
0.1214

> <Gold.Chemscore.DEInternal.Weighted>
2.7530

> <Gold.Chemscore.Rot.Weighted>
5.2211

> <Gold.Chemscore.Internal.Correction.Weighted>
   9.000000E+99

> <Gold.Protein.RotatedTorsions>
[ 6907 6896 6895 6894 ] final -129.44 input  -60.11 | X-H torsion
[ 7974 7965 7964 7962 ] final   38.19 input  175.53 | X-H torsion
[ 8008 7997 7996 7995 ] final   96.68 input   59.86 | X-H torsion
[ 10167 10162 10161 10158 ] final -165.02 input  -65.29 | X-H torsion
[ 10718 10713 10712 10709 ] final  -38.35 input   66.30 | X-H torsion
[ 10763 10752 10751 10750 ] final  162.51 input  -60.55 | X-H torsion
[ 11005 11000 10999 10996 ] final  -62.51 input  -57.11 | X-H torsion

> <Gold.Protein.ActiveResidues>
 VAL166  LYS551  ARG553  GLY616  TRP617  ASP618  TYR619  PRO620  LYS621  CYS622 
 ASP623  PHE694  ASN695  SER759  ASP760  ASP761  ALA762  ILE779  LEU786  VAL792 
 PHE793  MET794  SER795  GLU796  ALA797  LYS798  CYS799  TRP800  GLU811  SER814 

> <Gold.Protein.RotatedAtoms>
  150.9287  133.6793  159.2815 H   0  0  0  0  0  0  0  0  0  0  0  0  # atno 6907 bound_to 6896
  151.4222  135.0998  159.9627 H   0  0  0  0  0  0  0  0  0  0  0  0  # atno 6908 bound_to 6896
  152.5015  133.8736  159.7366 H   0  0  0  0  0  0  0  0  0  0  0  0  # atno 6909 bound_to 6896
  146.1080  139.5802  142.9370 H   0  0  0  0  0  0  0  0  0  0  0  0  # atno 7974 bound_to 7965
  156.0821  140.3269  155.7707 H   0  0  0  0  0  0  0  0  0  0  0  0  # atno 8008 bound_to 7997
  155.5135  140.0579  157.2936 H   0  0  0  0  0  0  0  0  0  0  0  0  # atno 8009 bound_to 7997
  154.4588  140.1956  156.0319 H   0  0  0  0  0  0  0  0  0  0  0  0  # atno 8010 bound_to 7997
  139.6210  144.0624  152.1933 H   0  0  0  0  0  0  0  0  0  0  0  0  # atno 10167 bound_to 10162
  156.3047  130.4244  149.8108 H   0  0  0  0  0  0  0  0  0  0  0  0  # atno 10718 bound_to 10713
  154.2796  135.2763  155.2703 H   0  0  0  0  0  0  0  0  0  0  0  0  # atno 10763 bound_to 10752
  154.5230  135.5751  153.6700 H   0  0  0  0  0  0  0  0  0  0  0  0  # atno 10764 bound_to 10752
  152.9931  135.6209  154.2954 H   0  0  0  0  0  0  0  0  0  0  0  0  # atno 10765 bound_to 10752
  141.1362  133.6641  156.5539 H   0  0  0  0  0  0  0  0  0  0  0  0  # atno 11005 bound_to 11000
  145.5720  141.0393  143.2169 LP  0  0  0  0  0  0  0  0  0  0  0  0  # atno 17320 bound_to 7965
  144.7488  139.7250  143.7281 LP  0  0  0  0  0  0  0  0  0  0  0  0  # atno 17321 bound_to 7965
  140.0266  144.6113  150.7522 LP  0  0  0  0  0  0  0  0  0  0  0  0  # atno 17342 bound_to 10162
  140.7382  143.2775  151.3698 LP  0  0  0  0  0  0  0  0  0  0  0  0  # atno 17343 bound_to 10162
  156.5474  130.8326  151.3288 LP  0  0  0  0  0  0  0  0  0  0  0  0  # atno 17370 bound_to 10713
  157.7377  130.9800  150.2206 LP  0  0  0  0  0  0  0  0  0  0  0  0  # atno 17371 bound_to 10713
  140.4042  134.7330  157.4798 LP  0  0  0  0  0  0  0  0  0  0  0  0  # atno 17394 bound_to 11000
  140.0474  134.6180  155.8904 LP  0  0  0  0  0  0  0  0  0  0  0  0  # atno 17395 bound_to 11000

$$$$
