AV-unprocessed.smi:2447|AV-procd|sdf|9650|dock3
  -GOLD-   2272013283D 1   1.00000     0.00000
 Structure written by MMmdl.
 29 30  0  0  0  0  0  0  0  0  2 V2000
  150.0389  138.7069  153.3050 N   0  0  0  0  0  0  0  0  0  0  0  0
  150.3404  138.9022  154.5882 C   0  0  0  0  0  0  0  0  0  0  0  0
  150.2973  137.9334  155.3460 O   0  0  0  0  0  0  0  0  0  0  0  0
  150.6632  140.1854  154.8879 N   0  5  0  0  0  0  0  0  0  0  0  0
  151.2250  140.5872  156.0468 C   0  0  0  0  0  0  0  0  0  0  0  0
  151.7013  139.6176  156.8890 N   0  0  0  0  0  0  0  0  0  0  0  0
  152.1623  140.3596  157.8843 C   0  0  0  0  0  0  0  0  0  0  0  0
  151.9981  141.6662  157.6982 N   0  0  0  0  0  0  0  0  0  0  0  0
  152.3635  142.7917  158.5443 C   0  0  0  0  0  0  0  0  0  0  0  0
  151.8731  142.5927  159.9935 C   0  0  0  0  0  0  0  0  0  0  0  0
  152.2718  143.7802  160.8848 C   0  0  0  0  0  0  0  0  0  0  0  0
  151.7575  145.1081  160.3052 C   0  0  0  0  0  0  0  0  0  0  0  0
  152.2429  145.3113  158.8608 C   0  0  0  0  0  0  0  0  0  0  0  0
  151.8440  144.1250  157.9678 C   0  0  0  0  0  0  0  0  0  0  0  0
  151.3871  141.8372  156.5029 N   0  0  0  0  0  0  0  0  0  0  0  0
  149.7852  137.7849  152.9834 H   0  0  0  0  0  0  0  0  0  0  0  0
  150.0675  139.4867  152.6651 H   0  0  0  0  0  0  0  0  0  0  0  0
  152.6278  139.9404  158.7640 H   0  0  0  0  0  0  0  0  0  0  0  0
  153.4538  142.8347  158.5613 H   0  0  0  0  0  0  0  0  0  0  0  0
  150.7878  142.4812  160.0101 H   0  0  0  0  0  0  0  0  0  0  0  0
  152.2845  141.6698  160.4035 H   0  0  0  0  0  0  0  0  0  0  0  0
  151.8787  143.6367  161.8915 H   0  0  0  0  0  0  0  0  0  0  0  0
  153.3579  143.8182  160.9793 H   0  0  0  0  0  0  0  0  0  0  0  0
  150.6669  145.1168  160.3275 H   0  0  0  0  0  0  0  0  0  0  0  0
  152.0867  145.9393  160.9293 H   0  0  0  0  0  0  0  0  0  0  0  0
  151.8293  146.2355  158.4559 H   0  0  0  0  0  0  0  0  0  0  0  0
  153.3273  145.4276  158.8517 H   0  0  0  0  0  0  0  0  0  0  0  0
  152.2352  144.2740  156.9608 H   0  0  0  0  0  0  0  0  0  0  0  0
  150.7573  144.0957  157.8758 H   0  0  0  0  0  0  0  0  0  0  0  0
  1  2  1  0  0  0  0
  1 16  1  0  0  0  0
  1 17  1  0  0  0  0
  2  3  2  0  0  0  0
  2  4  1  0  0  0  0
  4  5  1  0  0  0  0
  5 15  2  0  0  0  0
  5  6  1  0  0  0  0
  6  7  2  0  0  0  0
  7  8  1  0  0  0  0
  7 18  1  0  0  0  0
  8  9  1  0  0  0  0
  8 15  1  0  0  0  0
  9 14  1  0  0  0  0
  9 10  1  0  0  0  0
  9 19  1  0  0  0  0
 10 11  1  0  0  0  0
 10 20  1  0  0  0  0
 10 21  1  0  0  0  0
 11 12  1  0  0  0  0
 11 22  1  0  0  0  0
 11 23  1  0  0  0  0
 12 13  1  0  0  0  0
 12 24  1  0  0  0  0
 12 25  1  0  0  0  0
 13 14  1  0  0  0  0
 13 26  1  0  0  0  0
 13 27  1  0  0  0  0
 14 28  1  0  0  0  0
 14 29  1  0  0  0  0
M  CHG  1   4  -1
M  END
> <s_m_source_file>
AV-unprocessed.smi

> <i_m_source_file_index>
2447

> <i_lp_mmshare_version>
43012

> <i_f3d_flags>
0

> <s_epik_input>
W05IMl1DKD1PKVtOSF1jMW5bY0hdbihuMSlbQ0hdMltDSDJdW0NIMl1bQ0gyXVtDSDJdW0NIMl0y

> <s_epik_cmdline>
J2VwaWtfcHl0aG9uJywgJy1waCcsICc3LjAnLCAnLXRuJywgJzgnLCAnLW1hJywgJzIwMCcsICctbWV0YWxfYmluZGluZycsICctaW1hZScsICc8aW5maWxlLm1hZT4nLCAnLW9tYWUnLCAnPG91dGZpbGUubWFlPic=

> <r_epik_Ionization_Penalty>
6.34251

> <r_epik_Ionization_Penalty_Charging>
2.59949

> <r_epik_Ionization_Penalty_Neutral>
3.74302

> <r_epik_State_Penalty>
2.59208

> <r_epik_Charging_Adjusted_Penalty>
5.19156

> <i_epik_Tot_Q>
-1

> <i_epik_Tot_abs_Q>
1

> <r_epik_Metal_State_Penalty>
0.11953

> <b_epik_Metal_Only>
1

> <s_lp_Force_Field>
OPLS_2005

> <r_lp_Energy>
9.7345

> <b_lp_Chiralities_Consistent>
1

> <s_lp_Variant>
AV-unprocessed.smi:2447-2

> <Gold.Version>
5.8.1

> <Gold.Id.Protein>
6NUR|6NUR_protein|mol2

> <Gold.PLP.Fitness>
42.3740

> <Gold.PLP.PLP>
-33.8456

> <Gold.PLP.part.hbond>
-3.0000

> <Gold.PLP.part.metal>
0.0000

> <Gold.PLP.part.buried>
-4.7564

> <Gold.PLP.part.nonpolar>
-26.6276

> <Gold.PLP.part.repulsive>
0.2895

> <Gold.PLP.ligand.clash>
0.0000

> <Gold.PLP.ligand.torsion>
0.1867

> <Gold.PLP.Chemscore.Hbond>
2.9600

> <Gold.PLP.Chemscore.CHOScore>
0.0000

> <Gold.PLP.Chemscore.Metal>
0.0000

> <Gold.Chemscore.Hbonds>
donor molecule, donor type, donor heavy atom, donor atom, acceptor molecule, acceptor atom, score
      L1  H     1    16       P1  7948  0.98
      L1  H     1    17       P1  7957  0.90
      P1  H  7989  7998       L1     4  1.00

> <Gold.PLP.Chemscore.Internal.Correction>
0.0217

> <Gold.Rescore>
     Score         DG    S(hbond)    S(metal)    S(lipo)     H(rot)  DE(clash)    DE(int)     intcor
     16.97     -18.71       2.24        0.00      70.96       1.00       0.04       1.70       ----

> <Gold.Chemscore.Fitness>
16.9697

> <Gold.Chemscore.DG>
-18.7069

> <Gold.Chemscore.ZeroCoef>
-5.4800

> <Gold.Chemscore.Hbond>
2.2408

> <Gold.Chemscore.Metal>
0.0000

> <Gold.Chemscore.Lipo>
70.9619

> <Gold.Chemscore.Internal_Hbond>
0.0000

> <Gold.Chemscore.DEClash>
0.0354

> <Gold.Chemscore.DEInternal>
1.7018

> <Gold.Chemscore.Rot>
1.0000

> <Gold.Chemscore.Internal.Correction>
   9.000000E+99

> <Gold.Chemscore.Hbonds>
donor molecule, donor type, donor heavy atom, donor atom, acceptor molecule, acceptor atom, score
      L1  H     1    16       P1  7948  0.50
      L1  H     1    17       P1  7957  0.83
      P1  H  7989  7998       L1     4  0.46

> <Gold.Chemscore.Hbond.Weighted>
-7.4843

> <Gold.Chemscore.Metal.Weighted>
-0.0000

> <Gold.Chemscore.Lipo.Weighted>
-8.3025

> <Gold.Chemscore.Internal_Hbond.Weighted>
0.0000

> <Gold.Chemscore.DEClash.Weighted>
0.0354

> <Gold.Chemscore.DEInternal.Weighted>
1.7018

> <Gold.Chemscore.Rot.Weighted>
2.5600

> <Gold.Chemscore.Internal.Correction.Weighted>
   9.000000E+99

> <Gold.Protein.RotatedTorsions>
[ 6907 6896 6895 6894 ] final   64.98 input  -60.11 | X-H torsion
[ 7974 7965 7964 7962 ] final  132.74 input  175.53 | X-H torsion
[ 8008 7997 7996 7995 ] final   11.26 input   59.86 | X-H torsion
[ 10167 10162 10161 10158 ] final  137.46 input  -65.29 | X-H torsion
[ 10718 10713 10712 10709 ] final  177.83 input   66.30 | X-H torsion
[ 10763 10752 10751 10750 ] final   51.28 input  -60.55 | X-H torsion
[ 11005 11000 10999 10996 ] final   79.81 input  -57.11 | X-H torsion

> <Gold.Protein.ActiveResidues>
 VAL166  LYS551  ARG553  GLY616  TRP617  ASP618  TYR619  PRO620  LYS621  CYS622 
 ASP623  PHE694  ASN695  SER759  ASP760  ASP761  ALA762  ILE779  LEU786  VAL792 
 PHE793  MET794  SER795  GLU796  ALA797  LYS798  CYS799  TRP800  GLU811  SER814 

> <Gold.Protein.RotatedAtoms>
  152.4373  134.5661  159.9907 H   0  0  0  0  0  0  0  0  0  0  0  0  # atno 6907 bound_to 6896
  151.5768  133.3377  159.3008 H   0  0  0  0  0  0  0  0  0  0  0  0  # atno 6908 bound_to 6896
  150.8273  134.7544  159.6888 H   0  0  0  0  0  0  0  0  0  0  0  0  # atno 6909 bound_to 6896
  144.9937  139.4381  143.5326 H   0  0  0  0  0  0  0  0  0  0  0  0  # atno 7974 bound_to 7965
  154.8045  140.2857  155.5898 H   0  0  0  0  0  0  0  0  0  0  0  0  # atno 8008 bound_to 7997
  156.2981  140.2580  156.2849 H   0  0  0  0  0  0  0  0  0  0  0  0  # atno 8009 bound_to 7997
  154.9520  140.0379  157.2138 H   0  0  0  0  0  0  0  0  0  0  0  0  # atno 8010 bound_to 7997
  139.5144  144.6409  151.5572 H   0  0  0  0  0  0  0  0  0  0  0  0  # atno 10167 bound_to 10162
  156.8995  130.9874  151.3038 H   0  0  0  0  0  0  0  0  0  0  0  0  # atno 10718 bound_to 10713
  152.9785  135.5851  154.4389 H   0  0  0  0  0  0  0  0  0  0  0  0  # atno 10763 bound_to 10752
  154.3993  135.2768  155.2108 H   0  0  0  0  0  0  0  0  0  0  0  0  # atno 10764 bound_to 10752
  154.3946  135.6117  153.5917 H   0  0  0  0  0  0  0  0  0  0  0  0  # atno 10765 bound_to 10752
  139.9158  134.7871  156.1827 H   0  0  0  0  0  0  0  0  0  0  0  0  # atno 11005 bound_to 11000
  146.3437  139.9284  142.8757 LP  0  0  0  0  0  0  0  0  0  0  0  0  # atno 17320 bound_to 7965
  145.2250  140.9950  143.4024 LP  0  0  0  0  0  0  0  0  0  0  0  0  # atno 17321 bound_to 7965
  140.6175  143.9321  150.6500 LP  0  0  0  0  0  0  0  0  0  0  0  0  # atno 17342 bound_to 10162
  140.2584  143.3542  152.1344 LP  0  0  0  0  0  0  0  0  0  0  0  0  # atno 17343 bound_to 10162
  157.6035  130.8530  149.8838 LP  0  0  0  0  0  0  0  0  0  0  0  0  # atno 17370 bound_to 10713
  156.0589  130.3703  150.1027 LP  0  0  0  0  0  0  0  0  0  0  0  0  # atno 17371 bound_to 10713
  141.0632  133.6831  156.1994 LP  0  0  0  0  0  0  0  0  0  0  0  0  # atno 17394 bound_to 11000
  140.6627  134.4951  157.5584 LP  0  0  0  0  0  0  0  0  0  0  0  0  # atno 17395 bound_to 11000

$$$$
