AV-unprocessed.smi:1071|AV-procd|sdf|4681|dock2
  -GOLD-   22720 3193D 1   1.00000     0.00000
 Structure written by MMmdl.
 46 47  0  0  0  0  0  0  0  0  1 V2000
  147.5571  128.6507  152.6489 C   0  0  0  0  0  0  0  0  0  0  0  0
  147.2478  128.4939  154.0224 O   0  0  0  0  0  0  0  0  0  0  0  0
  147.7568  129.5512  154.8184 C   0  0  0  0  0  0  0  0  0  0  0  0
  149.2845  129.4530  154.8666 C   0  0  0  0  0  0  0  0  0  0  0  0
  149.7758  130.3929  155.8176 O   0  0  0  0  0  0  0  0  0  0  0  0
  149.8820  131.7164  155.4424 C   0  0  0  0  0  0  0  0  0  0  0  0
  149.1557  132.1576  154.3187 C   0  0  0  0  0  0  0  0  0  0  0  0
  149.2583  133.5060  153.9268 C   0  0  0  0  0  0  0  0  0  0  0  0
  150.0957  134.3720  154.6697 C   0  0  0  0  0  0  0  0  0  0  0  0
  150.2701  135.7543  154.3901 N   0  0  0  0  0  0  0  0  0  0  0  0
  151.0385  136.6556  155.0332 C   0  0  0  0  0  0  0  0  0  0  0  0
  151.8328  136.3648  155.9267 O   0  0  0  0  0  0  0  0  0  0  0  0
  150.9351  137.8996  154.5037 N   0  0  0  0  0  0  0  0  0  0  0  0
  149.6178  138.4927  154.2228 C   0  0  0  0  0  0  0  0  0  0  0  0
  149.1822  139.3368  155.4394 C   0  0  0  0  0  0  0  0  0  0  0  0
  150.1661  140.3901  155.7007 N   0  0  0  0  0  0  0  0  0  0  0  0
  149.7628  141.1607  156.8678 C   0  0  0  0  0  0  0  0  0  0  0  0
  151.4980  139.8206  155.9217 C   0  0  0  0  0  0  0  0  0  0  0  0
  151.9167  138.9877  154.6911 C   0  0  1  0  0  0  0  0  0  0  0  0
  153.3927  138.5428  154.7565 C   0  0  0  0  0  0  0  0  0  0  0  0
  150.7674  133.8356  155.7877 C   0  0  0  0  0  0  0  0  0  0  0  0
  150.6736  132.5443  156.1685 N   0  0  0  0  0  0  0  0  0  0  0  0
  147.1423  127.8167  152.0830 H   0  0  0  0  0  0  0  0  0  0  0  0
  148.6358  128.6642  152.4867 H   0  0  0  0  0  0  0  0  0  0  0  0
  147.1310  129.5726  152.2508 H   0  0  0  0  0  0  0  0  0  0  0  0
  147.4485  130.5215  154.4259 H   0  0  0  0  0  0  0  0  0  0  0  0
  147.3551  129.4637  155.8290 H   0  0  0  0  0  0  0  0  0  0  0  0
  149.5687  128.4456  155.1747 H   0  0  0  0  0  0  0  0  0  0  0  0
  149.7042  129.6318  153.8749 H   0  0  0  0  0  0  0  0  0  0  0  0
  148.5261  131.4738  153.7685 H   0  0  0  0  0  0  0  0  0  0  0  0
  148.6847  133.8459  153.0789 H   0  0  0  0  0  0  0  0  0  0  0  0
  149.6594  136.1312  153.6799 H   0  0  0  0  0  0  0  0  0  0  0  0
  149.6744  139.1149  153.3281 H   0  0  0  0  0  0  0  0  0  0  0  0
  148.8505  137.7472  154.0108 H   0  0  0  0  0  0  0  0  0  0  0  0
  148.2092  139.7894  155.2451 H   0  0  0  0  0  0  0  0  0  0  0  0
  149.0711  138.6996  156.3187 H   0  0  0  0  0  0  0  0  0  0  0  0
  150.4738  141.9653  157.0590 H   0  0  0  0  0  0  0  0  0  0  0  0
  149.7078  140.5333  157.7587 H   0  0  0  0  0  0  0  0  0  0  0  0
  148.7839  141.6138  156.7075 H   0  0  0  0  0  0  0  0  0  0  0  0
  152.2109  140.6305  156.0823 H   0  0  0  0  0  0  0  0  0  0  0  0
  151.5038  139.2023  156.8210 H   0  0  0  0  0  0  0  0  0  0  0  0
  151.8527  139.6299  153.8102 H   0  0  0  0  0  0  0  0  0  0  0  0
  154.0530  139.4070  154.6815 H   0  0  0  0  0  0  0  0  0  0  0  0
  153.6413  137.8716  153.9340 H   0  0  0  0  0  0  0  0  0  0  0  0
  153.6382  138.0425  155.6929 H   0  0  0  0  0  0  0  0  0  0  0  0
  151.4061  134.4605  156.3948 H   0  0  0  0  0  0  0  0  0  0  0  0
  1  2  1  0  0  0  0
  1 23  1  0  0  0  0
  1 24  1  0  0  0  0
  1 25  1  0  0  0  0
  2  3  1  0  0  0  0
  3  4  1  0  0  0  0
  3 26  1  0  0  0  0
  3 27  1  0  0  0  0
  4  5  1  0  0  0  0
  4 28  1  0  0  0  0
  4 29  1  0  0  0  0
  5  6  1  0  0  0  0
  6 22  1  0  0  0  0
  6  7  2  0  0  0  0
  7  8  1  0  0  0  0
  7 30  1  0  0  0  0
  8  9  2  0  0  0  0
  8 31  1  0  0  0  0
  9 10  1  0  0  0  0
  9 21  1  0  0  0  0
 10 11  1  0  0  0  0
 10 32  1  0  0  0  0
 11 12  2  0  0  0  0
 11 13  1  0  0  0  0
 13 19  1  0  0  0  0
 13 14  1  0  0  0  0
 14 15  1  0  0  0  0
 14 33  1  0  0  0  0
 14 34  1  0  0  0  0
 15 16  1  0  0  0  0
 15 35  1  0  0  0  0
 15 36  1  0  0  0  0
 16 17  1  0  0  0  0
 16 18  1  0  0  0  0
 17 37  1  0  0  0  0
 17 38  1  0  0  0  0
 17 39  1  0  0  0  0
 18 19  1  0  0  0  0
 18 40  1  0  0  0  0
 18 41  1  0  0  0  0
 19 20  1  0  0  0  0
 19 42  1  0  0  0  0
 20 43  1  0  0  0  0
 20 44  1  0  0  0  0
 20 45  1  0  0  0  0
 21 22  2  0  0  0  0
 21 46  1  0  0  0  0
M  END
> <s_m_source_file>
AV-unprocessed.smi

> <i_m_source_file_index>
1071

> <i_lp_mmshare_version>
43012

> <i_f3d_flags>
0

> <s_epik_input>
W0NIM11PW0NIMl1bQ0gyXU9jMVtjSF1bY0hdYyhbY0hdbjEpW05IXUMoPU8pTjJbQ0gyXVtDSDJdTihbQ0gzXSlbQ0gyXVtDQEhdMltDSDNd

> <s_epik_cmdline>
J2VwaWtfcHl0aG9uJywgJy1waCcsICc3LjAnLCAnLXRuJywgJzgnLCAnLW1hJywgJzIwMCcsICctbWV0YWxfYmluZGluZycsICctaW1hZScsICc8aW5maWxlLm1hZT4nLCAnLW9tYWUnLCAnPG91dGZpbGUubWFlPic=

> <r_lp_tautomer_probability>
1

> <r_epik_Ionization_Penalty>
0.623446

> <r_epik_Ionization_Penalty_Charging>
0

> <r_epik_Ionization_Penalty_Neutral>
0.623446

> <r_epik_State_Penalty>
0.639577

> <r_epik_Charging_Adjusted_Penalty>
0.639577

> <i_epik_Tot_Q>
0

> <i_epik_Tot_abs_Q>
0

> <r_epik_Metal_State_Penalty>
0.639567

> <b_epik_Metal_Only>
0

> <s_lp_Force_Field>
OPLS_2005

> <r_lp_Energy>
47.7745

> <b_lp_Chiralities_Consistent>
1

> <s_lp_Variant>
AV-unprocessed.smi:1071-5

> <Gold.Version>
5.8.1

> <Gold.Id.Protein>
6NUR|6NUR_protein|mol2

> <Gold.PLP.Fitness>
40.2540

> <Gold.PLP.PLP>
-35.4079

> <Gold.PLP.part.hbond>
-3.0000

> <Gold.PLP.part.metal>
0.0000

> <Gold.PLP.part.buried>
-1.1237

> <Gold.PLP.part.nonpolar>
-31.4047

> <Gold.PLP.part.repulsive>
0.2146

> <Gold.PLP.ligand.clash>
0.0726

> <Gold.PLP.ligand.torsion>
0.8267

> <Gold.PLP.Chemscore.Hbond>
1.9920

> <Gold.PLP.Chemscore.CHOScore>
0.0000

> <Gold.PLP.Chemscore.Metal>
0.0000

> <Gold.Chemscore.Hbonds>
donor molecule, donor type, donor heavy atom, donor atom, acceptor molecule, acceptor atom, score
      L1  H    10    32       P1  7948  1.00
      P1  H 10752 10763       L1    12  1.00

> <Gold.PLP.Chemscore.Internal.Correction>
0.5961

> <Gold.Rescore>
     Score         DG    S(hbond)    S(metal)    S(lipo)     H(rot)  DE(clash)    DE(int)     intcor
     11.56     -15.26       1.49        0.00      75.38       1.57       0.30       3.40       ----

> <Gold.Chemscore.Fitness>
11.5580

> <Gold.Chemscore.DG>
-15.2594

> <Gold.Chemscore.ZeroCoef>
-5.4800

> <Gold.Chemscore.Hbond>
1.4939

> <Gold.Chemscore.Metal>
0.0000

> <Gold.Chemscore.Lipo>
75.3829

> <Gold.Chemscore.Internal_Hbond>
0.0000

> <Gold.Chemscore.DEClash>
0.2970

> <Gold.Chemscore.DEInternal>
3.4044

> <Gold.Chemscore.Rot>
1.5743

> <Gold.Chemscore.Internal.Correction>
   9.000000E+99

> <Gold.Chemscore.Hbonds>
donor molecule, donor type, donor heavy atom, donor atom, acceptor molecule, acceptor atom, score
      L1  H    10    32       P1  7948  0.33
      P1  H 10752 10763       L1    12  0.35

> <Gold.Chemscore.Hbond.Weighted>
-4.9898

> <Gold.Chemscore.Metal.Weighted>
-0.0000

> <Gold.Chemscore.Lipo.Weighted>
-8.8198

> <Gold.Chemscore.Internal_Hbond.Weighted>
0.0000

> <Gold.Chemscore.DEClash.Weighted>
0.2970

> <Gold.Chemscore.DEInternal.Weighted>
3.4044

> <Gold.Chemscore.Rot.Weighted>
4.0301

> <Gold.Chemscore.Internal.Correction.Weighted>
   9.000000E+99

> <Gold.Protein.RotatedTorsions>
[ 6907 6896 6895 6894 ] final  107.63 input  -60.11 | X-H torsion
[ 7974 7965 7964 7962 ] final   92.69 input  175.53 | X-H torsion
[ 8008 7997 7996 7995 ] final  -96.71 input   59.86 | X-H torsion
[ 10167 10162 10161 10158 ] final    3.62 input  -65.29 | X-H torsion
[ 10718 10713 10712 10709 ] final  -77.02 input   66.30 | X-H torsion
[ 10763 10752 10751 10750 ] final   86.67 input  -60.55 | X-H torsion
[ 11005 11000 10999 10996 ] final  104.81 input  -57.11 | X-H torsion

> <Gold.Protein.ActiveResidues>
 VAL166  LYS551  ARG553  GLY616  TRP617  ASP618  TYR619  PRO620  LYS621  CYS622 
 ASP623  PHE694  ASN695  SER759  ASP760  ASP761  ALA762  ILE779  LEU786  VAL792 
 PHE793  MET794  SER795  GLU796  ALA797  LYS798  CYS799  TRP800  GLU811  SER814 

> <Gold.Protein.RotatedAtoms>
  152.5146  133.9207  159.7532 H   0  0  0  0  0  0  0  0  0  0  0  0  # atno 6907 bound_to 6896
  150.9579  133.6469  159.2766 H   0  0  0  0  0  0  0  0  0  0  0  0  # atno 6908 bound_to 6896
  151.3724  135.0930  159.9522 H   0  0  0  0  0  0  0  0  0  0  0  0  # atno 6909 bound_to 6896
  145.4889  139.2277  143.2841 H   0  0  0  0  0  0  0  0  0  0  0  0  # atno 7974 bound_to 7965
  154.7781  140.0469  157.1105 H   0  0  0  0  0  0  0  0  0  0  0  0  # atno 8008 bound_to 7997
  154.9739  140.3093  155.4956 H   0  0  0  0  0  0  0  0  0  0  0  0  # atno 8009 bound_to 7997
  156.2932  140.2248  156.4833 H   0  0  0  0  0  0  0  0  0  0  0  0  # atno 8010 bound_to 7997
  140.6576  143.7386  150.7682 H   0  0  0  0  0  0  0  0  0  0  0  0  # atno 10167 bound_to 10162
  156.0157  130.4480  150.3281 H   0  0  0  0  0  0  0  0  0  0  0  0  # atno 10718 bound_to 10713
  153.1593  135.4572  154.9749 H   0  0  0  0  0  0  0  0  0  0  0  0  # atno 10763 bound_to 10752
  154.7885  135.3212  154.7833 H   0  0  0  0  0  0  0  0  0  0  0  0  # atno 10764 bound_to 10752
  153.8326  135.6937  153.4867 H   0  0  0  0  0  0  0  0  0  0  0  0  # atno 10765 bound_to 10752
  139.8795  134.9313  156.5418 H   0  0  0  0  0  0  0  0  0  0  0  0  # atno 11005 bound_to 11000
  146.2296  140.5681  142.8981 LP  0  0  0  0  0  0  0  0  0  0  0  0  # atno 17320 bound_to 7965
  144.7845  140.5909  143.6583 LP  0  0  0  0  0  0  0  0  0  0  0  0  # atno 17321 bound_to 7965
  140.1049  143.4753  152.2404 LP  0  0  0  0  0  0  0  0  0  0  0  0  # atno 17342 bound_to 10162
  139.5803  144.7507  151.3658 LP  0  0  0  0  0  0  0  0  0  0  0  0  # atno 17343 bound_to 10162
  157.1380  131.0289  151.2940 LP  0  0  0  0  0  0  0  0  0  0  0  0  # atno 17370 bound_to 10713
  157.4496  130.7590  149.7139 LP  0  0  0  0  0  0  0  0  0  0  0  0  # atno 17371 bound_to 10713
  140.8305  133.8283  155.8979 LP  0  0  0  0  0  0  0  0  0  0  0  0  # atno 17394 bound_to 11000
  140.9333  134.1994  157.4849 LP  0  0  0  0  0  0  0  0  0  0  0  0  # atno 17395 bound_to 11000

$$$$
