#       Name:                AV-unprocessed.smi:1099
#       Creating user name   scv26
#       Creation time:       Fri Mar 27 03:29:24 2020


#       File generated by GOLD software.
#

@<TRIPOS>MOLECULE
AV-unprocessed.smi:1099
    44    46     1
SMALL
NO_CHARGES


@<TRIPOS>ATOM
      1 ****        -6.4994   1.5014  -2.7152 C.3            1 S1                 0.0000
      2 ****        -6.0574   1.2760  -1.2655 C.3            1 S1                 0.0000
      3 ****        -5.1213   0.1226  -1.1244 C.2            1 S1                 0.0000
      4 ****        -3.7963   0.2268  -1.2589 N.2            1 S1                 0.0000
      5 ****        -3.1421  -1.0005  -1.1130 C.2            1 S1                 0.0000
      6 ****        -1.6488  -1.0723  -1.2184 C.3            1 S1                 0.0000
      7 ****        -0.9515  -0.6130   0.0695 C.3            1 S1                 0.0000
      8 ****         0.4942  -0.7395  -0.0559 N.am           1 S1                 0.0000
      9 ****         1.3690  -0.4425   0.9158 C.2            1 S1                 0.0000
     10 ****         1.0233  -0.0227   2.0208 O.2            1 S1                 0.0000
     11 ****         2.8528  -0.6886   0.5876 C.3            1 S1                 0.0000
     12 ****         3.6942  -1.2371   1.7667 C.3            1 S1                 0.0000
     13 ****         4.8804  -0.2565   1.8311 C.3            1 S1                 0.0000
     14 ****         4.4038   1.0902   2.4064 C.3            1 S1                 0.0000
     15 ****         3.6029   1.6929   1.2377 C.3            1 S1                 0.0000
     16 ****         3.6561   0.5734   0.1747 C.3            1 S1                 0.0000
     17 ****         5.0886   0.0810   0.3590 C.3            1 S1                 0.0000
     18 ****        -3.9995  -2.0457  -0.8753 C.2            1 S1                 0.0000
     19 ****        -5.6614  -1.5262  -0.8303 S.3            1 S1                 0.0000
     20 ****        -7.1848   2.3461  -2.7849 H              1 S1                 0.0000
     21 ****        -7.0109   0.6236  -3.1116 H              1 S1                 0.0000
     22 ****        -5.6446   1.7112  -3.3588 H              1 S1                 0.0000
     23 ****        -5.5727   2.1737  -0.8798 H              1 S1                 0.0000
     24 ****        -6.9291   1.0966  -0.6355 H              1 S1                 0.0000
     25 ****        -1.3448  -2.0938  -1.4508 H              1 S1                 0.0000
     26 ****        -1.3069  -0.4614  -2.0550 H              1 S1                 0.0000
     27 ****        -1.2080   0.4249   0.2877 H              1 S1                 0.0000
     28 ****        -1.2935  -1.2149   0.9130 H              1 S1                 0.0000
     29 ****         0.8531  -1.0832  -0.9348 H              1 S1                 0.0000
     30 ****         2.9031  -1.4122  -0.2286 H              1 S1                 0.0000
     31 ****         3.1600  -1.2910   2.7160 H              1 S1                 0.0000
     32 ****         4.0458  -2.2441   1.5389 H              1 S1                 0.0000
     33 ****         5.7548  -0.6627   2.3403 H              1 S1                 0.0000
     34 ****         3.7964   0.9625   3.3033 H              1 S1                 0.0000
     35 ****         5.2497   1.7294   2.6622 H              1 S1                 0.0000
     36 ****         2.5937   1.9887   1.5213 H              1 S1                 0.0000
     37 ****         4.1023   2.5883   0.8650 H              1 S1                 0.0000
     38 ****         3.4303   0.9197  -0.8344 H              1 S1                 0.0000
     39 ****         5.8400   0.8556   0.1943 H              1 S1                 0.0000
     40 ****         5.3328  -0.7882  -0.2546 H              1 S1                 0.0000
     41 ****        -3.7550  -3.0869  -0.7265 H              1 S1                 0.0000
     42 ****        -3.3238   1.0885  -1.4437 LP             1 S1                 0.0000
     43 ****         0.0533   0.1100   2.2242 LP             1 S1                 0.0000
     44 ****         1.7127   0.1854   2.7147 LP             1 S1                 0.0000
@<TRIPOS>BOND
    1    1    2 1     
    2    1   20 1     
    3    1   21 1     
    4    1   22 1     
    5    2    3 1     
    6    2   23 1     
    7    2   24 1     
    8    3   19 1     
    9    3    4 2     
   10    4    5 1     
   11    5    6 1     
   12    5   18 2     
   13    6    7 1     
   14    6   25 1     
   15    6   26 1     
   16    7    8 1     
   17    7   27 1     
   18    7   28 1     
   19    8    9 am    
   20    8   29 1     
   21    9   10 2     
   22    9   11 1     
   23   11   16 1     
   24   11   12 1     
   25   11   30 1     
   26   12   13 1     
   27   12   31 1     
   28   12   32 1     
   29   13   17 1     
   30   13   14 1     
   31   13   33 1     
   32   14   15 1     
   33   14   34 1     
   34   14   35 1     
   35   15   16 1     
   36   15   36 1     
   37   15   37 1     
   38   16   17 1     
   39   16   38 1     
   40   17   39 1     
   41   17   40 1     
   42   18   19 1     
   43   18   41 1     
   44    4   42 1     
   45   10   43 1     
   46   10   44 1     
@<TRIPOS>SUBSTRUCTURE
      1 S1             1
@<TRIPOS>SET
LONE_PAIRS      STATIC     ATOMS    <user>   **** ""
3 42 43 44
DONOR_HYDROGENS      STATIC     ATOMS    <user>   **** ""
1 29
ATOM$BLUE        STATIC     ATOMS    COLORGROUP SYSTEM
3 42 43 44
ATOM$RED        STATIC     ATOMS    COLORGROUP SYSTEM
1 29
