AV-unprocessed.smi:261|AV-procd|sdf|1993|dock10
  -GOLD-   2262021183D 1   1.00000     0.00000
 Structure written by MMmdl.
 51 54  0  0  0  0  0  0  0  0  1 V2000
  146.6025  134.2234  153.1074 C   0  0  0  0  0  0  0  0  0  0  0  0
  146.3619  134.0773  154.4973 O   0  0  0  0  0  0  0  0  0  0  0  0
  147.5291  134.2213  155.2935 C   0  0  1  0  0  0  0  0  0  0  0  0
  148.7708  133.5720  154.6769 C   0  0  0  0  0  0  0  0  0  0  0  0
  149.9487  134.3361  155.3074 C   0  0  2  0  0  0  0  0  0  0  0  0
  150.4504  133.6401  156.5906 C   0  0  0  0  0  0  0  0  0  0  0  0
  150.9716  132.4119  156.4978 N   0  0  0  0  0  0  0  0  0  0  0  0
  150.3551  134.2158  157.6722 O   0  0  0  0  0  0  0  0  0  0  0  0
  149.3951  135.6738  155.5364 N   0  0  0  0  0  0  0  0  0  0  0  0
  150.1270  136.8223  155.5893 C   0  0  0  0  0  0  0  0  0  0  0  0
  151.3986  136.7844  155.1085 N   0  0  0  0  0  0  0  0  0  0  0  0
  152.1721  137.8726  155.1272 C   0  0  0  0  0  0  0  0  0  0  0  0
  151.8798  139.0937  155.5734 N   0  0  0  0  0  0  0  0  0  0  0  0
  150.6058  139.1489  156.0542 C   0  0  0  0  0  0  0  0  0  0  0  0
  149.6678  138.0756  156.1008 C   0  0  0  0  0  0  0  0  0  0  0  0
  148.4768  138.5338  156.6563 N   0  0  0  0  0  0  0  0  0  0  0  0
  148.6983  139.7908  156.9242 C   0  0  0  0  0  0  0  0  0  0  0  0
  149.9542  140.2421  156.5953 N   0  0  0  0  0  0  0  0  0  0  0  0
  150.4772  141.5842  156.7799 C   0  0  0  0  0  0  0  0  0  0  0  0
  149.8405  142.3004  157.9875 C   0  0  2  0  0  0  0  0  0  0  0  0
  148.6933  143.0066  157.5538 O   0  0  0  0  0  0  0  0  0  0  0  0
  150.8106  143.2879  158.6630 C   0  0  1  0  0  0  0  0  0  0  0  0
  152.0781  142.6390  159.2271 C   0  0  0  0  0  0  0  0  0  0  0  0
  153.0654  143.7815  159.1760 C   0  0  0  0  0  0  0  0  0  0  0  0
  152.6852  144.4481  157.8594 C   0  0  0  0  0  0  0  0  0  0  0  0
  151.2819  144.2478  157.7172 O   0  0  0  0  0  0  0  0  0  0  0  0
  147.9433  135.6899  155.3845 C   0  0  0  0  0  0  0  0  0  0  0  0
  147.3641  133.8339  156.3008 H   0  0  0  0  0  0  0  0  0  0  0  0
  150.7632  134.3672  154.5838 H   0  0  0  0  0  0  0  0  0  0  0  0
  145.6719  134.0739  152.5599 H   0  0  0  0  0  0  0  0  0  0  0  0
  147.3227  133.4853  152.7521 H   0  0  0  0  0  0  0  0  0  0  0  0
  146.9738  135.2198  152.8662 H   0  0  0  0  0  0  0  0  0  0  0  0
  148.8081  132.4942  154.8413 H   0  0  0  0  0  0  0  0  0  0  0  0
  148.7717  133.7341  153.5979 H   0  0  0  0  0  0  0  0  0  0  0  0
  151.3049  131.9437  157.3281 H   0  0  0  0  0  0  0  0  0  0  0  0
  151.0301  131.9585  155.5976 H   0  0  0  0  0  0  0  0  0  0  0  0
  153.1673  137.7461  154.7272 H   0  0  0  0  0  0  0  0  0  0  0  0
  147.9483  140.4248  157.3743 H   0  0  0  0  0  0  0  0  0  0  0  0
  151.5575  141.5083  156.9093 H   0  0  0  0  0  0  0  0  0  0  0  0
  150.3130  142.1546  155.8644 H   0  0  0  0  0  0  0  0  0  0  0  0
  149.5210  141.5570  158.7192 H   0  0  0  0  0  0  0  0  0  0  0  0
  148.9679  143.6903  156.9624 H   0  0  0  0  0  0  0  0  0  0  0  0
  150.3028  143.8348  159.4595 H   0  0  0  0  0  0  0  0  0  0  0  0
  151.9398  142.2387  160.2320 H   0  0  0  0  0  0  0  0  0  0  0  0
  152.4176  141.8281  158.5809 H   0  0  0  0  0  0  0  0  0  0  0  0
  152.8948  144.4646  160.0096 H   0  0  0  0  0  0  0  0  0  0  0  0
  154.1052  143.4548  159.2048 H   0  0  0  0  0  0  0  0  0  0  0  0
  152.9427  145.5071  157.8371 H   0  0  0  0  0  0  0  0  0  0  0  0
  153.1899  143.9580  157.0257 H   0  0  0  0  0  0  0  0  0  0  0  0
  147.6878  136.2180  154.4642 H   0  0  0  0  0  0  0  0  0  0  0  0
  147.4488  136.1913  156.2177 H   0  0  0  0  0  0  0  0  0  0  0  0
  1  2  1  0  0  0  0
  1 30  1  0  0  0  0
  1 31  1  0  0  0  0
  1 32  1  0  0  0  0
  2  3  1  0  0  0  0
  3 28  1  0  0  0  0
  3 27  1  0  0  0  0
  3  4  1  0  0  0  0
  4  5  1  0  0  0  0
  4 33  1  0  0  0  0
  4 34  1  0  0  0  0
  5 29  1  0  0  0  0
  5  6  1  0  0  0  0
  5  9  1  0  0  0  0
  6  7  1  0  0  0  0
  6  8  2  0  0  0  0
  7 35  1  0  0  0  0
  7 36  1  0  0  0  0
  9 10  1  0  0  0  0
  9 27  1  0  0  0  0
 10 15  1  0  0  0  0
 10 11  2  0  0  0  0
 11 12  1  0  0  0  0
 12 13  2  0  0  0  0
 12 37  1  0  0  0  0
 13 14  1  0  0  0  0
 14 18  1  0  0  0  0
 14 15  2  0  0  0  0
 15 16  1  0  0  0  0
 16 17  2  0  0  0  0
 17 18  1  0  0  0  0
 17 38  1  0  0  0  0
 18 19  1  0  0  0  0
 19 20  1  0  0  0  0
 19 39  1  0  0  0  0
 19 40  1  0  0  0  0
 20 21  1  0  0  0  0
 20 22  1  0  0  0  0
 20 41  1  0  0  0  0
 21 42  1  0  0  0  0
 22 26  1  0  0  0  0
 22 23  1  0  0  0  0
 22 43  1  0  0  0  0
 23 24  1  0  0  0  0
 23 44  1  0  0  0  0
 23 45  1  0  0  0  0
 24 25  1  0  0  0  0
 24 46  1  0  0  0  0
 24 47  1  0  0  0  0
 25 26  1  0  0  0  0
 25 48  1  0  0  0  0
 25 49  1  0  0  0  0
 27 50  1  0  0  0  0
 27 51  1  0  0  0  0
M  END
> <s_m_source_file>
AV-unprocessed.smi

> <i_m_source_file_index>
261

> <i_lp_mmshare_version>
43012

> <i_f3d_flags>
0

> <s_epik_input>
W0NIM11PW0NASF0xW0NIMl1bQ0BASF0oQyg9TylbTkgyXSlOKFtDSDJdMSljKG5bY0hdbjIpYyhjMjMpbltjSF1uM1tDSDJdW0NASF0oW09IXSlbQ0BASF00W0NIMl1bQ0gyXVtDSDJdTzQ=

> <s_epik_cmdline>
J2VwaWtfcHl0aG9uJywgJy1waCcsICc3LjAnLCAnLXRuJywgJzgnLCAnLW1hJywgJzIwMCcsICctbWV0YWxfYmluZGluZycsICctaW1hZScsICc8aW5maWxlLm1hZT4nLCAnLW9tYWUnLCAnPG91dGZpbGUubWFlPic=

> <r_lp_tautomer_probability>
1

> <r_epik_Ionization_Penalty>
0.000713824

> <r_epik_Ionization_Penalty_Charging>
0

> <r_epik_Ionization_Penalty_Neutral>
0.000713824

> <r_epik_State_Penalty>
0.000402132

> <r_epik_Charging_Adjusted_Penalty>
0.000402132

> <i_epik_Tot_Q>
0

> <i_epik_Tot_abs_Q>
0

> <r_epik_Metal_State_Penalty>
-0

> <b_epik_Metal_Only>
0

> <s_lp_Force_Field>
OPLS_2005

> <r_lp_Energy>
43.0256

> <b_lp_Chiralities_Consistent>
1

> <s_lp_Variant>
AV-unprocessed.smi:261-11

> <Gold.Version>
5.8.1

> <Gold.Id.Protein>
6NUR|6NUR_protein|mol2

> <Gold.PLP.Fitness>
43.4865

> <Gold.PLP.PLP>
-37.9414

> <Gold.PLP.part.hbond>
-3.9777

> <Gold.PLP.part.metal>
0.0000

> <Gold.PLP.part.buried>
-5.1551

> <Gold.PLP.part.nonpolar>
-29.4055

> <Gold.PLP.part.repulsive>
0.6034

> <Gold.PLP.ligand.clash>
0.0000

> <Gold.PLP.ligand.torsion>
1.1842

> <Gold.PLP.Chemscore.Hbond>
2.5997

> <Gold.PLP.Chemscore.CHOScore>
0.0000

> <Gold.PLP.Chemscore.Metal>
0.0000

> <Gold.Chemscore.Hbonds>
donor molecule, donor type, donor heavy atom, donor atom, acceptor molecule, acceptor atom, score
      L1  H    21    42       P1  8028  1.00
      P1  H  6896  6907       L1     8  0.77
      P1  H 10752 10765       L1    11  0.55

> <Gold.PLP.Chemscore.Internal.Correction>
0.1146

> <Gold.Rescore>
     Score         DG    S(hbond)    S(metal)    S(lipo)     H(rot)  DE(clash)    DE(int)     intcor
      9.93     -11.51       1.43        0.00      80.47       3.18       0.38       1.20       ----

> <Gold.Chemscore.Fitness>
9.9263

> <Gold.Chemscore.DG>
-11.5056

> <Gold.Chemscore.ZeroCoef>
-5.4800

> <Gold.Chemscore.Hbond>
1.4250

> <Gold.Chemscore.Metal>
0.0000

> <Gold.Chemscore.Lipo>
80.4666

> <Gold.Chemscore.Internal_Hbond>
0.0000

> <Gold.Chemscore.DEClash>
0.3800

> <Gold.Chemscore.DEInternal>
1.1993

> <Gold.Chemscore.Rot>
3.1831

> <Gold.Chemscore.Internal.Correction>
   9.000000E+99

> <Gold.Chemscore.Hbonds>
donor molecule, donor type, donor heavy atom, donor atom, acceptor molecule, acceptor atom, score
      L1  H    21    42       P1  8028  0.44
      P1  H  6896  6907       L1     8  0.76
      P1  H 10752 10765       L1    11  0.03

> <Gold.Chemscore.Hbond.Weighted>
-4.7597

> <Gold.Chemscore.Metal.Weighted>
-0.0000

> <Gold.Chemscore.Lipo.Weighted>
-9.4146

> <Gold.Chemscore.Internal_Hbond.Weighted>
0.0000

> <Gold.Chemscore.DEClash.Weighted>
0.3800

> <Gold.Chemscore.DEInternal.Weighted>
1.1993

> <Gold.Chemscore.Rot.Weighted>
8.1486

> <Gold.Chemscore.Internal.Correction.Weighted>
   9.000000E+99

> <Gold.Protein.RotatedTorsions>
[ 6907 6896 6895 6894 ] final -110.89 input  -60.11 | X-H torsion
[ 7974 7965 7964 7962 ] final   59.40 input  175.53 | X-H torsion
[ 8008 7997 7996 7995 ] final  109.13 input   59.86 | X-H torsion
[ 10167 10162 10161 10158 ] final  169.75 input  -65.29 | X-H torsion
[ 10718 10713 10712 10709 ] final  -23.23 input   66.30 | X-H torsion
[ 10763 10752 10751 10750 ] final  168.17 input  -60.55 | X-H torsion
[ 11005 11000 10999 10996 ] final  122.29 input  -57.11 | X-H torsion

> <Gold.Protein.ActiveResidues>
 VAL166  LYS551  ARG553  GLY616  TRP617  ASP618  TYR619  PRO620  LYS621  CYS622 
 ASP623  PHE694  ASN695  SER759  ASP760  ASP761  ALA762  ILE779  LEU786  VAL792 
 PHE793  MET794  SER795  GLU796  ALA797  LYS798  CYS799  TRP800  GLU811  SER814 

> <Gold.Protein.RotatedAtoms>
  150.7654  133.9315  159.3428 H   0  0  0  0  0  0  0  0  0  0  0  0  # atno 6907 bound_to 6896
  151.7214  135.0891  160.0294 H   0  0  0  0  0  0  0  0  0  0  0  0  # atno 6908 bound_to 6896
  152.3647  133.6304  159.6077 H   0  0  0  0  0  0  0  0  0  0  0  0  # atno 6909 bound_to 6896
  145.9076  139.3629  143.0555 H   0  0  0  0  0  0  0  0  0  0  0  0  # atno 7974 bound_to 7965
  156.1956  140.3063  155.9420 H   0  0  0  0  0  0  0  0  0  0  0  0  # atno 8008 bound_to 7997
  155.3073  140.0449  157.3050 H   0  0  0  0  0  0  0  0  0  0  0  0  # atno 8009 bound_to 7997
  154.5505  140.2290  155.8501 H   0  0  0  0  0  0  0  0  0  0  0  0  # atno 8010 bound_to 7997
  139.5000  144.3672  151.9763 H   0  0  0  0  0  0  0  0  0  0  0  0  # atno 10167 bound_to 10162
  156.4938  130.4572  149.6740 H   0  0  0  0  0  0  0  0  0  0  0  0  # atno 10718 bound_to 10713
  154.3647  135.2753  155.2300 H   0  0  0  0  0  0  0  0  0  0  0  0  # atno 10763 bound_to 10752
  154.4473  135.5939  153.6172 H   0  0  0  0  0  0  0  0  0  0  0  0  # atno 10764 bound_to 10752
  152.9841  135.6033  154.3871 H   0  0  0  0  0  0  0  0  0  0  0  0  # atno 10765 bound_to 10752
  139.9262  134.9641  156.8087 H   0  0  0  0  0  0  0  0  0  0  0  0  # atno 11005 bound_to 11000
  145.8713  140.9418  143.0649 LP  0  0  0  0  0  0  0  0  0  0  0  0  # atno 17320 bound_to 7965
  144.6740  140.0658  143.7474 LP  0  0  0  0  0  0  0  0  0  0  0  0  # atno 17321 bound_to 7965
  140.3108  144.3540  150.6034 LP  0  0  0  0  0  0  0  0  0  0  0  0  # atno 17342 bound_to 10162
  140.5800  143.2173  151.7445 LP  0  0  0  0  0  0  0  0  0  0  0  0  # atno 17343 bound_to 10162
  156.3400  130.7377  151.2320 LP  0  0  0  0  0  0  0  0  0  0  0  0  # atno 17370 bound_to 10713
  157.7471  131.0406  150.4607 LP  0  0  0  0  0  0  0  0  0  0  0  0  # atno 17371 bound_to 10713
  140.6330  133.9888  155.7671 LP  0  0  0  0  0  0  0  0  0  0  0  0  # atno 17394 bound_to 11000
  141.0821  134.0046  157.3370 LP  0  0  0  0  0  0  0  0  0  0  0  0  # atno 17395 bound_to 11000

$$$$
