#       Name:                AV-unprocessed.smi:1482
#       Creating user name   scv26
#       Creation time:       Fri Mar 27 06:08:17 2020


#       File generated by GOLD software.
#

@<TRIPOS>MOLECULE
AV-unprocessed.smi:1482
    43    44     1
SMALL
NO_CHARGES


@<TRIPOS>ATOM
      1 ****        -4.8582   3.0436   1.0719 C.3            1 S1                 0.0000
      2 ****        -4.4266   1.6943   1.0426 O.3            1 S1                 0.0000
      3 ****        -3.0145   1.5760   1.0856 C.3            1 S1                 0.0000
      4 ****        -2.6349   0.0931   1.0594 C.3            1 S1                 0.0000
      5 ****        -1.2168  -0.0114   1.1328 O.3            1 S1                 0.0000
      6 ****        -0.6391  -1.2653   1.1014 C.ar           1 S1                 0.0000
      7 ****        -1.4535  -2.3475   1.0133 N.ar           1 S1                 0.0000
      8 ****        -0.8938  -3.5744   0.9707 C.ar           1 S1                 0.0000
      9 ****         0.4963  -3.7897   1.0143 C.ar           1 S1                 0.0000
     10 ****         1.3417  -2.6691   1.1076 C.ar           1 S1                 0.0000
     11 ****         0.7712  -1.3795   1.1543 C.ar           1 S1                 0.0000
     12 ****         1.6702  -0.1544   1.2499 C.3            1 S1                 0.0000
     13 ****         2.5760  -0.0240   0.1145 N.am           1 S1                 0.0000
     14 ****         2.2194   0.4040  -1.1062 C.2            1 S1                 0.0000
     15 ****         1.0684   0.7399  -1.3895 O.2            1 S1                 0.0000
     16 ****         3.3436   0.4354  -2.0893 C.3            1 S1                 0.0000
     17 ****         3.3343   1.5348  -3.1321 C.3            1 S1                 0.0000
     18 ****         3.0232   0.1155  -3.5354 C.3            1 S1                 0.0000
     19 ****        -5.9468   3.0810   1.0352 H              1 S1                 0.0000
     20 ****        -4.4734   3.6000   0.2162 H              1 S1                 0.0000
     21 ****        -4.5351   3.5411   1.9870 H              1 S1                 0.0000
     22 ****        -2.5679   2.0899   0.2329 H              1 S1                 0.0000
     23 ****        -2.6276   2.0428   1.9926 H              1 S1                 0.0000
     24 ****        -3.0959  -0.4203   1.9049 H              1 S1                 0.0000
     25 ****        -3.0054  -0.3641   0.1405 H              1 S1                 0.0000
     26 ****        -1.5748  -4.4095   0.8987 H              1 S1                 0.0000
     27 ****         0.9032  -4.7892   0.9760 H              1 S1                 0.0000
     28 ****         2.4135  -2.7983   1.1421 H              1 S1                 0.0000
     29 ****         1.0923   0.7630   1.3668 H              1 S1                 0.0000
     30 ****         2.2734  -0.2450   2.1534 H              1 S1                 0.0000
     31 ****         3.5413  -0.2778   0.2664 H              1 S1                 0.0000
     32 ****         4.3185   0.1155  -1.7240 H              1 S1                 0.0000
     33 ****         2.5103   2.2464  -3.1318 H              1 S1                 0.0000
     34 ****         4.2980   1.9490  -3.4210 H              1 S1                 0.0000
     35 ****         3.7761  -0.4331  -4.0974 H              1 S1                 0.0000
     36 ****         1.9931  -0.1134  -3.8030 H              1 S1                 0.0000
     37 ****        -4.7587   1.2694   0.2005 LP             1 S1                 0.0000
     38 ****        -4.8128   1.2167   1.8317 LP             1 S1                 0.0000
     39 ****        -0.9343   0.4209   1.9891 LP             1 S1                 0.0000
     40 ****        -0.8439   0.5033   0.3607 LP             1 S1                 0.0000
     41 ****        -2.4469  -2.2378   0.9806 LP             1 S1                 0.0000
     42 ****         0.3505   0.7002  -0.6945 LP             1 S1                 0.0000
     43 ****         0.8520   1.0523  -2.3145 LP             1 S1                 0.0000
@<TRIPOS>BOND
    1    1    2 1     
    2    1   19 1     
    3    1   20 1     
    4    1   21 1     
    5    2    3 1     
    6    3    4 1     
    7    3   22 1     
    8    3   23 1     
    9    4    5 1     
   10    4   24 1     
   11    4   25 1     
   12    5    6 1     
   13    6   11 ar    
   14    6    7 ar    
   15    7    8 ar    
   16    8    9 ar    
   17    8   26 1     
   18    9   10 ar    
   19    9   27 1     
   20   10   11 ar    
   21   10   28 1     
   22   11   12 1     
   23   12   13 1     
   24   12   29 1     
   25   12   30 1     
   26   13   14 am    
   27   13   31 1     
   28   14   15 2     
   29   14   16 1     
   30   16   18 1     
   31   16   17 1     
   32   16   32 1     
   33   17   18 1     
   34   17   33 1     
   35   17   34 1     
   36   18   35 1     
   37   18   36 1     
   38    2   37 1     
   39    2   38 1     
   40    5   39 1     
   41    5   40 1     
   42    7   41 1     
   43   15   42 1     
   44   15   43 1     
@<TRIPOS>SUBSTRUCTURE
      1 S1             1
@<TRIPOS>SET
LONE_PAIRS      STATIC     ATOMS    <user>   **** ""
7 37 38 39 40 41 42 43
DONOR_HYDROGENS      STATIC     ATOMS    <user>   **** ""
1 31
ATOM$BLUE        STATIC     ATOMS    COLORGROUP SYSTEM
7 37 38 39 40 41 42 43
ATOM$RED        STATIC     ATOMS    COLORGROUP SYSTEM
1 31
