AV-unprocessed.smi:299|AV-procd|sdf|2266|dock9
  -GOLD-   2262022153D 1   1.00000     0.00000
 Structure written by MMmdl.
 42 43  0  0  0  0  0  0  0  0  2 V2000
  145.3350  135.5920  151.1045 C   0  0  0  0  0  0  0  0  0  0  0  0
  144.9804  134.3012  151.8750 C   0  0  1  0  0  0  0  0  0  0  0  0
  143.8564  133.4977  151.1880 C   0  0  0  0  0  0  0  0  0  0  0  0
  144.3453  132.7996  149.9106 C   0  0  0  0  0  0  0  0  0  0  0  0
  145.5737  131.9359  150.2206 C   0  0  0  0  0  0  0  0  0  0  0  0
  146.6755  132.7585  150.9091 C   0  0  0  0  0  0  0  0  0  0  0  0
  146.1606  133.4238  152.1379 N   0  3  1  0  0  0  0  0  0  0  0  0
  147.2187  134.0783  152.9504 C   0  0  0  0  0  0  0  0  0  0  0  0
  148.2968  133.0839  153.4206 C   0  0  0  0  0  0  0  0  0  0  0  0
  149.3154  133.6990  154.3992 C   0  0  0  0  0  0  0  0  0  0  0  0
  149.4930  135.1350  154.2079 N   0  0  0  0  0  0  0  0  0  0  0  0
  150.1141  135.9599  155.0658 C   0  0  0  0  0  0  0  0  0  0  0  0
  150.6374  135.5806  156.1129 O   0  0  0  0  0  0  0  0  0  0  0  0
  150.1537  137.4399  154.6848 C   0  0  0  0  0  0  0  0  0  0  0  0
  151.5096  137.9529  154.7323 N   0  0  0  0  0  0  0  0  0  0  0  0
  152.0168  139.0375  155.3221 C   0  0  0  0  0  0  0  0  0  0  0  0
  153.3186  139.1473  155.1057 N   0  0  0  0  0  0  0  0  0  0  0  0
  153.6031  138.0384  154.3259 N   0  0  0  0  0  0  0  0  0  0  0  0
  152.5335  137.3259  154.1008 N   0  0  0  0  0  0  0  0  0  0  0  0
  144.4461  136.2046  150.9526 H   0  0  0  0  0  0  0  0  0  0  0  0
  145.7566  135.3870  150.1210 H   0  0  0  0  0  0  0  0  0  0  0  0
  146.0513  136.2057  151.6503 H   0  0  0  0  0  0  0  0  0  0  0  0
  144.5918  134.6103  152.8462 H   0  0  0  0  0  0  0  0  0  0  0  0
  143.4792  132.7449  151.8815 H   0  0  0  0  0  0  0  0  0  0  0  0
  143.0107  134.1474  150.9594 H   0  0  0  0  0  0  0  0  0  0  0  0
  143.5492  132.1832  149.4920 H   0  0  0  0  0  0  0  0  0  0  0  0
  144.5943  133.5394  149.1494 H   0  0  0  0  0  0  0  0  0  0  0  0
  145.2826  131.1048  150.8644 H   0  0  0  0  0  0  0  0  0  0  0  0
  145.9587  131.4934  149.3013 H   0  0  0  0  0  0  0  0  0  0  0  0
  147.4990  132.0910  151.1592 H   0  0  0  0  0  0  0  0  0  0  0  0
  147.0812  133.5005  150.2211 H   0  0  0  0  0  0  0  0  0  0  0  0
  147.6641  134.8975  152.3841 H   0  0  0  0  0  0  0  0  0  0  0  0
  146.7647  134.5236  153.8366 H   0  0  0  0  0  0  0  0  0  0  0  0
  147.8138  132.2385  153.9116 H   0  0  0  0  0  0  0  0  0  0  0  0
  148.8301  132.6686  152.5660 H   0  0  0  0  0  0  0  0  0  0  0  0
  148.9869  133.5333  155.4255 H   0  0  0  0  0  0  0  0  0  0  0  0
  150.2792  133.1967  154.3024 H   0  0  0  0  0  0  0  0  0  0  0  0
  149.0842  135.5387  153.3771 H   0  0  0  0  0  0  0  0  0  0  0  0
  149.7634  137.5770  153.6755 H   0  0  0  0  0  0  0  0  0  0  0  0
  149.5196  138.0199  155.3574 H   0  0  0  0  0  0  0  0  0  0  0  0
  151.4370  139.7416  155.9004 H   0  0  0  0  0  0  0  0  0  0  0  0
  145.8016  132.6799  152.7193 H   0  0  0  0  0  0  0  0  0  0  0  0
  1  2  1  0  0  0  0
  1 20  1  0  0  0  0
  1 21  1  0  0  0  0
  1 22  1  0  0  0  0
  2  7  1  0  0  0  0
  2  3  1  0  0  0  0
  2 23  1  0  0  0  0
  3  4  1  0  0  0  0
  3 24  1  0  0  0  0
  3 25  1  0  0  0  0
  4  5  1  0  0  0  0
  4 26  1  0  0  0  0
  4 27  1  0  0  0  0
  5  6  1  0  0  0  0
  5 28  1  0  0  0  0
  5 29  1  0  0  0  0
  6  7  1  0  0  0  0
  6 30  1  0  0  0  0
  6 31  1  0  0  0  0
  7  8  1  0  0  0  0
  7 42  1  0  0  0  0
  8  9  1  0  0  0  0
  8 32  1  0  0  0  0
  8 33  1  0  0  0  0
  9 10  1  0  0  0  0
  9 34  1  0  0  0  0
  9 35  1  0  0  0  0
 10 11  1  0  0  0  0
 10 36  1  0  0  0  0
 10 37  1  0  0  0  0
 11 12  1  0  0  0  0
 11 38  1  0  0  0  0
 12 13  2  0  0  0  0
 12 14  1  0  0  0  0
 14 15  1  0  0  0  0
 14 39  1  0  0  0  0
 14 40  1  0  0  0  0
 15 19  1  0  0  0  0
 15 16  1  0  0  0  0
 16 17  2  0  0  0  0
 16 41  1  0  0  0  0
 17 18  1  0  0  0  0
 18 19  2  0  0  0  0
M  CHG  1   7   1
M  END
> <s_m_source_file>
AV-unprocessed.smi

> <i_m_source_file_index>
299

> <i_lp_mmshare_version>
43012

> <i_f3d_flags>
0

> <s_epik_input>
W0NIM11bQ0BASF0xW0NIMl1bQ0gyXVtDSDJdW0NIMl1OMVtDSDJdW0NIMl1bQ0gyXVtOSF1DKD1PKVtDSDJdbjJbY0hdbm5uMg==

> <s_epik_cmdline>
J2VwaWtfcHl0aG9uJywgJy1waCcsICc3LjAnLCAnLXRuJywgJzgnLCAnLW1hJywgJzIwMCcsICctbWV0YWxfYmluZGluZycsICctaW1hZScsICc8aW5maWxlLm1hZT4nLCAnLW9tYWUnLCAnPG91dGZpbGUubWFlPic=

> <r_lp_tautomer_probability>
1

> <r_epik_Ionization_Penalty>
0.000544863

> <r_epik_Ionization_Penalty_Charging>
0.000543475

> <r_epik_Ionization_Penalty_Neutral>
1.38784e-06

> <r_epik_State_Penalty>
0.000340025

> <r_epik_Charging_Adjusted_Penalty>
0.0008835

> <i_epik_Tot_Q>
1

> <i_epik_Tot_abs_Q>
1

> <r_epik_Metal_State_Penalty>
-0

> <b_epik_Metal_Only>
0

> <s_lp_Force_Field>
OPLS_2005

> <r_lp_Energy>
24.6376

> <b_lp_Chiralities_Consistent>
1

> <s_lp_Variant>
AV-unprocessed.smi:299-2

> <Gold.Version>
5.8.1

> <Gold.Id.Protein>
6NUR|6NUR_protein|mol2

> <Gold.PLP.Fitness>
43.4526

> <Gold.PLP.PLP>
-36.1560

> <Gold.PLP.part.hbond>
-4.0000

> <Gold.PLP.part.metal>
0.0000

> <Gold.PLP.part.buried>
-3.6395

> <Gold.PLP.part.nonpolar>
-28.6214

> <Gold.PLP.part.repulsive>
0.2193

> <Gold.PLP.ligand.clash>
0.0000

> <Gold.PLP.ligand.torsion>
0.4673

> <Gold.PLP.Chemscore.Hbond>
2.7200

> <Gold.PLP.Chemscore.CHOScore>
0.0000

> <Gold.PLP.Chemscore.Metal>
0.0000

> <Gold.Chemscore.Hbonds>
donor molecule, donor type, donor heavy atom, donor atom, acceptor molecule, acceptor atom, score
      L1  H    11    38       P1  7948  1.00
      P1  H  7997  8009       L1    17  1.00
      P1  H 10752 10763       L1    19  0.69

> <Gold.PLP.Chemscore.Internal.Correction>
0.0713

> <Gold.Rescore>
     Score         DG    S(hbond)    S(metal)    S(lipo)     H(rot)  DE(clash)    DE(int)     intcor
     12.14     -12.92       2.23        0.00      64.74       2.97       0.26       0.51       ----

> <Gold.Chemscore.Fitness>
12.1426

> <Gold.Chemscore.DG>
-12.9155

> <Gold.Chemscore.ZeroCoef>
-5.4800

> <Gold.Chemscore.Hbond>
2.2332

> <Gold.Chemscore.Metal>
0.0000

> <Gold.Chemscore.Lipo>
64.7412

> <Gold.Chemscore.Internal_Hbond>
0.0000

> <Gold.Chemscore.DEClash>
0.2647

> <Gold.Chemscore.DEInternal>
0.5082

> <Gold.Chemscore.Rot>
2.9680

> <Gold.Chemscore.Internal.Correction>
   9.000000E+99

> <Gold.Chemscore.Hbonds>
donor molecule, donor type, donor heavy atom, donor atom, acceptor molecule, acceptor atom, score
      L1  H    11    38       P1  7948  0.60
      P1  H  7997  8009       L1    17  0.97
      P1  H 10752 10763       L1    19  0.41

> <Gold.Chemscore.Hbond.Weighted>
-7.4588

> <Gold.Chemscore.Metal.Weighted>
-0.0000

> <Gold.Chemscore.Lipo.Weighted>
-7.5747

> <Gold.Chemscore.Internal_Hbond.Weighted>
0.0000

> <Gold.Chemscore.DEClash.Weighted>
0.2647

> <Gold.Chemscore.DEInternal.Weighted>
0.5082

> <Gold.Chemscore.Rot.Weighted>
7.5980

> <Gold.Chemscore.Internal.Correction.Weighted>
   9.000000E+99

> <Gold.Protein.RotatedTorsions>
[ 6907 6896 6895 6894 ] final  -82.79 input  -60.11 | X-H torsion
[ 7974 7965 7964 7962 ] final   -5.30 input  175.53 | X-H torsion
[ 8008 7997 7996 7995 ] final -149.06 input   59.86 | X-H torsion
[ 10167 10162 10161 10158 ] final -170.33 input  -65.29 | X-H torsion
[ 10718 10713 10712 10709 ] final  156.66 input   66.30 | X-H torsion
[ 10763 10752 10751 10750 ] final   31.01 input  -60.55 | X-H torsion
[ 11005 11000 10999 10996 ] final -160.27 input  -57.11 | X-H torsion

> <Gold.Protein.ActiveResidues>
 VAL166  LYS551  ARG553  GLY616  TRP617  ASP618  TYR619  PRO620  LYS621  CYS622 
 ASP623  PHE694  ASN695  SER759  ASP760  ASP761  ALA762  ILE779  LEU786  VAL792 
 PHE793  MET794  SER795  GLU796  ALA797  LYS798  CYS799  TRP800  GLU811  SER814 

> <Gold.Protein.RotatedAtoms>
  150.6893  134.3610  159.4950 H   0  0  0  0  0  0  0  0  0  0  0  0  # atno 6907 bound_to 6896
  152.1439  134.9038  160.0561 H   0  0  0  0  0  0  0  0  0  0  0  0  # atno 6908 bound_to 6896
  152.0162  133.3845  159.4276 H   0  0  0  0  0  0  0  0  0  0  0  0  # atno 6909 bound_to 6896
  146.2355  140.2001  142.8333 H   0  0  0  0  0  0  0  0  0  0  0  0  # atno 7974 bound_to 7965
  155.6015  140.0662  157.2731 H   0  0  0  0  0  0  0  0  0  0  0  0  # atno 8008 bound_to 7997
  154.4277  140.1817  156.1225 H   0  0  0  0  0  0  0  0  0  0  0  0  # atno 8009 bound_to 7997
  156.0155  140.3322  155.6988 H   0  0  0  0  0  0  0  0  0  0  0  0  # atno 8010 bound_to 7997
  139.5868  144.1300  152.1585 H   0  0  0  0  0  0  0  0  0  0  0  0  # atno 10167 bound_to 10162
  157.2020  131.0678  151.2020 H   0  0  0  0  0  0  0  0  0  0  0  0  # atno 10718 bound_to 10713
  153.0339  135.6449  154.1134 H   0  0  0  0  0  0  0  0  0  0  0  0  # atno 10763 bound_to 10752
  154.0852  135.2870  155.3284 H   0  0  0  0  0  0  0  0  0  0  0  0  # atno 10764 bound_to 10752
  154.6503  135.5428  153.7957 H   0  0  0  0  0  0  0  0  0  0  0  0  # atno 10765 bound_to 10752
  140.6333  134.4628  157.5230 H   0  0  0  0  0  0  0  0  0  0  0  0  # atno 11005 bound_to 11000
  144.9789  140.8440  143.5409 LP  0  0  0  0  0  0  0  0  0  0  0  0  # atno 17320 bound_to 7965
  145.1992  139.2261  143.5202 LP  0  0  0  0  0  0  0  0  0  0  0  0  # atno 17321 bound_to 7965
  140.0866  144.5656  150.7084 LP  0  0  0  0  0  0  0  0  0  0  0  0  # atno 17342 bound_to 10162
  140.7138  143.2527  151.4497 LP  0  0  0  0  0  0  0  0  0  0  0  0  # atno 17343 bound_to 10162
  157.3758  130.7205  149.6596 LP  0  0  0  0  0  0  0  0  0  0  0  0  # atno 17370 bound_to 10713
  155.9699  130.4186  150.4336 LP  0  0  0  0  0  0  0  0  0  0  0  0  # atno 17371 bound_to 10713
  139.9107  134.8350  156.1537 LP  0  0  0  0  0  0  0  0  0  0  0  0  # atno 17394 bound_to 11000
  141.0659  133.6819  156.2044 LP  0  0  0  0  0  0  0  0  0  0  0  0  # atno 17395 bound_to 11000

$$$$
