AV-unprocessed.smi:3025|AV-procd|sdf|11512|dock3
  -GOLD-   2272016453D 1   1.00000     0.00000
 Structure written by MMmdl.
 41 42  0  0  0  0  0  0  0  0  3 V2000
  152.2134  145.0893  158.8718 C   0  0  0  0  0  0  0  0  0  0  0  0
  151.3535  144.1854  157.9816 C   0  0  0  0  0  0  0  0  0  0  0  0
  151.8331  142.7241  157.9912 C   0  0  0  0  0  0  0  0  0  0  0  0
  150.9281  141.7558  157.2012 C   0  0  2  0  0  0  0  0  0  0  0  0
  149.6945  141.3014  158.0107 C   0  0  0  0  0  0  0  0  0  0  0  0
  148.8204  140.3163  157.2156 C   0  0  0  0  0  0  0  0  0  0  0  0
  149.6155  139.0858  156.7300 C   0  0  2  0  0  0  0  0  0  0  0  0
  150.0116  138.1924  157.8436 N   0  3  0  0  0  0  0  0  0  0  0  0
  148.9245  137.8043  158.7649 C   0  0  0  0  0  0  0  0  0  0  0  0
  149.3796  136.6819  159.7033 C   0  0  0  0  0  0  0  0  0  0  0  0
  148.3288  136.3653  160.7420 C   0  0  0  0  0  0  0  0  0  0  0  0
  147.6652  137.2718  161.4869 N   0  5  0  0  0  0  0  0  0  0  0  0
  146.7890  136.6646  162.2631 N   0  0  0  0  0  0  0  0  0  0  0  0
  146.9286  135.3679  161.9635 C   0  0  0  0  0  0  0  0  0  0  0  0
  147.8599  135.1542  161.0274 N   0  0  0  0  0  0  0  0  0  0  0  0
  150.8566  139.5359  155.9370 C   0  0  0  0  0  0  0  0  0  0  0  0
  151.7292  140.5258  156.7290 C   0  0  0  0  0  0  0  0  0  0  0  0
  151.8487  146.1163  158.8495 H   0  0  0  0  0  0  0  0  0  0  0  0
  153.2517  145.0984  158.5389 H   0  0  0  0  0  0  0  0  0  0  0  0
  152.1960  144.7529  159.9088 H   0  0  0  0  0  0  0  0  0  0  0  0
  150.3195  144.2454  158.3198 H   0  0  0  0  0  0  0  0  0  0  0  0
  151.3692  144.5705  156.9614 H   0  0  0  0  0  0  0  0  0  0  0  0
  152.8364  142.6936  157.5638 H   0  0  0  0  0  0  0  0  0  0  0  0
  151.9349  142.3773  159.0204 H   0  0  0  0  0  0  0  0  0  0  0  0
  150.5756  142.2794  156.3110 H   0  0  0  0  0  0  0  0  0  0  0  0
  150.0132  140.8388  158.9457 H   0  0  0  0  0  0  0  0  0  0  0  0
  149.0844  142.1606  158.2877 H   0  0  0  0  0  0  0  0  0  0  0  0
  147.9562  140.0198  157.8090 H   0  0  0  0  0  0  0  0  0  0  0  0
  148.4129  140.8355  156.3471 H   0  0  0  0  0  0  0  0  0  0  0  0
  148.9854  138.5039  156.0557 H   0  0  0  0  0  0  0  0  0  0  0  0
  150.3748  137.3415  157.4387 H   0  0  0  0  0  0  0  0  0  0  0  0
  148.6116  138.6651  159.3553 H   0  0  0  0  0  0  0  0  0  0  0  0
  148.0596  137.4747  158.1878 H   0  0  0  0  0  0  0  0  0  0  0  0
  149.5965  135.7758  159.1361 H   0  0  0  0  0  0  0  0  0  0  0  0
  150.3010  136.9646  160.2138 H   0  0  0  0  0  0  0  0  0  0  0  0
  146.3470  134.5793  162.4246 H   0  0  0  0  0  0  0  0  0  0  0  0
  151.4493  138.6703  155.6385 H   0  0  0  0  0  0  0  0  0  0  0  0
  150.5337  140.0133  155.0108 H   0  0  0  0  0  0  0  0  0  0  0  0
  152.5644  140.8447  156.1044 H   0  0  0  0  0  0  0  0  0  0  0  0
  152.1694  140.0203  157.5895 H   0  0  0  0  0  0  0  0  0  0  0  0
  150.7497  138.6359  158.3714 H   0  0  0  0  0  0  0  0  0  0  0  0
  1  2  1  0  0  0  0
  1 18  1  0  0  0  0
  1 19  1  0  0  0  0
  1 20  1  0  0  0  0
  2  3  1  0  0  0  0
  2 21  1  0  0  0  0
  2 22  1  0  0  0  0
  3  4  1  0  0  0  0
  3 23  1  0  0  0  0
  3 24  1  0  0  0  0
  4 17  1  0  0  0  0
  4  5  1  0  0  0  0
  4 25  1  0  0  0  0
  5  6  1  0  0  0  0
  5 26  1  0  0  0  0
  5 27  1  0  0  0  0
  6  7  1  0  0  0  0
  6 28  1  0  0  0  0
  6 29  1  0  0  0  0
  7  8  1  0  0  0  0
  7 16  1  0  0  0  0
  7 30  1  0  0  0  0
  8  9  1  0  0  0  0
  8 31  1  0  0  0  0
  8 41  1  0  0  0  0
  9 10  1  0  0  0  0
  9 32  1  0  0  0  0
  9 33  1  0  0  0  0
 10 34  1  0  0  0  0
 10 35  1  0  0  0  0
 10 11  1  0  0  0  0
 11 15  2  0  0  0  0
 11 12  1  0  0  0  0
 12 13  1  0  0  0  0
 13 14  2  0  0  0  0
 14 15  1  0  0  0  0
 14 36  1  0  0  0  0
 16 17  1  0  0  0  0
 16 37  1  0  0  0  0
 16 38  1  0  0  0  0
 17 39  1  0  0  0  0
 17 40  1  0  0  0  0
M  CHG  1   8   1
M  CHG  1  12  -1
M  END
> <s_m_source_file>
AV-unprocessed.smi

> <i_m_source_file_index>
3025

> <i_lp_mmshare_version>
43012

> <i_f3d_flags>
0

> <s_epik_input>
W0NIM11bQ0gyXVtDSDJdW0NAQEhdMVtDSDJdW0NIMl1bQ0BIXShbQ0gyXVtDSDJdMSlbTkhdW0NIMl1bQ0gyXWMybm5bY0hdW25IXTI=

> <s_epik_cmdline>
J2VwaWtfcHl0aG9uJywgJy1waCcsICc3LjAnLCAnLXRuJywgJzgnLCAnLW1hJywgJzIwMCcsICctbWV0YWxfYmluZGluZycsICctaW1hZScsICc8aW5maWxlLm1hZT4nLCAnLW9tYWUnLCAnPG91dGZpbGUubWFlPic=

> <r_lp_tautomer_probability>
0.948284

> <r_epik_Ionization_Penalty>
6.65342

> <r_epik_Ionization_Penalty_Charging>
6.65342

> <r_epik_Ionization_Penalty_Neutral>
1.40767e-13

> <r_epik_State_Penalty>
2.88894

> <r_epik_Charging_Adjusted_Penalty>
9.54236

> <i_epik_Tot_Q>
0

> <i_epik_Tot_abs_Q>
2

> <r_epik_Metal_State_Penalty>
0.664188

> <b_epik_Metal_Only>
1

> <s_lp_Force_Field>
OPLS_2005

> <r_lp_Energy>
9.37779

> <b_lp_Chiralities_Consistent>
1

> <s_lp_Variant>
AV-unprocessed.smi:3025-8

> <Gold.Version>
5.8.1

> <Gold.Id.Protein>
6NUR|6NUR_protein|mol2

> <Gold.PLP.Fitness>
40.1120

> <Gold.PLP.PLP>
-30.0777

> <Gold.PLP.part.hbond>
-2.0000

> <Gold.PLP.part.metal>
0.0000

> <Gold.PLP.part.buried>
-4.4529

> <Gold.PLP.part.nonpolar>
-23.6401

> <Gold.PLP.part.repulsive>
0.0645

> <Gold.PLP.ligand.clash>
0.0000

> <Gold.PLP.ligand.torsion>
0.4350

> <Gold.PLP.Chemscore.Hbond>
3.6160

> <Gold.PLP.Chemscore.CHOScore>
0.0000

> <Gold.PLP.Chemscore.Metal>
0.0000

> <Gold.Chemscore.Hbonds>
donor molecule, donor type, donor heavy atom, donor atom, acceptor molecule, acceptor atom, score
      P1  H  6931  6943       L1    12  1.73
      P1  H  6934  6947       L1    12  1.54

> <Gold.PLP.Chemscore.Internal.Correction>
0.0562

> <Gold.Rescore>
     Score         DG    S(hbond)    S(metal)    S(lipo)     H(rot)  DE(clash)    DE(int)     intcor
     11.43     -11.89       1.32        0.00      71.70       2.50       0.00       0.45       ----

> <Gold.Chemscore.Fitness>
11.4326

> <Gold.Chemscore.DG>
-11.8855

> <Gold.Chemscore.ZeroCoef>
-5.4800

> <Gold.Chemscore.Hbond>
1.3236

> <Gold.Chemscore.Metal>
0.0000

> <Gold.Chemscore.Lipo>
71.7043

> <Gold.Chemscore.Internal_Hbond>
0.0000

> <Gold.Chemscore.DEClash>
0.0018

> <Gold.Chemscore.DEInternal>
0.4510

> <Gold.Chemscore.Rot>
2.5019

> <Gold.Chemscore.Internal.Correction>
   9.000000E+99

> <Gold.Chemscore.Hbonds>
donor molecule, donor type, donor heavy atom, donor atom, acceptor molecule, acceptor atom, score
      P1  H  6931  6943       L1    12  0.16
      P1  H  6934  6947       L1    12  0.70

> <Gold.Chemscore.Hbond.Weighted>
-4.4210

> <Gold.Chemscore.Metal.Weighted>
-0.0000

> <Gold.Chemscore.Lipo.Weighted>
-8.3894

> <Gold.Chemscore.Internal_Hbond.Weighted>
0.0000

> <Gold.Chemscore.DEClash.Weighted>
0.0018

> <Gold.Chemscore.DEInternal.Weighted>
0.4510

> <Gold.Chemscore.Rot.Weighted>
6.4049

> <Gold.Chemscore.Internal.Correction.Weighted>
   9.000000E+99

> <Gold.Protein.RotatedTorsions>
[ 6907 6896 6895 6894 ] final   84.95 input  -60.11 | X-H torsion
[ 7974 7965 7964 7962 ] final -132.43 input  175.53 | X-H torsion
[ 8008 7997 7996 7995 ] final   64.49 input   59.86 | X-H torsion
[ 10167 10162 10161 10158 ] final  160.81 input  -65.29 | X-H torsion
[ 10718 10713 10712 10709 ] final   79.59 input   66.30 | X-H torsion
[ 10763 10752 10751 10750 ] final   72.70 input  -60.55 | X-H torsion
[ 11005 11000 10999 10996 ] final  -60.75 input  -57.11 | X-H torsion

> <Gold.Protein.ActiveResidues>
 VAL166  LYS551  ARG553  GLY616  TRP617  ASP618  TYR619  PRO620  LYS621  CYS622 
 ASP623  PHE694  ASN695  SER759  ASP760  ASP761  ALA762  ILE779  LEU786  VAL792 
 PHE793  MET794  SER795  GLU796  ALA797  LYS798  CYS799  TRP800  GLU811  SER814 

> <Gold.Protein.RotatedAtoms>
  152.5364  134.2661  159.8953 H   0  0  0  0  0  0  0  0  0  0  0  0  # atno 6907 bound_to 6896
  151.2620  133.4291  159.2624 H   0  0  0  0  0  0  0  0  0  0  0  0  # atno 6908 bound_to 6896
  151.0445  134.9644  159.8235 H   0  0  0  0  0  0  0  0  0  0  0  0  # atno 6909 bound_to 6896
  144.9286  140.7101  143.4920 H   0  0  0  0  0  0  0  0  0  0  0  0  # atno 7974 bound_to 7965
  155.6468  140.3497  155.4734 H   0  0  0  0  0  0  0  0  0  0  0  0  # atno 8008 bound_to 7997
  155.9880  140.1188  157.0688 H   0  0  0  0  0  0  0  0  0  0  0  0  # atno 8009 bound_to 7997
  154.4211  140.1125  156.5513 H   0  0  0  0  0  0  0  0  0  0  0  0  # atno 8010 bound_to 7997
  139.4843  144.4597  151.8721 H   0  0  0  0  0  0  0  0  0  0  0  0  # atno 10167 bound_to 10162
  157.6781  130.9921  150.1955 H   0  0  0  0  0  0  0  0  0  0  0  0  # atno 10718 bound_to 10713
  153.0475  135.5090  154.7782 H   0  0  0  0  0  0  0  0  0  0  0  0  # atno 10763 bound_to 10752
  154.6671  135.2947  154.9793 H   0  0  0  0  0  0  0  0  0  0  0  0  # atno 10764 bound_to 10752
  154.0624  135.6689  153.4866 H   0  0  0  0  0  0  0  0  0  0  0  0  # atno 10765 bound_to 10752
  141.1299  133.6624  156.5271 H   0  0  0  0  0  0  0  0  0  0  0  0  # atno 11005 bound_to 11000
  145.3179  139.1798  143.4604 LP  0  0  0  0  0  0  0  0  0  0  0  0  # atno 17320 bound_to 7965
  146.3237  140.3192  142.8632 LP  0  0  0  0  0  0  0  0  0  0  0  0  # atno 17321 bound_to 7965
  140.4059  144.2432  150.5891 LP  0  0  0  0  0  0  0  0  0  0  0  0  # atno 17342 bound_to 10162
  140.5013  143.2317  151.8674 LP  0  0  0  0  0  0  0  0  0  0  0  0  # atno 17343 bound_to 10162
  156.2657  130.3716  149.8083 LP  0  0  0  0  0  0  0  0  0  0  0  0  # atno 17370 bound_to 10713
  156.5815  130.8468  151.3384 LP  0  0  0  0  0  0  0  0  0  0  0  0  # atno 17371 bound_to 10713
  140.4246  134.7157  157.4908 LP  0  0  0  0  0  0  0  0  0  0  0  0  # atno 17394 bound_to 11000
  140.0336  134.6370  155.9073 LP  0  0  0  0  0  0  0  0  0  0  0  0  # atno 17395 bound_to 11000

$$$$
