AV-unprocessed.smi:2669|AV-procd|sdf|10344|dock6
  -GOLD-   2272014363D 1   1.00000     0.00000
 Structure written by MMmdl.
 39 41  0  0  0  0  0  0  0  0  1 V2000
  145.8870  135.6770  154.2625 C   0  0  0  0  0  0  0  0  0  0  0  0
  147.3088  135.5697  153.9769 N   0  0  0  0  0  0  0  0  0  0  0  0
  148.1641  134.8920  154.8573 C   0  0  0  0  0  0  0  0  0  0  0  0
  147.9493  133.5853  155.1369 N   0  0  0  0  0  0  0  0  0  0  0  0
  148.7927  132.9787  155.9826 C   0  0  0  0  0  0  0  0  0  0  0  0
  149.8603  133.4838  156.6200 N   0  0  0  0  0  0  0  0  0  0  0  0
  150.0815  134.7775  156.3496 C   0  0  0  0  0  0  0  0  0  0  0  0
  151.1080  135.5510  156.8638 N   0  0  0  0  0  0  0  0  0  0  0  0
  150.8735  136.7279  156.2888 C   0  0  0  0  0  0  0  0  0  0  0  0
  149.8151  136.8154  155.4589 N   0  0  0  0  0  0  0  0  0  0  0  0
  149.3784  137.9949  154.7310 C   0  0  0  0  0  0  0  0  0  0  0  0
  150.3171  139.2003  154.9384 C   0  0  1  0  0  0  0  0  0  0  0  0
  150.3530  139.9662  153.7493 O   0  0  0  0  0  0  0  0  0  0  0  0
  149.8459  140.1027  156.0900 C   0  0  0  0  0  0  0  0  0  0  0  0
  150.7824  140.0139  157.1556 O   0  0  0  0  0  0  0  0  0  0  0  0
  151.1143  141.1675  157.8329 C   0  0  0  0  0  0  0  0  0  0  0  0
  151.8302  141.0169  159.0386 C   0  0  0  0  0  0  0  0  0  0  0  0
  152.2093  142.1405  159.7978 C   0  0  0  0  0  0  0  0  0  0  0  0
  151.8745  143.4336  159.3552 C   0  0  0  0  0  0  0  0  0  0  0  0
  152.3376  144.8124  160.2836 Cl  0  0  0  0  0  0  0  0  0  0  0  0
  151.1612  143.5991  158.1533 C   0  0  0  0  0  0  0  0  0  0  0  0
  150.7819  142.4746  157.3944 C   0  0  0  0  0  0  0  0  0  0  0  0
  149.2575  135.5387  155.4668 C   0  0  0  0  0  0  0  0  0  0  0  0
  145.3934  136.2569  153.4826 H   0  0  0  0  0  0  0  0  0  0  0  0
  145.7205  136.1777  155.2167 H   0  0  0  0  0  0  0  0  0  0  0  0
  145.4245  134.6902  154.2985 H   0  0  0  0  0  0  0  0  0  0  0  0
  147.6827  136.0258  153.1574 H   0  0  0  0  0  0  0  0  0  0  0  0
  148.5846  131.9374  156.1785 H   0  0  0  0  0  0  0  0  0  0  0  0
  151.5083  137.5797  156.4851 H   0  0  0  0  0  0  0  0  0  0  0  0
  149.3097  137.7456  153.6710 H   0  0  0  0  0  0  0  0  0  0  0  0
  148.3660  138.2389  155.0537 H   0  0  0  0  0  0  0  0  0  0  0  0
  151.3230  138.8357  155.1498 H   0  0  0  0  0  0  0  0  0  0  0  0
  150.2638  139.3825  153.0117 H   0  0  0  0  0  0  0  0  0  0  0  0
  149.7165  141.1313  155.7487 H   0  0  0  0  0  0  0  0  0  0  0  0
  148.8801  139.7479  156.4535 H   0  0  0  0  0  0  0  0  0  0  0  0
  152.0913  140.0280  159.3864 H   0  0  0  0  0  0  0  0  0  0  0  0
  152.7562  142.0078  160.7197 H   0  0  0  0  0  0  0  0  0  0  0  0
  150.9021  144.5901  157.8106 H   0  0  0  0  0  0  0  0  0  0  0  0
  150.2352  142.6427  156.4790 H   0  0  0  0  0  0  0  0  0  0  0  0
  1  2  1  0  0  0  0
  1 24  1  0  0  0  0
  1 25  1  0  0  0  0
  1 26  1  0  0  0  0
  2  3  1  0  0  0  0
  2 27  1  0  0  0  0
  3 23  1  0  0  0  0
  3  4  2  0  0  0  0
  4  5  1  0  0  0  0
  5  6  2  0  0  0  0
  5 28  1  0  0  0  0
  6  7  1  0  0  0  0
  7 23  2  0  0  0  0
  7  8  1  0  0  0  0
  8  9  2  0  0  0  0
  9 10  1  0  0  0  0
  9 29  1  0  0  0  0
 10 11  1  0  0  0  0
 10 23  1  0  0  0  0
 11 12  1  0  0  0  0
 11 30  1  0  0  0  0
 11 31  1  0  0  0  0
 12 13  1  0  0  0  0
 12 14  1  0  0  0  0
 12 32  1  0  0  0  0
 13 33  1  0  0  0  0
 14 15  1  0  0  0  0
 14 34  1  0  0  0  0
 14 35  1  0  0  0  0
 15 16  1  0  0  0  0
 16 22  1  0  0  0  0
 16 17  2  0  0  0  0
 17 18  1  0  0  0  0
 17 36  1  0  0  0  0
 18 19  2  0  0  0  0
 18 37  1  0  0  0  0
 19 20  1  0  0  0  0
 19 21  1  0  0  0  0
 21 22  2  0  0  0  0
 21 38  1  0  0  0  0
 22 39  1  0  0  0  0
M  END
> <s_m_source_file>
AV-unprocessed.smi

> <i_m_source_file_index>
2669

> <i_lp_mmshare_version>
43012

> <i_f3d_flags>
0

> <s_epik_input>
bjFbY0hdbmMoW05IXVtDSDNdKWMoYzEyKW4oW2NIXW4yKVtDSDJdW0NASF0oW09IXSlbQ0gyXU9jM1tjSF1bY0hdYyhDbClbY0hdW2NIXTM=

> <s_epik_cmdline>
J2VwaWtfcHl0aG9uJywgJy1waCcsICc3LjAnLCAnLXRuJywgJzgnLCAnLW1hJywgJzIwMCcsICctbWV0YWxfYmluZGluZycsICctaW1hZScsICc8aW5maWxlLm1hZT4nLCAnLW9tYWUnLCAnPG91dGZpbGUubWFlPic=

> <r_lp_tautomer_probability>
1

> <r_epik_Ionization_Penalty>
0.00733592

> <r_epik_Ionization_Penalty_Charging>
0

> <r_epik_Ionization_Penalty_Neutral>
0.00733592

> <r_epik_State_Penalty>
-0

> <r_epik_Charging_Adjusted_Penalty>
0

> <i_epik_Tot_Q>
0

> <i_epik_Tot_abs_Q>
0

> <r_epik_Metal_State_Penalty>
-0

> <b_epik_Metal_Only>
0

> <s_lp_Force_Field>
OPLS_2005

> <r_lp_Energy>
13.4458

> <b_lp_Chiralities_Consistent>
1

> <s_lp_Variant>
AV-unprocessed.smi:2669-2

> <Gold.Version>
5.8.1

> <Gold.Id.Protein>
6NUR|6NUR_protein|mol2

> <Gold.PLP.Fitness>
43.9355

> <Gold.PLP.PLP>
-37.8999

> <Gold.PLP.part.hbond>
-3.8732

> <Gold.PLP.part.metal>
0.0000

> <Gold.PLP.part.buried>
-5.0854

> <Gold.PLP.part.nonpolar>
-29.0248

> <Gold.PLP.part.repulsive>
0.0557

> <Gold.PLP.ligand.clash>
0.0000

> <Gold.PLP.ligand.torsion>
2.1502

> <Gold.PLP.Chemscore.Hbond>
3.4000

> <Gold.PLP.Chemscore.CHOScore>
0.0000

> <Gold.PLP.Chemscore.Metal>
0.0000

> <Gold.Chemscore.Hbonds>
donor molecule, donor type, donor heavy atom, donor atom, acceptor molecule, acceptor atom, score
      L1  H     2    27       P1  7948  1.00
      L1  H    13    33       P1  7957  0.41
      P1  H  7989  7998       L1    13  0.90

> <Gold.PLP.Chemscore.Internal.Correction>
0.1358

> <Gold.Rescore>
     Score         DG    S(hbond)    S(metal)    S(lipo)     H(rot)  DE(clash)    DE(int)     intcor
     13.15     -15.41       2.23        0.00      86.24       2.97       0.04       2.21       ----

> <Gold.Chemscore.Fitness>
13.1533

> <Gold.Chemscore.DG>
-15.4062

> <Gold.Chemscore.ZeroCoef>
-5.4800

> <Gold.Chemscore.Hbond>
2.2310

> <Gold.Chemscore.Metal>
0.0000

> <Gold.Chemscore.Lipo>
86.2356

> <Gold.Chemscore.Internal_Hbond>
0.0000

> <Gold.Chemscore.DEClash>
0.0410

> <Gold.Chemscore.DEInternal>
2.2119

> <Gold.Chemscore.Rot>
2.9746

> <Gold.Chemscore.Internal.Correction>
   9.000000E+99

> <Gold.Chemscore.Hbonds>
donor molecule, donor type, donor heavy atom, donor atom, acceptor molecule, acceptor atom, score
      L1  H     2    27       P1  7948  0.96
      L1  H    13    33       P1  7957  0.37
      P1  H  7989  7998       L1    13  0.50

> <Gold.Chemscore.Hbond.Weighted>
-7.4517

> <Gold.Chemscore.Metal.Weighted>
-0.0000

> <Gold.Chemscore.Lipo.Weighted>
-10.0896

> <Gold.Chemscore.Internal_Hbond.Weighted>
0.0000

> <Gold.Chemscore.DEClash.Weighted>
0.0410

> <Gold.Chemscore.DEInternal.Weighted>
2.2119

> <Gold.Chemscore.Rot.Weighted>
7.6150

> <Gold.Chemscore.Internal.Correction.Weighted>
   9.000000E+99

> <Gold.Protein.RotatedTorsions>
[ 6907 6896 6895 6894 ] final  -78.19 input  -60.11 | X-H torsion
[ 7974 7965 7964 7962 ] final   -3.82 input  175.53 | X-H torsion
[ 8008 7997 7996 7995 ] final   28.62 input   59.86 | X-H torsion
[ 10167 10162 10161 10158 ] final -125.74 input  -65.29 | X-H torsion
[ 10718 10713 10712 10709 ] final   36.14 input   66.30 | X-H torsion
[ 10763 10752 10751 10750 ] final  107.67 input  -60.55 | X-H torsion
[ 11005 11000 10999 10996 ] final  170.27 input  -57.11 | X-H torsion

> <Gold.Protein.ActiveResidues>
 VAL166  LYS551  ARG553  GLY616  TRP617  ASP618  TYR619  PRO620  LYS621  CYS622 
 ASP623  PHE694  ASN695  SER759  ASP760  ASP761  ALA762  ILE779  LEU786  VAL792 
 PHE793  MET794  SER795  GLU796  ALA797  LYS798  CYS799  TRP800  GLU811  SER814 

> <Gold.Protein.RotatedAtoms>
  150.6979  134.4309  159.5247 H   0  0  0  0  0  0  0  0  0  0  0  0  # atno 6907 bound_to 6896
  152.2035  134.8563  160.0514 H   0  0  0  0  0  0  0  0  0  0  0  0  # atno 6908 bound_to 6896
  151.9474  133.3621  159.4024 H   0  0  0  0  0  0  0  0  0  0  0  0  # atno 6909 bound_to 6896
  146.2383  140.1779  142.8332 H   0  0  0  0  0  0  0  0  0  0  0  0  # atno 7974 bound_to 7965
  155.0615  140.3190  155.4659 H   0  0  0  0  0  0  0  0  0  0  0  0  # atno 8008 bound_to 7997
  156.2812  140.2128  156.5686 H   0  0  0  0  0  0  0  0  0  0  0  0  # atno 8009 bound_to 7997
  154.7128  140.0496  157.0554 H   0  0  0  0  0  0  0  0  0  0  0  0  # atno 8010 bound_to 7997
  139.9789  143.5764  152.2385 H   0  0  0  0  0  0  0  0  0  0  0  0  # atno 10167 bound_to 10162
  157.3312  130.7499  149.6849 H   0  0  0  0  0  0  0  0  0  0  0  0  # atno 10718 bound_to 10713
  153.4099  135.3837  155.2043 H   0  0  0  0  0  0  0  0  0  0  0  0  # atno 10763 bound_to 10752
  154.8737  135.3791  154.4514 H   0  0  0  0  0  0  0  0  0  0  0  0  # atno 10764 bound_to 10752
  153.5021  135.7088  153.5888 H   0  0  0  0  0  0  0  0  0  0  0  0  # atno 10765 bound_to 10752
  140.3066  134.7551  157.3958 H   0  0  0  0  0  0  0  0  0  0  0  0  # atno 11005 bound_to 11000
  144.9958  140.8588  143.5311 LP  0  0  0  0  0  0  0  0  0  0  0  0  # atno 17320 bound_to 7965
  145.1791  139.2361  143.5302 LP  0  0  0  0  0  0  0  0  0  0  0  0  # atno 17321 bound_to 7965
  139.6425  144.7656  151.2311 LP  0  0  0  0  0  0  0  0  0  0  0  0  # atno 17342 bound_to 10162
  140.7496  143.6294  150.8437 LP  0  0  0  0  0  0  0  0  0  0  0  0  # atno 17343 bound_to 10162
  155.9696  130.4194  150.4376 LP  0  0  0  0  0  0  0  0  0  0  0  0  # atno 17370 bound_to 10713
  157.2408  131.0525  151.2437 LP  0  0  0  0  0  0  0  0  0  0  0  0  # atno 17371 bound_to 10713
  140.1062  134.5407  155.8307 LP  0  0  0  0  0  0  0  0  0  0  0  0  # atno 17394 bound_to 11000
  141.2117  133.6710  156.6603 LP  0  0  0  0  0  0  0  0  0  0  0  0  # atno 17395 bound_to 11000

$$$$
