AV-unprocessed.smi:2214|AV-procd|sdf|8958|dock9
  -GOLD-   2272012173D 1   1.00000     0.00000
 Structure written by MMmdl.
 41 42  0  0  0  0  0  0  0  0  1 V2000
  150.4386  145.1033  160.1480 C   0  0  0  0  0  0  0  0  0  0  0  0
  151.3124  143.8979  160.4279 C   0  0  0  0  0  0  0  0  0  0  0  0
  151.8361  143.6837  161.7179 C   0  0  0  0  0  0  0  0  0  0  0  0
  152.6474  142.5622  161.9686 C   0  0  0  0  0  0  0  0  0  0  0  0
  152.9377  141.6526  160.9334 C   0  0  0  0  0  0  0  0  0  0  0  0
  153.9379  140.2842  161.2676 Cl  0  0  0  0  0  0  0  0  0  0  0  0
  152.4211  141.8540  159.6342 C   0  0  0  0  0  0  0  0  0  0  0  0
  152.7482  140.9216  158.6727 O   0  0  0  0  0  0  0  0  0  0  0  0
  152.1229  141.0087  157.3984 C   0  0  0  0  0  0  0  0  0  0  0  0
  152.0659  139.6148  156.7505 C   0  0  2  0  0  0  0  0  0  0  0  0
  153.2448  138.9228  157.1104 O   0  0  0  0  0  0  0  0  0  0  0  0
  151.9195  139.6696  155.2131 C   0  0  0  0  0  0  0  0  0  0  0  0
  150.5950  139.2115  154.7622 N   0  0  0  0  0  0  0  0  0  0  0  0
  150.2928  137.8596  154.9922 C   0  0  0  0  0  0  0  0  0  0  0  0
  149.1595  137.3476  154.6385 N   0  0  0  0  0  0  0  0  0  0  0  0
  148.2002  138.1454  154.0084 C   0  0  0  0  0  0  0  0  0  0  0  0
  146.9078  137.4431  153.6309 C   0  0  0  0  0  0  0  0  0  0  0  0
  148.4296  139.4637  153.7597 C   0  0  0  0  0  0  0  0  0  0  0  0
  147.4236  140.3808  153.0758 C   0  0  0  0  0  0  0  0  0  0  0  0
  149.7115  140.0629  154.1653 C   0  0  0  0  0  0  0  0  0  0  0  0
  149.9798  141.2525  153.9868 O   0  0  0  0  0  0  0  0  0  0  0  0
  151.6049  142.9881  159.3914 C   0  0  0  0  0  0  0  0  0  0  0  0
  150.1276  145.5917  161.0720 H   0  0  0  0  0  0  0  0  0  0  0  0
  149.5415  144.8052  159.6043 H   0  0  0  0  0  0  0  0  0  0  0  0
  150.9817  145.8294  159.5427 H   0  0  0  0  0  0  0  0  0  0  0  0
  151.6192  144.3761  162.5181 H   0  0  0  0  0  0  0  0  0  0  0  0
  153.0479  142.4000  162.9584 H   0  0  0  0  0  0  0  0  0  0  0  0
  151.1213  141.4354  157.4773 H   0  0  0  0  0  0  0  0  0  0  0  0
  152.7137  141.6661  156.7584 H   0  0  0  0  0  0  0  0  0  0  0  0
  151.2268  139.0773  157.1939 H   0  0  0  0  0  0  0  0  0  0  0  0
  153.0052  138.0700  157.4392 H   0  0  0  0  0  0  0  0  0  0  0  0
  152.0597  140.6982  154.8751 H   0  0  0  0  0  0  0  0  0  0  0  0
  152.7310  139.1187  154.7322 H   0  0  0  0  0  0  0  0  0  0  0  0
  151.0735  137.2811  155.4891 H   0  0  0  0  0  0  0  0  0  0  0  0
  146.7557  137.4765  152.5519 H   0  0  0  0  0  0  0  0  0  0  0  0
  146.0574  137.9201  154.1187 H   0  0  0  0  0  0  0  0  0  0  0  0
  146.9217  136.3955  153.9343 H   0  0  0  0  0  0  0  0  0  0  0  0
  147.1357  141.1907  153.7468 H   0  0  0  0  0  0  0  0  0  0  0  0
  146.5137  139.8680  152.7695 H   0  0  0  0  0  0  0  0  0  0  0  0
  147.8650  140.8228  152.1821 H   0  0  0  0  0  0  0  0  0  0  0  0
  151.1897  143.1816  158.4141 H   0  0  0  0  0  0  0  0  0  0  0  0
  1  2  1  0  0  0  0
  1 23  1  0  0  0  0
  1 24  1  0  0  0  0
  1 25  1  0  0  0  0
  2 22  1  0  0  0  0
  2  3  2  0  0  0  0
  3  4  1  0  0  0  0
  3 26  1  0  0  0  0
  4  5  2  0  0  0  0
  4 27  1  0  0  0  0
  5  6  1  0  0  0  0
  5  7  1  0  0  0  0
  7  8  1  0  0  0  0
  7 22  2  0  0  0  0
  8  9  1  0  0  0  0
  9 10  1  0  0  0  0
  9 28  1  0  0  0  0
  9 29  1  0  0  0  0
 10 11  1  0  0  0  0
 10 12  1  0  0  0  0
 10 30  1  0  0  0  0
 11 31  1  0  0  0  0
 12 13  1  0  0  0  0
 12 32  1  0  0  0  0
 12 33  1  0  0  0  0
 13 20  1  0  0  0  0
 13 14  1  0  0  0  0
 14 15  2  0  0  0  0
 14 34  1  0  0  0  0
 15 16  1  0  0  0  0
 16 17  1  0  0  0  0
 16 18  2  0  0  0  0
 17 35  1  0  0  0  0
 17 36  1  0  0  0  0
 17 37  1  0  0  0  0
 18 19  1  0  0  0  0
 18 20  1  0  0  0  0
 19 38  1  0  0  0  0
 19 39  1  0  0  0  0
 19 40  1  0  0  0  0
 20 21  2  0  0  0  0
 22 41  1  0  0  0  0
M  END
> <s_m_source_file>
AV-unprocessed.smi

> <i_m_source_file_index>
2214

> <i_lp_mmshare_version>
43012

> <i_f3d_flags>
0

> <s_epik_input>
W0NIM11jMVtjSF1bY0hdYyhDbCljKFtjSF0xKU9bQ0gyXVtDQEhdKFtPSF0pW0NIMl1uMltjSF1uYyhbQ0gzXSljKFtDSDNdKWMyPU8=

> <s_epik_cmdline>
J2VwaWtfcHl0aG9uJywgJy1waCcsICc3LjAnLCAnLXRuJywgJzgnLCAnLW1hJywgJzIwMCcsICctbWV0YWxfYmluZGluZycsICctaW1hZScsICc8aW5maWxlLm1hZT4nLCAnLW9tYWUnLCAnPG91dGZpbGUubWFlPic=

> <r_lp_tautomer_probability>
1

> <r_epik_Ionization_Penalty>
3.50205e-05

> <r_epik_Ionization_Penalty_Charging>
7.87908e-08

> <r_epik_Ionization_Penalty_Neutral>
3.49418e-05

> <r_epik_State_Penalty>
-0

> <r_epik_Charging_Adjusted_Penalty>
7.87908e-08

> <i_epik_Tot_Q>
0

> <i_epik_Tot_abs_Q>
0

> <r_epik_Metal_State_Penalty>
-0

> <b_epik_Metal_Only>
0

> <s_lp_Force_Field>
OPLS_2005

> <r_lp_Energy>
24.1684

> <b_lp_Chiralities_Consistent>
1

> <s_lp_Variant>
AV-unprocessed.smi:2214-1

> <Gold.Version>
5.8.1

> <Gold.Id.Protein>
6NUR|6NUR_protein|mol2

> <Gold.PLP.Fitness>
49.4680

> <Gold.PLP.PLP>
-46.0406

> <Gold.PLP.part.hbond>
-3.0160

> <Gold.PLP.part.metal>
0.0000

> <Gold.PLP.part.buried>
-3.3922

> <Gold.PLP.part.nonpolar>
-39.3978

> <Gold.PLP.part.repulsive>
0.3175

> <Gold.PLP.ligand.clash>
0.0000

> <Gold.PLP.ligand.torsion>
1.1942

> <Gold.PLP.Chemscore.Hbond>
1.9342

> <Gold.PLP.Chemscore.CHOScore>
0.0000

> <Gold.PLP.Chemscore.Metal>
0.0000

> <Gold.Chemscore.Hbonds>
donor molecule, donor type, donor heavy atom, donor atom, acceptor molecule, acceptor atom, score
      P1  H  7989  7998       L1    21  0.21
      P1  H  7997  8010       L1    11  1.00
      P1  H  8011  8017       L1    21  0.72

> <Gold.PLP.Chemscore.Internal.Correction>
0.0132

> <Gold.Rescore>
     Score         DG    S(hbond)    S(metal)    S(lipo)     H(rot)  DE(clash)    DE(int)     intcor
     16.01     -18.61       1.37        0.00     124.43       2.35       1.48       1.12       ----

> <Gold.Chemscore.Fitness>
16.0118

> <Gold.Chemscore.DG>
-18.6056

> <Gold.Chemscore.ZeroCoef>
-5.4800

> <Gold.Chemscore.Hbond>
1.3716

> <Gold.Chemscore.Metal>
0.0000

> <Gold.Chemscore.Lipo>
124.4271

> <Gold.Chemscore.Internal_Hbond>
0.0000

> <Gold.Chemscore.DEClash>
1.4772

> <Gold.Chemscore.DEInternal>
1.1166

> <Gold.Chemscore.Rot>
2.3490

> <Gold.Chemscore.Internal.Correction>
   9.000000E+99

> <Gold.Chemscore.Hbonds>
donor molecule, donor type, donor heavy atom, donor atom, acceptor molecule, acceptor atom, score
      P1  H  7989  7998       L1    21  0.02
      P1  H  7997  8010       L1    11  0.50
      P1  H  8011  8017       L1    21  0.67

> <Gold.Chemscore.Hbond.Weighted>
-4.5812

> <Gold.Chemscore.Metal.Weighted>
-0.0000

> <Gold.Chemscore.Lipo.Weighted>
-14.5580

> <Gold.Chemscore.Internal_Hbond.Weighted>
0.0000

> <Gold.Chemscore.DEClash.Weighted>
1.4772

> <Gold.Chemscore.DEInternal.Weighted>
1.1166

> <Gold.Chemscore.Rot.Weighted>
6.0136

> <Gold.Chemscore.Internal.Correction.Weighted>
   9.000000E+99

> <Gold.Protein.RotatedTorsions>
[ 6907 6896 6895 6894 ] final -171.98 input  -60.11 | X-H torsion
[ 7974 7965 7964 7962 ] final   82.67 input  175.53 | X-H torsion
[ 8008 7997 7996 7995 ] final   45.10 input   59.86 | X-H torsion
[ 10167 10162 10161 10158 ] final   82.54 input  -65.29 | X-H torsion
[ 10718 10713 10712 10709 ] final   -3.59 input   66.30 | X-H torsion
[ 10763 10752 10751 10750 ] final  141.51 input  -60.55 | X-H torsion
[ 11005 11000 10999 10996 ] final  -56.26 input  -57.11 | X-H torsion

> <Gold.Protein.ActiveResidues>
 VAL166  LYS551  ARG553  GLY616  TRP617  ASP618  TYR619  PRO620  LYS621  CYS622 
 ASP623  PHE694  ASN695  SER759  ASP760  ASP761  ALA762  ILE779  LEU786  VAL792 
 PHE793  MET794  SER795  GLU796  ALA797  LYS798  CYS799  TRP800  GLU811  SER814 

> <Gold.Protein.RotatedAtoms>
  151.5326  133.3446  159.2920 H   0  0  0  0  0  0  0  0  0  0  0  0  # atno 6907 bound_to 6896
  150.8584  134.7932  159.7075 H   0  0  0  0  0  0  0  0  0  0  0  0  # atno 6908 bound_to 6896
  152.4611  134.5191  159.9828 H   0  0  0  0  0  0  0  0  0  0  0  0  # atno 6909 bound_to 6896
  145.6220  139.2387  143.2133 H   0  0  0  0  0  0  0  0  0  0  0  0  # atno 7974 bound_to 7965
  155.3303  140.3402  155.4239 H   0  0  0  0  0  0  0  0  0  0  0  0  # atno 8008 bound_to 7997
  156.1865  140.1682  156.8212 H   0  0  0  0  0  0  0  0  0  0  0  0  # atno 8009 bound_to 7997
  154.5392  140.0728  156.8464 H   0  0  0  0  0  0  0  0  0  0  0  0  # atno 8010 bound_to 7997
  139.9277  144.6172  150.8376 H   0  0  0  0  0  0  0  0  0  0  0  0  # atno 10167 bound_to 10162
  156.7738  130.5308  149.5763 H   0  0  0  0  0  0  0  0  0  0  0  0  # atno 10718 bound_to 10713
  153.9404  135.2980  155.3443 H   0  0  0  0  0  0  0  0  0  0  0  0  # atno 10763 bound_to 10752
  154.7480  135.4994  153.9241 H   0  0  0  0  0  0  0  0  0  0  0  0  # atno 10764 bound_to 10752
  153.1045  135.6743  153.9717 H   0  0  0  0  0  0  0  0  0  0  0  0  # atno 10765 bound_to 10752
  141.1112  133.6610  156.4593 H   0  0  0  0  0  0  0  0  0  0  0  0  # atno 11005 bound_to 11000
  146.1424  140.7040  142.9361 LP  0  0  0  0  0  0  0  0  0  0  0  0  # atno 17320 bound_to 7965
  144.7227  140.4426  143.6996 LP  0  0  0  0  0  0  0  0  0  0  0  0  # atno 17321 bound_to 7965
  140.7646  143.3252  151.2532 LP  0  0  0  0  0  0  0  0  0  0  0  0  # atno 17342 bound_to 10162
  139.6808  143.9857  152.2807 LP  0  0  0  0  0  0  0  0  0  0  0  0  # atno 17343 bound_to 10162
  156.1261  130.6145  151.0266 LP  0  0  0  0  0  0  0  0  0  0  0  0  # atno 17370 bound_to 10713
  157.6679  131.0868  150.7685 LP  0  0  0  0  0  0  0  0  0  0  0  0  # atno 17371 bound_to 10713
  140.4770  134.6700  157.5154 LP  0  0  0  0  0  0  0  0  0  0  0  0  # atno 17394 bound_to 11000
  140.0007  134.6841  155.9535 LP  0  0  0  0  0  0  0  0  0  0  0  0  # atno 17395 bound_to 11000

$$$$
