#       Name:                AV-unprocessed.smi:3310
#       Creating user name   scv26
#       Creation time:       Fri Mar 27 19:05:41 2020


#       File generated by GOLD software.
#

@<TRIPOS>MOLECULE
AV-unprocessed.smi:3310
    47    48     1
SMALL
NO_CHARGES


@<TRIPOS>ATOM
      1 ****        -4.8482   2.8720   2.1957 C.3            1 S1                 0.0000
      2 ****        -3.4653   3.4673   1.9101 C.3            1 S1                 0.0000
      3 ****        -3.3149   3.9179   0.4901 C.2            1 S1                 0.0000
      4 ****        -3.6793   5.1326   0.0624 N.2            1 S1                 0.0000
      5 ****        -3.4028   5.1506  -1.2898 N.2            1 S1                 0.0000
      6 ****        -2.9071   3.9416  -1.5464 C.2            1 S1                 0.0000
      7 ****        -2.8270   3.1231  -0.4860 N.pl3          1 S1                 0.0000
      8 ****        -2.3389   1.7571  -0.4411 C.3            1 S1                 0.0000
      9 ****        -0.8383   1.7063  -0.1234 C.3            1 S1                 0.0000
     10 ****        -0.3457   0.3156  -0.1118 N.4            1 S1                 1.0000
     11 ****         1.0964   0.1920   0.1812 C.3            1 S1                 0.0000
     12 ****         1.5650  -1.2739   0.1264 C.3            1 S1                 0.0000
     13 ****         3.0002  -1.4129   0.6720 C.3            1 S1                 0.0000
     14 ****         3.4923  -2.8685   0.6209 C.3            1 S1                 0.0000
     15 ****         3.4142  -3.4428  -0.8056 C.3            1 S1                 0.0000
     16 ****         3.9020  -4.8978  -0.8551 C.3            1 S1                 0.0000
     17 ****         1.9822  -3.3081  -1.3549 C.3            1 S1                 0.0000
     18 ****         1.4908  -1.8523  -1.3031 C.3            1 S1                 0.0000
     19 ****        -4.9320   2.5662   3.2386 H              1 S1                 0.0000
     20 ****        -5.0365   1.9957   1.5751 H              1 S1                 0.0000
     21 ****        -5.6371   3.5983   1.9978 H              1 S1                 0.0000
     22 ****        -3.2960   4.3236   2.5641 H              1 S1                 0.0000
     23 ****        -2.6872   2.7436   2.1521 H              1 S1                 0.0000
     24 ****        -2.5945   3.6445  -2.5368 H              1 S1                 0.0000
     25 ****        -2.9124   1.1986   0.2994 H              1 S1                 0.0000
     26 ****        -2.5373   1.2907  -1.4071 H              1 S1                 0.0000
     27 ****        -0.2808   2.2763  -0.8681 H              1 S1                 0.0000
     28 ****        -0.6420   2.1650   0.8465 H              1 S1                 0.0000
     29 ****        -0.8610  -0.2052   0.5836 H              1 S1                 0.0000
     30 ****         1.6686   0.7968  -0.5238 H              1 S1                 0.0000
     31 ****         1.2795   0.6036   1.1749 H              1 S1                 0.0000
     32 ****         0.9092  -1.8635   0.7695 H              1 S1                 0.0000
     33 ****         3.6782  -0.7814   0.0956 H              1 S1                 0.0000
     34 ****         3.0456  -1.0528   1.7005 H              1 S1                 0.0000
     35 ****         4.5184  -2.9191   0.9867 H              1 S1                 0.0000
     36 ****         2.8935  -3.4788   1.2986 H              1 S1                 0.0000
     37 ****         4.0759  -2.8538  -1.4424 H              1 S1                 0.0000
     38 ****         3.2861  -5.5449  -0.2299 H              1 S1                 0.0000
     39 ****         4.9315  -4.9788  -0.5052 H              1 S1                 0.0000
     40 ****         3.8693  -5.2885  -1.8725 H              1 S1                 0.0000
     41 ****         1.9424  -3.6694  -2.3831 H              1 S1                 0.0000
     42 ****         1.3046  -3.9410  -0.7801 H              1 S1                 0.0000
     43 ****         0.4681  -1.8082  -1.6780 H              1 S1                 0.0000
     44 ****         2.0921  -1.2436  -1.9798 H              1 S1                 0.0000
     45 ****        -0.5222  -0.0935  -1.0182 H              1 S1                 0.0000
     46 ****        -4.0705   5.8731   0.6088 LP             1 S1                 0.0000
     47 ****        -3.5433   5.9033  -1.9330 LP             1 S1                 0.0000
@<TRIPOS>BOND
    1    1    2 1     
    2    1   19 1     
    3    1   20 1     
    4    1   21 1     
    5    2    3 1     
    6    2   22 1     
    7    2   23 1     
    8    3    7 1     
    9    3    4 2     
   10    4    5 1     
   11    5    6 2     
   12    6    7 1     
   13    6   24 1     
   14    7    8 1     
   15    8    9 1     
   16    8   25 1     
   17    8   26 1     
   18    9   10 1     
   19    9   27 1     
   20    9   28 1     
   21   10   11 1     
   22   10   29 1     
   23   10   45 1     
   24   11   12 1     
   25   11   30 1     
   26   11   31 1     
   27   12   18 1     
   28   12   13 1     
   29   12   32 1     
   30   13   14 1     
   31   13   33 1     
   32   13   34 1     
   33   14   15 1     
   34   14   35 1     
   35   14   36 1     
   36   15   16 1     
   37   15   17 1     
   38   15   37 1     
   39   16   38 1     
   40   16   39 1     
   41   16   40 1     
   42   17   18 1     
   43   17   41 1     
   44   17   42 1     
   45   18   43 1     
   46   18   44 1     
   47    4   46 1     
   48    5   47 1     
@<TRIPOS>SUBSTRUCTURE
      1 S1             1
@<TRIPOS>SET
LONE_PAIRS      STATIC     ATOMS    <user>   **** ""
2 46 47
DONOR_HYDROGENS      STATIC     ATOMS    <user>   **** ""
2 29 45
ATOM$BLUE        STATIC     ATOMS    COLORGROUP SYSTEM
2 46 47
ATOM$RED        STATIC     ATOMS    COLORGROUP SYSTEM
2 29 45
