AV-unprocessed.smi:55|AV-procd|sdf|570|dock9
  -GOLD-   2262016473D 1   1.00000     0.00000
 Structure written by MMmdl.
 30 31  0  0  0  0  0  0  0  0  2 V2000
  152.8272  142.5565  161.0511 C   0  0  0  0  0  0  0  0  0  0  0  0
  152.5396  141.7030  159.8284 C   0  0  0  0  0  0  0  0  0  0  0  0
  151.4687  141.9195  159.0332 C   0  0  0  0  0  0  0  0  0  0  0  0
  151.2085  141.1380  157.9216 N   0  0  0  0  0  0  0  0  0  0  0  0
  149.9941  141.4113  157.0632 C   0  0  1  0  0  0  0  0  0  0  0  0
  150.4088  141.7781  155.6365 C   0  0  0  0  0  0  0  0  0  0  0  0
  149.3426  141.0768  154.8208 C   0  0  1  0  0  0  0  0  0  0  0  0
  149.8114  140.7922  153.5186 O   0  0  0  0  0  0  0  0  0  0  0  0
  149.0963  139.8104  155.6465 C   0  0  2  0  0  0  0  0  0  0  0  0
  147.7161  139.1663  155.4439 C   0  0  0  0  0  0  0  0  0  0  0  0
  147.5595  138.7325  154.1093 O   0  0  0  0  0  0  0  0  0  0  0  0
  149.2128  140.2530  156.9967 O   0  0  0  0  0  0  0  0  0  0  0  0
  152.0715  140.0552  157.6076 C   0  0  0  0  0  0  0  0  0  0  0  0
  151.7962  139.3520  156.6353 O   0  0  0  0  0  0  0  0  0  0  0  0
  153.1599  139.8348  158.3990 N   0  5  0  0  0  0  0  0  0  0  0  0
  153.4470  140.5997  159.4913 C   0  0  0  0  0  0  0  0  0  0  0  0
  154.4348  140.3907  160.1948 O   0  0  0  0  0  0  0  0  0  0  0  0
  149.3990  142.1802  157.5565 H   0  0  0  0  0  0  0  0  0  0  0  0
  148.4423  141.6910  154.7745 H   0  0  0  0  0  0  0  0  0  0  0  0
  149.8884  139.0811  155.4675 H   0  0  0  0  0  0  0  0  0  0  0  0
  152.0748  143.3356  161.1763 H   0  0  0  0  0  0  0  0  0  0  0  0
  153.8007  143.0388  160.9587 H   0  0  0  0  0  0  0  0  0  0  0  0
  152.8311  141.9424  161.9523 H   0  0  0  0  0  0  0  0  0  0  0  0
  150.7941  142.7252  159.2794 H   0  0  0  0  0  0  0  0  0  0  0  0
  150.4367  142.8591  155.4969 H   0  0  0  0  0  0  0  0  0  0  0  0
  151.3962  141.3653  155.4217 H   0  0  0  0  0  0  0  0  0  0  0  0
  149.1616  140.2661  153.0773 H   0  0  0  0  0  0  0  0  0  0  0  0
  147.6103  138.3005  156.0978 H   0  0  0  0  0  0  0  0  0  0  0  0
  146.9175  139.8628  155.7004 H   0  0  0  0  0  0  0  0  0  0  0  0
  148.0515  139.3107  153.5463 H   0  0  0  0  0  0  0  0  0  0  0  0
  1  2  1  0  0  0  0
  1 21  1  0  0  0  0
  1 22  1  0  0  0  0
  1 23  1  0  0  0  0
  2 16  1  0  0  0  0
  2  3  2  0  0  0  0
  3  4  1  0  0  0  0
  3 24  1  0  0  0  0
  4  5  1  0  0  0  0
  4 13  1  0  0  0  0
  5 18  1  0  0  0  0
  5 12  1  0  0  0  0
  5  6  1  0  0  0  0
  6  7  1  0  0  0  0
  6 25  1  0  0  0  0
  6 26  1  0  0  0  0
  7 19  1  0  0  0  0
  7  8  1  0  0  0  0
  7  9  1  0  0  0  0
  8 27  1  0  0  0  0
  9 20  1  0  0  0  0
  9 10  1  0  0  0  0
  9 12  1  0  0  0  0
 10 11  1  0  0  0  0
 10 28  1  0  0  0  0
 10 29  1  0  0  0  0
 11 30  1  0  0  0  0
 13 14  2  0  0  0  0
 13 15  1  0  0  0  0
 15 16  1  0  0  0  0
 16 17  2  0  0  0  0
M  CHG  1  15  -1
M  END
> <s_m_source_file>
AV-unprocessed.smi

> <i_m_source_file_index>
55

> <i_lp_mmshare_version>
43012

> <i_f3d_flags>
0

> <s_epik_input>
Tz1jMVtuSF1jKD1PKW4oW2NIXWMxW0NIM10pW0NAQEhdMltDSDJdW0NAQEhdKFtPSF0pW0NAQEhdKE8yKVtDSDJdW09IXQ==

> <s_epik_cmdline>
J2VwaWtfcHl0aG9uJywgJy1waCcsICc3LjAnLCAnLXRuJywgJzgnLCAnLW1hJywgJzIwMCcsICctbWV0YWxfYmluZGluZycsICctaW1hZScsICc8aW5maWxlLm1hZT4nLCAnLW9tYWUnLCAnPG91dGZpbGUubWFlPic=

> <r_lp_tautomer_probability>
0.999537

> <r_epik_Ionization_Penalty>
3.66603

> <r_epik_Ionization_Penalty_Charging>
1.09773e-07

> <r_epik_Ionization_Penalty_Neutral>
3.66603

> <r_epik_State_Penalty>
3.66562

> <r_epik_Charging_Adjusted_Penalty>
3.66562

> <i_epik_Tot_Q>
-1

> <i_epik_Tot_abs_Q>
1

> <r_epik_Metal_State_Penalty>
0.234536

> <b_epik_Metal_Only>
1

> <s_epik_Chemistry_Notes>
This compound contains an acetal/aminal-like group ( X-CH(R)-Y where X, Y are N, S, or O) that may be acid/base labile, releasing an aldehyde.

> <s_lp_Force_Field>
OPLS_2005

> <r_lp_Energy>
34.2111

> <b_lp_Chiralities_Consistent>
1

> <s_lp_Variant>
AV-unprocessed.smi:55-10

> <Gold.Version>
5.8.1

> <Gold.Id.Protein>
6NUR|6NUR_protein|mol2

> <Gold.PLP.Fitness>
38.0800

> <Gold.PLP.PLP>
-27.3913

> <Gold.PLP.part.hbond>
-3.4909

> <Gold.PLP.part.metal>
0.0000

> <Gold.PLP.part.buried>
-2.9054

> <Gold.PLP.part.nonpolar>
-19.1330

> <Gold.PLP.part.repulsive>
0.0131

> <Gold.PLP.ligand.clash>
0.0000

> <Gold.PLP.ligand.torsion>
0.0239

> <Gold.PLP.Chemscore.Hbond>
3.5760

> <Gold.PLP.Chemscore.CHOScore>
0.0000

> <Gold.PLP.Chemscore.Metal>
0.0000

> <Gold.Chemscore.Hbonds>
donor molecule, donor type, donor heavy atom, donor atom, acceptor molecule, acceptor atom, score
      L1  H     8    27       P1  7957  0.22
      P1  H  7989  7998       L1     8  0.37
      P1  H  7997  8010       L1    15  1.90
      P1  H  8011  8017       L1     8  1.00

> <Gold.PLP.Chemscore.Internal.Correction>
0.0085

> <Gold.Rescore>
     Score         DG    S(hbond)    S(metal)    S(lipo)     H(rot)  DE(clash)    DE(int)     intcor
      6.20     -10.02       1.77        0.00      47.17       2.69       0.04       3.79       ----

> <Gold.Chemscore.Fitness>
6.1961

> <Gold.Chemscore.DG>
-10.0189

> <Gold.Chemscore.ZeroCoef>
-5.4800

> <Gold.Chemscore.Hbond>
1.7660

> <Gold.Chemscore.Metal>
0.0000

> <Gold.Chemscore.Lipo>
47.1743

> <Gold.Chemscore.Internal_Hbond>
0.0000

> <Gold.Chemscore.DEClash>
0.0371

> <Gold.Chemscore.DEInternal>
3.7857

> <Gold.Chemscore.Rot>
2.6871

> <Gold.Chemscore.Internal.Correction>
   9.000000E+99

> <Gold.Chemscore.Hbonds>
donor molecule, donor type, donor heavy atom, donor atom, acceptor molecule, acceptor atom, score
      L1  H     8    27       P1  7957  0.22
      P1  H  7989  7998       L1     8  0.28
      P1  H  7997  8010       L1    15  0.15
      P1  H  8011  8017       L1     8  0.20

> <Gold.Chemscore.Hbond.Weighted>
-5.8985

> <Gold.Chemscore.Metal.Weighted>
-0.0000

> <Gold.Chemscore.Lipo.Weighted>
-5.5194

> <Gold.Chemscore.Internal_Hbond.Weighted>
0.0000

> <Gold.Chemscore.DEClash.Weighted>
0.0371

> <Gold.Chemscore.DEInternal.Weighted>
3.7857

> <Gold.Chemscore.Rot.Weighted>
6.8791

> <Gold.Chemscore.Internal.Correction.Weighted>
   9.000000E+99

> <Gold.Protein.RotatedTorsions>
[ 6907 6896 6895 6894 ] final  116.63 input  -60.11 | X-H torsion
[ 7974 7965 7964 7962 ] final -163.55 input  175.53 | X-H torsion
[ 8008 7997 7996 7995 ] final   35.42 input   59.86 | X-H torsion
[ 10167 10162 10161 10158 ] final  -49.33 input  -65.29 | X-H torsion
[ 10718 10713 10712 10709 ] final  -59.32 input   66.30 | X-H torsion
[ 10763 10752 10751 10750 ] final  -82.06 input  -60.55 | X-H torsion
[ 11005 11000 10999 10996 ] final    9.42 input  -57.11 | X-H torsion

> <Gold.Protein.ActiveResidues>
 VAL166  LYS551  ARG553  GLY616  TRP617  ASP618  TYR619  PRO620  LYS621  CYS622 
 ASP623  PHE694  ASN695  SER759  ASP760  ASP761  ALA762  ILE779  LEU786  VAL792 
 PHE793  MET794  SER795  GLU796  ALA797  LYS798  CYS799  TRP800  GLU811  SER814 

> <Gold.Protein.RotatedAtoms>
  152.4665  133.7935  159.6914 H   0  0  0  0  0  0  0  0  0  0  0  0  # atno 6907 bound_to 6896
  150.8633  133.7602  159.2991 H   0  0  0  0  0  0  0  0  0  0  0  0  # atno 6908 bound_to 6896
  151.5161  135.1069  159.9918 H   0  0  0  0  0  0  0  0  0  0  0  0  # atno 6909 bound_to 6896
  144.7323  140.3091  143.6191 H   0  0  0  0  0  0  0  0  0  0  0  0  # atno 7974 bound_to 7965
  155.1708  140.3291  155.4393 H   0  0  0  0  0  0  0  0  0  0  0  0  # atno 8008 bound_to 7997
  156.2510  140.1944  156.6762 H   0  0  0  0  0  0  0  0  0  0  0  0  # atno 8009 bound_to 7997
  154.6339  140.0579  156.9751 H   0  0  0  0  0  0  0  0  0  0  0  0  # atno 8010 bound_to 7997
  140.6690  143.2702  151.4200 H   0  0  0  0  0  0  0  0  0  0  0  0  # atno 10167 bound_to 10162
  156.1070  130.4179  150.0698 H   0  0  0  0  0  0  0  0  0  0  0  0  # atno 10718 bound_to 10713
  154.5711  135.5604  153.7096 H   0  0  0  0  0  0  0  0  0  0  0  0  # atno 10763 bound_to 10752
  153.0049  135.6297  154.2112 H   0  0  0  0  0  0  0  0  0  0  0  0  # atno 10764 bound_to 10752
  154.2052  135.2876  155.2957 H   0  0  0  0  0  0  0  0  0  0  0  0  # atno 10765 bound_to 10752
  140.5259  134.0513  155.7858 H   0  0  0  0  0  0  0  0  0  0  0  0  # atno 11005 bound_to 11000
  145.7683  139.1848  143.2227 LP  0  0  0  0  0  0  0  0  0  0  0  0  # atno 17320 bound_to 7965
  146.0931  140.7632  142.9585 LP  0  0  0  0  0  0  0  0  0  0  0  0  # atno 17321 bound_to 7965
  139.5950  144.1417  152.2133 LP  0  0  0  0  0  0  0  0  0  0  0  0  # atno 17342 bound_to 10162
  140.0783  144.5722  150.7141 LP  0  0  0  0  0  0  0  0  0  0  0  0  # atno 17343 bound_to 10162
  156.8671  130.9512  151.3613 LP  0  0  0  0  0  0  0  0  0  0  0  0  # atno 17370 bound_to 10713
  157.6248  130.8683  149.9171 LP  0  0  0  0  0  0  0  0  0  0  0  0  # atno 17371 bound_to 10713
  141.1308  133.9305  157.2539 LP  0  0  0  0  0  0  0  0  0  0  0  0  # atno 17394 bound_to 11000
  139.9580  135.0161  156.9182 LP  0  0  0  0  0  0  0  0  0  0  0  0  # atno 17395 bound_to 11000

$$$$
