AV-unprocessed.smi:1398|AV-procd|sdf|5680|dock4
  -GOLD-   22720 5303D 1   1.00000     0.00000
 Structure written by MMmdl.
 41 42  0  0  0  0  0  0  0  0  1 V2000
  145.1007  135.7833  151.2010 C   0  0  0  0  0  0  0  0  0  0  0  0
  146.2539  134.9811  151.4300 O   0  0  0  0  0  0  0  0  0  0  0  0
  146.0938  133.6134  151.5458 C   0  0  0  0  0  0  0  0  0  0  0  0
  145.0769  133.0229  150.8690 N   0  0  0  0  0  0  0  0  0  0  0  0
  144.9221  131.6874  150.9787 C   0  0  0  0  0  0  0  0  0  0  0  0
  145.7679  130.8748  151.7557 C   0  0  0  0  0  0  0  0  0  0  0  0
  146.8225  131.4848  152.4593 C   0  0  0  0  0  0  0  0  0  0  0  0
  146.9883  132.8877  152.3665 C   0  0  0  0  0  0  0  0  0  0  0  0
  148.0316  133.5982  153.0206 N   0  0  0  0  0  0  0  0  0  0  0  0
  148.9033  133.1419  153.9355 C   0  0  0  0  0  0  0  0  0  0  0  0
  148.9411  131.9912  154.3713 O   0  0  0  0  0  0  0  0  0  0  0  0
  149.7276  134.1160  154.3452 N   0  0  0  0  0  0  0  0  0  0  0  0
  150.7608  133.9674  155.3636 C   0  0  0  0  0  0  0  0  0  0  0  0
  150.6934  135.1069  156.4006 C   0  0  0  0  0  0  0  0  0  0  0  0
  152.0142  135.8775  156.5621 C   0  0  0  0  0  0  0  0  0  0  0  0
  153.0129  135.3007  156.9949 O   0  0  0  0  0  0  0  0  0  0  0  0
  152.0359  137.1806  156.2130 N   0  0  0  0  0  0  0  0  0  0  0  0
  150.8962  137.9508  155.7152 C   0  0  0  0  0  0  0  0  0  0  0  0
  151.3612  139.4074  155.6862 C   0  0  0  0  0  0  0  0  0  0  0  0
  152.8754  139.3143  155.5595 C   0  0  0  0  0  0  0  0  0  0  0  0
  153.2324  138.0171  156.2857 C   0  0  0  0  0  0  0  0  0  0  0  0
  145.3974  136.8301  151.1371 H   0  0  0  0  0  0  0  0  0  0  0  0
  144.3826  135.6930  152.0172 H   0  0  0  0  0  0  0  0  0  0  0  0
  144.6117  135.5205  150.2620 H   0  0  0  0  0  0  0  0  0  0  0  0
  144.1031  131.2530  150.4250 H   0  0  0  0  0  0  0  0  0  0  0  0
  145.6144  129.8071  151.8062 H   0  0  0  0  0  0  0  0  0  0  0  0
  147.4894  130.8674  153.0412 H   0  0  0  0  0  0  0  0  0  0  0  0
  148.0632  134.5893  152.8308 H   0  0  0  0  0  0  0  0  0  0  0  0
  149.6235  135.0319  153.9333 H   0  0  0  0  0  0  0  0  0  0  0  0
  150.6701  132.9941  155.8495 H   0  0  0  0  0  0  0  0  0  0  0  0
  151.7261  133.9745  154.8558 H   0  0  0  0  0  0  0  0  0  0  0  0
  149.9149  135.8111  156.1047 H   0  0  0  0  0  0  0  0  0  0  0  0
  150.4057  134.7027  157.3717 H   0  0  0  0  0  0  0  0  0  0  0  0
  150.6472  137.6113  154.7089 H   0  0  0  0  0  0  0  0  0  0  0  0
  150.0124  137.8365  156.3440 H   0  0  0  0  0  0  0  0  0  0  0  0
  150.9035  139.9814  154.8799 H   0  0  0  0  0  0  0  0  0  0  0  0
  151.1038  139.8921  156.6289 H   0  0  0  0  0  0  0  0  0  0  0  0
  153.1485  139.2308  154.5066 H   0  0  0  0  0  0  0  0  0  0  0  0
  153.3889  140.1842  155.9698 H   0  0  0  0  0  0  0  0  0  0  0  0
  153.4639  138.2147  157.3334 H   0  0  0  0  0  0  0  0  0  0  0  0
  154.0997  137.5350  155.8314 H   0  0  0  0  0  0  0  0  0  0  0  0
  1  2  1  0  0  0  0
  1 22  1  0  0  0  0
  1 23  1  0  0  0  0
  1 24  1  0  0  0  0
  2  3  1  0  0  0  0
  3  8  1  0  0  0  0
  3  4  2  0  0  0  0
  4  5  1  0  0  0  0
  5  6  2  0  0  0  0
  5 25  1  0  0  0  0
  6  7  1  0  0  0  0
  6 26  1  0  0  0  0
  7  8  2  0  0  0  0
  7 27  1  0  0  0  0
  8  9  1  0  0  0  0
  9 10  1  0  0  0  0
  9 28  1  0  0  0  0
 10 11  2  0  0  0  0
 10 12  1  0  0  0  0
 12 13  1  0  0  0  0
 12 29  1  0  0  0  0
 13 14  1  0  0  0  0
 13 30  1  0  0  0  0
 13 31  1  0  0  0  0
 14 15  1  0  0  0  0
 14 32  1  0  0  0  0
 14 33  1  0  0  0  0
 15 16  2  0  0  0  0
 15 17  1  0  0  0  0
 17 21  1  0  0  0  0
 17 18  1  0  0  0  0
 18 19  1  0  0  0  0
 18 34  1  0  0  0  0
 18 35  1  0  0  0  0
 19 20  1  0  0  0  0
 19 36  1  0  0  0  0
 19 37  1  0  0  0  0
 20 21  1  0  0  0  0
 20 38  1  0  0  0  0
 20 39  1  0  0  0  0
 21 40  1  0  0  0  0
 21 41  1  0  0  0  0
M  END
> <s_m_source_file>
AV-unprocessed.smi

> <i_m_source_file_index>
1398

> <i_lp_mmshare_version>
43012

> <i_f3d_flags>
0

> <s_epik_input>
W0NIM11PYzFuW2NIXVtjSF1bY0hdYzFbTkhdQyg9TylbTkhdW0NIMl1bQ0gyXUMoPU8pTjJbQ0gyXVtDSDJdW0NIMl1bQ0gyXTI=

> <s_epik_cmdline>
J2VwaWtfcHl0aG9uJywgJy1waCcsICc3LjAnLCAnLXRuJywgJzgnLCAnLW1hJywgJzIwMCcsICctbWV0YWxfYmluZGluZycsICctaW1hZScsICc8aW5maWxlLm1hZT4nLCAnLW9tYWUnLCAnPG91dGZpbGUubWFlPic=

> <r_lp_tautomer_probability>
1

> <r_epik_Ionization_Penalty>
8.61088e-05

> <r_epik_Ionization_Penalty_Charging>
0

> <r_epik_Ionization_Penalty_Neutral>
8.61088e-05

> <r_epik_State_Penalty>
-0

> <r_epik_Charging_Adjusted_Penalty>
0

> <i_epik_Tot_Q>
0

> <i_epik_Tot_abs_Q>
0

> <r_epik_Metal_State_Penalty>
-0

> <b_epik_Metal_Only>
0

> <s_lp_Force_Field>
OPLS_2005

> <r_lp_Energy>
29.8369

> <b_lp_Chiralities_Consistent>
1

> <s_lp_Variant>
AV-unprocessed.smi:1398-1

> <Gold.Version>
5.8.1

> <Gold.Id.Protein>
6NUR|6NUR_protein|mol2

> <Gold.PLP.Fitness>
41.6563

> <Gold.PLP.PLP>
-35.0357

> <Gold.PLP.part.hbond>
-3.0000

> <Gold.PLP.part.metal>
0.0000

> <Gold.PLP.part.buried>
-1.7338

> <Gold.PLP.part.nonpolar>
-30.4588

> <Gold.PLP.part.repulsive>
0.4109

> <Gold.PLP.ligand.clash>
0.0000

> <Gold.PLP.ligand.torsion>
0.8411

> <Gold.PLP.Chemscore.Hbond>
2.7571

> <Gold.PLP.Chemscore.CHOScore>
0.0000

> <Gold.PLP.Chemscore.Metal>
0.0000

> <Gold.Chemscore.Hbonds>
donor molecule, donor type, donor heavy atom, donor atom, acceptor molecule, acceptor atom, score
      L1  H     9    28       P1  7948  0.87
      P1  H 10752 10763       L1    16  0.05

> <Gold.PLP.Chemscore.Internal.Correction>
0.0313

> <Gold.Rescore>
     Score         DG    S(hbond)    S(metal)    S(lipo)     H(rot)  DE(clash)    DE(int)     intcor
     13.53     -16.02       2.09        0.00      70.21       1.83       0.24       2.24       ----

> <Gold.Chemscore.Fitness>
13.5326

> <Gold.Chemscore.DG>
-16.0154

> <Gold.Chemscore.ZeroCoef>
-5.4800

> <Gold.Chemscore.Hbond>
2.0945

> <Gold.Chemscore.Metal>
0.0000

> <Gold.Chemscore.Lipo>
70.2057

> <Gold.Chemscore.Internal_Hbond>
0.0000

> <Gold.Chemscore.DEClash>
0.2429

> <Gold.Chemscore.DEInternal>
2.2399

> <Gold.Chemscore.Rot>
1.8260

> <Gold.Chemscore.Internal.Correction>
   9.000000E+99

> <Gold.Chemscore.Hbonds>
donor molecule, donor type, donor heavy atom, donor atom, acceptor molecule, acceptor atom, score
      L1  H     9    28       P1  7948  0.52

> <Gold.Chemscore.Hbond.Weighted>
-6.9958

> <Gold.Chemscore.Metal.Weighted>
-0.0000

> <Gold.Chemscore.Lipo.Weighted>
-8.2141

> <Gold.Chemscore.Internal_Hbond.Weighted>
0.0000

> <Gold.Chemscore.DEClash.Weighted>
0.2429

> <Gold.Chemscore.DEInternal.Weighted>
2.2399

> <Gold.Chemscore.Rot.Weighted>
4.6744

> <Gold.Chemscore.Internal.Correction.Weighted>
   9.000000E+99

> <Gold.Protein.RotatedTorsions>
[ 6907 6896 6895 6894 ] final   97.12 input  -60.11 | X-H torsion
[ 7974 7965 7964 7962 ] final   49.41 input  175.53 | X-H torsion
[ 8008 7997 7996 7995 ] final  157.17 input   59.86 | X-H torsion
[ 10167 10162 10161 10158 ] final  150.07 input  -65.29 | X-H torsion
[ 10718 10713 10712 10709 ] final   75.21 input   66.30 | X-H torsion
[ 10763 10752 10751 10750 ] final  112.07 input  -60.55 | X-H torsion
[ 11005 11000 10999 10996 ] final  -93.17 input  -57.11 | X-H torsion

> <Gold.Protein.ActiveResidues>
 VAL166  LYS551  ARG553  GLY616  TRP617  ASP618  TYR619  PRO620  LYS621  CYS622 
 ASP623  PHE694  ASN695  SER759  ASP760  ASP761  ALA762  ILE779  LEU786  VAL792 
 PHE793  MET794  SER795  GLU796  ALA797  LYS798  CYS799  TRP800  GLU811  SER814 

> <Gold.Protein.RotatedAtoms>
  152.5427  134.0782  159.8223 H   0  0  0  0  0  0  0  0  0  0  0  0  # atno 6907 bound_to 6896
  151.0887  133.5325  159.2623 H   0  0  0  0  0  0  0  0  0  0  0  0  # atno 6908 bound_to 6896
  151.2125  135.0495  159.8971 H   0  0  0  0  0  0  0  0  0  0  0  0  # atno 6909 bound_to 6896
  146.0111  139.4545  142.9955 H   0  0  0  0  0  0  0  0  0  0  0  0  # atno 7974 bound_to 7965
  156.2380  140.1892  156.7067 H   0  0  0  0  0  0  0  0  0  0  0  0  # atno 8008 bound_to 7997
  154.6142  140.0617  156.9560 H   0  0  0  0  0  0  0  0  0  0  0  0  # atno 8009 bound_to 7997
  155.1966  140.3289  155.4352 H   0  0  0  0  0  0  0  0  0  0  0  0  # atno 8010 bound_to 7997
  139.4854  144.5551  151.7332 H   0  0  0  0  0  0  0  0  0  0  0  0  # atno 10167 bound_to 10162
  157.6624  130.9715  150.1321 H   0  0  0  0  0  0  0  0  0  0  0  0  # atno 10718 bound_to 10713
  153.4725  135.3697  155.2398 H   0  0  0  0  0  0  0  0  0  0  0  0  # atno 10763 bound_to 10752
  154.8756  135.3935  154.3795 H   0  0  0  0  0  0  0  0  0  0  0  0  # atno 10764 bound_to 10752
  153.4386  135.7083  153.6248 H   0  0  0  0  0  0  0  0  0  0  0  0  # atno 10765 bound_to 10752
  141.1504  133.7869  157.0122 H   0  0  0  0  0  0  0  0  0  0  0  0  # atno 11005 bound_to 11000
  145.7340  141.0032  143.1336 LP  0  0  0  0  0  0  0  0  0  0  0  0  # atno 17320 bound_to 7965
  144.6953  139.9018  143.7459 LP  0  0  0  0  0  0  0  0  0  0  0  0  # atno 17321 bound_to 7965
  140.5111  144.1023  150.5995 LP  0  0  0  0  0  0  0  0  0  0  0  0  # atno 17342 bound_to 10162
  140.3949  143.2733  152.0016 LP  0  0  0  0  0  0  0  0  0  0  0  0  # atno 17343 bound_to 10162
  156.2165  130.3670  149.8607 LP  0  0  0  0  0  0  0  0  0  0  0  0  # atno 17370 bound_to 10713
  156.6472  130.8729  151.3524 LP  0  0  0  0  0  0  0  0  0  0  0  0  # atno 17371 bound_to 10713
  140.0870  134.9615  157.1716 LP  0  0  0  0  0  0  0  0  0  0  0  0  # atno 17394 bound_to 11000
  140.3497  134.2612  155.7200 LP  0  0  0  0  0  0  0  0  0  0  0  0  # atno 17395 bound_to 11000

$$$$
