AV-unprocessed.smi:703|AV-procd|sdf|3431|dock4
  -GOLD-   22720 0413D 1   1.00000     0.00000
 Structure written by MMmdl.
 38 39  0  0  0  0  0  0  0  0  2 V2000
  144.5290  136.2929  152.0118 C   0  0  0  0  0  0  0  0  0  0  0  0
  145.5350  137.2765  151.3988 C   0  0  0  0  0  0  0  0  0  0  0  0
  145.8576  138.3941  152.3170 N   0  3  2  0  0  0  0  0  0  0  0  0
  146.9750  139.2591  151.8839 C   0  0  0  0  0  0  0  0  0  0  0  0
  147.5260  139.9006  153.1599 C   0  0  1  0  0  0  0  0  0  0  0  0
  146.7778  141.1953  153.5181 C   0  0  0  0  0  0  0  0  0  0  0  0
  147.3263  138.8026  154.2135 C   0  0  2  0  0  0  0  0  0  0  0  0
  148.5311  137.9712  154.3007 N   0  0  0  0  0  0  0  0  0  0  0  0
  149.9891  138.7045  154.8615 S   0  0  0  0  0  0  0  0  0  0  0  0
  151.0385  137.6747  154.8275 O   0  0  0  0  0  0  0  0  0  0  0  0
  150.1719  139.9634  154.1228 O   0  0  0  0  0  0  0  0  0  0  0  0
  149.5907  139.1046  156.6147 C   0  0  0  0  0  0  0  0  0  0  0  0
  150.7736  139.7713  157.2566 C   0  0  0  0  0  0  0  0  0  0  0  0
  150.8488  141.0650  157.8424 C   0  0  0  0  0  0  0  0  0  0  0  0
  152.1438  141.1480  158.2662 C   0  0  0  0  0  0  0  0  0  0  0  0
  152.8157  140.0080  157.9661 O   0  0  0  0  0  0  0  0  0  0  0  0
  151.9327  139.1354  157.3203 N   0  0  0  0  0  0  0  0  0  0  0  0
  146.1271  137.9765  153.7119 C   0  0  0  0  0  0  0  0  0  0  0  0
  144.3549  135.4523  151.3399 H   0  0  0  0  0  0  0  0  0  0  0  0
  143.5649  136.7661  152.1986 H   0  0  0  0  0  0  0  0  0  0  0  0
  144.8957  135.8904  152.9565 H   0  0  0  0  0  0  0  0  0  0  0  0
  146.4551  136.7369  151.1704 H   0  0  0  0  0  0  0  0  0  0  0  0
  145.1574  137.6675  150.4528 H   0  0  0  0  0  0  0  0  0  0  0  0
  147.7530  138.6448  151.4275 H   0  0  0  0  0  0  0  0  0  0  0  0
  146.6563  139.9930  151.1428 H   0  0  0  0  0  0  0  0  0  0  0  0
  148.5812  140.1499  153.0353 H   0  0  0  0  0  0  0  0  0  0  0  0
  145.7103  141.0189  153.6544 H   0  0  0  0  0  0  0  0  0  0  0  0
  146.8943  141.9444  152.7344 H   0  0  0  0  0  0  0  0  0  0  0  0
  147.1635  141.6259  154.4427 H   0  0  0  0  0  0  0  0  0  0  0  0
  147.1319  139.2318  155.1978 H   0  0  0  0  0  0  0  0  0  0  0  0
  148.6924  137.4710  153.4265 H   0  0  0  0  0  0  0  0  0  0  0  0
  148.7124  139.7505  156.6292 H   0  0  0  0  0  0  0  0  0  0  0  0
  149.3346  138.1806  157.1323 H   0  0  0  0  0  0  0  0  0  0  0  0
  150.0743  141.8112  157.9407 H   0  0  0  0  0  0  0  0  0  0  0  0
  152.7111  141.9146  158.7731 H   0  0  0  0  0  0  0  0  0  0  0  0
  145.2394  138.1794  154.3114 H   0  0  0  0  0  0  0  0  0  0  0  0
  146.3201  136.9042  153.7781 H   0  0  0  0  0  0  0  0  0  0  0  0
  145.0418  138.9877  152.3641 H   0  0  0  0  0  0  0  0  0  0  0  0
  1  2  1  0  0  0  0
  1 19  1  0  0  0  0
  1 20  1  0  0  0  0
  1 21  1  0  0  0  0
  2  3  1  0  0  0  0
  2 22  1  0  0  0  0
  2 23  1  0  0  0  0
  3 18  1  0  0  0  0
  3  4  1  0  0  0  0
  3 38  1  0  0  0  0
  4  5  1  0  0  0  0
  4 24  1  0  0  0  0
  4 25  1  0  0  0  0
  5  6  1  0  0  0  0
  5  7  1  0  0  0  0
  5 26  1  0  0  0  0
  6 27  1  0  0  0  0
  6 28  1  0  0  0  0
  6 29  1  0  0  0  0
  7  8  1  0  0  0  0
  7 18  1  0  0  0  0
  7 30  1  0  0  0  0
  8  9  1  0  0  0  0
  8 31  1  0  0  0  0
  9 10  2  0  0  0  0
  9 11  2  0  0  0  0
  9 12  1  0  0  0  0
 12 13  1  0  0  0  0
 12 32  1  0  0  0  0
 12 33  1  0  0  0  0
 13 17  2  0  0  0  0
 13 14  1  0  0  0  0
 14 15  2  0  0  0  0
 14 34  1  0  0  0  0
 15 16  1  0  0  0  0
 15 35  1  0  0  0  0
 16 17  1  0  0  0  0
 18 36  1  0  0  0  0
 18 37  1  0  0  0  0
M  CHG  1   3   1
M  END
> <s_m_source_file>
AV-unprocessed.smi

> <i_m_source_file_index>
703

> <i_lp_mmshare_version>
43012

> <i_f3d_flags>
0

> <s_epik_input>
W0NIM11bQ0gyXU4xW0NIMl1bQ0BASF0oW0NIM10pW0NASF0oW0NIMl0xKVtOSF1TKD1PKSg9TylbQ0gyXWMyW2NIXVtjSF1vbjI=

> <s_epik_cmdline>
J2VwaWtfcHl0aG9uJywgJy1waCcsICc3LjAnLCAnLXRuJywgJzgnLCAnLW1hJywgJzIwMCcsICctbWV0YWxfYmluZGluZycsICctaW1hZScsICc8aW5maWxlLm1hZT4nLCAnLW9tYWUnLCAnPG91dGZpbGUubWFlPic=

> <r_epik_Ionization_Penalty>
0.00324529

> <r_epik_Ionization_Penalty_Charging>
0.0019384

> <r_epik_Ionization_Penalty_Neutral>
0.00130689

> <r_epik_State_Penalty>
0.00218682

> <r_epik_Charging_Adjusted_Penalty>
0.00412522

> <i_epik_Tot_Q>
1

> <i_epik_Tot_abs_Q>
1

> <r_epik_Metal_State_Penalty>
0.310831

> <b_epik_Metal_Only>
0

> <s_lp_Force_Field>
OPLS_2005

> <r_lp_Energy>
19.6136

> <b_lp_Chiralities_Consistent>
1

> <s_lp_Variant>
AV-unprocessed.smi:703-6

> <Gold.Version>
5.8.1

> <Gold.Id.Protein>
6NUR|6NUR_protein|mol2

> <Gold.PLP.Fitness>
36.6658

> <Gold.PLP.PLP>
-21.9059

> <Gold.PLP.part.hbond>
-4.4479

> <Gold.PLP.part.metal>
0.0000

> <Gold.PLP.part.buried>
3.3637

> <Gold.PLP.part.nonpolar>
-21.7443

> <Gold.PLP.part.repulsive>
1.1782

> <Gold.PLP.ligand.clash>
0.0000

> <Gold.PLP.ligand.torsion>
0.1983

> <Gold.PLP.Chemscore.Hbond>
5.0000

> <Gold.PLP.Chemscore.CHOScore>
0.0000

> <Gold.PLP.Chemscore.Metal>
0.0000

> <Gold.Chemscore.Hbonds>
donor molecule, donor type, donor heavy atom, donor atom, acceptor molecule, acceptor atom, score
      L1  H     3    38       P1 10175  2.00
      L1  H     8    31       P1  7948  1.00
      P1  H  7989  7998       L1    11  1.00
      P1  H  7997  8009       L1    16  1.00

> <Gold.PLP.Chemscore.Internal.Correction>
0.1566

> <Gold.Rescore>
     Score         DG    S(hbond)    S(metal)    S(lipo)     H(rot)  DE(clash)    DE(int)     intcor
     15.85     -20.45       3.81        0.00      61.61       1.94       2.85       1.74       ----

> <Gold.Chemscore.Fitness>
15.8535

> <Gold.Chemscore.DG>
-20.4503

> <Gold.Chemscore.ZeroCoef>
-5.4800

> <Gold.Chemscore.Hbond>
3.8109

> <Gold.Chemscore.Metal>
0.0000

> <Gold.Chemscore.Lipo>
61.6110

> <Gold.Chemscore.Internal_Hbond>
0.0000

> <Gold.Chemscore.DEClash>
2.8549

> <Gold.Chemscore.DEInternal>
1.7419

> <Gold.Chemscore.Rot>
1.9400

> <Gold.Chemscore.Internal.Correction>
   9.000000E+99

> <Gold.Chemscore.Hbonds>
donor molecule, donor type, donor heavy atom, donor atom, acceptor molecule, acceptor atom, score
      L1  H     3    38       P1 10175  0.96
      L1  H     8    31       P1  7948  0.96
      P1  H  7989  7998       L1    11  0.95
      P1  H  7997  8009       L1    16  0.39

> <Gold.Chemscore.Hbond.Weighted>
-12.7283

> <Gold.Chemscore.Metal.Weighted>
-0.0000

> <Gold.Chemscore.Lipo.Weighted>
-7.2085

> <Gold.Chemscore.Internal_Hbond.Weighted>
0.0000

> <Gold.Chemscore.DEClash.Weighted>
2.8549

> <Gold.Chemscore.DEInternal.Weighted>
1.7419

> <Gold.Chemscore.Rot.Weighted>
4.9665

> <Gold.Chemscore.Internal.Correction.Weighted>
   9.000000E+99

> <Gold.Protein.RotatedTorsions>
[ 6907 6896 6895 6894 ] final   57.38 input  -60.11 | X-H torsion
[ 7974 7965 7964 7962 ] final  100.88 input  175.53 | X-H torsion
[ 8008 7997 7996 7995 ] final  175.49 input   59.86 | X-H torsion
[ 10167 10162 10161 10158 ] final   57.96 input  -65.29 | X-H torsion
[ 10718 10713 10712 10709 ] final  140.36 input   66.30 | X-H torsion
[ 10763 10752 10751 10750 ] final   94.37 input  -60.55 | X-H torsion
[ 11005 11000 10999 10996 ] final   77.49 input  -57.11 | X-H torsion

> <Gold.Protein.ActiveResidues>
 VAL166  LYS551  ARG553  GLY616  TRP617  ASP618  TYR619  PRO620  LYS621  CYS622 
 ASP623  PHE694  ASN695  SER759  ASP760  ASP761  ALA762  ILE779  LEU786  VAL792 
 PHE793  MET794  SER795  GLU796  ALA797  LYS798  CYS799  TRP800  GLU811  SER814 

> <Gold.Protein.RotatedAtoms>
  152.3726  134.6712  160.0170 H   0  0  0  0  0  0  0  0  0  0  0  0  # atno 6907 bound_to 6896
  151.7000  133.3305  159.3272 H   0  0  0  0  0  0  0  0  0  0  0  0  # atno 6908 bound_to 6896
  150.7685  134.6559  159.6358 H   0  0  0  0  0  0  0  0  0  0  0  0  # atno 6909 bound_to 6896
  145.3797  139.2382  143.3410 H   0  0  0  0  0  0  0  0  0  0  0  0  # atno 7974 bound_to 7965
  156.0865  140.1407  156.9646 H   0  0  0  0  0  0  0  0  0  0  0  0  # atno 8008 bound_to 7997
  154.4616  140.0941  156.6956 H   0  0  0  0  0  0  0  0  0  0  0  0  # atno 8009 bound_to 7997
  155.4990  140.3450  155.4370 H   0  0  0  0  0  0  0  0  0  0  0  0  # atno 8010 bound_to 7997
  140.1923  144.4073  150.6565 H   0  0  0  0  0  0  0  0  0  0  0  0  # atno 10167 bound_to 10162
  157.4041  131.1020  151.0522 H   0  0  0  0  0  0  0  0  0  0  0  0  # atno 10718 bound_to 10713
  153.2408  135.4292  155.0696 H   0  0  0  0  0  0  0  0  0  0  0  0  # atno 10763 bound_to 10752
  154.8340  135.3402  154.6652 H   0  0  0  0  0  0  0  0  0  0  0  0  # atno 10764 bound_to 10752
  153.7075  135.7025  153.5103 H   0  0  0  0  0  0  0  0  0  0  0  0  # atno 10765 bound_to 10752
  139.9252  134.7687  156.1529 H   0  0  0  0  0  0  0  0  0  0  0  0  # atno 11005 bound_to 11000
  146.2847  140.4463  142.8762 LP  0  0  0  0  0  0  0  0  0  0  0  0  # atno 17320 bound_to 7965
  144.8516  140.7010  143.6164 LP  0  0  0  0  0  0  0  0  0  0  0  0  # atno 17321 bound_to 7965
  140.6447  143.2211  151.6212 LP  0  0  0  0  0  0  0  0  0  0  0  0  # atno 17342 bound_to 10162
  139.5251  144.3085  152.1013 LP  0  0  0  0  0  0  0  0  0  0  0  0  # atno 17343 bound_to 10162
  157.1510  130.6184  149.5582 LP  0  0  0  0  0  0  0  0  0  0  0  0  # atno 17370 bound_to 10713
  155.9831  130.4849  150.6918 LP  0  0  0  0  0  0  0  0  0  0  0  0  # atno 17371 bound_to 10713
  141.0804  133.6757  156.2325 LP  0  0  0  0  0  0  0  0  0  0  0  0  # atno 17394 bound_to 11000
  140.6357  134.5218  157.5564 LP  0  0  0  0  0  0  0  0  0  0  0  0  # atno 17395 bound_to 11000

$$$$
