AV-unprocessed.smi:1308|AV-procd|sdf|5443|dock8
  -GOLD-   22720 5 13D 1   1.00000     0.00000
 Structure written by MMmdl.
 44 44  0  0  0  0  0  0  0  0  2 V2000
  146.8555  136.2425  162.6549 C   0  0  0  0  0  0  0  0  0  0  0  0
  147.2777  136.5512  161.2345 C   0  0  0  0  0  0  0  0  0  0  0  0
  146.3824  136.7840  160.3526 N   0  0  0  0  0  0  0  0  0  0  0  0
  146.7698  137.0778  159.0346 C   0  0  0  0  0  0  0  0  0  0  0  0
  145.6392  137.3719  158.0641 C   0  0  0  0  0  0  0  0  0  0  0  0
  148.0859  137.1132  158.6765 C   0  0  0  0  0  0  0  0  0  0  0  0
  148.5597  137.4624  157.2643 C   0  0  0  0  0  0  0  0  0  0  0  0
  148.9924  138.9167  157.0777 C   0  0  0  0  0  0  0  0  0  0  0  0
  148.1851  139.8265  157.2641 O   0  0  0  0  0  0  0  0  0  0  0  0
  150.2825  139.1113  156.7538 N   0  0  0  0  0  0  0  0  0  0  0  0
  151.0201  140.3758  156.7636 C   0  0  1  0  0  0  0  0  0  0  0  0
  150.4021  141.4125  155.8088 C   0  0  0  0  0  0  0  0  0  0  0  0
  151.2090  140.9235  158.1970 C   0  0  0  0  0  0  0  0  0  0  0  0
  151.7889  142.3534  158.2463 C   0  0  0  0  0  0  0  0  0  0  0  0
  152.0572  142.8753  159.6716 C   0  0  0  0  0  0  0  0  0  0  0  0
  152.3203  144.3900  159.7027 C   0  0  0  0  0  0  0  0  0  0  0  0
  153.2232  142.1113  160.3180 C   0  0  0  0  0  0  0  0  0  0  0  0
  149.0863  136.8371  159.7232 C   0  0  0  0  0  0  0  0  0  0  0  0
  150.2875  136.8710  159.4587 O   0  0  0  0  0  0  0  0  0  0  0  0
  148.6302  136.5611  160.9778 N   0  5  0  0  0  0  0  0  0  0  0  0
  145.7797  136.3698  162.7823 H   0  0  0  0  0  0  0  0  0  0  0  0
  147.3622  136.9083  163.3544 H   0  0  0  0  0  0  0  0  0  0  0  0
  147.1120  135.2136  162.9083 H   0  0  0  0  0  0  0  0  0  0  0  0
  145.6759  136.6941  157.2113 H   0  0  0  0  0  0  0  0  0  0  0  0
  145.7062  138.3971  157.6993 H   0  0  0  0  0  0  0  0  0  0  0  0
  144.6669  137.2534  158.5435 H   0  0  0  0  0  0  0  0  0  0  0  0
  149.3759  136.8131  156.9472 H   0  0  0  0  0  0  0  0  0  0  0  0
  147.7499  137.2489  156.5663 H   0  0  0  0  0  0  0  0  0  0  0  0
  150.8397  138.2815  156.6066 H   0  0  0  0  0  0  0  0  0  0  0  0
  152.0100  140.1352  156.3746 H   0  0  0  0  0  0  0  0  0  0  0  0
  151.0450  142.2883  155.7197 H   0  0  0  0  0  0  0  0  0  0  0  0
  149.4287  141.7581  156.1561 H   0  0  0  0  0  0  0  0  0  0  0  0
  150.2730  140.9975  154.8086 H   0  0  0  0  0  0  0  0  0  0  0  0
  150.2438  140.9093  158.7031 H   0  0  0  0  0  0  0  0  0  0  0  0
  151.8533  140.2517  158.7649 H   0  0  0  0  0  0  0  0  0  0  0  0
  152.7321  142.3748  157.7009 H   0  0  0  0  0  0  0  0  0  0  0  0
  151.1256  143.0386  157.7173 H   0  0  0  0  0  0  0  0  0  0  0  0
  151.1711  142.6756  160.2756 H   0  0  0  0  0  0  0  0  0  0  0  0
  153.1754  144.6565  159.0807 H   0  0  0  0  0  0  0  0  0  0  0  0
  152.5297  144.7299  160.7173 H   0  0  0  0  0  0  0  0  0  0  0  0
  151.4591  144.9551  159.3472 H   0  0  0  0  0  0  0  0  0  0  0  0
  154.1502  142.2580  159.7634 H   0  0  0  0  0  0  0  0  0  0  0  0
  153.0223  141.0398  160.3515 H   0  0  0  0  0  0  0  0  0  0  0  0
  153.3911  142.4431  161.3429 H   0  0  0  0  0  0  0  0  0  0  0  0
  1  2  1  0  0  0  0
  1 21  1  0  0  0  0
  1 22  1  0  0  0  0
  1 23  1  0  0  0  0
  2 20  1  0  0  0  0
  2  3  2  0  0  0  0
  3  4  1  0  0  0  0
  4  5  1  0  0  0  0
  4  6  2  0  0  0  0
  5 24  1  0  0  0  0
  5 25  1  0  0  0  0
  5 26  1  0  0  0  0
  6  7  1  0  0  0  0
  6 18  1  0  0  0  0
  7  8  1  0  0  0  0
  7 27  1  0  0  0  0
  7 28  1  0  0  0  0
  8  9  2  0  0  0  0
  8 10  1  0  0  0  0
 10 11  1  0  0  0  0
 10 29  1  0  0  0  0
 11 12  1  0  0  0  0
 11 13  1  0  0  0  0
 11 30  1  0  0  0  0
 12 31  1  0  0  0  0
 12 32  1  0  0  0  0
 12 33  1  0  0  0  0
 13 14  1  0  0  0  0
 13 34  1  0  0  0  0
 13 35  1  0  0  0  0
 14 15  1  0  0  0  0
 14 36  1  0  0  0  0
 14 37  1  0  0  0  0
 15 16  1  0  0  0  0
 15 17  1  0  0  0  0
 15 38  1  0  0  0  0
 16 39  1  0  0  0  0
 16 40  1  0  0  0  0
 16 41  1  0  0  0  0
 17 42  1  0  0  0  0
 17 43  1  0  0  0  0
 17 44  1  0  0  0  0
 18 19  2  0  0  0  0
 18 20  1  0  0  0  0
M  CHG  1  20  -1
M  END
> <s_m_source_file>
AV-unprocessed.smi

> <i_m_source_file_index>
1308

> <i_lp_mmshare_version>
43012

> <i_f3d_flags>
0

> <s_epik_input>
W0NIM11jMW5jKFtDSDNdKWMoYyg9TylbbkhdMSlbQ0gyXUMoPU8pW05IXVtDQEhdKFtDSDNdKVtDSDJdW0NIMl1bQ0hdKFtDSDNdKVtDSDNd

> <s_epik_cmdline>
J2VwaWtfcHl0aG9uJywgJy1waCcsICc3LjAnLCAnLXRuJywgJzgnLCAnLW1hJywgJzIwMCcsICctbWV0YWxfYmluZGluZycsICctaW1hZScsICc8aW5maWxlLm1hZT4nLCAnLW9tYWUnLCAnPG91dGZpbGUubWFlPic=

> <r_lp_tautomer_probability>
0.839158

> <r_epik_Ionization_Penalty>
6.61719

> <r_epik_Ionization_Penalty_Charging>
7.20681e-08

> <r_epik_Ionization_Penalty_Neutral>
6.61719

> <r_epik_State_Penalty>
4.43758

> <r_epik_Charging_Adjusted_Penalty>
4.43758

> <i_epik_Tot_Q>
-1

> <i_epik_Tot_abs_Q>
1

> <r_epik_Metal_State_Penalty>
0.801586

> <b_epik_Metal_Only>
1

> <s_lp_Force_Field>
OPLS_2005

> <r_lp_Energy>
8.11692

> <b_lp_Chiralities_Consistent>
1

> <s_lp_Variant>
AV-unprocessed.smi:1308-6

> <Gold.Version>
5.8.1

> <Gold.Id.Protein>
6NUR|6NUR_protein|mol2

> <Gold.PLP.Fitness>
39.8584

> <Gold.PLP.PLP>
-32.0186

> <Gold.PLP.part.hbond>
-2.0000

> <Gold.PLP.part.metal>
0.0000

> <Gold.PLP.part.buried>
-4.5719

> <Gold.PLP.part.nonpolar>
-26.8412

> <Gold.PLP.part.repulsive>
0.0000

> <Gold.PLP.ligand.clash>
0.0000

> <Gold.PLP.ligand.torsion>
0.4825

> <Gold.PLP.Chemscore.Hbond>
2.9100

> <Gold.PLP.Chemscore.CHOScore>
0.0000

> <Gold.PLP.Chemscore.Metal>
0.0000

> <Gold.Chemscore.Hbonds>
donor molecule, donor type, donor heavy atom, donor atom, acceptor molecule, acceptor atom, score
      P1  H  6896  6909       L1    19  0.93
      P1  H  6931  6943       L1    20  1.80

> <Gold.PLP.Chemscore.Internal.Correction>
0.0749

> <Gold.Rescore>
     Score         DG    S(hbond)    S(metal)    S(lipo)     H(rot)  DE(clash)    DE(int)     intcor
     12.44     -12.92       1.00        0.00      76.97       1.91       0.01       0.47       ----

> <Gold.Chemscore.Fitness>
12.4425

> <Gold.Chemscore.DG>
-12.9209

> <Gold.Chemscore.ZeroCoef>
-5.4800

> <Gold.Chemscore.Hbond>
0.9971

> <Gold.Chemscore.Metal>
0.0000

> <Gold.Chemscore.Lipo>
76.9661

> <Gold.Chemscore.Internal_Hbond>
0.0000

> <Gold.Chemscore.DEClash>
0.0060

> <Gold.Chemscore.DEInternal>
0.4724

> <Gold.Chemscore.Rot>
1.9118

> <Gold.Chemscore.Internal.Correction>
   9.000000E+99

> <Gold.Chemscore.Hbonds>
donor molecule, donor type, donor heavy atom, donor atom, acceptor molecule, acceptor atom, score
      P1  H  6896  6909       L1    19  0.35
      P1  H  6931  6943       L1    20  0.05

> <Gold.Chemscore.Hbond.Weighted>
-3.3302

> <Gold.Chemscore.Metal.Weighted>
-0.0000

> <Gold.Chemscore.Lipo.Weighted>
-9.0050

> <Gold.Chemscore.Internal_Hbond.Weighted>
0.0000

> <Gold.Chemscore.DEClash.Weighted>
0.0060

> <Gold.Chemscore.DEInternal.Weighted>
0.4724

> <Gold.Chemscore.Rot.Weighted>
4.8943

> <Gold.Chemscore.Internal.Correction.Weighted>
   9.000000E+99

> <Gold.Protein.RotatedTorsions>
[ 6907 6896 6895 6894 ] final   74.06 input  -60.11 | X-H torsion
[ 7974 7965 7964 7962 ] final   38.84 input  175.53 | X-H torsion
[ 8008 7997 7996 7995 ] final  177.86 input   59.86 | X-H torsion
[ 10167 10162 10161 10158 ] final  119.62 input  -65.29 | X-H torsion
[ 10718 10713 10712 10709 ] final -124.08 input   66.30 | X-H torsion
[ 10763 10752 10751 10750 ] final  167.91 input  -60.55 | X-H torsion
[ 11005 11000 10999 10996 ] final  -38.55 input  -57.11 | X-H torsion

> <Gold.Protein.ActiveResidues>
 VAL166  LYS551  ARG553  GLY616  TRP617  ASP618  TYR619  PRO620  LYS621  CYS622 
 ASP623  PHE694  ASN695  SER759  ASP760  ASP761  ALA762  ILE779  LEU786  VAL792 
 PHE793  MET794  SER795  GLU796  ALA797  LYS798  CYS799  TRP800  GLU811  SER814 

> <Gold.Protein.RotatedAtoms>
  152.4956  134.4328  159.9517 H   0  0  0  0  0  0  0  0  0  0  0  0  # atno 6907 bound_to 6896
  151.4308  133.3665  159.2776 H   0  0  0  0  0  0  0  0  0  0  0  0  # atno 6908 bound_to 6896
  150.9156  134.8597  159.7514 H   0  0  0  0  0  0  0  0  0  0  0  0  # atno 6909 bound_to 6896
  146.1030  139.5723  142.9401 H   0  0  0  0  0  0  0  0  0  0  0  0  # atno 7974 bound_to 7965
  156.0610  140.1348  156.9941 H   0  0  0  0  0  0  0  0  0  0  0  0  # atno 8008 bound_to 7997
  154.4482  140.0991  156.6588 H   0  0  0  0  0  0  0  0  0  0  0  0  # atno 8009 bound_to 7997
  155.5377  140.3460  155.4442 H   0  0  0  0  0  0  0  0  0  0  0  0  # atno 8010 bound_to 7997
  139.6034  144.7063  151.3009 H   0  0  0  0  0  0  0  0  0  0  0  0  # atno 10167 bound_to 10162
  156.1557  130.6566  150.9978 H   0  0  0  0  0  0  0  0  0  0  0  0  # atno 10718 bound_to 10713
  154.3608  135.2753  155.2321 H   0  0  0  0  0  0  0  0  0  0  0  0  # atno 10763 bound_to 10752
  154.4510  135.5931  153.6195 H   0  0  0  0  0  0  0  0  0  0  0  0  # atno 10764 bound_to 10752
  152.9843  135.6042  154.3828 H   0  0  0  0  0  0  0  0  0  0  0  0  # atno 10765 bound_to 10752
  141.0036  133.6943  156.2068 H   0  0  0  0  0  0  0  0  0  0  0  0  # atno 11005 bound_to 11000
  145.5816  141.0382  143.2119 LP  0  0  0  0  0  0  0  0  0  0  0  0  # atno 17320 bound_to 7965
  144.7448  139.7349  143.7296 LP  0  0  0  0  0  0  0  0  0  0  0  0  # atno 17321 bound_to 7965
  140.7267  143.6984  150.7865 LP  0  0  0  0  0  0  0  0  0  0  0  0  # atno 17342 bound_to 10162
  140.0565  143.5198  152.2649 LP  0  0  0  0  0  0  0  0  0  0  0  0  # atno 17343 bound_to 10162
  157.6693  131.0865  150.7652 LP  0  0  0  0  0  0  0  0  0  0  0  0  # atno 17370 bound_to 10713
  156.7717  130.4831  149.5417 LP  0  0  0  0  0  0  0  0  0  0  0  0  # atno 17371 bound_to 10713
  140.6849  134.4727  157.5589 LP  0  0  0  0  0  0  0  0  0  0  0  0  # atno 17394 bound_to 11000
  139.9051  134.8466  156.1737 LP  0  0  0  0  0  0  0  0  0  0  0  0  # atno 17395 bound_to 11000

$$$$
