AV-unprocessed.smi:671|AV-procd|sdf|3288|dock8
  -GOLD-   22720 0243D 1   1.00000     0.00000
 Structure written by MMmdl.
 50 51  0  0  0  0  0  0  0  0  2 V2000
  148.9399  141.2710  154.3924 C   0  0  0  0  0  0  0  0  0  0  0  0
  149.8745  141.4251  155.5451 C   0  0  0  0  0  0  0  0  0  0  0  0
  150.1843  142.6151  156.1264 N   0  3  0  0  0  0  0  0  0  0  0  0
  151.0524  142.4290  157.1308 N   0  0  0  0  0  0  0  0  0  0  0  0
  151.5129  143.5931  157.8877 C   0  0  0  0  0  0  0  0  0  0  0  0
  151.3493  141.1042  157.2573 C   0  0  0  0  0  0  0  0  0  0  0  0
  152.2863  140.5386  158.2747 C   0  0  0  0  0  0  0  0  0  0  0  0
  150.6035  140.4655  156.2579 C   0  0  0  0  0  0  0  0  0  0  0  0
  150.5942  138.9863  155.9914 C   0  0  0  0  0  0  0  0  0  0  0  0
  150.9460  138.6285  154.5295 C   0  0  1  0  0  0  0  0  0  0  0  0
  152.4610  138.6151  154.2735 C   0  0  0  0  0  0  0  0  0  0  0  0
  150.3972  137.3149  154.1830 N   0  0  0  0  0  0  0  0  0  0  0  0
  150.3168  136.2153  154.9554 C   0  0  0  0  0  0  0  0  0  0  0  0
  150.7255  136.2069  156.1144 O   0  0  0  0  0  0  0  0  0  0  0  0
  149.7580  135.1521  154.3536 N   0  0  0  0  0  0  0  0  0  0  0  0
  149.5103  133.8477  154.9602 C   0  0  1  0  0  0  0  0  0  0  0  0
  148.5790  133.0068  154.0651 C   0  0  0  0  0  0  0  0  0  0  0  0
  149.4249  131.8470  153.5370 C   0  0  0  0  0  0  0  0  0  0  0  0
  150.4809  131.6319  154.6159 C   0  0  0  0  0  0  0  0  0  0  0  0
  150.8243  133.0474  155.0883 C   0  0  2  0  0  0  0  0  0  0  0  0
  151.4414  133.0929  156.4928 C   0  0  0  0  0  0  0  0  0  0  0  0
  149.4355  140.7510  153.5723 H   0  0  0  0  0  0  0  0  0  0  0  0
  148.6074  142.2455  154.0336 H   0  0  0  0  0  0  0  0  0  0  0  0
  148.0642  140.6954  154.6916 H   0  0  0  0  0  0  0  0  0  0  0  0
  152.4457  143.3536  158.3984 H   0  0  0  0  0  0  0  0  0  0  0  0
  150.7538  143.8635  158.6221 H   0  0  0  0  0  0  0  0  0  0  0  0
  151.6815  144.4294  157.2079 H   0  0  0  0  0  0  0  0  0  0  0  0
  152.2789  139.4500  158.2492 H   0  0  0  0  0  0  0  0  0  0  0  0
  151.9964  140.8598  159.2752 H   0  0  0  0  0  0  0  0  0  0  0  0
  153.3031  140.8792  158.0790 H   0  0  0  0  0  0  0  0  0  0  0  0
  151.2825  138.4743  156.6646 H   0  0  0  0  0  0  0  0  0  0  0  0
  149.6089  138.5914  156.2422 H   0  0  0  0  0  0  0  0  0  0  0  0
  150.5156  139.3769  153.8621 H   0  0  0  0  0  0  0  0  0  0  0  0
  152.9043  139.5950  154.4512 H   0  0  0  0  0  0  0  0  0  0  0  0
  152.6807  138.3451  153.2401 H   0  0  0  0  0  0  0  0  0  0  0  0
  152.9674  137.8964  154.9191 H   0  0  0  0  0  0  0  0  0  0  0  0
  150.0558  137.2201  153.2371 H   0  0  0  0  0  0  0  0  0  0  0  0
  149.4665  135.2600  153.3936 H   0  0  0  0  0  0  0  0  0  0  0  0
  149.0424  133.9542  155.9407 H   0  0  0  0  0  0  0  0  0  0  0  0
  147.7610  132.6121  154.6693 H   0  0  0  0  0  0  0  0  0  0  0  0
  148.1270  133.5784  153.2530 H   0  0  0  0  0  0  0  0  0  0  0  0
  148.8343  130.9515  153.3417 H   0  0  0  0  0  0  0  0  0  0  0  0
  149.9082  132.1376  152.6037 H   0  0  0  0  0  0  0  0  0  0  0  0
  150.0512  131.0541  155.4358 H   0  0  0  0  0  0  0  0  0  0  0  0
  151.3521  131.0893  154.2473 H   0  0  0  0  0  0  0  0  0  0  0  0
  151.5543  133.4491  154.3825 H   0  0  0  0  0  0  0  0  0  0  0  0
  150.7607  132.6826  157.2396 H   0  0  0  0  0  0  0  0  0  0  0  0
  151.6755  134.1178  156.7825 H   0  0  0  0  0  0  0  0  0  0  0  0
  152.3660  132.5164  156.5327 H   0  0  0  0  0  0  0  0  0  0  0  0
  149.8504  143.5404  155.8879 H   0  0  0  0  0  0  0  0  0  0  0  0
  1  2  1  0  0  0  0
  1 22  1  0  0  0  0
  1 23  1  0  0  0  0
  1 24  1  0  0  0  0
  2  8  1  0  0  0  0
  2  3  2  0  0  0  0
  3  4  1  0  0  0  0
  3 50  1  0  0  0  0
  4  5  1  0  0  0  0
  4  6  1  0  0  0  0
  5 25  1  0  0  0  0
  5 26  1  0  0  0  0
  5 27  1  0  0  0  0
  6  7  1  0  0  0  0
  6  8  2  0  0  0  0
  7 28  1  0  0  0  0
  7 29  1  0  0  0  0
  7 30  1  0  0  0  0
  8  9  1  0  0  0  0
  9 10  1  0  0  0  0
  9 31  1  0  0  0  0
  9 32  1  0  0  0  0
 10 11  1  0  0  0  0
 10 12  1  0  0  0  0
 10 33  1  0  0  0  0
 11 34  1  0  0  0  0
 11 35  1  0  0  0  0
 11 36  1  0  0  0  0
 12 13  1  0  0  0  0
 12 37  1  0  0  0  0
 13 14  2  0  0  0  0
 13 15  1  0  0  0  0
 15 16  1  0  0  0  0
 15 38  1  0  0  0  0
 16 20  1  0  0  0  0
 16 17  1  0  0  0  0
 16 39  1  0  0  0  0
 17 18  1  0  0  0  0
 17 40  1  0  0  0  0
 17 41  1  0  0  0  0
 18 19  1  0  0  0  0
 18 42  1  0  0  0  0
 18 43  1  0  0  0  0
 19 20  1  0  0  0  0
 19 44  1  0  0  0  0
 19 45  1  0  0  0  0
 20 21  1  0  0  0  0
 20 46  1  0  0  0  0
 21 47  1  0  0  0  0
 21 48  1  0  0  0  0
 21 49  1  0  0  0  0
M  CHG  1   3   1
M  END
> <s_m_source_file>
AV-unprocessed.smi

> <i_m_source_file_index>
671

> <i_lp_mmshare_version>
43012

> <i_f3d_flags>
0

> <s_epik_input>
W0NIM11jMW5uKFtDSDNdKWMoW0NIM10pYzFbQ0gyXVtDQEhdKFtDSDNdKVtOSF1DKD1PKVtOSF1bQ0BASF0yW0NIMl1bQ0gyXVtDSDJdW0NASF0yW0NIM10=

> <s_epik_cmdline>
J2VwaWtfcHl0aG9uJywgJy1waCcsICc3LjAnLCAnLXRuJywgJzgnLCAnLW1hJywgJzIwMCcsICctbWV0YWxfYmluZGluZycsICctaW1hZScsICc8aW5maWxlLm1hZT4nLCAnLW9tYWUnLCAnPG91dGZpbGUubWFlPic=

> <r_lp_tautomer_probability>
1

> <r_epik_Ionization_Penalty>
2.28705

> <r_epik_Ionization_Penalty_Charging>
2.28698

> <r_epik_Ionization_Penalty_Neutral>
6.23157e-05

> <r_epik_State_Penalty>
2.43671

> <r_epik_Charging_Adjusted_Penalty>
4.72369

> <i_epik_Tot_Q>
1

> <i_epik_Tot_abs_Q>
1

> <r_epik_Metal_State_Penalty>
2.44911

> <b_epik_Metal_Only>
0

> <s_lp_Force_Field>
OPLS_2005

> <r_lp_Energy>
34.8229

> <b_lp_Chiralities_Consistent>
1

> <s_lp_Variant>
AV-unprocessed.smi:671-16

> <Gold.Version>
5.8.1

> <Gold.Id.Protein>
6NUR|6NUR_protein|mol2

> <Gold.PLP.Fitness>
52.9228

> <Gold.PLP.PLP>
-42.4266

> <Gold.PLP.part.hbond>
-3.5360

> <Gold.PLP.part.metal>
0.0000

> <Gold.PLP.part.buried>
-5.6749

> <Gold.PLP.part.nonpolar>
-33.4624

> <Gold.PLP.part.repulsive>
0.2343

> <Gold.PLP.ligand.clash>
0.0000

> <Gold.PLP.ligand.torsion>
0.7713

> <Gold.PLP.Chemscore.Hbond>
4.0000

> <Gold.PLP.Chemscore.CHOScore>
0.0000

> <Gold.PLP.Chemscore.Metal>
0.0000

> <Gold.Chemscore.Hbonds>
donor molecule, donor type, donor heavy atom, donor atom, acceptor molecule, acceptor atom, score
      L1  H     3    50       P1  8028  2.00
      L1  H    12    37       P1  7948  0.90
      L1  H    15    38       P1  7948  0.65

> <Gold.PLP.Chemscore.Internal.Correction>
0.0387

> <Gold.Rescore>
     Score         DG    S(hbond)    S(metal)    S(lipo)     H(rot)  DE(clash)    DE(int)     intcor
     18.92     -21.16       2.55        0.00      94.09       1.51       0.06       2.18       ----

> <Gold.Chemscore.Fitness>
18.9219

> <Gold.Chemscore.DG>
-21.1605

> <Gold.Chemscore.ZeroCoef>
-5.4800

> <Gold.Chemscore.Hbond>
2.5528

> <Gold.Chemscore.Metal>
0.0000

> <Gold.Chemscore.Lipo>
94.0917

> <Gold.Chemscore.Internal_Hbond>
0.0000

> <Gold.Chemscore.DEClash>
0.0562

> <Gold.Chemscore.DEInternal>
2.1824

> <Gold.Chemscore.Rot>
1.5057

> <Gold.Chemscore.Internal.Correction>
   9.000000E+99

> <Gold.Chemscore.Hbonds>
donor molecule, donor type, donor heavy atom, donor atom, acceptor molecule, acceptor atom, score
      L1  H     3    50       P1  8028  0.93
      L1  H    12    37       P1  7948  0.17
      L1  H    15    38       P1  7948  0.06

> <Gold.Chemscore.Hbond.Weighted>
-8.5265

> <Gold.Chemscore.Metal.Weighted>
-0.0000

> <Gold.Chemscore.Lipo.Weighted>
-11.0087

> <Gold.Chemscore.Internal_Hbond.Weighted>
0.0000

> <Gold.Chemscore.DEClash.Weighted>
0.0562

> <Gold.Chemscore.DEInternal.Weighted>
2.1824

> <Gold.Chemscore.Rot.Weighted>
3.8547

> <Gold.Chemscore.Internal.Correction.Weighted>
   9.000000E+99

> <Gold.Protein.RotatedTorsions>
[ 6907 6896 6895 6894 ] final  -67.39 input  -60.11 | X-H torsion
[ 7974 7965 7964 7962 ] final  -83.47 input  175.53 | X-H torsion
[ 8008 7997 7996 7995 ] final   50.16 input   59.86 | X-H torsion
[ 10167 10162 10161 10158 ] final  160.83 input  -65.29 | X-H torsion
[ 10718 10713 10712 10709 ] final  -19.19 input   66.30 | X-H torsion
[ 10763 10752 10751 10750 ] final -179.08 input  -60.55 | X-H torsion
[ 11005 11000 10999 10996 ] final  133.85 input  -57.11 | X-H torsion

> <Gold.Protein.ActiveResidues>
 VAL166  LYS551  ARG553  GLY616  TRP617  ASP618  TYR619  PRO620  LYS621  CYS622 
 ASP623  PHE694  ASN695  SER759  ASP760  ASP761  ALA762  ILE779  LEU786  VAL792 
 PHE793  MET794  SER795  GLU796  ALA797  LYS798  CYS799  TRP800  GLU811  SER814 

> <Gold.Protein.RotatedAtoms>
  150.7412  134.5887  159.5976 H   0  0  0  0  0  0  0  0  0  0  0  0  # atno 6907 bound_to 6896
  152.3281  134.7292  160.0305 H   0  0  0  0  0  0  0  0  0  0  0  0  # atno 6908 bound_to 6896
  151.7785  133.3311  159.3501 H   0  0  0  0  0  0  0  0  0  0  0  0  # atno 6909 bound_to 6896
  145.5195  140.9532  143.1663 H   0  0  0  0  0  0  0  0  0  0  0  0  # atno 7974 bound_to 7965
  155.4141  140.3443  155.4266 H   0  0  0  0  0  0  0  0  0  0  0  0  # atno 8008 bound_to 7997
  156.1431  140.1548  156.8920 H   0  0  0  0  0  0  0  0  0  0  0  0  # atno 8009 bound_to 7997
  154.4988  140.0820  156.7734 H   0  0  0  0  0  0  0  0  0  0  0  0  # atno 8010 bound_to 7997
  139.4843  144.4596  151.8722 H   0  0  0  0  0  0  0  0  0  0  0  0  # atno 10167 bound_to 10162
  156.5491  130.4697  149.6461 H   0  0  0  0  0  0  0  0  0  0  0  0  # atno 10718 bound_to 10713
  154.5395  135.2805  155.1108 H   0  0  0  0  0  0  0  0  0  0  0  0  # atno 10763 bound_to 10752
  154.2596  135.6324  153.5273 H   0  0  0  0  0  0  0  0  0  0  0  0  # atno 10764 bound_to 10752
  152.9975  135.5602  154.5931 H   0  0  0  0  0  0  0  0  0  0  0  0  # atno 10765 bound_to 10752
  139.9878  134.9526  156.9784 H   0  0  0  0  0  0  0  0  0  0  0  0  # atno 11005 bound_to 11000
  144.7684  139.6792  143.7205 LP  0  0  0  0  0  0  0  0  0  0  0  0  # atno 17320 bound_to 7965
  146.2115  139.5475  142.9678 LP  0  0  0  0  0  0  0  0  0  0  0  0  # atno 17321 bound_to 7965
  140.4058  144.2434  150.5891 LP  0  0  0  0  0  0  0  0  0  0  0  0  # atno 17342 bound_to 10162
  140.5014  143.2317  151.8673 LP  0  0  0  0  0  0  0  0  0  0  0  0  # atno 17343 bound_to 10162
  156.2901  130.7119  151.1966 LP  0  0  0  0  0  0  0  0  0  0  0  0  # atno 17370 bound_to 10713
  157.7391  131.0533  150.5254 LP  0  0  0  0  0  0  0  0  0  0  0  0  # atno 17371 bound_to 10713
  140.4968  134.1137  155.7243 LP  0  0  0  0  0  0  0  0  0  0  0  0  # atno 17394 bound_to 11000
  141.1539  133.8918  157.2026 LP  0  0  0  0  0  0  0  0  0  0  0  0  # atno 17395 bound_to 11000

$$$$
