#       Name:                AV-unprocessed.smi:160
#       Creating user name   scv26
#       Creation time:       Thu Mar 26 19:07:41 2020


#       File generated by GOLD software.
#

@<TRIPOS>MOLECULE
AV-unprocessed.smi:160
    41    42     1
SMALL
NO_CHARGES


@<TRIPOS>ATOM
      1 ****        -3.5706   2.2062   0.3259 N.pl3          1 S1                -1.0000
      2 ****        -4.0436   1.0570  -0.2036 C.2            1 S1                 0.0000
      3 ****        -5.2205   0.8082  -0.4636 O.2            1 S1                 0.0000
      4 ****        -2.9904   0.0104  -0.4815 C.2            1 S1                 0.0000
      5 ****        -3.3378  -1.2032  -1.0085 N.2            1 S1                 0.0000
      6 ****        -2.1362  -1.7612  -1.0670 C.2            1 S1                 0.0000
      7 ****        -1.1470  -0.9833  -0.6189 N.pl3          1 S1                 0.0000
      8 ****         0.3242  -1.2649  -0.5272 C.3            1 S1                 0.0000
      9 ****         1.0193  -0.1651  -1.0338 O.3            1 S1                 0.0000
     10 ****         1.5364   0.6131   0.0401 C.3            1 S1                 0.0000
     11 ****         2.6850   1.5221  -0.4320 C.3            1 S1                 0.0000
     12 ****         2.1680   2.7009  -1.0111 O.3            1 S1                 0.0000
     13 ****         1.9206  -0.4573   1.0725 C.3            1 S1                 0.0000
     14 ****         3.1843  -1.0240   0.7737 O.3            1 S1                 0.0000
     15 ****         0.8224  -1.5051   0.9198 C.3            1 S1                 0.0000
     16 ****        -0.1640  -1.3278   1.9216 O.3            1 S1                 0.0000
     17 ****        -1.6906   0.1983  -0.2330 N.2            1 S1                 0.0000
     18 ****         0.4740  -2.1255  -1.1800 H              1 S1                 0.0000
     19 ****         0.7341   1.2204   0.4630 H              1 S1                 0.0000
     20 ****         1.9701  -0.0448   2.0813 H              1 S1                 0.0000
     21 ****         1.2116  -2.5208   1.0033 H              1 S1                 0.0000
     22 ****        -4.2355   2.9589   0.5390 H              1 S1                 0.0000
     23 ****        -1.9746  -2.7614  -1.4410 H              1 S1                 0.0000
     24 ****         3.2988   1.8211   0.4179 H              1 S1                 0.0000
     25 ****         3.3352   1.0082  -1.1407 H              1 S1                 0.0000
     26 ****         2.8902   3.2446  -1.2853 H              1 S1                 0.0000
     27 ****         3.8411  -0.3496   0.8536 H              1 S1                 0.0000
     28 ****        -0.9057  -1.8759   1.7160 H              1 S1                 0.0000
     29 ****        -2.5937   2.3213   0.5064 LP             1 S1                 0.0000
     30 ****        -5.9278   1.4915  -0.2825 LP             1 S1                 0.0000
     31 ****        -5.4694  -0.0773  -0.8560 LP             1 S1                 0.0000
     32 ****        -4.2329  -1.5631  -1.2717 LP             1 S1                 0.0000
     33 ****         0.3993   0.3960  -1.5822 LP             1 S1                 0.0000
     34 ****         1.7744  -0.4843  -1.6064 LP             1 S1                 0.0000
     35 ****         1.6137   3.1913  -0.3386 LP             1 S1                 0.0000
     36 ****         1.6029   2.4675  -1.8024 LP             1 S1                 0.0000
     37 ****         3.1810  -1.3829  -0.1597 LP             1 S1                 0.0000
     38 ****         3.3820  -1.7652   1.4152 LP             1 S1                 0.0000
     39 ****        -0.4499  -0.3699   1.9467 LP             1 S1                 0.0000
     40 ****         0.2100  -1.5874   2.8119 LP             1 S1                 0.0000
     41 ****        -1.2344   1.0053   0.1422 LP             1 S1                 0.0000
@<TRIPOS>BOND
    1    1    2 1     
    2    1   22 1     
    3    2    3 2     
    4    2    4 1     
    5    4   17 2     
    6    4    5 1     
    7    5    6 2     
    8    6    7 1     
    9    6   23 1     
   10    7    8 1     
   11    7   17 1     
   12    8   18 1     
   13    8   15 1     
   14    8    9 1     
   15    9   10 1     
   16   10   19 1     
   17   10   11 1     
   18   10   13 1     
   19   11   12 1     
   20   11   24 1     
   21   11   25 1     
   22   12   26 1     
   23   13   20 1     
   24   13   14 1     
   25   13   15 1     
   26   14   27 1     
   27   15   21 1     
   28   15   16 1     
   29   16   28 1     
   30    1   29 1     
   31    3   30 1     
   32    3   31 1     
   33    5   32 1     
   34    9   33 1     
   35    9   34 1     
   36   12   35 1     
   37   12   36 1     
   38   14   37 1     
   39   14   38 1     
   40   16   39 1     
   41   16   40 1     
   42   17   41 1     
@<TRIPOS>SUBSTRUCTURE
      1 S1             1
@<TRIPOS>SET
LONE_PAIRS      STATIC     ATOMS    <user>   **** ""
13 29 30 31 32 33 34 35 36 37 38 39 40 41
DONOR_HYDROGENS      STATIC     ATOMS    <user>   **** ""
4 22 26 27 28
ATOM$BLUE        STATIC     ATOMS    COLORGROUP SYSTEM
13 29 30 31 32 33 34 35 36 37 38 39 40 41
ATOM$RED        STATIC     ATOMS    COLORGROUP SYSTEM
4 22 26 27 28
