#       Name:                AV-unprocessed.smi:1671
#       Creating user name   scv26
#       Creation time:       Fri Mar 27 07:43:32 2020


#       File generated by GOLD software.
#

@<TRIPOS>MOLECULE
AV-unprocessed.smi:1671
    50    51     1
SMALL
NO_CHARGES


@<TRIPOS>ATOM
      1 ****        -4.5135  -4.4621   1.7444 C.3            1 S1                 0.0000
      2 ****        -2.7345  -4.8142   1.7418 S.3            1 S1                 0.0000
      3 ****        -2.3464  -4.6270  -0.0243 C.3            1 S1                 0.0000
      4 ****        -2.8861  -5.8116  -0.8463 C.3            1 S1                 0.0000
      5 ****        -0.8400  -4.4238  -0.2303 C.2            1 S1                 0.0000
      6 ****        -0.1081  -5.3748  -0.5086 O.2            1 S1                 0.0000
      7 ****        -0.3854  -3.1710  -0.0804 N.am           1 S1                 0.0000
      8 ****         1.0121  -2.7781  -0.2059 C.3            1 S1                 0.0000
      9 ****         1.1945  -1.2715  -0.2416 C.ar           1 S1                 0.0000
     10 ****         0.4111  -0.4566  -1.0832 C.ar           1 S1                 0.0000
     11 ****         0.6284   0.9345  -1.0828 C.ar           1 S1                 0.0000
     12 ****         1.6246   1.4797  -0.2369 C.ar           1 S1                 0.0000
     13 ****         1.8615   2.8728  -0.2133 N.3            1 S1                 0.0000
     14 ****         3.0226   3.3594   0.5304 C.3            1 S1                 0.0000
     15 ****         3.2955   4.8347   0.1952 C.3            1 S1                 0.0000
     16 ****         2.1229   5.6053   0.4341 O.3            1 S1                 0.0000
     17 ****         1.0340   5.1917  -0.3863 C.3            1 S1                 0.0000
     18 ****        -0.1463   6.1345  -0.1295 C.3            1 S1                 0.0000
     19 ****         0.6837   3.7254  -0.0659 C.3            1 S1                 0.0000
     20 ****         2.3836   0.6874   0.5611 N.ar           1 S1                 0.0000
     21 ****         2.1737  -0.6457   0.5549 C.ar           1 S1                 0.0000
     22 ****        -4.8930  -4.4709   2.7661 H              1 S1                 0.0000
     23 ****        -5.0587  -5.2125   1.1726 H              1 S1                 0.0000
     24 ****        -4.7107  -3.4807   1.3129 H              1 S1                 0.0000
     25 ****        -2.8434  -3.7202  -0.3724 H              1 S1                 0.0000
     26 ****        -2.5927  -5.7345  -1.8939 H              1 S1                 0.0000
     27 ****        -3.9748  -5.8474  -0.8214 H              1 S1                 0.0000
     28 ****        -2.5157  -6.7641  -0.4652 H              1 S1                 0.0000
     29 ****        -1.0480  -2.4467   0.1559 H              1 S1                 0.0000
     30 ****         1.5757  -3.2021   0.6264 H              1 S1                 0.0000
     31 ****         1.4334  -3.1937  -1.1228 H              1 S1                 0.0000
     32 ****        -0.3419  -0.8879  -1.7264 H              1 S1                 0.0000
     33 ****         0.0423   1.5575  -1.7411 H              1 S1                 0.0000
     34 ****         2.8381   3.2475   1.5998 H              1 S1                 0.0000
     35 ****         3.9064   2.7685   0.2870 H              1 S1                 0.0000
     36 ****         4.1046   5.2171   0.8176 H              1 S1                 0.0000
     37 ****         3.6131   4.9455  -0.8429 H              1 S1                 0.0000
     38 ****         1.3239   5.2784  -1.4353 H              1 S1                 0.0000
     39 ****        -1.0057   5.8646  -0.7438 H              1 S1                 0.0000
     40 ****         0.1199   7.1650  -0.3656 H              1 S1                 0.0000
     41 ****        -0.4578   6.1019   0.9150 H              1 S1                 0.0000
     42 ****        -0.1292   3.4093  -0.7175 H              1 S1                 0.0000
     43 ****         0.3184   3.6417   0.9587 H              1 S1                 0.0000
     44 ****         2.8065  -1.2270   1.2093 H              1 S1                 0.0000
     45 ****        -0.4945  -6.2923  -0.6027 LP             1 S1                 0.0000
     46 ****         0.8725  -5.2292  -0.6404 LP             1 S1                 0.0000
     47 ****         2.1495   2.9844  -1.1644 LP             1 S1                 0.0000
     48 ****         2.3239   6.5661   0.2431 LP             1 S1                 0.0000
     49 ****         1.8604   5.5041   1.3937 LP             1 S1                 0.0000
     50 ****         3.0896   1.0862   1.1464 LP             1 S1                 0.0000
@<TRIPOS>BOND
    1    1    2 1     
    2    1   22 1     
    3    1   23 1     
    4    1   24 1     
    5    2    3 1     
    6    3    4 1     
    7    3    5 1     
    8    3   25 1     
    9    4   26 1     
   10    4   27 1     
   11    4   28 1     
   12    5    6 2     
   13    5    7 am    
   14    7    8 1     
   15    7   29 1     
   16    8    9 1     
   17    8   30 1     
   18    8   31 1     
   19    9   21 ar    
   20    9   10 ar    
   21   10   11 ar    
   22   10   32 1     
   23   11   12 ar    
   24   11   33 1     
   25   12   13 1     
   26   12   20 ar    
   27   13   19 1     
   28   13   14 1     
   29   14   15 1     
   30   14   34 1     
   31   14   35 1     
   32   15   16 1     
   33   15   36 1     
   34   15   37 1     
   35   16   17 1     
   36   17   18 1     
   37   17   19 1     
   38   17   38 1     
   39   18   39 1     
   40   18   40 1     
   41   18   41 1     
   42   19   42 1     
   43   19   43 1     
   44   20   21 ar    
   45   21   44 1     
   46    6   45 1     
   47    6   46 1     
   48   13   47 1     
   49   16   48 1     
   50   16   49 1     
   51   20   50 1     
@<TRIPOS>SUBSTRUCTURE
      1 S1             1
@<TRIPOS>SET
LONE_PAIRS      STATIC     ATOMS    <user>   **** ""
6 45 46 47 48 49 50
DONOR_HYDROGENS      STATIC     ATOMS    <user>   **** ""
1 29
ATOM$BLUE        STATIC     ATOMS    COLORGROUP SYSTEM
6 45 46 47 48 49 50
ATOM$RED        STATIC     ATOMS    COLORGROUP SYSTEM
1 29
