AV-unprocessed.smi:774|AV-procd|sdf|3692|dock7
  -GOLD-   22720 1113D 1   1.00000     0.00000
 Structure written by MMmdl.
 37 38  0  0  0  0  0  0  0  0  1 V2000
  145.5191  137.2409  152.6772 C   0  0  0  0  0  0  0  0  0  0  0  0
  145.5622  137.1813  154.2064 C   0  0  0  0  0  0  0  0  0  0  0  0
  147.2271  137.5256  154.8381 S   0  0  0  0  0  0  0  0  0  0  0  0
  147.6631  138.9750  153.8337 C   0  0  1  0  0  0  0  0  0  0  0  0
  146.6663  140.1199  153.9972 C   0  0  0  0  0  0  0  0  0  0  0  0
  147.4323  141.3523  153.5162 C   0  0  0  0  0  0  0  0  0  0  0  0
  148.9078  141.0937  153.8699 C   0  0  1  0  0  0  0  0  0  0  0  0
  149.3213  141.9206  155.0022 N   0  0  0  0  0  0  0  0  0  0  0  0
  150.3898  141.7049  155.7829 C   0  0  0  0  0  0  0  0  0  0  0  0
  151.1700  140.7679  155.6220 O   0  0  0  0  0  0  0  0  0  0  0  0
  150.4783  142.6434  156.7416 N   0  0  0  0  0  0  0  0  0  0  0  0
  151.4175  142.7730  157.8030 C   0  0  0  0  0  0  0  0  0  0  0  0
  151.7840  144.0800  158.1868 C   0  0  0  0  0  0  0  0  0  0  0  0
  152.7051  144.2585  159.2359 C   0  0  0  0  0  0  0  0  0  0  0  0
  153.2294  143.1146  159.8670 C   0  0  0  0  0  0  0  0  0  0  0  0
  152.8928  141.8566  159.5141 N   0  0  0  0  0  0  0  0  0  0  0  0
  152.0083  141.6923  158.5064 C   0  0  0  0  0  0  0  0  0  0  0  0
  149.0093  139.5969  154.2217 C   0  0  0  0  0  0  0  0  0  0  0  0
  144.5158  137.0282  152.3079 H   0  0  0  0  0  0  0  0  0  0  0  0
  146.1976  136.5107  152.2355 H   0  0  0  0  0  0  0  0  0  0  0  0
  145.8052  138.2286  152.3144 H   0  0  0  0  0  0  0  0  0  0  0  0
  144.8637  137.9059  154.6252 H   0  0  0  0  0  0  0  0  0  0  0  0
  145.2501  136.1952  154.5504 H   0  0  0  0  0  0  0  0  0  0  0  0
  147.6902  138.6819  152.7832 H   0  0  0  0  0  0  0  0  0  0  0  0
  145.7434  139.9569  153.4400 H   0  0  0  0  0  0  0  0  0  0  0  0
  146.4044  140.2421  155.0492 H   0  0  0  0  0  0  0  0  0  0  0  0
  147.3328  141.4352  152.4330 H   0  0  0  0  0  0  0  0  0  0  0  0
  147.0381  142.2750  153.9444 H   0  0  0  0  0  0  0  0  0  0  0  0
  149.5226  141.2983  152.9915 H   0  0  0  0  0  0  0  0  0  0  0  0
  148.7407  142.7202  155.2089 H   0  0  0  0  0  0  0  0  0  0  0  0
  149.7612  143.3535  156.7209 H   0  0  0  0  0  0  0  0  0  0  0  0
  151.3638  144.9400  157.6856 H   0  0  0  0  0  0  0  0  0  0  0  0
  153.0016  145.2484  159.5499 H   0  0  0  0  0  0  0  0  0  0  0  0
  153.9368  143.2125  160.6771 H   0  0  0  0  0  0  0  0  0  0  0  0
  151.7869  140.6618  158.2828 H   0  0  0  0  0  0  0  0  0  0  0  0
  149.1785  139.4663  155.2920 H   0  0  0  0  0  0  0  0  0  0  0  0
  149.8408  139.1152  153.7063 H   0  0  0  0  0  0  0  0  0  0  0  0
  1  2  1  0  0  0  0
  1 19  1  0  0  0  0
  1 20  1  0  0  0  0
  1 21  1  0  0  0  0
  2  3  1  0  0  0  0
  2 22  1  0  0  0  0
  2 23  1  0  0  0  0
  3  4  1  0  0  0  0
  4 18  1  0  0  0  0
  4  5  1  0  0  0  0
  4 24  1  0  0  0  0
  5  6  1  0  0  0  0
  5 25  1  0  0  0  0
  5 26  1  0  0  0  0
  6  7  1  0  0  0  0
  6 27  1  0  0  0  0
  6 28  1  0  0  0  0
  7  8  1  0  0  0  0
  7 18  1  0  0  0  0
  7 29  1  0  0  0  0
  8  9  1  0  0  0  0
  8 30  1  0  0  0  0
  9 10  2  0  0  0  0
  9 11  1  0  0  0  0
 11 12  1  0  0  0  0
 11 31  1  0  0  0  0
 12 17  1  0  0  0  0
 12 13  2  0  0  0  0
 13 14  1  0  0  0  0
 13 32  1  0  0  0  0
 14 15  2  0  0  0  0
 14 33  1  0  0  0  0
 15 16  1  0  0  0  0
 15 34  1  0  0  0  0
 16 17  2  0  0  0  0
 17 35  1  0  0  0  0
 18 36  1  0  0  0  0
 18 37  1  0  0  0  0
M  END
> <s_m_source_file>
AV-unprocessed.smi

> <i_m_source_file_index>
774

> <i_lp_mmshare_version>
43012

> <i_f3d_flags>
0

> <s_epik_input>
W0NIM11bQ0gyXVNbQ0BASF0xW0NIMl1bQ0gyXVtDQEhdKFtDSDJdMSlbTkhdQyg9TylbTkhdYzJbY0hdW2NIXVtjSF1uW2NIXTI=

> <s_epik_cmdline>
J2VwaWtfcHl0aG9uJywgJy1waCcsICc3LjAnLCAnLXRuJywgJzgnLCAnLW1hJywgJzIwMCcsICctbWV0YWxfYmluZGluZycsICctaW1hZScsICc8aW5maWxlLm1hZT4nLCAnLW9tYWUnLCAnPG91dGZpbGUubWFlPic=

> <r_epik_Ionization_Penalty>
0.00485718

> <r_epik_Ionization_Penalty_Charging>
0

> <r_epik_Ionization_Penalty_Neutral>
0.00485718

> <r_epik_State_Penalty>
0.00349461

> <r_epik_Charging_Adjusted_Penalty>
0.00349461

> <i_epik_Tot_Q>
0

> <i_epik_Tot_abs_Q>
0

> <r_epik_Metal_State_Penalty>
-0

> <b_epik_Metal_Only>
0

> <s_lp_Force_Field>
OPLS_2005

> <r_lp_Energy>
20.4228

> <b_lp_Chiralities_Consistent>
1

> <s_lp_Variant>
AV-unprocessed.smi:774-2

> <Gold.Version>
5.8.1

> <Gold.Id.Protein>
6NUR|6NUR_protein|mol2

> <Gold.PLP.Fitness>
40.0909

> <Gold.PLP.PLP>
-34.2167

> <Gold.PLP.part.hbond>
-3.0000

> <Gold.PLP.part.metal>
0.0000

> <Gold.PLP.part.buried>
-2.1732

> <Gold.PLP.part.nonpolar>
-28.1707

> <Gold.PLP.part.repulsive>
0.2918

> <Gold.PLP.ligand.clash>
0.0000

> <Gold.PLP.ligand.torsion>
0.5378

> <Gold.PLP.Chemscore.Hbond>
2.3148

> <Gold.PLP.Chemscore.CHOScore>
0.0000

> <Gold.PLP.Chemscore.Metal>
0.0000

> <Gold.Chemscore.Hbonds>
donor molecule, donor type, donor heavy atom, donor atom, acceptor molecule, acceptor atom, score
      L1  H     8    30       P1  8028  0.81
      L1  H    11    31       P1  8028  0.93
      P1  H  7989  7998       L1    10  0.51

> <Gold.PLP.Chemscore.Internal.Correction>
0.0054

> <Gold.Rescore>
     Score         DG    S(hbond)    S(metal)    S(lipo)     H(rot)  DE(clash)    DE(int)     intcor
     18.61     -20.47       2.06        0.00      97.75       1.30       0.13       1.74       ----

> <Gold.Chemscore.Fitness>
18.6083

> <Gold.Chemscore.DG>
-20.4712

> <Gold.Chemscore.ZeroCoef>
-5.4800

> <Gold.Chemscore.Hbond>
2.0636

> <Gold.Chemscore.Metal>
0.0000

> <Gold.Chemscore.Lipo>
97.7537

> <Gold.Chemscore.Internal_Hbond>
0.0000

> <Gold.Chemscore.DEClash>
0.1265

> <Gold.Chemscore.DEInternal>
1.7363

> <Gold.Chemscore.Rot>
1.3041

> <Gold.Chemscore.Internal.Correction>
   9.000000E+99

> <Gold.Chemscore.Hbonds>
donor molecule, donor type, donor heavy atom, donor atom, acceptor molecule, acceptor atom, score
      L1  H     8    30       P1  8028  0.74
      L1  H    11    31       P1  8028  0.89
      P1  H  7989  7998       L1    10  0.20

> <Gold.Chemscore.Hbond.Weighted>
-6.8924

> <Gold.Chemscore.Metal.Weighted>
-0.0000

> <Gold.Chemscore.Lipo.Weighted>
-11.4372

> <Gold.Chemscore.Internal_Hbond.Weighted>
0.0000

> <Gold.Chemscore.DEClash.Weighted>
0.1265

> <Gold.Chemscore.DEInternal.Weighted>
1.7363

> <Gold.Chemscore.Rot.Weighted>
3.3384

> <Gold.Chemscore.Internal.Correction.Weighted>
   9.000000E+99

> <Gold.Protein.RotatedTorsions>
[ 6907 6896 6895 6894 ] final -121.16 input  -60.11 | X-H torsion
[ 7974 7965 7964 7962 ] final  107.55 input  175.53 | X-H torsion
[ 8008 7997 7996 7995 ] final  119.35 input   59.86 | X-H torsion
[ 10167 10162 10161 10158 ] final -160.31 input  -65.29 | X-H torsion
[ 10718 10713 10712 10709 ] final  122.66 input   66.30 | X-H torsion
[ 10763 10752 10751 10750 ] final -125.34 input  -60.55 | X-H torsion
[ 11005 11000 10999 10996 ] final  -10.66 input  -57.11 | X-H torsion

> <Gold.Protein.ActiveResidues>
 VAL166  LYS551  ARG553  GLY616  TRP617  ASP618  TYR619  PRO620  LYS621  CYS622 
 ASP623  PHE694  ASN695  SER759  ASP760  ASP761  ALA762  ILE779  LEU786  VAL792 
 PHE793  MET794  SER795  GLU796  ALA797  LYS798  CYS799  TRP800  GLU811  SER814 

> <Gold.Protein.RotatedAtoms>
  150.8458  133.7863  159.3043 H   0  0  0  0  0  0  0  0  0  0  0  0  # atno 6907 bound_to 6896
  151.5551  135.1065  159.9968 H   0  0  0  0  0  0  0  0  0  0  0  0  # atno 6908 bound_to 6896
  152.4512  133.7591  159.6792 H   0  0  0  0  0  0  0  0  0  0  0  0  # atno 6909 bound_to 6896
  145.2922  139.2596  143.3859 H   0  0  0  0  0  0  0  0  0  0  0  0  # atno 7974 bound_to 7965
  156.2592  140.2855  156.0978 H   0  0  0  0  0  0  0  0  0  0  0  0  # atno 8008 bound_to 7997
  155.1392  140.0395  157.2812 H   0  0  0  0  0  0  0  0  0  0  0  0  # atno 8009 bound_to 7997
  154.6542  140.2551  155.7186 H   0  0  0  0  0  0  0  0  0  0  0  0  # atno 8010 bound_to 7997
  139.6549  144.0017  152.2187 H   0  0  0  0  0  0  0  0  0  0  0  0  # atno 10167 bound_to 10162
  157.5725  131.1082  150.8340 H   0  0  0  0  0  0  0  0  0  0  0  0  # atno 10718 bound_to 10713
  154.8734  135.4033  154.3251 H   0  0  0  0  0  0  0  0  0  0  0  0  # atno 10763 bound_to 10752
  153.4074  135.7020  153.6389 H   0  0  0  0  0  0  0  0  0  0  0  0  # atno 10764 bound_to 10752
  153.5106  135.3708  155.2555 H   0  0  0  0  0  0  0  0  0  0  0  0  # atno 10765 bound_to 10752
  140.7470  133.8623  155.9014 H   0  0  0  0  0  0  0  0  0  0  0  0  # atno 11005 bound_to 11000
  146.3181  140.3416  142.8648 LP  0  0  0  0  0  0  0  0  0  0  0  0  # atno 17320 bound_to 7965
  144.9163  140.7816  143.5776 LP  0  0  0  0  0  0  0  0  0  0  0  0  # atno 17321 bound_to 7965
  139.9741  144.6473  150.7961 LP  0  0  0  0  0  0  0  0  0  0  0  0  # atno 17342 bound_to 10162
  140.7554  143.3046  151.2994 LP  0  0  0  0  0  0  0  0  0  0  0  0  # atno 17343 bound_to 10162
  156.8807  130.5178  149.5291 LP  0  0  0  0  0  0  0  0  0  0  0  0  # atno 17370 bound_to 10713
  156.0770  130.5790  150.9493 LP  0  0  0  0  0  0  0  0  0  0  0  0  # atno 17371 bound_to 10713
  140.9785  134.1437  157.4515 LP  0  0  0  0  0  0  0  0  0  0  0  0  # atno 17394 bound_to 11000
  139.8795  135.0002  156.6000 LP  0  0  0  0  0  0  0  0  0  0  0  0  # atno 17395 bound_to 11000

$$$$
