AV-unprocessed.smi:1224|AV-procd|sdf|5132|dock2
  -GOLD-   22720 4193D 1   1.00000     0.00000
 Structure written by MMmdl.
 43 45  0  0  0  0  0  0  0  0  1 V2000
  152.7764  142.6415  160.6965 C   0  0  0  0  0  0  0  0  0  0  0  0
  152.1278  142.3094  159.3642 C   0  0  0  0  0  0  0  0  0  0  0  0
  152.6227  141.2204  158.6114 C   0  0  0  0  0  0  0  0  0  0  0  0
  152.0471  140.8783  157.3680 C   0  0  0  0  0  0  0  0  0  0  0  0
  152.3661  139.8677  156.4770 N   0  0  0  0  0  0  0  0  0  0  0  0
  151.4725  140.0691  155.5127 C   0  0  0  0  0  0  0  0  0  0  0  0
  150.6120  141.0927  155.6737 N   0  0  0  0  0  0  0  0  0  0  0  0
  149.5584  141.5063  154.7639 C   0  0  0  0  0  0  0  0  0  0  0  0
  148.6256  140.3437  154.3750 C   0  0  2  0  0  0  0  0  0  0  0  0
  149.3209  139.4677  153.5093 O   0  0  0  0  0  0  0  0  0  0  0  0
  147.3654  140.8429  153.6496 C   0  0  0  0  0  0  0  0  0  0  0  0
  146.4349  139.7480  153.3923 N   0  0  0  0  0  0  0  0  0  0  0  0
  146.6882  139.0610  152.1311 C   0  0  0  0  0  0  0  0  0  0  0  0
  145.8853  137.8094  152.0107 C   0  0  0  0  0  0  0  0  0  0  0  0
  146.0124  136.8184  151.0705 C   0  0  0  0  0  0  0  0  0  0  0  0
  145.0825  135.7525  151.2495 C   0  0  0  0  0  0  0  0  0  0  0  0
  144.2567  135.9438  152.3252 C   0  0  0  0  0  0  0  0  0  0  0  0
  144.6073  137.4425  153.1420 S   0  0  0  0  0  0  0  0  0  0  0  0
  150.9545  141.6619  156.8948 C   0  0  0  0  0  0  0  0  0  0  0  0
  150.4527  142.7472  157.6344 C   0  0  0  0  0  0  0  0  0  0  0  0
  151.0392  143.0752  158.8746 C   0  0  0  0  0  0  0  0  0  0  0  0
  150.4890  144.2477  159.6669 C   0  0  0  0  0  0  0  0  0  0  0  0
  153.5984  141.9610  160.9200 H   0  0  0  0  0  0  0  0  0  0  0  0
  152.0492  142.5646  161.5050 H   0  0  0  0  0  0  0  0  0  0  0  0
  153.1767  143.6554  160.6844 H   0  0  0  0  0  0  0  0  0  0  0  0
  153.4511  140.6360  158.9839 H   0  0  0  0  0  0  0  0  0  0  0  0
  151.4390  139.4348  154.6388 H   0  0  0  0  0  0  0  0  0  0  0  0
  148.9890  142.3012  155.2471 H   0  0  0  0  0  0  0  0  0  0  0  0
  150.0142  141.9454  153.8751 H   0  0  0  0  0  0  0  0  0  0  0  0
  148.3439  139.7983  155.2774 H   0  0  0  0  0  0  0  0  0  0  0  0
  149.2323  139.7920  152.6259 H   0  0  0  0  0  0  0  0  0  0  0  0
  146.8682  141.5845  154.2763 H   0  0  0  0  0  0  0  0  0  0  0  0
  147.6332  141.3529  152.7231 H   0  0  0  0  0  0  0  0  0  0  0  0
  145.4869  140.1109  153.3912 H   0  0  0  0  0  0  0  0  0  0  0  0
  146.4621  139.7239  151.2949 H   0  0  0  0  0  0  0  0  0  0  0  0
  147.7472  138.8140  152.0494 H   0  0  0  0  0  0  0  0  0  0  0  0
  146.7359  136.8216  150.2688 H   0  0  0  0  0  0  0  0  0  0  0  0
  145.0530  134.8952  150.5934 H   0  0  0  0  0  0  0  0  0  0  0  0
  143.4684  135.2997  152.6862 H   0  0  0  0  0  0  0  0  0  0  0  0
  149.6223  143.3206  157.2497 H   0  0  0  0  0  0  0  0  0  0  0  0
  149.6693  144.7354  159.1384 H   0  0  0  0  0  0  0  0  0  0  0  0
  151.2662  144.9927  159.8385 H   0  0  0  0  0  0  0  0  0  0  0  0
  150.1115  143.9111  160.6327 H   0  0  0  0  0  0  0  0  0  0  0  0
  1  2  1  0  0  0  0
  1 23  1  0  0  0  0
  1 24  1  0  0  0  0
  1 25  1  0  0  0  0
  2 21  1  0  0  0  0
  2  3  2  0  0  0  0
  3  4  1  0  0  0  0
  3 26  1  0  0  0  0
  4 19  2  0  0  0  0
  4  5  1  0  0  0  0
  5  6  2  0  0  0  0
  6  7  1  0  0  0  0
  6 27  1  0  0  0  0
  7  8  1  0  0  0  0
  7 19  1  0  0  0  0
  8  9  1  0  0  0  0
  8 28  1  0  0  0  0
  8 29  1  0  0  0  0
  9 10  1  0  0  0  0
  9 11  1  0  0  0  0
  9 30  1  0  0  0  0
 10 31  1  0  0  0  0
 11 12  1  0  0  0  0
 11 32  1  0  0  0  0
 11 33  1  0  0  0  0
 12 13  1  0  0  0  0
 12 34  1  0  0  0  0
 13 14  1  0  0  0  0
 13 35  1  0  0  0  0
 13 36  1  0  0  0  0
 14 18  1  0  0  0  0
 14 15  2  0  0  0  0
 15 16  1  0  0  0  0
 15 37  1  0  0  0  0
 16 17  2  0  0  0  0
 16 38  1  0  0  0  0
 17 18  1  0  0  0  0
 17 39  1  0  0  0  0
 19 20  1  0  0  0  0
 20 21  2  0  0  0  0
 20 40  1  0  0  0  0
 21 22  1  0  0  0  0
 22 41  1  0  0  0  0
 22 42  1  0  0  0  0
 22 43  1  0  0  0  0
M  END
> <s_m_source_file>
AV-unprocessed.smi

> <i_m_source_file_index>
1224

> <i_lp_mmshare_version>
43012

> <i_f3d_flags>
0

> <s_epik_input>
W0NIM11jKFtjSF0xKWMoW0NIM10pW2NIXWMoYzEyKW4oW2NIXW4yKVtDSDJdW0NASF0oW09IXSlbQ0gyXVtOSF1bQ0gyXWMzW2NIXVtjSF1bY0hdczM=

> <s_epik_cmdline>
J2VwaWtfcHl0aG9uJywgJy1waCcsICc3LjAnLCAnLXRuJywgJzgnLCAnLW1hJywgJzIwMCcsICctbWV0YWxfYmluZGluZycsICctaW1hZScsICc8aW5maWxlLm1hZT4nLCAnLW9tYWUnLCAnPG91dGZpbGUubWFlPic=

> <r_epik_Ionization_Penalty>
1.55566

> <r_epik_Ionization_Penalty_Charging>
0

> <r_epik_Ionization_Penalty_Neutral>
1.55566

> <r_epik_State_Penalty>
1.63945

> <r_epik_Charging_Adjusted_Penalty>
1.63945

> <i_epik_Tot_Q>
0

> <i_epik_Tot_abs_Q>
0

> <r_epik_Metal_State_Penalty>
1.52326

> <b_epik_Metal_Only>
0

> <s_lp_Force_Field>
OPLS_2005

> <r_lp_Energy>
13.7285

> <b_lp_Chiralities_Consistent>
1

> <s_lp_Variant>
AV-unprocessed.smi:1224-5

> <Gold.Version>
5.8.1

> <Gold.Id.Protein>
6NUR|6NUR_protein|mol2

> <Gold.PLP.Fitness>
54.9619

> <Gold.PLP.PLP>
-47.2188

> <Gold.PLP.part.hbond>
-2.9051

> <Gold.PLP.part.metal>
0.0000

> <Gold.PLP.part.buried>
2.3367

> <Gold.PLP.part.nonpolar>
-44.8933

> <Gold.PLP.part.repulsive>
0.0000

> <Gold.PLP.ligand.clash>
0.0200

> <Gold.PLP.ligand.torsion>
0.4322

> <Gold.PLP.Chemscore.Hbond>
2.8038

> <Gold.PLP.Chemscore.CHOScore>
0.0000

> <Gold.PLP.Chemscore.Metal>
0.0000

> <Gold.Chemscore.Hbonds>
donor molecule, donor type, donor heavy atom, donor atom, acceptor molecule, acceptor atom, score
      L1  H    10    31       P1  7957  1.00
      L1  H    12    34       P1 10175  0.94
      P1  H  7997  8010       L1     5  1.00

> <Gold.PLP.Chemscore.Internal.Correction>
0.2162

> <Gold.Rescore>
     Score         DG    S(hbond)    S(metal)    S(lipo)     H(rot)  DE(clash)    DE(int)     intcor
     18.58     -21.19       1.93        0.00     129.74       2.32       0.62       1.99       ----

> <Gold.Chemscore.Fitness>
18.5801

> <Gold.Chemscore.DG>
-21.1891

> <Gold.Chemscore.ZeroCoef>
-5.4800

> <Gold.Chemscore.Hbond>
1.9349

> <Gold.Chemscore.Metal>
0.0000

> <Gold.Chemscore.Lipo>
129.7354

> <Gold.Chemscore.Internal_Hbond>
0.0000

> <Gold.Chemscore.DEClash>
0.6203

> <Gold.Chemscore.DEInternal>
1.9887

> <Gold.Chemscore.Rot>
2.3173

> <Gold.Chemscore.Internal.Correction>
   9.000000E+99

> <Gold.Chemscore.Hbonds>
donor molecule, donor type, donor heavy atom, donor atom, acceptor molecule, acceptor atom, score
      L1  H    10    31       P1  7957  0.93
      L1  H    12    34       P1 10175  0.87
      P1  H  7997  8010       L1     5  0.29

> <Gold.Chemscore.Hbond.Weighted>
-6.4625

> <Gold.Chemscore.Metal.Weighted>
-0.0000

> <Gold.Chemscore.Lipo.Weighted>
-15.1790

> <Gold.Chemscore.Internal_Hbond.Weighted>
0.0000

> <Gold.Chemscore.DEClash.Weighted>
0.6203

> <Gold.Chemscore.DEInternal.Weighted>
1.9887

> <Gold.Chemscore.Rot.Weighted>
5.9324

> <Gold.Chemscore.Internal.Correction.Weighted>
   9.000000E+99

> <Gold.Protein.RotatedTorsions>
[ 6907 6896 6895 6894 ] final   31.76 input  -60.11 | X-H torsion
[ 7974 7965 7964 7962 ] final  175.30 input  175.53 | X-H torsion
[ 8008 7997 7996 7995 ] final   81.23 input   59.86 | X-H torsion
[ 10167 10162 10161 10158 ] final -159.64 input  -65.29 | X-H torsion
[ 10718 10713 10712 10709 ] final -130.15 input   66.30 | X-H torsion
[ 10763 10752 10751 10750 ] final  119.74 input  -60.55 | X-H torsion
[ 11005 11000 10999 10996 ] final  117.00 input  -57.11 | X-H torsion

> <Gold.Protein.ActiveResidues>
 VAL166  LYS551  ARG553  GLY616  TRP617  ASP618  TYR619  PRO620  LYS621  CYS622 
 ASP623  PHE694  ASN695  SER759  ASP760  ASP761  ALA762  ILE779  LEU786  VAL792 
 PHE793  MET794  SER795  GLU796  ALA797  LYS798  CYS799  TRP800  GLU811  SER814 

> <Gold.Protein.RotatedAtoms>
  152.0649  134.9571  160.0574 H   0  0  0  0  0  0  0  0  0  0  0  0  # atno 6907 bound_to 6896
  152.0920  133.4200  159.4556 H   0  0  0  0  0  0  0  0  0  0  0  0  # atno 6908 bound_to 6896
  150.6837  134.2780  159.4659 H   0  0  0  0  0  0  0  0  0  0  0  0  # atno 6909 bound_to 6896
  144.7204  139.9926  143.6440 H   0  0  0  0  0  0  0  0  0  0  0  0  # atno 7974 bound_to 7965
  155.8943  140.3437  155.5979 H   0  0  0  0  0  0  0  0  0  0  0  0  # atno 8008 bound_to 7997
  155.7575  140.0828  157.2190 H   0  0  0  0  0  0  0  0  0  0  0  0  # atno 8009 bound_to 7997
  154.4036  140.1542  156.2781 H   0  0  0  0  0  0  0  0  0  0  0  0  # atno 8010 bound_to 7997
  139.6600  143.9930  152.2219 H   0  0  0  0  0  0  0  0  0  0  0  0  # atno 10167 bound_to 10162
  156.2116  130.6922  151.0656 H   0  0  0  0  0  0  0  0  0  0  0  0  # atno 10718 bound_to 10713
  153.5878  135.3471  155.2899 H   0  0  0  0  0  0  0  0  0  0  0  0  # atno 10763 bound_to 10752
  154.8657  135.4197  154.2550 H   0  0  0  0  0  0  0  0  0  0  0  0  # atno 10764 bound_to 10752
  153.3350  135.7046  153.6986 H   0  0  0  0  0  0  0  0  0  0  0  0  # atno 10765 bound_to 10752
  139.9060  134.9605  156.7284 H   0  0  0  0  0  0  0  0  0  0  0  0  # atno 11005 bound_to 11000
  146.0400  139.3412  143.0703 LP  0  0  0  0  0  0  0  0  0  0  0  0  # atno 17320 bound_to 7965
  145.8347  140.9612  143.0830 LP  0  0  0  0  0  0  0  0  0  0  0  0  # atno 17321 bound_to 7965
  139.9666  144.6522  150.8028 LP  0  0  0  0  0  0  0  0  0  0  0  0  # atno 17342 bound_to 10162
  140.7576  143.3089  151.2893 LP  0  0  0  0  0  0  0  0  0  0  0  0  # atno 17343 bound_to 10162
  157.7041  131.0764  150.6724 LP  0  0  0  0  0  0  0  0  0  0  0  0  # atno 17370 bound_to 10713
  156.6784  130.4560  149.5635 LP  0  0  0  0  0  0  0  0  0  0  0  0  # atno 17371 bound_to 10713
  140.6945  133.9361  155.7986 LP  0  0  0  0  0  0  0  0  0  0  0  0  # atno 17394 bound_to 11000
  141.0417  134.0611  157.3893 LP  0  0  0  0  0  0  0  0  0  0  0  0  # atno 17395 bound_to 11000

$$$$
