AV-unprocessed.smi:3322|AV-procd|sdf|12775|dock9
  -GOLD-   2272019123D 1   1.00000     0.00000
 Structure written by MMmdl.
 38 39  0  0  0  0  0  0  0  0  1 V2000
  148.9593  135.3059  156.5326 C   0  0  0  0  0  0  0  0  0  0  0  0
  149.2973  135.8468  155.1309 C   0  0  2  0  0  0  0  0  0  0  0  0
  149.2562  134.7595  154.1349 N   0  0  0  0  0  0  0  0  0  0  0  0
  148.0623  133.9258  154.2332 C   0  0  0  0  0  0  0  0  0  0  0  0
  148.0564  132.8102  153.1669 C   0  0  0  0  0  0  0  0  0  0  0  0
  146.8597  132.8093  152.3437 N   0  0  0  0  0  0  0  0  0  0  0  0
  146.3958  133.8009  151.5054 C   0  0  0  0  0  0  0  0  0  0  0  0
  145.2531  133.3360  150.9196 C   0  0  0  0  0  0  0  0  0  0  0  0
  145.0937  132.0354  151.4740 C   0  0  0  0  0  0  0  0  0  0  0  0
  146.0541  131.7244  152.3292 N   0  0  0  0  0  0  0  0  0  0  0  0
  150.6791  136.5342  155.1411 C   0  0  0  0  0  0  0  0  0  0  0  0
  151.6372  135.9105  155.6026 O   0  0  0  0  0  0  0  0  0  0  0  0
  150.8211  137.7875  154.6385 N   0  0  0  0  0  0  0  0  0  0  0  0
  152.1187  138.4688  154.5654 C   0  0  0  0  0  0  0  0  0  0  0  0
  152.0735  139.7171  155.4626 C   0  0  0  0  0  0  0  0  0  0  0  0
  151.0176  140.5714  155.0330 O   0  0  0  0  0  0  0  0  0  0  0  0
  149.7427  139.9373  155.0712 C   0  0  0  0  0  0  0  0  0  0  0  0
  149.7522  138.6833  154.1777 C   0  0  0  0  0  0  0  0  0  0  0  0
  148.9908  136.0941  157.2850 H   0  0  0  0  0  0  0  0  0  0  0  0
  149.6628  134.5304  156.8389 H   0  0  0  0  0  0  0  0  0  0  0  0
  147.9594  134.8734  156.5643 H   0  0  0  0  0  0  0  0  0  0  0  0
  148.5541  136.5843  154.8425 H   0  0  0  0  0  0  0  0  0  0  0  0
  149.3186  135.1197  153.1928 H   0  0  0  0  0  0  0  0  0  0  0  0
  148.0875  133.4529  155.2151 H   0  0  0  0  0  0  0  0  0  0  0  0
  147.1441  134.5134  154.2046 H   0  0  0  0  0  0  0  0  0  0  0  0
  148.9344  132.8914  152.5239 H   0  0  0  0  0  0  0  0  0  0  0  0
  148.1241  131.8380  153.6565 H   0  0  0  0  0  0  0  0  0  0  0  0
  146.9169  134.7400  151.3905 H   0  0  0  0  0  0  0  0  0  0  0  0
  144.6273  133.8462  150.2026 H   0  0  0  0  0  0  0  0  0  0  0  0
  144.3148  131.3126  151.2812 H   0  0  0  0  0  0  0  0  0  0  0  0
  152.9551  137.8349  154.8622 H   0  0  0  0  0  0  0  0  0  0  0  0
  152.3153  138.7570  153.5317 H   0  0  0  0  0  0  0  0  0  0  0  0
  151.9311  139.4406  156.5086 H   0  0  0  0  0  0  0  0  0  0  0  0
  153.0154  140.2619  155.4004 H   0  0  0  0  0  0  0  0  0  0  0  0
  149.4867  139.6786  156.0999 H   0  0  0  0  0  0  0  0  0  0  0  0
  148.9882  140.6426  154.7230 H   0  0  0  0  0  0  0  0  0  0  0  0
  149.9400  138.9612  153.1397 H   0  0  0  0  0  0  0  0  0  0  0  0
  148.7568  138.2474  154.1945 H   0  0  0  0  0  0  0  0  0  0  0  0
  1  2  1  0  0  0  0
  1 19  1  0  0  0  0
  1 20  1  0  0  0  0
  1 21  1  0  0  0  0
  2  3  1  0  0  0  0
  2 11  1  0  0  0  0
  2 22  1  0  0  0  0
  3  4  1  0  0  0  0
  3 23  1  0  0  0  0
  4  5  1  0  0  0  0
  4 24  1  0  0  0  0
  4 25  1  0  0  0  0
  5  6  1  0  0  0  0
  5 26  1  0  0  0  0
  5 27  1  0  0  0  0
  6 10  1  0  0  0  0
  6  7  1  0  0  0  0
  7  8  2  0  0  0  0
  7 28  1  0  0  0  0
  8  9  1  0  0  0  0
  8 29  1  0  0  0  0
  9 10  2  0  0  0  0
  9 30  1  0  0  0  0
 11 12  2  0  0  0  0
 11 13  1  0  0  0  0
 13 18  1  0  0  0  0
 13 14  1  0  0  0  0
 14 15  1  0  0  0  0
 14 31  1  0  0  0  0
 14 32  1  0  0  0  0
 15 16  1  0  0  0  0
 15 33  1  0  0  0  0
 15 34  1  0  0  0  0
 16 17  1  0  0  0  0
 17 18  1  0  0  0  0
 17 35  1  0  0  0  0
 17 36  1  0  0  0  0
 18 37  1  0  0  0  0
 18 38  1  0  0  0  0
M  END
> <s_m_source_file>
AV-unprocessed.smi

> <i_m_source_file_index>
3322

> <i_lp_mmshare_version>
43012

> <i_f3d_flags>
0

> <s_epik_input>
W0NIMl0xW0NIMl1PW0NIMl1bQ0gyXU4xQyg9TylbQ0BIXShbQ0gzXSlbTkhdW0NIMl1bQ0gyXW4yW2NIXVtjSF1bY0hdbjI=

> <s_epik_cmdline>
J2VwaWtfcHl0aG9uJywgJy1waCcsICc3LjAnLCAnLXRuJywgJzgnLCAnLW1hJywgJzIwMCcsICctbWV0YWxfYmluZGluZycsICctaW1hZScsICc8aW5maWxlLm1hZT4nLCAnLW9tYWUnLCAnPG91dGZpbGUubWFlPic=

> <r_lp_tautomer_probability>
1

> <r_epik_Ionization_Penalty>
0.511228

> <r_epik_Ionization_Penalty_Charging>
0

> <r_epik_Ionization_Penalty_Neutral>
0.511228

> <r_epik_State_Penalty>
0.51753

> <r_epik_Charging_Adjusted_Penalty>
0.51753

> <i_epik_Tot_Q>
0

> <i_epik_Tot_abs_Q>
0

> <r_epik_Metal_State_Penalty>
0.517012

> <b_epik_Metal_Only>
0

> <s_lp_Force_Field>
OPLS_2005

> <r_lp_Energy>
29.3693

> <b_lp_Chiralities_Consistent>
1

> <s_lp_Variant>
AV-unprocessed.smi:3322-3

> <Gold.Version>
5.8.1

> <Gold.Id.Protein>
6NUR|6NUR_protein|mol2

> <Gold.PLP.Fitness>
43.1107

> <Gold.PLP.PLP>
-34.1265

> <Gold.PLP.part.hbond>
-3.0000

> <Gold.PLP.part.metal>
0.0000

> <Gold.PLP.part.buried>
-4.3116

> <Gold.PLP.part.nonpolar>
-27.6834

> <Gold.PLP.part.repulsive>
0.2459

> <Gold.PLP.ligand.clash>
0.0000

> <Gold.PLP.ligand.torsion>
0.6354

> <Gold.PLP.Chemscore.Hbond>
2.3968

> <Gold.PLP.Chemscore.CHOScore>
1.0000

> <Gold.PLP.Chemscore.Metal>
0.0000

> <Gold.Chemscore.Hbonds>
donor molecule, donor type, donor heavy atom, donor atom, acceptor molecule, acceptor atom, score
      L1  H     3    23       P1  7948  0.60
      P1  H  7989  7998       L1    16  0.82
      P1  H 10752 10765       L1    12  1.00
      L1  C     7    28       P1  7948  1.00

> <Gold.PLP.Chemscore.Internal.Correction>
0.0646

> <Gold.Rescore>
     Score         DG    S(hbond)    S(metal)    S(lipo)     H(rot)  DE(clash)    DE(int)     intcor
     14.15     -14.81       1.72        0.00      70.89       1.84       0.02       0.64       ----

> <Gold.Chemscore.Fitness>
14.1462

> <Gold.Chemscore.DG>
-14.8071

> <Gold.Chemscore.ZeroCoef>
-5.4800

> <Gold.Chemscore.Hbond>
1.7228

> <Gold.Chemscore.Metal>
0.0000

> <Gold.Chemscore.Lipo>
70.8902

> <Gold.Chemscore.Internal_Hbond>
0.0000

> <Gold.Chemscore.DEClash>
0.0179

> <Gold.Chemscore.DEInternal>
0.6430

> <Gold.Chemscore.Rot>
1.8442

> <Gold.Chemscore.Internal.Correction>
   9.000000E+99

> <Gold.Chemscore.Hbonds>
donor molecule, donor type, donor heavy atom, donor atom, acceptor molecule, acceptor atom, score
      L1  H     3    23       P1  7948  0.04
      P1  H  7989  7998       L1    16  0.13
      P1  H 10752 10765       L1    12  0.99

> <Gold.Chemscore.Hbond.Weighted>
-5.7541

> <Gold.Chemscore.Metal.Weighted>
-0.0000

> <Gold.Chemscore.Lipo.Weighted>
-8.2942

> <Gold.Chemscore.Internal_Hbond.Weighted>
0.0000

> <Gold.Chemscore.DEClash.Weighted>
0.0179

> <Gold.Chemscore.DEInternal.Weighted>
0.6430

> <Gold.Chemscore.Rot.Weighted>
4.7212

> <Gold.Chemscore.Internal.Correction.Weighted>
   9.000000E+99

> <Gold.Protein.RotatedTorsions>
[ 6907 6896 6895 6894 ] final   70.62 input  -60.11 | X-H torsion
[ 7974 7965 7964 7962 ] final -174.82 input  175.53 | X-H torsion
[ 8008 7997 7996 7995 ] final  -56.14 input   59.86 | X-H torsion
[ 10167 10162 10161 10158 ] final -162.94 input  -65.29 | X-H torsion
[ 10718 10713 10712 10709 ] final   37.21 input   66.30 | X-H torsion
[ 10763 10752 10751 10750 ] final -163.96 input  -60.55 | X-H torsion
[ 11005 11000 10999 10996 ] final  -68.64 input  -57.11 | X-H torsion

> <Gold.Protein.ActiveResidues>
 VAL166  LYS551  ARG553  GLY616  TRP617  ASP618  TYR619  PRO620  LYS621  CYS622 
 ASP623  PHE694  ASN695  SER759  ASP760  ASP761  ALA762  ILE779  LEU786  VAL792 
 PHE793  MET794  SER795  GLU796  ALA797  LYS798  CYS799  TRP800  GLU811  SER814 

> <Gold.Protein.RotatedAtoms>
  152.4761  134.4841  159.9674 H   0  0  0  0  0  0  0  0  0  0  0  0  # atno 6907 bound_to 6896
  151.4857  133.3530  159.2853 H   0  0  0  0  0  0  0  0  0  0  0  0  # atno 6908 bound_to 6896
  150.8800  134.8216  159.7279 H   0  0  0  0  0  0  0  0  0  0  0  0  # atno 6909 bound_to 6896
  144.7130  140.1415  143.6391 H   0  0  0  0  0  0  0  0  0  0  0  0  # atno 7974 bound_to 7965
  154.4219  140.1136  156.5589 H   0  0  0  0  0  0  0  0  0  0  0  0  # atno 8008 bound_to 7997
  155.6332  140.3496  155.4671 H   0  0  0  0  0  0  0  0  0  0  0  0  # atno 8009 bound_to 7997
  155.9931  140.1183  157.0609 H   0  0  0  0  0  0  0  0  0  0  0  0  # atno 8010 bound_to 7997
  139.6356  144.0357  152.2051 H   0  0  0  0  0  0  0  0  0  0  0  0  # atno 10167 bound_to 10162
  157.3442  130.7564  149.6933 H   0  0  0  0  0  0  0  0  0  0  0  0  # atno 10718 bound_to 10713
  154.7073  135.2999  154.9250 H   0  0  0  0  0  0  0  0  0  0  0  0  # atno 10763 bound_to 10752
  154.0163  135.6688  153.4773 H   0  0  0  0  0  0  0  0  0  0  0  0  # atno 10764 bound_to 10752
  153.0727  135.5052  154.8252 H   0  0  0  0  0  0  0  0  0  0  0  0  # atno 10765 bound_to 10752
  141.1536  133.6745  156.6477 H   0  0  0  0  0  0  0  0  0  0  0  0  # atno 11005 bound_to 11000
  145.9198  139.2538  143.1388 LP  0  0  0  0  0  0  0  0  0  0  0  0  # atno 17320 bound_to 7965
  145.9632  140.8819  143.0200 LP  0  0  0  0  0  0  0  0  0  0  0  0  # atno 17321 bound_to 7965
  140.0033  144.6277  150.7711 LP  0  0  0  0  0  0  0  0  0  0  0  0  # atno 17342 bound_to 10162
  140.7463  143.2889  151.3386 LP  0  0  0  0  0  0  0  0  0  0  0  0  # atno 17343 bound_to 10162
  155.9712  130.4159  150.4204 LP  0  0  0  0  0  0  0  0  0  0  0  0  # atno 17370 bound_to 10713
  157.2257  131.0492  151.2521 LP  0  0  0  0  0  0  0  0  0  0  0  0  # atno 17371 bound_to 10713
  140.3344  134.7902  157.4350 LP  0  0  0  0  0  0  0  0  0  0  0  0  # atno 17394 bound_to 11000
  140.0990  134.5498  155.8371 LP  0  0  0  0  0  0  0  0  0  0  0  0  # atno 17395 bound_to 11000

$$$$
