#       Name:                AV-unprocessed.smi:1122
#       Creating user name   scv26
#       Creation time:       Fri Mar 27 03:39:00 2020


#       File generated by GOLD software.
#

@<TRIPOS>MOLECULE
AV-unprocessed.smi:1122
    45    46     1
SMALL
NO_CHARGES


@<TRIPOS>ATOM
      1 ****        -3.4553   3.6519   1.0279 C.3            1 S1                 0.0000
      2 ****        -1.9766   4.0362   1.1190 C.3            1 S1                 0.0000
      3 ****        -1.1948   2.8459   1.1023 O.3            1 S1                 0.0000
      4 ****         0.1805   2.9521   1.1883 C.ar           1 S1                 0.0000
      5 ****         0.7288   4.1905   1.2677 N.ar           1 S1                 0.0000
      6 ****         2.0703   4.2950   1.3583 C.ar           1 S1                 0.0000
      7 ****         2.9294   3.1812   1.3808 C.ar           1 S1                 0.0000
      8 ****         2.3633   1.8956   1.2977 C.ar           1 S1                 0.0000
      9 ****         0.9569   1.7697   1.1873 C.ar           1 S1                 0.0000
     10 ****         0.2747   0.5234   1.1135 N.am           1 S1                 0.0000
     11 ****         0.7521  -0.6813   0.7582 C.2            1 S1                 0.0000
     12 ****         1.9105  -0.9179   0.4169 O.2            1 S1                 0.0000
     13 ****        -0.2113  -1.6120   0.8030 N.am           1 S1                 0.0000
     14 ****        -0.0420  -3.0238   0.4740 C.3            1 S1                 0.0000
     15 ****        -0.4157  -3.3237  -0.9881 C.3            1 S1                 0.0000
     16 ****         0.5153  -2.7141  -2.0376 C.3            1 S1                 0.0000
     17 ****         0.2993  -3.6419  -3.2104 C.3            1 S1                 0.0000
     18 ****         0.1816  -4.9946  -2.5151 C.3            1 S1                 0.0000
     19 ****        -0.3696  -4.7282  -1.2276 O.3            1 S1                 0.0000
     20 ****        -4.0900   4.5381   1.0445 H              1 S1                 0.0000
     21 ****        -3.7464   3.0165   1.8646 H              1 S1                 0.0000
     22 ****        -3.6625   3.1090   0.1054 H              1 S1                 0.0000
     23 ****        -1.7122   4.6780   0.2771 H              1 S1                 0.0000
     24 ****        -1.8006   4.5947   2.0398 H              1 S1                 0.0000
     25 ****         2.4704   5.2961   1.4210 H              1 S1                 0.0000
     26 ****         3.9984   3.3094   1.4645 H              1 S1                 0.0000
     27 ****         3.0176   1.0389   1.3349 H              1 S1                 0.0000
     28 ****        -0.7172   0.5686   1.2961 H              1 S1                 0.0000
     29 ****        -1.1353  -1.3231   1.0891 H              1 S1                 0.0000
     30 ****         0.9746  -3.3584   0.6873 H              1 S1                 0.0000
     31 ****        -0.6942  -3.5936   1.1362 H              1 S1                 0.0000
     32 ****        -1.4382  -2.9969  -1.1849 H              1 S1                 0.0000
     33 ****         0.2807  -1.6739  -2.2652 H              1 S1                 0.0000
     34 ****         1.5546  -2.7678  -1.7097 H              1 S1                 0.0000
     35 ****        -0.6350  -3.3947  -3.7163 H              1 S1                 0.0000
     36 ****         1.1064  -3.6061  -3.9426 H              1 S1                 0.0000
     37 ****        -0.4351  -5.6975  -3.0757 H              1 S1                 0.0000
     38 ****         1.1676  -5.4411  -2.3816 H              1 S1                 0.0000
     39 ****        -1.4001   2.3713   0.2464 LP             1 S1                 0.0000
     40 ****        -1.4953   2.2859   1.8743 LP             1 S1                 0.0000
     41 ****         0.1515   5.0070   1.2592 LP             1 S1                 0.0000
     42 ****         2.5841  -0.1793   0.3883 LP             1 S1                 0.0000
     43 ****         2.1782  -1.8487   0.1681 LP             1 S1                 0.0000
     44 ****        -1.2965  -5.1008  -1.1824 LP             1 S1                 0.0000
     45 ****         0.1989  -5.1631  -0.5293 LP             1 S1                 0.0000
@<TRIPOS>BOND
    1    1    2 1     
    2    1   20 1     
    3    1   21 1     
    4    1   22 1     
    5    2    3 1     
    6    2   23 1     
    7    2   24 1     
    8    3    4 1     
    9    4    9 ar    
   10    4    5 ar    
   11    5    6 ar    
   12    6    7 ar    
   13    6   25 1     
   14    7    8 ar    
   15    7   26 1     
   16    8    9 ar    
   17    8   27 1     
   18    9   10 1     
   19   10   11 am    
   20   10   28 1     
   21   11   12 2     
   22   11   13 am    
   23   13   14 1     
   24   13   29 1     
   25   14   15 1     
   26   14   30 1     
   27   14   31 1     
   28   15   19 1     
   29   15   16 1     
   30   15   32 1     
   31   16   17 1     
   32   16   33 1     
   33   16   34 1     
   34   17   18 1     
   35   17   35 1     
   36   17   36 1     
   37   18   19 1     
   38   18   37 1     
   39   18   38 1     
   40    3   39 1     
   41    3   40 1     
   42    5   41 1     
   43   12   42 1     
   44   12   43 1     
   45   19   44 1     
   46   19   45 1     
@<TRIPOS>SUBSTRUCTURE
      1 S1             1
@<TRIPOS>SET
LONE_PAIRS      STATIC     ATOMS    <user>   **** ""
7 39 40 41 42 43 44 45
DONOR_HYDROGENS      STATIC     ATOMS    <user>   **** ""
2 28 29
ATOM$BLUE        STATIC     ATOMS    COLORGROUP SYSTEM
7 39 40 41 42 43 44 45
ATOM$RED        STATIC     ATOMS    COLORGROUP SYSTEM
2 28 29
