AV-unprocessed.smi:2114|AV-procd|sdf|8617|dock8
  -GOLD-   2272011363D 1   1.00000     0.00000
 Structure written by MMmdl.
 47 48  0  0  0  0  0  0  0  0  1 V2000
  145.8163  135.3819  152.2576 C   0  0  0  0  0  0  0  0  0  0  0  0
  145.7280  136.7903  152.1319 O   0  0  0  0  0  0  0  0  0  0  0  0
  146.5389  137.4726  153.0751 C   0  0  0  0  0  0  0  0  0  0  0  0
  146.5441  138.9747  152.7521 C   0  0  2  0  0  0  0  0  0  0  0  0
  146.9603  139.2358  151.2953 C   0  0  0  0  0  0  0  0  0  0  0  0
  147.4500  139.6647  153.6661 N   0  0  0  0  0  0  0  0  0  0  0  0
  147.0781  140.4990  154.6506 C   0  0  0  0  0  0  0  0  0  0  0  0
  145.9049  140.7730  154.9041 O   0  0  0  0  0  0  0  0  0  0  0  0
  148.1951  141.0452  155.4917 C   0  0  0  0  0  0  0  0  0  0  0  0
  149.5148  141.1474  155.0001 C   0  0  0  0  0  0  0  0  0  0  0  0
  150.5161  141.6858  155.8308 C   0  0  0  0  0  0  0  0  0  0  0  0
  150.1750  142.1166  157.1346 C   0  0  0  0  0  0  0  0  0  0  0  0
  151.1654  142.6512  157.9867 N   0  0  0  0  0  0  0  0  0  0  0  0
  150.9107  143.9531  158.5998 C   0  0  0  0  0  0  0  0  0  0  0  0
  152.1948  144.5031  159.2476 C   0  0  1  0  0  0  0  0  0  0  0  0
  151.9432  145.8120  160.0027 C   0  0  0  0  0  0  0  0  0  0  0  0
  152.6987  143.5428  160.1716 O   0  0  0  0  0  0  0  0  0  0  0  0
  153.0473  142.3126  159.5426 C   0  0  1  0  0  0  0  0  0  0  0  0
  153.6618  141.3895  160.6001 C   0  0  0  0  0  0  0  0  0  0  0  0
  151.7904  141.6974  158.8991 C   0  0  0  0  0  0  0  0  0  0  0  0
  148.9030  142.0369  157.5967 N   0  0  0  0  0  0  0  0  0  0  0  0
  147.9463  141.5195  156.7971 C   0  0  0  0  0  0  0  0  0  0  0  0
  145.1899  134.9070  151.5025 H   0  0  0  0  0  0  0  0  0  0  0  0
  145.4701  135.0520  153.2381 H   0  0  0  0  0  0  0  0  0  0  0  0
  146.8402  135.0354  152.1123 H   0  0  0  0  0  0  0  0  0  0  0  0
  146.1711  137.3016  154.0886 H   0  0  0  0  0  0  0  0  0  0  0  0
  147.5554  137.0790  153.0261 H   0  0  0  0  0  0  0  0  0  0  0  0
  145.5303  139.3538  152.8940 H   0  0  0  0  0  0  0  0  0  0  0  0
  146.2906  138.7285  150.6004 H   0  0  0  0  0  0  0  0  0  0  0  0
  147.9726  138.8798  151.1017 H   0  0  0  0  0  0  0  0  0  0  0  0
  146.9305  140.2999  151.0585 H   0  0  0  0  0  0  0  0  0  0  0  0
  148.4356  139.4776  153.5526 H   0  0  0  0  0  0  0  0  0  0  0  0
  149.7679  140.8257  154.0002 H   0  0  0  0  0  0  0  0  0  0  0  0
  151.5244  141.7755  155.4549 H   0  0  0  0  0  0  0  0  0  0  0  0
  150.5544  144.6585  157.8477 H   0  0  0  0  0  0  0  0  0  0  0  0
  150.1247  143.8500  159.3496 H   0  0  0  0  0  0  0  0  0  0  0  0
  152.9454  144.6867  158.4767 H   0  0  0  0  0  0  0  0  0  0  0  0
  151.5628  146.5843  159.3337 H   0  0  0  0  0  0  0  0  0  0  0  0
  152.8638  146.1850  160.4517 H   0  0  0  0  0  0  0  0  0  0  0  0
  151.2147  145.6727  160.8020 H   0  0  0  0  0  0  0  0  0  0  0  0
  153.7968  142.5043  158.7728 H   0  0  0  0  0  0  0  0  0  0  0  0
  153.9541  140.4338  160.1647 H   0  0  0  0  0  0  0  0  0  0  0  0
  152.9563  141.1884  161.4069 H   0  0  0  0  0  0  0  0  0  0  0  0
  154.5517  141.8400  161.0402 H   0  0  0  0  0  0  0  0  0  0  0  0
  151.0673  141.4274  159.6700 H   0  0  0  0  0  0  0  0  0  0  0  0
  152.0674  140.7758  158.3892 H   0  0  0  0  0  0  0  0  0  0  0  0
  146.9536  141.4812  157.2220 H   0  0  0  0  0  0  0  0  0  0  0  0
  1  2  1  0  0  0  0
  1 23  1  0  0  0  0
  1 24  1  0  0  0  0
  1 25  1  0  0  0  0
  2  3  1  0  0  0  0
  3  4  1  0  0  0  0
  3 26  1  0  0  0  0
  3 27  1  0  0  0  0
  4  5  1  0  0  0  0
  4  6  1  0  0  0  0
  4 28  1  0  0  0  0
  5 29  1  0  0  0  0
  5 30  1  0  0  0  0
  5 31  1  0  0  0  0
  6  7  1  0  0  0  0
  6 32  1  0  0  0  0
  7  8  2  0  0  0  0
  7  9  1  0  0  0  0
  9 22  1  0  0  0  0
  9 10  2  0  0  0  0
 10 11  1  0  0  0  0
 10 33  1  0  0  0  0
 11 12  2  0  0  0  0
 11 34  1  0  0  0  0
 12 13  1  0  0  0  0
 12 21  1  0  0  0  0
 13 20  1  0  0  0  0
 13 14  1  0  0  0  0
 14 15  1  0  0  0  0
 14 35  1  0  0  0  0
 14 36  1  0  0  0  0
 15 16  1  0  0  0  0
 15 17  1  0  0  0  0
 15 37  1  0  0  0  0
 16 38  1  0  0  0  0
 16 39  1  0  0  0  0
 16 40  1  0  0  0  0
 17 18  1  0  0  0  0
 18 19  1  0  0  0  0
 18 20  1  0  0  0  0
 18 41  1  0  0  0  0
 19 42  1  0  0  0  0
 19 43  1  0  0  0  0
 19 44  1  0  0  0  0
 20 45  1  0  0  0  0
 20 46  1  0  0  0  0
 21 22  2  0  0  0  0
 22 47  1  0  0  0  0
M  END
> <s_m_source_file>
AV-unprocessed.smi

> <i_m_source_file_index>
2114

> <i_lp_mmshare_version>
43012

> <i_f3d_flags>
0

> <s_epik_input>
W0NIM11PW0NIMl1bQ0BIXShbQ0gzXSlbTkhdQyg9TyljMVtjSF1bY0hdYyhuW2NIXTEpTjJbQ0gyXVtDQEBIXShbQ0gzXSlPW0NAQEhdKFtDSDNdKVtDSDJdMg==

> <s_epik_cmdline>
J2VwaWtfcHl0aG9uJywgJy1waCcsICc3LjAnLCAnLXRuJywgJzgnLCAnLW1hJywgJzIwMCcsICctbWV0YWxfYmluZGluZycsICctaW1hZScsICc8aW5maWxlLm1hZT4nLCAnLW9tYWUnLCAnPG91dGZpbGUubWFlPic=

> <r_lp_tautomer_probability>
1

> <r_epik_Ionization_Penalty>
1.92915e-05

> <r_epik_Ionization_Penalty_Charging>
0

> <r_epik_Ionization_Penalty_Neutral>
1.92915e-05

> <r_epik_State_Penalty>
-0

> <r_epik_Charging_Adjusted_Penalty>
0

> <i_epik_Tot_Q>
0

> <i_epik_Tot_abs_Q>
0

> <r_epik_Metal_State_Penalty>
-0

> <b_epik_Metal_Only>
0

> <s_lp_Force_Field>
OPLS_2005

> <r_lp_Energy>
18.4653

> <b_lp_Chiralities_Consistent>
1

> <s_lp_Variant>
AV-unprocessed.smi:2114-1

> <Gold.Version>
5.8.1

> <Gold.Id.Protein>
6NUR|6NUR_protein|mol2

> <Gold.PLP.Fitness>
37.4503

> <Gold.PLP.PLP>
-38.5894

> <Gold.PLP.part.hbond>
0.0000

> <Gold.PLP.part.metal>
0.0000

> <Gold.PLP.part.buried>
-1.8559

> <Gold.PLP.part.nonpolar>
-37.0919

> <Gold.PLP.part.repulsive>
0.5205

> <Gold.PLP.ligand.clash>
0.0000

> <Gold.PLP.ligand.torsion>
0.7386

> <Gold.PLP.Chemscore.Hbond>
0.0000

> <Gold.PLP.Chemscore.CHOScore>
0.0000

> <Gold.PLP.Chemscore.Metal>
0.0000

> <Gold.PLP.Chemscore.Internal.Correction>
0.3382

> <Gold.Rescore>
     Score         DG    S(hbond)    S(metal)    S(lipo)     H(rot)  DE(clash)    DE(int)     intcor
     13.85     -14.81       0.00        0.00     113.02       1.52       0.24       0.72       ----

> <Gold.Chemscore.Fitness>
13.8502

> <Gold.Chemscore.DG>
-14.8056

> <Gold.Chemscore.ZeroCoef>
-5.4800

> <Gold.Chemscore.Hbond>
0.0000

> <Gold.Chemscore.Metal>
0.0000

> <Gold.Chemscore.Lipo>
113.0219

> <Gold.Chemscore.Internal_Hbond>
0.0000

> <Gold.Chemscore.DEClash>
0.2377

> <Gold.Chemscore.DEInternal>
0.7176

> <Gold.Chemscore.Rot>
1.5226

> <Gold.Chemscore.Internal.Correction>
   9.000000E+99

> <Gold.Chemscore.Hbond.Weighted>
-0.0000

> <Gold.Chemscore.Metal.Weighted>
-0.0000

> <Gold.Chemscore.Lipo.Weighted>
-13.2236

> <Gold.Chemscore.Internal_Hbond.Weighted>
0.0000

> <Gold.Chemscore.DEClash.Weighted>
0.2377

> <Gold.Chemscore.DEInternal.Weighted>
0.7176

> <Gold.Chemscore.Rot.Weighted>
3.8980

> <Gold.Chemscore.Internal.Correction.Weighted>
   9.000000E+99

> <Gold.Protein.RotatedTorsions>
[ 6907 6896 6895 6894 ] final  176.79 input  -60.11 | X-H torsion
[ 7974 7965 7964 7962 ] final  -91.12 input  175.53 | X-H torsion
[ 8008 7997 7996 7995 ] final  143.38 input   59.86 | X-H torsion
[ 10167 10162 10161 10158 ] final   41.29 input  -65.29 | X-H torsion
[ 10718 10713 10712 10709 ] final  -16.37 input   66.30 | X-H torsion
[ 10763 10752 10751 10750 ] final  -35.30 input  -60.55 | X-H torsion
[ 11005 11000 10999 10996 ] final  166.61 input  -57.11 | X-H torsion

> <Gold.Protein.ActiveResidues>
 VAL166  LYS551  ARG553  GLY616  TRP617  ASP618  TYR619  PRO620  LYS621  CYS622 
 ASP623  PHE694  ASN695  SER759  ASP760  ASP761  ALA762  ILE779  LEU786  VAL792 
 PHE793  MET794  SER795  GLU796  ALA797  LYS798  CYS799  TRP800  GLU811  SER814 

> <Gold.Protein.RotatedAtoms>
  151.7144  133.3313  159.3298 H   0  0  0  0  0  0  0  0  0  0  0  0  # atno 6907 bound_to 6896
  150.7680  134.6504  159.6294 H   0  0  0  0  0  0  0  0  0  0  0  0  # atno 6908 bound_to 6896
  152.3691  134.6763  160.0234 H   0  0  0  0  0  0  0  0  0  0  0  0  # atno 6909 bound_to 6896
  145.4174  140.9549  143.2200 H   0  0  0  0  0  0  0  0  0  0  0  0  # atno 7974 bound_to 7965
  156.2931  140.2264  156.4881 H   0  0  0  0  0  0  0  0  0  0  0  0  # atno 8008 bound_to 7997
  154.7794  140.0461  157.1136 H   0  0  0  0  0  0  0  0  0  0  0  0  # atno 8009 bound_to 7997
  154.9777  140.3074  155.4963 H   0  0  0  0  0  0  0  0  0  0  0  0  # atno 8010 bound_to 7997
  140.3658  144.2169  150.6135 H   0  0  0  0  0  0  0  0  0  0  0  0  # atno 10167 bound_to 10162
  156.5885  130.4793  149.6289 H   0  0  0  0  0  0  0  0  0  0  0  0  # atno 10718 bound_to 10713
  153.8609  135.6840  153.4783 H   0  0  0  0  0  0  0  0  0  0  0  0  # atno 10763 bound_to 10752
  153.1342  135.4685  154.9394 H   0  0  0  0  0  0  0  0  0  0  0  0  # atno 10764 bound_to 10752
  154.7759  135.3253  154.8042 H   0  0  0  0  0  0  0  0  0  0  0  0  # atno 10765 bound_to 10752
  140.2682  134.7848  157.3651 H   0  0  0  0  0  0  0  0  0  0  0  0  # atno 11005 bound_to 11000
  144.8268  139.5696  143.6962 LP  0  0  0  0  0  0  0  0  0  0  0  0  # atno 17320 bound_to 7965
  146.2674  139.6552  142.9320 LP  0  0  0  0  0  0  0  0  0  0  0  0  # atno 17321 bound_to 7965
  140.5082  143.2298  151.8576 LP  0  0  0  0  0  0  0  0  0  0  0  0  # atno 17342 bound_to 10162
  139.4809  144.4981  151.9097 LP  0  0  0  0  0  0  0  0  0  0  0  0  # atno 17343 bound_to 10162
  156.2570  130.6940  151.1696 LP  0  0  0  0  0  0  0  0  0  0  0  0  # atno 17370 bound_to 10713
  157.7309  131.0612  150.5703 LP  0  0  0  0  0  0  0  0  0  0  0  0  # atno 17371 bound_to 10713
  140.1399  134.4986  155.8040 LP  0  0  0  0  0  0  0  0  0  0  0  0  # atno 17394 bound_to 11000
  141.2181  133.6821  156.7191 LP  0  0  0  0  0  0  0  0  0  0  0  0  # atno 17395 bound_to 11000

$$$$
