AV-unprocessed.smi:2640|AV-procd|sdf|10268|dock9
  -GOLD-   2272014283D 1   1.00000     0.00000
 Structure written by MMmdl.
 42 43  0  0  0  0  0  0  0  0  2 V2000
  145.0018  136.8732  153.0094 O   0  0  0  0  0  0  0  0  0  0  0  0
  145.9253  137.1905  152.2592 C   0  0  0  0  0  0  0  0  0  0  0  0
  146.4813  138.6146  152.2729 C   0  0  0  0  0  0  0  0  0  0  0  0
  147.9105  138.6415  152.6441 N   0  3  0  0  0  0  0  0  0  0  0  0
  148.1570  138.7912  154.0907 C   0  0  0  0  0  0  0  0  0  0  0  0
  149.6576  138.6968  154.4042 C   0  0  0  0  0  0  0  0  0  0  0  0
  150.0914  139.7535  155.2976 N   0  0  0  0  0  0  0  0  0  0  0  0
  150.5988  139.6443  156.5752 C   0  0  0  0  0  0  0  0  0  0  0  0
  150.8729  140.9085  157.0124 C   0  0  0  0  0  0  0  0  0  0  0  0
  150.4995  141.7343  155.9157 C   0  0  0  0  0  0  0  0  0  0  0  0
  150.0326  141.0396  154.8904 N   0  0  0  0  0  0  0  0  0  0  0  0
  146.5056  136.3345  151.4025 N   0  0  0  0  0  0  0  0  0  0  0  0
  146.1166  134.9354  151.2072 C   0  0  2  0  0  0  0  0  0  0  0  0
  144.6375  134.9186  150.7587 C   0  0  0  0  0  0  0  0  0  0  0  0
  144.2319  133.6390  150.0064 C   0  0  0  0  0  0  0  0  0  0  0  0
  144.2827  132.3505  150.8414 C   0  0  0  0  0  0  0  0  0  0  0  0
  145.6905  131.9978  151.3514 C   0  0  0  0  0  0  0  0  0  0  0  0
  146.0766  132.8070  152.5000 N   0  0  0  0  0  0  0  0  0  0  0  0
  146.2595  134.1358  152.5241 C   0  0  0  0  0  0  0  0  0  0  0  0
  146.5342  134.7073  153.5796 O   0  0  0  0  0  0  0  0  0  0  0  0
  146.3515  139.0504  151.2814 H   0  0  0  0  0  0  0  0  0  0  0  0
  145.9138  139.2246  152.9775 H   0  0  0  0  0  0  0  0  0  0  0  0
  148.3357  137.7813  152.3289 H   0  0  0  0  0  0  0  0  0  0  0  0
  147.7617  139.7531  154.4204 H   0  0  0  0  0  0  0  0  0  0  0  0
  147.6131  138.0154  154.6312 H   0  0  0  0  0  0  0  0  0  0  0  0
  149.8889  137.7359  154.8660 H   0  0  0  0  0  0  0  0  0  0  0  0
  150.2455  138.7574  153.4871 H   0  0  0  0  0  0  0  0  0  0  0  0
  150.7218  138.6883  157.0624 H   0  0  0  0  0  0  0  0  0  0  0  0
  151.2807  141.1993  157.9692 H   0  0  0  0  0  0  0  0  0  0  0  0
  150.5544  142.8100  155.8346 H   0  0  0  0  0  0  0  0  0  0  0  0
  147.2575  136.6777  150.8224 H   0  0  0  0  0  0  0  0  0  0  0  0
  146.7486  134.4976  150.4322 H   0  0  0  0  0  0  0  0  0  0  0  0
  143.9698  135.0861  151.6058 H   0  0  0  0  0  0  0  0  0  0  0  0
  144.4618  135.7551  150.0800 H   0  0  0  0  0  0  0  0  0  0  0  0
  143.2163  133.7658  149.6300 H   0  0  0  0  0  0  0  0  0  0  0  0
  144.8619  133.5234  149.1237 H   0  0  0  0  0  0  0  0  0  0  0  0
  143.5845  132.4144  151.6770 H   0  0  0  0  0  0  0  0  0  0  0  0
  143.9269  131.5300  150.2175 H   0  0  0  0  0  0  0  0  0  0  0  0
  145.7035  130.9567  151.6747 H   0  0  0  0  0  0  0  0  0  0  0  0
  146.4325  132.0805  150.5562 H   0  0  0  0  0  0  0  0  0  0  0  0
  146.1871  132.3137  153.3741 H   0  0  0  0  0  0  0  0  0  0  0  0
  148.3487  139.4115  152.1588 H   0  0  0  0  0  0  0  0  0  0  0  0
  1  2  2  0  0  0  0
  2  3  1  0  0  0  0
  2 12  1  0  0  0  0
  3  4  1  0  0  0  0
  3 21  1  0  0  0  0
  3 22  1  0  0  0  0
  4  5  1  0  0  0  0
  4 23  1  0  0  0  0
  4 42  1  0  0  0  0
  5  6  1  0  0  0  0
  5 24  1  0  0  0  0
  5 25  1  0  0  0  0
  6  7  1  0  0  0  0
  6 26  1  0  0  0  0
  6 27  1  0  0  0  0
  7 11  1  0  0  0  0
  7  8  1  0  0  0  0
  8  9  2  0  0  0  0
  8 28  1  0  0  0  0
  9 10  1  0  0  0  0
  9 29  1  0  0  0  0
 10 11  2  0  0  0  0
 10 30  1  0  0  0  0
 12 13  1  0  0  0  0
 12 31  1  0  0  0  0
 13 19  1  0  0  0  0
 13 14  1  0  0  0  0
 13 32  1  0  0  0  0
 14 15  1  0  0  0  0
 14 33  1  0  0  0  0
 14 34  1  0  0  0  0
 15 16  1  0  0  0  0
 15 35  1  0  0  0  0
 15 36  1  0  0  0  0
 16 17  1  0  0  0  0
 16 37  1  0  0  0  0
 16 38  1  0  0  0  0
 17 18  1  0  0  0  0
 17 39  1  0  0  0  0
 17 40  1  0  0  0  0
 18 19  1  0  0  0  0
 18 41  1  0  0  0  0
 19 20  2  0  0  0  0
M  CHG  1   4   1
M  END
> <s_m_source_file>
AV-unprocessed.smi

> <i_m_source_file_index>
2640

> <i_lp_mmshare_version>
43012

> <i_f3d_flags>
0

> <s_epik_input>
Tz1DMVtOSF1bQ0gyXVtDSDJdW0NIMl1bQ0gyXVtDQEhdMVtOSF1DKD1PKVtDSDJdW05IXVtDSDJdW0NIMl1uMltjSF1bY0hdW2NIXW4y

> <s_epik_cmdline>
J2VwaWtfcHl0aG9uJywgJy1waCcsICc3LjAnLCAnLXRuJywgJzgnLCAnLW1hJywgJzIwMCcsICctbWV0YWxfYmluZGluZycsICctaW1hZScsICc8aW5maWxlLm1hZT4nLCAnLW9tYWUnLCAnPG91dGZpbGUubWFlPic=

> <r_lp_tautomer_probability>
1

> <r_epik_Ionization_Penalty>
0.245908

> <r_epik_Ionization_Penalty_Charging>
0.245903

> <r_epik_Ionization_Penalty_Neutral>
5.38378e-06

> <r_epik_State_Penalty>
0.237496

> <r_epik_Charging_Adjusted_Penalty>
0.483398

> <i_epik_Tot_Q>
1

> <i_epik_Tot_abs_Q>
1

> <r_epik_Metal_State_Penalty>
0.237698

> <b_epik_Metal_Only>
0

> <s_lp_Force_Field>
OPLS_2005

> <r_lp_Energy>
8.65948

> <b_lp_Chiralities_Consistent>
1

> <s_lp_Variant>
AV-unprocessed.smi:2640-1

> <Gold.Version>
5.8.1

> <Gold.Id.Protein>
6NUR|6NUR_protein|mol2

> <Gold.PLP.Fitness>
47.1704

> <Gold.PLP.PLP>
-34.5456

> <Gold.PLP.part.hbond>
-3.7687

> <Gold.PLP.part.metal>
0.0000

> <Gold.PLP.part.buried>
-4.6101

> <Gold.PLP.part.nonpolar>
-27.1405

> <Gold.PLP.part.repulsive>
0.5464

> <Gold.PLP.ligand.clash>
0.0000

> <Gold.PLP.ligand.torsion>
0.5512

> <Gold.PLP.Chemscore.Hbond>
3.5981

> <Gold.PLP.Chemscore.CHOScore>
0.9560

> <Gold.PLP.Chemscore.Metal>
0.0000

> <Gold.Chemscore.Hbonds>
donor molecule, donor type, donor heavy atom, donor atom, acceptor molecule, acceptor atom, score
      L1  H     4    23       P1  7948  2.00
      L1  H     4    42       P1  7957  1.00
      L1  H    12    31       P1  7948  0.13
      P1  H  7989  7998       L1    11  0.42
      L1  C    10    30       P1  8028  0.98

> <Gold.PLP.Chemscore.Internal.Correction>
0.0650

> <Gold.Rescore>
     Score         DG    S(hbond)    S(metal)    S(lipo)     H(rot)  DE(clash)    DE(int)     intcor
     12.65     -17.63       3.01        0.00      71.39       2.45       0.14       4.85       ----

> <Gold.Chemscore.Fitness>
12.6491

> <Gold.Chemscore.DG>
-17.6302

> <Gold.Chemscore.ZeroCoef>
-5.4800

> <Gold.Chemscore.Hbond>
3.0120

> <Gold.Chemscore.Metal>
0.0000

> <Gold.Chemscore.Lipo>
71.3893

> <Gold.Chemscore.Internal_Hbond>
0.0000

> <Gold.Chemscore.DEClash>
0.1354

> <Gold.Chemscore.DEInternal>
4.8457

> <Gold.Chemscore.Rot>
2.4462

> <Gold.Chemscore.Internal.Correction>
   9.000000E+99

> <Gold.Chemscore.Hbonds>
donor molecule, donor type, donor heavy atom, donor atom, acceptor molecule, acceptor atom, score
      L1  H     4    23       P1  7948  1.00
      L1  H     4    42       P1  7957  0.94
      L1  H    12    31       P1  7948  0.13
      P1  H  7989  7998       L1    11  0.03

> <Gold.Chemscore.Hbond.Weighted>
-10.0599

> <Gold.Chemscore.Metal.Weighted>
-0.0000

> <Gold.Chemscore.Lipo.Weighted>
-8.3525

> <Gold.Chemscore.Internal_Hbond.Weighted>
0.0000

> <Gold.Chemscore.DEClash.Weighted>
0.1354

> <Gold.Chemscore.DEInternal.Weighted>
4.8457

> <Gold.Chemscore.Rot.Weighted>
6.2623

> <Gold.Chemscore.Internal.Correction.Weighted>
   9.000000E+99

> <Gold.Protein.RotatedTorsions>
[ 6907 6896 6895 6894 ] final   -2.58 input  -60.11 | X-H torsion
[ 7974 7965 7964 7962 ] final   89.90 input  175.53 | X-H torsion
[ 8008 7997 7996 7995 ] final -138.00 input   59.86 | X-H torsion
[ 10167 10162 10161 10158 ] final  -23.72 input  -65.29 | X-H torsion
[ 10718 10713 10712 10709 ] final   97.87 input   66.30 | X-H torsion
[ 10763 10752 10751 10750 ] final  -79.67 input  -60.55 | X-H torsion
[ 11005 11000 10999 10996 ] final   -8.53 input  -57.11 | X-H torsion

> <Gold.Protein.ActiveResidues>
 VAL166  LYS551  ARG553  GLY616  TRP617  ASP618  TYR619  PRO620  LYS621  CYS622 
 ASP623  PHE694  ASN695  SER759  ASP760  ASP761  ALA762  ILE779  LEU786  VAL792 
 PHE793  MET794  SER795  GLU796  ALA797  LYS798  CYS799  TRP800  GLU811  SER814 

> <Gold.Protein.RotatedAtoms>
  151.5277  135.1068  159.9894 H   0  0  0  0  0  0  0  0  0  0  0  0  # atno 6907 bound_to 6896
  152.4592  133.7783  159.6847 H   0  0  0  0  0  0  0  0  0  0  0  0  # atno 6908 bound_to 6896
  150.8548  133.7667  159.3038 H   0  0  0  0  0  0  0  0  0  0  0  0  # atno 6909 bound_to 6896
  145.5262  139.2281  143.2644 H   0  0  0  0  0  0  0  0  0  0  0  0  # atno 7974 bound_to 7965
  155.4212  140.0518  157.3025 H   0  0  0  0  0  0  0  0  0  0  0  0  # atno 8008 bound_to 7997
  154.4902  140.2117  155.9525 H   0  0  0  0  0  0  0  0  0  0  0  0  # atno 8009 bound_to 7997
  156.1331  140.3168  155.8384 H   0  0  0  0  0  0  0  0  0  0  0  0  # atno 8010 bound_to 7997
  140.7288  143.4418  151.0646 H   0  0  0  0  0  0  0  0  0  0  0  0  # atno 10167 bound_to 10162
  157.6905  131.0622  150.4709 H   0  0  0  0  0  0  0  0  0  0  0  0  # atno 10718 bound_to 10713
  154.5415  135.5688  153.6843 H   0  0  0  0  0  0  0  0  0  0  0  0  # atno 10763 bound_to 10752
  152.9965  135.6229  154.2495 H   0  0  0  0  0  0  0  0  0  0  0  0  # atno 10764 bound_to 10752
  154.2427  135.2862  155.2827 H   0  0  0  0  0  0  0  0  0  0  0  0  # atno 10765 bound_to 10752
  140.7245  133.8801  155.8845 H   0  0  0  0  0  0  0  0  0  0  0  0  # atno 11005 bound_to 11000
  146.2074  140.6077  142.9075 LP  0  0  0  0  0  0  0  0  0  0  0  0  # atno 17320 bound_to 7965
  144.7650  140.5509  143.6709 LP  0  0  0  0  0  0  0  0  0  0  0  0  # atno 17321 bound_to 7965
  139.8085  143.7983  152.3169 LP  0  0  0  0  0  0  0  0  0  0  0  0  # atno 17342 bound_to 10162
  139.8025  144.7368  150.9806 LP  0  0  0  0  0  0  0  0  0  0  0  0  # atno 17343 bound_to 10162
  156.5047  130.4125  149.6334 LP  0  0  0  0  0  0  0  0  0  0  0  0  # atno 17370 bound_to 10713
  156.3295  130.7324  151.2251 LP  0  0  0  0  0  0  0  0  0  0  0  0  # atno 17371 bound_to 10713
  140.9975  134.1195  157.4349 LP  0  0  0  0  0  0  0  0  0  0  0  0  # atno 17394 bound_to 11000
  139.8840  135.0058  156.6341 LP  0  0  0  0  0  0  0  0  0  0  0  0  # atno 17395 bound_to 11000

$$$$
