#       Name:                AV-unprocessed.smi:2345
#       Creating user name   scv26
#       Creation time:       Fri Mar 27 12:58:28 2020


#       File generated by GOLD software.
#

@<TRIPOS>MOLECULE
AV-unprocessed.smi:2345
    40    41     1
SMALL
NO_CHARGES


@<TRIPOS>ATOM
      1 ****        -3.3359   1.5386  -2.5420 C.3            1 S1                 0.0000
      2 ****        -1.9457   1.0564  -2.1206 C.3            1 S1                 0.0000
      3 ****        -1.1920   0.0071  -3.3943 S.3            1 S1                 0.0000
      4 ****         0.4670  -0.2322  -2.6914 C.3            1 S1                 0.0000
      5 ****         1.4037  -0.9618  -3.6577 C.3            1 S1                 0.0000
      6 ****         2.4471  -1.6052  -2.7509 C.3            1 S1                 0.0000
      7 ****         1.6497  -2.0593  -1.5279 C.3            1 S1                 0.0000
      8 ****         0.4681  -1.0769  -1.3990 C.3            1 S1                 0.0000
      9 ****         0.6161  -0.2203  -0.2250 N.am           1 S1                 0.0000
     10 ****         0.2191  -0.5376   1.0150 C.2            1 S1                 0.0000
     11 ****        -0.2975  -1.6160   1.3064 O.2            1 S1                 0.0000
     12 ****         0.4412   0.4764   1.8682 N.am           1 S1                 0.0000
     13 ****         0.1452   0.5485   3.2565 C.ar           1 S1                 0.0000
     14 ****         0.0012  -0.5823   4.0964 C.ar           1 S1                 0.0000
     15 ****        -0.2762  -0.3767   5.4628 C.ar           1 S1                 0.0000
     16 ****        -0.4047   0.8460   6.0203 N.ar           1 S1                 0.0000
     17 ****        -0.2520   1.9218   5.2195 C.ar           1 S1                 0.0000
     18 ****         0.0269   1.8271   3.8413 C.ar           1 S1                 0.0000
     19 ****         0.1728   2.9484   3.0944 F              1 S1                 0.0000
     20 ****        -3.7832   2.1599  -1.7661 H              1 S1                 0.0000
     21 ****        -4.0055   0.6975  -2.7229 H              1 S1                 0.0000
     22 ****        -3.2854   2.1310  -3.4559 H              1 S1                 0.0000
     23 ****        -1.2964   1.9119  -1.9344 H              1 S1                 0.0000
     24 ****        -2.0150   0.4947  -1.1892 H              1 S1                 0.0000
     25 ****         0.8969   0.7517  -2.4951 H              1 S1                 0.0000
     26 ****         0.8605  -1.7413  -4.1941 H              1 S1                 0.0000
     27 ****         1.8453  -0.2939  -4.3979 H              1 S1                 0.0000
     28 ****         2.9772  -2.4260  -3.2348 H              1 S1                 0.0000
     29 ****         3.1852  -0.8591  -2.4533 H              1 S1                 0.0000
     30 ****         1.2617  -3.0635  -1.7038 H              1 S1                 0.0000
     31 ****         2.2725  -2.1114  -0.6336 H              1 S1                 0.0000
     32 ****        -0.4595  -1.6484  -1.3264 H              1 S1                 0.0000
     33 ****         1.0302   0.6881  -0.3753 H              1 S1                 0.0000
     34 ****         0.7986   1.3284   1.4613 H              1 S1                 0.0000
     35 ****         0.1087  -1.5909   3.7281 H              1 S1                 0.0000
     36 ****        -0.3914  -1.2195   6.1280 H              1 S1                 0.0000
     37 ****        -0.3537   2.8878   5.6916 H              1 S1                 0.0000
     38 ****        -0.4399  -2.3093   0.6000 LP             1 S1                 0.0000
     39 ****        -0.5749  -1.7989   2.2497 LP             1 S1                 0.0000
     40 ****        -0.6063   0.9513   6.9941 LP             1 S1                 0.0000
@<TRIPOS>BOND
    1    1    2 1     
    2    1   20 1     
    3    1   21 1     
    4    1   22 1     
    5    2    3 1     
    6    2   23 1     
    7    2   24 1     
    8    3    4 1     
    9    4    8 1     
   10    4    5 1     
   11    4   25 1     
   12    5    6 1     
   13    5   26 1     
   14    5   27 1     
   15    6    7 1     
   16    6   28 1     
   17    6   29 1     
   18    7    8 1     
   19    7   30 1     
   20    7   31 1     
   21    8    9 1     
   22    8   32 1     
   23    9   10 am    
   24    9   33 1     
   25   10   11 2     
   26   10   12 am    
   27   12   13 1     
   28   12   34 1     
   29   13   18 ar    
   30   13   14 ar    
   31   14   15 ar    
   32   14   35 1     
   33   15   16 ar    
   34   15   36 1     
   35   16   17 ar    
   36   17   18 ar    
   37   17   37 1     
   38   18   19 1     
   39   11   38 1     
   40   11   39 1     
   41   16   40 1     
@<TRIPOS>SUBSTRUCTURE
      1 S1             1
@<TRIPOS>SET
LONE_PAIRS      STATIC     ATOMS    <user>   **** ""
3 38 39 40
DONOR_HYDROGENS      STATIC     ATOMS    <user>   **** ""
2 33 34
ATOM$BLUE        STATIC     ATOMS    COLORGROUP SYSTEM
3 38 39 40
ATOM$RED        STATIC     ATOMS    COLORGROUP SYSTEM
2 33 34
