AV-unprocessed.smi:864|AV-procd|sdf|3987|dock3
  -GOLD-   22720 1463D 1   1.00000     0.00000
 Structure written by MMmdl.
 44 46  0  0  0  0  0  0  0  0  1 V2000
  145.8786  131.7190  149.7669 C   0  0  0  0  0  0  0  0  0  0  0  0
  145.6751  132.9826  150.5763 C   0  0  0  0  0  0  0  0  0  0  0  0
  144.3975  133.3302  151.0628 C   0  0  0  0  0  0  0  0  0  0  0  0
  144.2644  134.5174  151.8077 C   0  0  0  0  0  0  0  0  0  0  0  0
  145.4087  135.3104  152.0348 C   0  0  0  0  0  0  0  0  0  0  0  0
  145.3142  136.6212  152.7968 C   0  0  0  0  0  0  0  0  0  0  0  0
  145.9972  136.5795  154.1779 C   0  0  0  0  0  0  0  0  0  0  0  0
  147.4374  136.8061  154.0795 N   0  0  0  0  0  0  0  0  0  0  0  0
  148.2606  137.0275  155.1148 C   0  0  0  0  0  0  0  0  0  0  0  0
  147.8863  137.1591  156.2803 O   0  0  0  0  0  0  0  0  0  0  0  0
  149.5428  137.0571  154.7276 N   0  0  0  0  0  0  0  0  0  0  0  0
  150.6915  137.2255  155.6144 C   0  0  1  0  0  0  0  0  0  0  0  0
  151.9030  137.8022  154.8694 C   0  0  0  0  0  0  0  0  0  0  0  0
  152.3813  138.9192  155.7808 C   0  0  0  0  0  0  0  0  0  0  0  0
  153.4425  139.5149  155.5993 O   0  0  0  0  0  0  0  0  0  0  0  0
  151.5164  139.1392  156.7775 N   0  0  0  0  0  0  0  0  0  0  0  0
  151.7388  140.0372  157.8724 C   0  0  0  0  0  0  0  0  0  0  0  0
  151.9233  139.5162  159.2848 C   0  0  0  0  0  0  0  0  0  0  0  0
  150.6382  140.2043  158.8950 C   0  0  0  0  0  0  0  0  0  0  0  0
  150.3804  138.2287  156.7392 C   0  0  0  0  0  0  0  0  0  0  0  0
  146.6411  134.8698  151.5081 C   0  0  0  0  0  0  0  0  0  0  0  0
  146.7785  133.7313  150.7952 N   0  0  0  0  0  0  0  0  0  0  0  0
  144.9291  131.3378  149.3898 H   0  0  0  0  0  0  0  0  0  0  0  0
  146.3373  130.9461  150.3842 H   0  0  0  0  0  0  0  0  0  0  0  0
  146.5290  131.9089  148.9125 H   0  0  0  0  0  0  0  0  0  0  0  0
  143.5381  132.7058  150.8677 H   0  0  0  0  0  0  0  0  0  0  0  0
  143.2980  134.8185  152.1849 H   0  0  0  0  0  0  0  0  0  0  0  0
  145.7590  137.4141  152.1938 H   0  0  0  0  0  0  0  0  0  0  0  0
  144.2624  136.8842  152.9143 H   0  0  0  0  0  0  0  0  0  0  0  0
  145.5698  137.3479  154.8222 H   0  0  0  0  0  0  0  0  0  0  0  0
  145.7895  135.6259  154.6662 H   0  0  0  0  0  0  0  0  0  0  0  0
  147.8454  136.7245  153.1598 H   0  0  0  0  0  0  0  0  0  0  0  0
  149.7431  136.9322  153.7460 H   0  0  0  0  0  0  0  0  0  0  0  0
  150.9885  136.2736  156.0594 H   0  0  0  0  0  0  0  0  0  0  0  0
  152.6830  137.0549  154.7190 H   0  0  0  0  0  0  0  0  0  0  0  0
  151.6345  138.2229  153.8993 H   0  0  0  0  0  0  0  0  0  0  0  0
  152.3095  140.9337  157.6340 H   0  0  0  0  0  0  0  0  0  0  0  0
  151.8691  138.4462  159.4739 H   0  0  0  0  0  0  0  0  0  0  0  0
  152.6056  140.0632  159.9323 H   0  0  0  0  0  0  0  0  0  0  0  0
  150.4639  141.2049  159.2854 H   0  0  0  0  0  0  0  0  0  0  0  0
  149.7498  139.5843  158.7901 H   0  0  0  0  0  0  0  0  0  0  0  0
  149.4746  138.8016  156.5340 H   0  0  0  0  0  0  0  0  0  0  0  0
  150.2497  137.7187  157.6946 H   0  0  0  0  0  0  0  0  0  0  0  0
  147.5392  135.4525  151.6523 H   0  0  0  0  0  0  0  0  0  0  0  0
  1  2  1  0  0  0  0
  1 23  1  0  0  0  0
  1 24  1  0  0  0  0
  1 25  1  0  0  0  0
  2 22  1  0  0  0  0
  2  3  2  0  0  0  0
  3  4  1  0  0  0  0
  3 26  1  0  0  0  0
  4  5  2  0  0  0  0
  4 27  1  0  0  0  0
  5  6  1  0  0  0  0
  5 21  1  0  0  0  0
  6  7  1  0  0  0  0
  6 28  1  0  0  0  0
  6 29  1  0  0  0  0
  7  8  1  0  0  0  0
  7 30  1  0  0  0  0
  7 31  1  0  0  0  0
  8  9  1  0  0  0  0
  8 32  1  0  0  0  0
  9 10  2  0  0  0  0
  9 11  1  0  0  0  0
 11 12  1  0  0  0  0
 11 33  1  0  0  0  0
 12 20  1  0  0  0  0
 12 13  1  0  0  0  0
 12 34  1  0  0  0  0
 13 14  1  0  0  0  0
 13 35  1  0  0  0  0
 13 36  1  0  0  0  0
 14 15  2  0  0  0  0
 14 16  1  0  0  0  0
 16 17  1  0  0  0  0
 16 20  1  0  0  0  0
 17 19  1  0  0  0  0
 17 18  1  0  0  0  0
 17 37  1  0  0  0  0
 18 19  1  0  0  0  0
 18 38  1  0  0  0  0
 18 39  1  0  0  0  0
 19 40  1  0  0  0  0
 19 41  1  0  0  0  0
 20 42  1  0  0  0  0
 20 43  1  0  0  0  0
 21 22  2  0  0  0  0
 21 44  1  0  0  0  0
M  END
> <s_m_source_file>
AV-unprocessed.smi

> <i_m_source_file_index>
864

> <i_lp_mmshare_version>
43012

> <i_f3d_flags>
0

> <s_epik_input>
W0NIM11jMVtjSF1bY0hdYyhbY0hdbjEpW0NIMl1bQ0gyXVtOSF1DKD1PKVtOSF1bQ0BASF0yW0NIMl1DKD1PKU4oW0NIMl0yKVtDSF0zW0NIMl1bQ0gyXTM=

> <s_epik_cmdline>
J2VwaWtfcHl0aG9uJywgJy1waCcsICc3LjAnLCAnLXRuJywgJzgnLCAnLW1hJywgJzIwMCcsICctbWV0YWxfYmluZGluZycsICctaW1hZScsICc8aW5maWxlLm1hZT4nLCAnLW9tYWUnLCAnPG91dGZpbGUubWFlPic=

> <r_epik_Ionization_Penalty>
0.0559435

> <r_epik_Ionization_Penalty_Charging>
0

> <r_epik_Ionization_Penalty_Neutral>
0.0559435

> <r_epik_State_Penalty>
0.0481757

> <r_epik_Charging_Adjusted_Penalty>
0.0481757

> <i_epik_Tot_Q>
0

> <i_epik_Tot_abs_Q>
0

> <r_epik_Metal_State_Penalty>
0.0439988

> <b_epik_Metal_Only>
0

> <s_lp_Force_Field>
OPLS_2005

> <r_lp_Energy>
34.0483

> <b_lp_Chiralities_Consistent>
1

> <s_lp_Variant>
AV-unprocessed.smi:864-2

> <Gold.Version>
5.8.1

> <Gold.Id.Protein>
6NUR|6NUR_protein|mol2

> <Gold.PLP.Fitness>
47.4891

> <Gold.PLP.PLP>
-36.6529

> <Gold.PLP.part.hbond>
-3.8723

> <Gold.PLP.part.metal>
0.0000

> <Gold.PLP.part.buried>
-6.5159

> <Gold.PLP.part.nonpolar>
-27.5605

> <Gold.PLP.part.repulsive>
0.1863

> <Gold.PLP.ligand.clash>
0.0000

> <Gold.PLP.ligand.torsion>
0.6668

> <Gold.PLP.Chemscore.Hbond>
3.0000

> <Gold.PLP.Chemscore.CHOScore>
1.0000

> <Gold.PLP.Chemscore.Metal>
0.0000

> <Gold.Chemscore.Hbonds>
donor molecule, donor type, donor heavy atom, donor atom, acceptor molecule, acceptor atom, score
      L1  H     8    32       P1  7948  1.00
      L1  H    11    33       P1  7948  0.71
      P1  H  7997  8010       L1    15  0.46

> <Gold.PLP.Chemscore.Internal.Correction>
0.1698

> <Gold.Rescore>
     Score         DG    S(hbond)    S(metal)    S(lipo)     H(rot)  DE(clash)    DE(int)     intcor
     17.67     -20.13       2.79        0.00      83.89       1.75       0.54       1.92       ----

> <Gold.Chemscore.Fitness>
17.6683

> <Gold.Chemscore.DG>
-20.1345

> <Gold.Chemscore.ZeroCoef>
-5.4800

> <Gold.Chemscore.Hbond>
2.7915

> <Gold.Chemscore.Metal>
0.0000

> <Gold.Chemscore.Lipo>
83.8938

> <Gold.Chemscore.Internal_Hbond>
0.0000

> <Gold.Chemscore.DEClash>
0.5438

> <Gold.Chemscore.DEInternal>
1.9224

> <Gold.Chemscore.Rot>
1.7518

> <Gold.Chemscore.Internal.Correction>
   9.000000E+99

> <Gold.Chemscore.Hbonds>
donor molecule, donor type, donor heavy atom, donor atom, acceptor molecule, acceptor atom, score
      L1  H     8    32       P1  7948  1.00
      L1  H    11    33       P1  7948  0.44
      P1  H  7997  8010       L1    15  0.45

> <Gold.Chemscore.Hbond.Weighted>
-9.3235

> <Gold.Chemscore.Metal.Weighted>
-0.0000

> <Gold.Chemscore.Lipo.Weighted>
-9.8156

> <Gold.Chemscore.Internal_Hbond.Weighted>
0.0000

> <Gold.Chemscore.DEClash.Weighted>
0.5438

> <Gold.Chemscore.DEInternal.Weighted>
1.9224

> <Gold.Chemscore.Rot.Weighted>
4.4846

> <Gold.Chemscore.Internal.Correction.Weighted>
   9.000000E+99

> <Gold.Protein.RotatedTorsions>
[ 6907 6896 6895 6894 ] final -137.24 input  -60.11 | X-H torsion
[ 7974 7965 7964 7962 ] final  102.21 input  175.53 | X-H torsion
[ 8008 7997 7996 7995 ] final  120.35 input   59.86 | X-H torsion
[ 10167 10162 10161 10158 ] final  158.72 input  -65.29 | X-H torsion
[ 10718 10713 10712 10709 ] final -150.01 input   66.30 | X-H torsion
[ 10763 10752 10751 10750 ] final  174.36 input  -60.55 | X-H torsion
[ 11005 11000 10999 10996 ] final   74.87 input  -57.11 | X-H torsion

> <Gold.Protein.ActiveResidues>
 VAL166  LYS551  ARG553  GLY616  TRP617  ASP618  TYR619  PRO620  LYS621  CYS622 
 ASP623  PHE694  ASN695  SER759  ASP760  ASP761  ALA762  ILE779  LEU786  VAL792 
 PHE793  MET794  SER795  GLU796  ALA797  LYS798  CYS799  TRP800  GLU811  SER814 

> <Gold.Protein.RotatedAtoms>
  151.0200  133.5886  159.2672 H   0  0  0  0  0  0  0  0  0  0  0  0  # atno 6907 bound_to 6896
  151.3006  135.0766  159.9247 H   0  0  0  0  0  0  0  0  0  0  0  0  # atno 6908 bound_to 6896
  152.5321  133.9882  159.7892 H   0  0  0  0  0  0  0  0  0  0  0  0  # atno 6909 bound_to 6896
  145.3621  139.2416  143.3501 H   0  0  0  0  0  0  0  0  0  0  0  0  # atno 7974 bound_to 7965
  156.2638  140.2832  156.1136 H   0  0  0  0  0  0  0  0  0  0  0  0  # atno 8008 bound_to 7997
  155.1231  140.0392  157.2773 H   0  0  0  0  0  0  0  0  0  0  0  0  # atno 8009 bound_to 7997
  154.6656  140.2576  155.7068 H   0  0  0  0  0  0  0  0  0  0  0  0  # atno 8010 bound_to 7997
  139.4828  144.4798  151.8460 H   0  0  0  0  0  0  0  0  0  0  0  0  # atno 10167 bound_to 10162
  156.4405  130.8120  151.2349 H   0  0  0  0  0  0  0  0  0  0  0  0  # atno 10718 bound_to 10713
  154.4528  135.2765  155.1769 H   0  0  0  0  0  0  0  0  0  0  0  0  # atno 10763 bound_to 10752
  154.3589  135.6134  153.5684 H   0  0  0  0  0  0  0  0  0  0  0  0  # atno 10764 bound_to 10752
  152.9848  135.5829  154.4875 H   0  0  0  0  0  0  0  0  0  0  0  0  # atno 10765 bound_to 10752
  139.9370  134.7469  156.1201 H   0  0  0  0  0  0  0  0  0  0  0  0  # atno 11005 bound_to 11000
  146.2923  140.4257  142.8735 LP  0  0  0  0  0  0  0  0  0  0  0  0  # atno 17320 bound_to 7965
  144.8639  140.7178  143.6090 LP  0  0  0  0  0  0  0  0  0  0  0  0  # atno 17321 bound_to 7965
  140.4273  144.2163  150.5887 LP  0  0  0  0  0  0  0  0  0  0  0  0  # atno 17342 bound_to 10162
  140.4815  143.2378  151.8949 LP  0  0  0  0  0  0  0  0  0  0  0  0  # atno 17343 bound_to 10162
  157.7506  131.0169  150.3566 LP  0  0  0  0  0  0  0  0  0  0  0  0  # atno 17370 bound_to 10713
  156.3922  130.3900  149.7021 LP  0  0  0  0  0  0  0  0  0  0  0  0  # atno 17371 bound_to 10713
  141.0989  133.6685  156.2708 LP  0  0  0  0  0  0  0  0  0  0  0  0  # atno 17394 bound_to 11000
  140.6049  134.5517  157.5524 LP  0  0  0  0  0  0  0  0  0  0  0  0  # atno 17395 bound_to 11000

$$$$
