#       Name:                AV-unprocessed.smi:59
#       Creating user name   scv26
#       Creation time:       Thu Mar 26 16:48:34 2020


#       File generated by GOLD software.
#

@<TRIPOS>MOLECULE
AV-unprocessed.smi:59
    38    39     1
SMALL
NO_CHARGES


@<TRIPOS>ATOM
      1 ****        -0.7232   2.1343   1.3142 C.3            1 S1                 0.0000
      2 ****        -1.2438   1.0449   0.4943 N.am           1 S1                 0.0000
      3 ****        -2.2519   1.1560  -0.3802 C.2            1 S1                 0.0000
      4 ****        -2.8465   2.1927  -0.6765 O.2            1 S1                 0.0000
      5 ****        -2.6198  -0.2076  -0.9401 C.3            1 S1                 0.0000
      6 ****        -2.8863  -0.1527  -2.3291 O.3            1 S1                 0.0000
      7 ****        -1.3800  -1.0529  -0.5955 C.3            1 S1                 0.0000
      8 ****        -1.6988  -2.5417  -0.3567 C.2            1 S1                 0.0000
      9 ****        -1.0080  -3.1565   0.4854 O.co2          1 S1                 0.0000
     10 ****        -2.6184  -3.0534  -1.0328 O.co2          1 S1                -1.0000
     11 ****        -0.7118  -0.3149   0.5914 C.3            1 S1                 0.0000
     12 ****         0.7984  -0.3934   0.5278 C.2            1 S1                 0.0000
     13 ****         1.6449  -1.3347   1.1809 C.2            1 S1                 0.0000
     14 ****         2.9289  -1.1393   0.9271 N.2            1 S1                 0.0000
     15 ****         2.9478  -0.0784   0.0955 N.pl3          1 S1                 0.0000
     16 ****         4.2135   0.4221  -0.3959 C.3            1 S1                 0.0000
     17 ****         1.6790   0.3899  -0.1661 C.2            1 S1                 0.0000
     18 ****        -3.5082  -0.5631  -0.4156 H              1 S1                 0.0000
     19 ****        -0.7044  -1.0097  -1.4525 H              1 S1                 0.0000
     20 ****        -1.0750  -0.7192   1.5382 H              1 S1                 0.0000
     21 ****        -1.5343   2.7361   1.7263 H              1 S1                 0.0000
     22 ****        -0.0823   2.7842   0.7176 H              1 S1                 0.0000
     23 ****        -0.1378   1.7506   2.1504 H              1 S1                 0.0000
     24 ****        -3.6644   0.3668  -2.4614 H              1 S1                 0.0000
     25 ****         1.3632  -2.1482   1.8329 H              1 S1                 0.0000
     26 ****         4.0448   1.1297  -1.2081 H              1 S1                 0.0000
     27 ****         4.8219  -0.4036  -0.7667 H              1 S1                 0.0000
     28 ****         4.7460   0.9268   0.4106 H              1 S1                 0.0000
     29 ****         1.5064   1.2350  -0.8161 H              1 S1                 0.0000
     30 ****        -2.5861   3.0582  -0.2485 LP             1 S1                 0.0000
     31 ****        -3.5898   2.1692  -1.3451 LP             1 S1                 0.0000
     32 ****        -3.0325  -1.0768  -2.6822 LP             1 S1                 0.0000
     33 ****        -2.1140   0.2677  -2.8053 LP             1 S1                 0.0000
     34 ****        -1.1751  -4.1275   0.6562 LP             1 S1                 0.0000
     35 ****        -0.2885  -2.6770   0.9879 LP             1 S1                 0.0000
     36 ****        -2.8448  -4.0206  -0.9178 LP             1 S1                 0.0000
     37 ****        -3.1272  -2.4952  -1.6882 LP             1 S1                 0.0000
     38 ****         3.7087  -1.6606   1.2738 LP             1 S1                 0.0000
@<TRIPOS>BOND
    1    1    2 1     
    2    1   21 1     
    3    1   22 1     
    4    1   23 1     
    5    2   11 1     
    6    2    3 am    
    7    3    4 2     
    8    3    5 1     
    9    5   18 1     
   10    5    6 1     
   11    5    7 1     
   12    6   24 1     
   13    7   19 1     
   14    7    8 1     
   15    7   11 1     
   16    8    9 ar    
   17    8   10 ar    
   18   11   20 1     
   19   11   12 1     
   20   12   17 2     
   21   12   13 1     
   22   13   14 2     
   23   13   25 1     
   24   14   15 1     
   25   15   16 1     
   26   15   17 1     
   27   16   26 1     
   28   16   27 1     
   29   16   28 1     
   30   17   29 1     
   31    4   30 1     
   32    4   31 1     
   33    6   32 1     
   34    6   33 1     
   35    9   34 1     
   36    9   35 1     
   37   10   36 1     
   38   10   37 1     
   39   14   38 1     
@<TRIPOS>SUBSTRUCTURE
      1 S1             1
@<TRIPOS>SET
LONE_PAIRS      STATIC     ATOMS    <user>   **** ""
9 30 31 32 33 34 35 36 37 38
DONOR_HYDROGENS      STATIC     ATOMS    <user>   **** ""
1 24
ATOM$BLUE        STATIC     ATOMS    COLORGROUP SYSTEM
9 30 31 32 33 34 35 36 37 38
ATOM$RED        STATIC     ATOMS    COLORGROUP SYSTEM
1 24
