AV-unprocessed.smi:2024|AV-procd|sdf|8196|dock2
  -GOLD-   2272010453D 1   1.00000     0.00000
 Structure written by MMmdl.
 42 43  0  0  0  0  0  0  0  0  2 V2000
  152.4775  144.3760  159.4715 C   0  0  0  0  0  0  0  0  0  0  0  0
  152.2938  143.2170  158.6115 N   0  0  0  0  0  0  0  0  0  0  0  0
  152.4062  141.9702  159.3627 C   0  0  0  0  0  0  0  0  0  0  0  0
  152.2207  140.7429  158.4519 C   0  0  0  0  0  0  0  0  0  0  0  0
  150.9135  140.7603  157.7768 N   0  0  0  0  0  0  0  0  0  0  0  0
  150.5940  139.5359  156.9913 C   0  0  0  0  0  0  0  0  0  0  0  0
  149.1451  139.5265  156.4481 C   0  0  0  0  0  0  0  0  0  0  0  0
  151.5440  139.3927  155.7750 C   0  0  0  0  0  0  0  0  0  0  0  0
  150.7752  138.2452  157.8402 C   0  0  0  0  0  0  0  0  0  0  0  0
  149.8325  138.1762  158.9535 N   0  0  0  0  0  0  0  0  0  0  0  0
  149.2477  137.0587  159.4027 C   0  0  0  0  0  0  0  0  0  0  0  0
  149.5052  135.9760  158.8711 O   0  0  0  0  0  0  0  0  0  0  0  0
  148.4001  137.2637  160.4365 N   0  5  0  0  0  0  0  0  0  0  0  0
  147.8999  136.2160  161.1114 C   0  0  0  0  0  0  0  0  0  0  0  0
  147.7081  135.0141  160.5556 N   0  0  0  0  0  0  0  0  0  0  0  0
  147.1825  134.0709  161.4405 C   0  0  0  0  0  0  0  0  0  0  0  0
  146.9786  134.5636  162.7023 C   0  0  0  0  0  0  0  0  0  0  0  0
  147.4425  136.2373  162.8170 S   0  0  0  0  0  0  0  0  0  0  0  0
  150.8033  142.0232  157.0285 C   0  0  0  0  0  0  0  0  0  0  0  0
  150.9952  143.2458  157.9441 C   0  0  0  0  0  0  0  0  0  0  0  0
  153.4586  144.3523  159.9467 H   0  0  0  0  0  0  0  0  0  0  0  0
  151.7203  144.4084  160.2563 H   0  0  0  0  0  0  0  0  0  0  0  0
  152.4096  145.2993  158.8952 H   0  0  0  0  0  0  0  0  0  0  0  0
  153.3837  141.9177  159.8433 H   0  0  0  0  0  0  0  0  0  0  0  0
  151.6638  141.9464  160.1622 H   0  0  0  0  0  0  0  0  0  0  0  0
  153.0277  140.7151  157.7194 H   0  0  0  0  0  0  0  0  0  0  0  0
  152.3255  139.8547  159.0723 H   0  0  0  0  0  0  0  0  0  0  0  0
  148.9497  138.6190  155.8755 H   0  0  0  0  0  0  0  0  0  0  0  0
  148.9487  140.3662  155.7817 H   0  0  0  0  0  0  0  0  0  0  0  0
  148.4067  139.5576  157.2488 H   0  0  0  0  0  0  0  0  0  0  0  0
  151.4362  138.4193  155.2952 H   0  0  0  0  0  0  0  0  0  0  0  0
  152.5899  139.4954  156.0672 H   0  0  0  0  0  0  0  0  0  0  0  0
  151.3428  140.1347  155.0026 H   0  0  0  0  0  0  0  0  0  0  0  0
  150.6717  137.3515  157.2239 H   0  0  0  0  0  0  0  0  0  0  0  0
  151.7879  138.1984  158.2445 H   0  0  0  0  0  0  0  0  0  0  0  0
  149.5965  139.0464  159.4078 H   0  0  0  0  0  0  0  0  0  0  0  0
  146.9846  133.0703  161.0859 H   0  0  0  0  0  0  0  0  0  0  0  0
  146.5873  134.0482  163.5663 H   0  0  0  0  0  0  0  0  0  0  0  0
  151.5398  142.0564  156.2254 H   0  0  0  0  0  0  0  0  0  0  0  0
  149.8238  142.1145  156.5630 H   0  0  0  0  0  0  0  0  0  0  0  0
  150.1934  143.2759  158.6840 H   0  0  0  0  0  0  0  0  0  0  0  0
  150.9062  144.1569  157.3517 H   0  0  0  0  0  0  0  0  0  0  0  0
  1  2  1  0  0  0  0
  1 21  1  0  0  0  0
  1 22  1  0  0  0  0
  1 23  1  0  0  0  0
  2 20  1  0  0  0  0
  2  3  1  0  0  0  0
  3  4  1  0  0  0  0
  3 24  1  0  0  0  0
  3 25  1  0  0  0  0
  4  5  1  0  0  0  0
  4 26  1  0  0  0  0
  4 27  1  0  0  0  0
  5  6  1  0  0  0  0
  5 19  1  0  0  0  0
  6  7  1  0  0  0  0
  6  8  1  0  0  0  0
  6  9  1  0  0  0  0
  7 28  1  0  0  0  0
  7 29  1  0  0  0  0
  7 30  1  0  0  0  0
  8 31  1  0  0  0  0
  8 32  1  0  0  0  0
  8 33  1  0  0  0  0
  9 10  1  0  0  0  0
  9 34  1  0  0  0  0
  9 35  1  0  0  0  0
 10 11  1  0  0  0  0
 10 36  1  0  0  0  0
 11 12  2  0  0  0  0
 11 13  1  0  0  0  0
 13 14  1  0  0  0  0
 14 18  1  0  0  0  0
 14 15  2  0  0  0  0
 15 16  1  0  0  0  0
 16 17  2  0  0  0  0
 16 37  1  0  0  0  0
 17 18  1  0  0  0  0
 17 38  1  0  0  0  0
 19 20  1  0  0  0  0
 19 39  1  0  0  0  0
 19 40  1  0  0  0  0
 20 41  1  0  0  0  0
 20 42  1  0  0  0  0
M  CHG  1  13  -1
M  END
> <s_m_source_file>
AV-unprocessed.smi

> <i_m_source_file_index>
2024

> <i_lp_mmshare_version>
43012

> <i_f3d_flags>
0

> <s_epik_input>
W0NIM11OMVtDSDJdW0NIMl1OKFtDSDJdW0NIMl0xKUMoW0NIM10pKFtDSDNdKVtDSDJdW05IXUMoPU8pW05IXWMybltjSF1bY0hdczI=

> <s_epik_cmdline>
J2VwaWtfcHl0aG9uJywgJy1waCcsICc3LjAnLCAnLXRuJywgJzgnLCAnLW1hJywgJzIwMCcsICctbWV0YWxfYmluZGluZycsICctaW1hZScsICc8aW5maWxlLm1hZT4nLCAnLW9tYWUnLCAnPG91dGZpbGUubWFlPic=

> <r_lp_tautomer_probability>
0.999

> <r_epik_Ionization_Penalty>
10.1013

> <r_epik_Ionization_Penalty_Charging>
5.92713

> <r_epik_Ionization_Penalty_Neutral>
4.17417

> <r_epik_State_Penalty>
8.064

> <r_epik_Charging_Adjusted_Penalty>
13.9911

> <i_epik_Tot_Q>
-1

> <i_epik_Tot_abs_Q>
1

> <r_epik_Metal_State_Penalty>
4.03005

> <b_epik_Metal_Only>
1

> <s_lp_Force_Field>
OPLS_2005

> <r_lp_Energy>
45.4421

> <b_lp_Chiralities_Consistent>
1

> <s_lp_Variant>
AV-unprocessed.smi:2024-6

> <Gold.Version>
5.8.1

> <Gold.Id.Protein>
6NUR|6NUR_protein|mol2

> <Gold.PLP.Fitness>
46.6507

> <Gold.PLP.PLP>
-38.3455

> <Gold.PLP.part.hbond>
-3.0000

> <Gold.PLP.part.metal>
0.0000

> <Gold.PLP.part.buried>
-5.9091

> <Gold.PLP.part.nonpolar>
-30.8375

> <Gold.PLP.part.repulsive>
0.2323

> <Gold.PLP.ligand.clash>
0.0000

> <Gold.PLP.ligand.torsion>
0.4229

> <Gold.PLP.Chemscore.Hbond>
3.0125

> <Gold.PLP.Chemscore.CHOScore>
0.0000

> <Gold.PLP.Chemscore.Metal>
0.0000

> <Gold.Chemscore.Hbonds>
donor molecule, donor type, donor heavy atom, donor atom, acceptor molecule, acceptor atom, score
      P1  H  6896  6909       L1    12  1.00
      P1  H  6931  6943       L1    13  1.31
      P1  H  6934  6947       L1    13  0.69

> <Gold.PLP.Chemscore.Internal.Correction>
0.1136

> <Gold.Rescore>
     Score         DG    S(hbond)    S(metal)    S(lipo)     H(rot)  DE(clash)    DE(int)     intcor
     15.22     -17.23       1.57        0.00      89.15       1.53       0.01       2.00       ----

> <Gold.Chemscore.Fitness>
15.2166

> <Gold.Chemscore.DG>
-17.2286

> <Gold.Chemscore.ZeroCoef>
-5.4800

> <Gold.Chemscore.Hbond>
1.5683

> <Gold.Chemscore.Metal>
0.0000

> <Gold.Chemscore.Lipo>
89.1481

> <Gold.Chemscore.Internal_Hbond>
0.0000

> <Gold.Chemscore.DEClash>
0.0128

> <Gold.Chemscore.DEInternal>
1.9992

> <Gold.Chemscore.Rot>
1.5312

> <Gold.Chemscore.Internal.Correction>
   9.000000E+99

> <Gold.Chemscore.Hbonds>
donor molecule, donor type, donor heavy atom, donor atom, acceptor molecule, acceptor atom, score
      P1  H  6896  6909       L1    12  0.99
      P1  H  6931  6943       L1    13  0.14
      P1  H  6934  6947       L1    13  0.25

> <Gold.Chemscore.Hbond.Weighted>
-5.2380

> <Gold.Chemscore.Metal.Weighted>
-0.0000

> <Gold.Chemscore.Lipo.Weighted>
-10.4303

> <Gold.Chemscore.Internal_Hbond.Weighted>
0.0000

> <Gold.Chemscore.DEClash.Weighted>
0.0128

> <Gold.Chemscore.DEInternal.Weighted>
1.9992

> <Gold.Chemscore.Rot.Weighted>
3.9198

> <Gold.Chemscore.Internal.Correction.Weighted>
   9.000000E+99

> <Gold.Protein.RotatedTorsions>
[ 6907 6896 6895 6894 ] final   50.11 input  -60.11 | X-H torsion
[ 7974 7965 7964 7962 ] final   10.37 input  175.53 | X-H torsion
[ 8008 7997 7996 7995 ] final  101.53 input   59.86 | X-H torsion
[ 10167 10162 10161 10158 ] final -179.35 input  -65.29 | X-H torsion
[ 10718 10713 10712 10709 ] final  170.45 input   66.30 | X-H torsion
[ 10763 10752 10751 10750 ] final   13.45 input  -60.55 | X-H torsion
[ 11005 11000 10999 10996 ] final   72.36 input  -57.11 | X-H torsion

> <Gold.Protein.ActiveResidues>
 VAL166  LYS551  ARG553  GLY616  TRP617  ASP618  TYR619  PRO620  LYS621  CYS622 
 ASP623  PHE694  ASN695  SER759  ASP760  ASP761  ALA762  ILE779  LEU786  VAL792 
 PHE793  MET794  SER795  GLU796  ALA797  LYS798  CYS799  TRP800  GLU811  SER814 

> <Gold.Protein.RotatedAtoms>
  152.2982  134.7642  160.0363 H   0  0  0  0  0  0  0  0  0  0  0  0  # atno 6907 bound_to 6896
  151.8165  133.3383  159.3579 H   0  0  0  0  0  0  0  0  0  0  0  0  # atno 6908 bound_to 6896
  150.7261  134.5544  159.5855 H   0  0  0  0  0  0  0  0  0  0  0  0  # atno 6909 bound_to 6896
  146.2389  139.9645  142.8454 H   0  0  0  0  0  0  0  0  0  0  0  0  # atno 7974 bound_to 7965
  156.1307  140.3196  155.8345 H   0  0  0  0  0  0  0  0  0  0  0  0  # atno 8008 bound_to 7997
  155.4336  140.0520  157.3033 H   0  0  0  0  0  0  0  0  0  0  0  0  # atno 8009 bound_to 7997
  154.4897  140.2087  155.9588 H   0  0  0  0  0  0  0  0  0  0  0  0  # atno 8010 bound_to 7997
  139.5390  144.2415  152.0856 H   0  0  0  0  0  0  0  0  0  0  0  0  # atno 10167 bound_to 10162
  157.0080  131.0195  151.2811 H   0  0  0  0  0  0  0  0  0  0  0  0  # atno 10718 bound_to 10713
  153.1720  135.6814  153.8595 H   0  0  0  0  0  0  0  0  0  0  0  0  # atno 10763 bound_to 10752
  153.7956  135.3163  155.3385 H   0  0  0  0  0  0  0  0  0  0  0  0  # atno 10764 bound_to 10752
  154.8004  135.4781  154.0354 H   0  0  0  0  0  0  0  0  0  0  0  0  # atno 10765 bound_to 10752
  139.9495  134.7253  156.0897 H   0  0  0  0  0  0  0  0  0  0  0  0  # atno 11005 bound_to 11000
  145.1740  140.9735  143.4305 LP  0  0  0  0  0  0  0  0  0  0  0  0  # atno 17320 bound_to 7965
  145.0003  139.3605  143.6171 LP  0  0  0  0  0  0  0  0  0  0  0  0  # atno 17321 bound_to 7965
  140.1891  144.4770  150.6488 LP  0  0  0  0  0  0  0  0  0  0  0  0  # atno 17342 bound_to 10162
  140.6611  143.2252  151.5853 LP  0  0  0  0  0  0  0  0  0  0  0  0  # atno 17343 bound_to 10162
  157.5341  130.8078  149.7952 LP  0  0  0  0  0  0  0  0  0  0  0  0  # atno 17370 bound_to 10713
  156.0146  130.3819  150.2151 LP  0  0  0  0  0  0  0  0  0  0  0  0  # atno 17371 bound_to 10713
  141.1154  133.6629  156.3081 LP  0  0  0  0  0  0  0  0  0  0  0  0  # atno 17394 bound_to 11000
  140.5753  134.5799  157.5467 LP  0  0  0  0  0  0  0  0  0  0  0  0  # atno 17395 bound_to 11000

$$$$
