#       Name:                AV-unprocessed.smi:1218
#       Creating user name   scv26
#       Creation time:       Fri Mar 27 04:16:43 2020


#       File generated by GOLD software.
#

@<TRIPOS>MOLECULE
AV-unprocessed.smi:1218
    50    51     1
SMALL
NO_CHARGES


@<TRIPOS>ATOM
      1 ****        -3.7614   3.4531  -1.2817 C.3            1 S1                 0.0000
      2 ****        -4.1264   2.0473  -1.7848 C.3            1 S1                 0.0000
      3 ****        -5.6502   1.8564  -1.7884 C.3            1 S1                 0.0000
      4 ****        -3.4468   0.9455  -0.9433 C.3            1 S1                 0.0000
      5 ****        -1.9829   0.9334  -0.9684 N.3            1 S1                 0.0000
      6 ****        -1.4443   0.5634  -2.2756 C.3            1 S1                 0.0000
      7 ****         0.0926   0.5148  -2.2701 C.3            1 S1                 0.0000
      8 ****         0.5354  -0.3822  -1.2583 O.3            1 S1                 0.0000
      9 ****         0.0877  -0.0159   0.0449 C.3            1 S1                 0.0000
     10 ****         0.6341  -1.0277   1.0662 C.3            1 S1                 0.0000
     11 ****         2.0899  -0.9724   1.1473 N.am           1 S1                 0.0000
     12 ****         2.9344  -1.7710   0.4754 C.2            1 S1                 0.0000
     13 ****         2.5648  -2.6663  -0.2840 O.2            1 S1                 0.0000
     14 ****         4.4284  -1.5159   0.6817 C.3            1 S1                 0.0000
     15 ****         4.8463  -1.8622   2.0292 N.pl3          1 S1                 0.0000
     16 ****         5.0332  -3.1163   2.5732 C.2            1 S1                 0.0000
     17 ****         5.4297  -2.9425   3.8681 C.2            1 S1                 0.0000
     18 ****         5.4603  -1.5286   4.0255 C.2            1 S1                 0.0000
     19 ****         5.1102  -0.8846   2.9239 N.2            1 S1                 0.0000
     20 ****        -1.4538   0.0174   0.0372 C.3            1 S1                 0.0000
     21 ****        -4.0699   3.5955  -0.2455 H              1 S1                 0.0000
     22 ****        -4.2463   4.2236  -1.8819 H              1 S1                 0.0000
     23 ****        -2.6865   3.6268  -1.3361 H              1 S1                 0.0000
     24 ****        -3.8016   1.9636  -2.8212 H              1 S1                 0.0000
     25 ****        -6.0620   1.9315  -0.7815 H              1 S1                 0.0000
     26 ****        -5.9228   0.8792  -2.1880 H              1 S1                 0.0000
     27 ****        -6.1398   2.6103  -2.4056 H              1 S1                 0.0000
     28 ****        -3.7823   1.0633   0.0883 H              1 S1                 0.0000
     29 ****        -3.8165  -0.0304  -1.2621 H              1 S1                 0.0000
     30 ****        -1.8338  -0.4109  -2.5744 H              1 S1                 0.0000
     31 ****        -1.7632   1.2756  -3.0354 H              1 S1                 0.0000
     32 ****         0.4650   0.1744  -3.2363 H              1 S1                 0.0000
     33 ****         0.5114   1.5072  -2.0963 H              1 S1                 0.0000
     34 ****         0.4694   0.9776   0.2887 H              1 S1                 0.0000
     35 ****         0.2419  -0.7963   2.0568 H              1 S1                 0.0000
     36 ****         0.2913  -2.0366   0.8298 H              1 S1                 0.0000
     37 ****         2.4871  -0.2662   1.7502 H              1 S1                 0.0000
     38 ****         5.0096  -2.1093  -0.0254 H              1 S1                 0.0000
     39 ****         4.6555  -0.4672   0.4825 H              1 S1                 0.0000
     40 ****         4.8688  -4.0166   1.9994 H              1 S1                 0.0000
     41 ****         5.6639  -3.7083   4.5923 H              1 S1                 0.0000
     42 ****         5.7254  -0.9549   4.9014 H              1 S1                 0.0000
     43 ****        -1.8104   0.3122   1.0249 H              1 S1                 0.0000
     44 ****        -1.8364  -0.9884  -0.1440 H              1 S1                 0.0000
     45 ****        -1.6946   1.8693  -0.7663 LP             1 S1                 0.0000
     46 ****         1.5353  -0.3959  -1.2597 LP             1 S1                 0.0000
     47 ****         0.1893  -1.2964  -1.4690 LP             1 S1                 0.0000
     48 ****         1.5886  -2.8296  -0.4267 LP             1 S1                 0.0000
     49 ****         3.2407  -3.2305  -0.7582 LP             1 S1                 0.0000
     50 ****         5.0536   0.1040   2.7847 LP             1 S1                 0.0000
@<TRIPOS>BOND
    1    1    2 1     
    2    1   21 1     
    3    1   22 1     
    4    1   23 1     
    5    2    3 1     
    6    2    4 1     
    7    2   24 1     
    8    3   25 1     
    9    3   26 1     
   10    3   27 1     
   11    4    5 1     
   12    4   28 1     
   13    4   29 1     
   14    5   20 1     
   15    5    6 1     
   16    6    7 1     
   17    6   30 1     
   18    6   31 1     
   19    7    8 1     
   20    7   32 1     
   21    7   33 1     
   22    8    9 1     
   23    9   10 1     
   24    9   20 1     
   25    9   34 1     
   26   10   11 1     
   27   10   35 1     
   28   10   36 1     
   29   11   12 am    
   30   11   37 1     
   31   12   13 2     
   32   12   14 1     
   33   14   15 1     
   34   14   38 1     
   35   14   39 1     
   36   15   19 1     
   37   15   16 1     
   38   16   17 2     
   39   16   40 1     
   40   17   18 1     
   41   17   41 1     
   42   18   19 2     
   43   18   42 1     
   44   20   43 1     
   45   20   44 1     
   46    5   45 1     
   47    8   46 1     
   48    8   47 1     
   49   13   48 1     
   50   13   49 1     
   51   19   50 1     
@<TRIPOS>SUBSTRUCTURE
      1 S1             1
@<TRIPOS>SET
LONE_PAIRS      STATIC     ATOMS    <user>   **** ""
6 45 46 47 48 49 50
DONOR_HYDROGENS      STATIC     ATOMS    <user>   **** ""
1 37
ATOM$BLUE        STATIC     ATOMS    COLORGROUP SYSTEM
6 45 46 47 48 49 50
ATOM$RED        STATIC     ATOMS    COLORGROUP SYSTEM
1 37
