AV-unprocessed.smi:3141|AV-procd|sdf|11964|dock6
  -GOLD-   2272017363D 1   1.00000     0.00000
 Structure written by MMmdl.
 36 38  0  0  0  0  0  0  0  0  2 V2000
  145.5386  136.9536  154.9341 O   0  0  0  0  0  0  0  0  0  0  0  0
  146.5068  136.8549  154.1802 C   0  0  0  0  0  0  0  0  0  0  0  0
  147.1179  137.8934  153.5963 N   0  0  0  0  0  0  0  0  0  0  0  0
  146.7458  139.2626  153.7469 C   0  0  0  0  0  0  0  0  0  0  0  0
  147.0460  140.2004  152.5976 C   0  0  0  0  0  0  0  0  0  0  0  0
  147.8562  140.2842  153.8615 C   0  0  0  0  0  0  0  0  0  0  0  0
  147.0674  135.6886  153.8290 N   0  0  0  0  0  0  0  0  0  0  0  0
  146.6594  134.3671  154.3114 C   0  0  2  0  0  0  0  0  0  0  0  0
  147.8593  133.6733  154.9874 C   0  0  0  0  0  0  0  0  0  0  0  0
  148.3184  132.5437  154.0489 C   0  0  0  0  0  0  0  0  0  0  0  0
  147.5684  132.7550  152.7327 C   0  0  0  0  0  0  0  0  0  0  0  0
  146.2527  133.4010  153.1785 C   0  0  2  0  0  0  0  0  0  0  0  0
  145.4117  133.9779  152.1122 N   0  0  0  0  0  0  0  0  0  0  0  0
  145.8290  134.8664  151.1536 C   0  0  0  0  0  0  0  0  0  0  0  0
  144.7527  135.1071  150.3401 C   0  0  0  0  0  0  0  0  0  0  0  0
  143.7234  134.3495  150.8278 N   0  3  0  0  0  0  0  0  0  0  0  0
  144.1253  133.6595  151.8998 C   0  0  0  0  0  0  0  0  0  0  0  0
  147.9079  137.7038  152.9968 H   0  0  0  0  0  0  0  0  0  0  0  0
  145.8399  139.4756  154.3129 H   0  0  0  0  0  0  0  0  0  0  0  0
  147.5329  139.7873  151.7162 H   0  0  0  0  0  0  0  0  0  0  0  0
  146.3340  141.0001  152.4037 H   0  0  0  0  0  0  0  0  0  0  0  0
  147.6850  141.1400  154.5116 H   0  0  0  0  0  0  0  0  0  0  0  0
  148.8837  139.9271  153.8247 H   0  0  0  0  0  0  0  0  0  0  0  0
  147.8580  135.7150  153.2015 H   0  0  0  0  0  0  0  0  0  0  0  0
  145.8429  134.4780  155.0275 H   0  0  0  0  0  0  0  0  0  0  0  0
  148.6743  134.3713  155.1855 H   0  0  0  0  0  0  0  0  0  0  0  0
  147.5659  133.2557  155.9513 H   0  0  0  0  0  0  0  0  0  0  0  0
  149.3994  132.5374  153.9068 H   0  0  0  0  0  0  0  0  0  0  0  0
  148.0405  131.5798  154.4771 H   0  0  0  0  0  0  0  0  0  0  0  0
  148.1490  133.4294  152.1035 H   0  0  0  0  0  0  0  0  0  0  0  0
  147.4182  131.8253  152.1831 H   0  0  0  0  0  0  0  0  0  0  0  0
  145.6517  132.6089  153.6294 H   0  0  0  0  0  0  0  0  0  0  0  0
  146.8393  135.2481  151.1187 H   0  0  0  0  0  0  0  0  0  0  0  0
  144.6476  135.7387  149.4699 H   0  0  0  0  0  0  0  0  0  0  0  0
  143.5229  132.9742  152.4676 H   0  0  0  0  0  0  0  0  0  0  0  0
  142.7933  134.3084  150.4303 H   0  0  0  0  0  0  0  0  0  0  0  0
  1  2  2  0  0  0  0
  2  3  1  0  0  0  0
  2  7  1  0  0  0  0
  3  4  1  0  0  0  0
  3 18  1  0  0  0  0
  4  6  1  0  0  0  0
  4  5  1  0  0  0  0
  4 19  1  0  0  0  0
  5  6  1  0  0  0  0
  5 20  1  0  0  0  0
  5 21  1  0  0  0  0
  6 22  1  0  0  0  0
  6 23  1  0  0  0  0
  7  8  1  0  0  0  0
  7 24  1  0  0  0  0
  8 12  1  0  0  0  0
  8  9  1  0  0  0  0
  8 25  1  0  0  0  0
  9 10  1  0  0  0  0
  9 26  1  0  0  0  0
  9 27  1  0  0  0  0
 10 11  1  0  0  0  0
 10 28  1  0  0  0  0
 10 29  1  0  0  0  0
 11 12  1  0  0  0  0
 11 30  1  0  0  0  0
 11 31  1  0  0  0  0
 12 13  1  0  0  0  0
 12 32  1  0  0  0  0
 13 17  1  0  0  0  0
 13 14  1  0  0  0  0
 14 15  2  0  0  0  0
 14 33  1  0  0  0  0
 15 16  1  0  0  0  0
 15 34  1  0  0  0  0
 16 17  2  0  0  0  0
 16 36  1  0  0  0  0
 17 35  1  0  0  0  0
M  CHG  1  16   1
M  END
> <s_m_source_file>
AV-unprocessed.smi

> <i_m_source_file_index>
3141

> <i_lp_mmshare_version>
43012

> <i_f3d_flags>
0

> <s_epik_input>
W0NIMl0xW0NIMl1bQ0hdMVtOSF1DKD1PKVtOSF1bQ0BASF0yW0NIMl1bQ0gyXVtDSDJdW0NASF0ybjNbY0hdW2NIXW5bY0hdMw==

> <s_epik_cmdline>
J2VwaWtfcHl0aG9uJywgJy1waCcsICc3LjAnLCAnLXRuJywgJzgnLCAnLW1hJywgJzIwMCcsICctbWV0YWxfYmluZGluZycsICctaW1hZScsICc8aW5maWxlLm1hZT4nLCAnLW9tYWUnLCAnPG91dGZpbGUubWFlPic=

> <r_lp_tautomer_probability>
1

> <r_epik_Ionization_Penalty>
0.205063

> <r_epik_Ionization_Penalty_Charging>
0

> <r_epik_Ionization_Penalty_Neutral>
0.205063

> <r_epik_State_Penalty>
0.194948

> <r_epik_Charging_Adjusted_Penalty>
0.194948

> <i_epik_Tot_Q>
1

> <i_epik_Tot_abs_Q>
1

> <r_epik_Metal_State_Penalty>
0.500882

> <b_epik_Metal_Only>
0

> <s_lp_Force_Field>
OPLS_2005

> <r_lp_Energy>
37.736

> <b_lp_Chiralities_Consistent>
1

> <s_lp_Variant>
AV-unprocessed.smi:3141-3

> <Gold.Version>
5.8.1

> <Gold.Id.Protein>
6NUR|6NUR_protein|mol2

> <Gold.PLP.Fitness>
41.0587

> <Gold.PLP.PLP>
-24.4477

> <Gold.PLP.part.hbond>
-3.0000

> <Gold.PLP.part.metal>
0.0000

> <Gold.PLP.part.buried>
-0.1593

> <Gold.PLP.part.nonpolar>
-21.9524

> <Gold.PLP.part.repulsive>
0.0357

> <Gold.PLP.ligand.clash>
0.0000

> <Gold.PLP.ligand.torsion>
0.4801

> <Gold.PLP.Chemscore.Hbond>
3.8960

> <Gold.PLP.Chemscore.CHOScore>
1.9386

> <Gold.PLP.Chemscore.Metal>
0.0000

> <Gold.Chemscore.Hbonds>
donor molecule, donor type, donor heavy atom, donor atom, acceptor molecule, acceptor atom, score
      L1  H     3    18       P1  7948  0.72
      L1  H     7    24       P1  7948  1.00
      L1  H    16    36       P1 10186  2.00
      L1  C    14    33       P1  7948  1.00
      L1  C    17    35       P1 10957  0.47

> <Gold.PLP.Chemscore.Internal.Correction>
0.0673

> <Gold.Rescore>
     Score         DG    S(hbond)    S(metal)    S(lipo)     H(rot)  DE(clash)    DE(int)     intcor
     14.88     -16.99       2.67        0.00      57.24       1.61       0.79       1.32       ----

> <Gold.Chemscore.Fitness>
14.8840

> <Gold.Chemscore.DG>
-16.9920

> <Gold.Chemscore.ZeroCoef>
-5.4800

> <Gold.Chemscore.Hbond>
2.6748

> <Gold.Chemscore.Metal>
0.0000

> <Gold.Chemscore.Lipo>
57.2365

> <Gold.Chemscore.Internal_Hbond>
0.0000

> <Gold.Chemscore.DEClash>
0.7852

> <Gold.Chemscore.DEInternal>
1.3228

> <Gold.Chemscore.Rot>
1.6088

> <Gold.Chemscore.Internal.Correction>
   9.000000E+99

> <Gold.Chemscore.Hbonds>
donor molecule, donor type, donor heavy atom, donor atom, acceptor molecule, acceptor atom, score
      L1  H     3    18       P1  7948  0.70
      L1  H     7    24       P1  7948  1.00
      L1  H    16    36       P1 10186  0.72

> <Gold.Chemscore.Hbond.Weighted>
-8.9339

> <Gold.Chemscore.Metal.Weighted>
-0.0000

> <Gold.Chemscore.Lipo.Weighted>
-6.6967

> <Gold.Chemscore.Internal_Hbond.Weighted>
0.0000

> <Gold.Chemscore.DEClash.Weighted>
0.7852

> <Gold.Chemscore.DEInternal.Weighted>
1.3228

> <Gold.Chemscore.Rot.Weighted>
4.1186

> <Gold.Chemscore.Internal.Correction.Weighted>
   9.000000E+99

> <Gold.Protein.RotatedTorsions>
[ 6907 6896 6895 6894 ] final   37.90 input  -60.11 | X-H torsion
[ 7974 7965 7964 7962 ] final  160.36 input  175.53 | X-H torsion
[ 8008 7997 7996 7995 ] final -151.94 input   59.86 | X-H torsion
[ 10167 10162 10161 10158 ] final    7.61 input  -65.29 | X-H torsion
[ 10718 10713 10712 10709 ] final   65.95 input   66.30 | X-H torsion
[ 10763 10752 10751 10750 ] final  -49.12 input  -60.55 | X-H torsion
[ 11005 11000 10999 10996 ] final  -10.34 input  -57.11 | X-H torsion

> <Gold.Protein.ActiveResidues>
 VAL166  LYS551  ARG553  GLY616  TRP617  ASP618  TYR619  PRO620  LYS621  CYS622 
 ASP623  PHE694  ASN695  SER759  ASP760  ASP761  ALA762  ILE779  LEU786  VAL792 
 PHE793  MET794  SER795  GLU796  ALA797  LYS798  CYS799  TRP800  GLU811  SER814 

> <Gold.Protein.RotatedAtoms>
  152.1493  134.9001  160.0548 H   0  0  0  0  0  0  0  0  0  0  0  0  # atno 6907 bound_to 6896
  152.0038  133.3830  159.4201 H   0  0  0  0  0  0  0  0  0  0  0  0  # atno 6908 bound_to 6896
  150.6874  134.3726  159.5043 H   0  0  0  0  0  0  0  0  0  0  0  0  # atno 6909 bound_to 6896
  144.7741  139.7746  143.6285 H   0  0  0  0  0  0  0  0  0  0  0  0  # atno 7974 bound_to 7965
  155.6473  140.0708  157.2599 H   0  0  0  0  0  0  0  0  0  0  0  0  # atno 8008 bound_to 7997
  154.4170  140.1739  156.1686 H   0  0  0  0  0  0  0  0  0  0  0  0  # atno 8009 bound_to 7997
  155.9806  140.3354  155.6663 H   0  0  0  0  0  0  0  0  0  0  0  0  # atno 8010 bound_to 7997
  140.6362  143.7881  150.7362 H   0  0  0  0  0  0  0  0  0  0  0  0  # atno 10167 bound_to 10162
  157.6138  130.9242  150.0044 H   0  0  0  0  0  0  0  0  0  0  0  0  # atno 10718 bound_to 10713
  154.0890  135.6580  153.4849 H   0  0  0  0  0  0  0  0  0  0  0  0  # atno 10763 bound_to 10752
  153.0328  135.5198  154.7399 H   0  0  0  0  0  0  0  0  0  0  0  0  # atno 10764 bound_to 10752
  154.6517  135.3002  154.9947 H   0  0  0  0  0  0  0  0  0  0  0  0  # atno 10765 bound_to 10752
  140.7437  133.8649  155.8988 H   0  0  0  0  0  0  0  0  0  0  0  0  # atno 11005 bound_to 11000
  146.1908  139.5148  142.9806 LP  0  0  0  0  0  0  0  0  0  0  0  0  # atno 17320 bound_to 7965
  145.6237  141.0317  143.1901 LP  0  0  0  0  0  0  0  0  0  0  0  0  # atno 17321 bound_to 7965
  140.1503  143.4363  152.2136 LP  0  0  0  0  0  0  0  0  0  0  0  0  # atno 17342 bound_to 10162
  139.5572  144.7381  151.4259 LP  0  0  0  0  0  0  0  0  0  0  0  0  # atno 17343 bound_to 10162
  156.1252  130.3644  149.9822 LP  0  0  0  0  0  0  0  0  0  0  0  0  # atno 17370 bound_to 10713
  156.7894  130.9250  151.3646 LP  0  0  0  0  0  0  0  0  0  0  0  0  # atno 17371 bound_to 10713
  140.9813  134.1401  157.4491 LP  0  0  0  0  0  0  0  0  0  0  0  0  # atno 17394 bound_to 11000
  139.8801  135.0011  156.6050 LP  0  0  0  0  0  0  0  0  0  0  0  0  # atno 17395 bound_to 11000

$$$$
