AV-unprocessed.smi:1535|AV-procd|sdf|6171|dock1
  -GOLD-   22720 6323D 1   1.00000     0.00000
 Structure written by MMmdl.
 46 47  0  0  0  0  0  0  0  0  1 V2000
  152.7935  143.6291  162.0697 C   0  0  0  0  0  0  0  0  0  0  0  0
  152.4046  143.0426  160.7239 C   0  0  0  0  0  0  0  0  0  0  0  0
  152.7559  141.7057  160.4301 C   0  0  0  0  0  0  0  0  0  0  0  0
  152.4139  141.1227  159.1903 C   0  0  0  0  0  0  0  0  0  0  0  0
  152.6531  139.8508  158.6989 N   0  0  0  0  0  0  0  0  0  0  0  0
  152.0912  139.9189  157.4954 C   0  0  0  0  0  0  0  0  0  0  0  0
  151.5163  141.0865  157.1480 N   0  0  0  0  0  0  0  0  0  0  0  0
  150.8421  141.3961  155.8993 C   0  0  0  0  0  0  0  0  0  0  0  0
  149.3090  141.4372  156.0476 C   0  0  1  0  0  0  0  0  0  0  0  0
  148.9482  142.5587  156.8312 O   0  0  0  0  0  0  0  0  0  0  0  0
  148.6130  141.5514  154.6752 C   0  0  0  0  0  0  0  0  0  0  0  0
  147.1505  141.4277  154.6910 N   0  0  0  0  0  0  0  0  0  0  0  0
  146.7316  140.0447  154.4791 C   0  0  0  0  0  0  0  0  0  0  0  0
  146.5180  142.2906  153.6903 C   0  0  0  0  0  0  0  0  0  0  0  0
  145.6910  143.4674  154.2463 C   0  0  2  0  0  0  0  0  0  0  0  0
  144.4438  142.9933  155.0063 C   0  0  0  0  0  0  0  0  0  0  0  0
  145.3105  144.3829  153.1589 C   0  0  0  0  0  0  0  0  0  0  0  0
  145.0110  145.1027  152.3041 N   0  0  0  0  0  0  0  0  0  0  0  0
  151.7035  141.9196  158.2455 C   0  0  0  0  0  0  0  0  0  0  0  0
  151.3476  143.2505  158.5264 C   0  0  0  0  0  0  0  0  0  0  0  0
  151.6999  143.8185  159.7687 C   0  0  0  0  0  0  0  0  0  0  0  0
  151.3150  145.2581  160.0607 C   0  0  0  0  0  0  0  0  0  0  0  0
  153.2835  142.8872  162.7009 H   0  0  0  0  0  0  0  0  0  0  0  0
  151.9119  143.9884  162.6006 H   0  0  0  0  0  0  0  0  0  0  0  0
  153.4826  144.4635  161.9366 H   0  0  0  0  0  0  0  0  0  0  0  0
  153.2935  141.1145  161.1566 H   0  0  0  0  0  0  0  0  0  0  0  0
  152.0993  139.0708  156.8263 H   0  0  0  0  0  0  0  0  0  0  0  0
  151.2168  142.3505  155.5260 H   0  0  0  0  0  0  0  0  0  0  0  0
  151.1281  140.6408  155.1663 H   0  0  0  0  0  0  0  0  0  0  0  0
  148.9932  140.5377  156.5733 H   0  0  0  0  0  0  0  0  0  0  0  0
  148.9137  143.3188  156.2711 H   0  0  0  0  0  0  0  0  0  0  0  0
  148.9066  142.5073  154.2449 H   0  0  0  0  0  0  0  0  0  0  0  0
  149.0213  140.7945  154.0038 H   0  0  0  0  0  0  0  0  0  0  0  0
  145.6437  139.9665  154.4752 H   0  0  0  0  0  0  0  0  0  0  0  0
  147.0879  139.3890  155.2717 H   0  0  0  0  0  0  0  0  0  0  0  0
  147.0995  139.6619  153.5262 H   0  0  0  0  0  0  0  0  0  0  0  0
  147.2816  142.6758  153.0127 H   0  0  0  0  0  0  0  0  0  0  0  0
  145.8501  141.6910  153.0699 H   0  0  0  0  0  0  0  0  0  0  0  0
  146.2984  144.0723  154.9173 H   0  0  0  0  0  0  0  0  0  0  0  0
  143.8707  143.8416  155.3814 H   0  0  0  0  0  0  0  0  0  0  0  0
  144.7119  142.3741  155.8626 H   0  0  0  0  0  0  0  0  0  0  0  0
  143.7878  142.4076  154.3617 H   0  0  0  0  0  0  0  0  0  0  0  0
  150.8100  143.8297  157.7904 H   0  0  0  0  0  0  0  0  0  0  0  0
  150.8377  145.7247  159.1985 H   0  0  0  0  0  0  0  0  0  0  0  0
  152.1970  145.8471  160.3129 H   0  0  0  0  0  0  0  0  0  0  0  0
  150.6165  145.3035  160.8964 H   0  0  0  0  0  0  0  0  0  0  0  0
  1  2  1  0  0  0  0
  1 23  1  0  0  0  0
  1 24  1  0  0  0  0
  1 25  1  0  0  0  0
  2 21  1  0  0  0  0
  2  3  2  0  0  0  0
  3  4  1  0  0  0  0
  3 26  1  0  0  0  0
  4 19  2  0  0  0  0
  4  5  1  0  0  0  0
  5  6  2  0  0  0  0
  6  7  1  0  0  0  0
  6 27  1  0  0  0  0
  7  8  1  0  0  0  0
  7 19  1  0  0  0  0
  8  9  1  0  0  0  0
  8 28  1  0  0  0  0
  8 29  1  0  0  0  0
  9 10  1  0  0  0  0
  9 11  1  0  0  0  0
  9 30  1  0  0  0  0
 10 31  1  0  0  0  0
 11 12  1  0  0  0  0
 11 32  1  0  0  0  0
 11 33  1  0  0  0  0
 12 13  1  0  0  0  0
 12 14  1  0  0  0  0
 13 34  1  0  0  0  0
 13 35  1  0  0  0  0
 13 36  1  0  0  0  0
 14 15  1  0  0  0  0
 14 37  1  0  0  0  0
 14 38  1  0  0  0  0
 15 16  1  0  0  0  0
 15 17  1  0  0  0  0
 15 39  1  0  0  0  0
 16 40  1  0  0  0  0
 16 41  1  0  0  0  0
 16 42  1  0  0  0  0
 17 18  3  0  0  0  0
 19 20  1  0  0  0  0
 20 21  2  0  0  0  0
 20 43  1  0  0  0  0
 21 22  1  0  0  0  0
 22 44  1  0  0  0  0
 22 45  1  0  0  0  0
 22 46  1  0  0  0  0
M  END
> <s_m_source_file>
AV-unprocessed.smi

> <i_m_source_file_index>
1535

> <i_lp_mmshare_version>
43012

> <i_f3d_flags>
0

> <s_epik_input>
W0NIM11jKFtjSF0xKWMoW0NIM10pW2NIXWMoYzEyKW4oW2NIXW4yKVtDSDJdW0NASF0oW09IXSlbQ0gyXU4oW0NIM10pW0NIMl1bQ0BIXShbQ0gzXSlDI04=

> <s_epik_cmdline>
J2VwaWtfcHl0aG9uJywgJy1waCcsICc3LjAnLCAnLXRuJywgJzgnLCAnLW1hJywgJzIwMCcsICctbWV0YWxfYmluZGluZycsICctaW1hZScsICc8aW5maWxlLm1hZT4nLCAnLW9tYWUnLCAnPG91dGZpbGUubWFlPic=

> <r_epik_Ionization_Penalty>
0.098511

> <r_epik_Ionization_Penalty_Charging>
0

> <r_epik_Ionization_Penalty_Neutral>
0.098511

> <r_epik_State_Penalty>
0.0881608

> <r_epik_Charging_Adjusted_Penalty>
0.0881608

> <i_epik_Tot_Q>
0

> <i_epik_Tot_abs_Q>
0

> <r_epik_Metal_State_Penalty>
0.0128087

> <b_epik_Metal_Only>
0

> <s_lp_Force_Field>
OPLS_2005

> <r_lp_Energy>
24.761

> <b_lp_Chiralities_Consistent>
1

> <s_lp_Variant>
AV-unprocessed.smi:1535-2

> <Gold.Version>
5.8.1

> <Gold.Id.Protein>
6NUR|6NUR_protein|mol2

> <Gold.PLP.Fitness>
51.8473

> <Gold.PLP.PLP>
-51.4043

> <Gold.PLP.part.hbond>
-1.5504

> <Gold.PLP.part.metal>
0.0000

> <Gold.PLP.part.buried>
-8.5303

> <Gold.PLP.part.nonpolar>
-40.4721

> <Gold.PLP.part.repulsive>
0.3065

> <Gold.PLP.ligand.clash>
0.0000

> <Gold.PLP.ligand.torsion>
1.4586

> <Gold.PLP.Chemscore.Hbond>
1.0000

> <Gold.PLP.Chemscore.CHOScore>
0.0000

> <Gold.PLP.Chemscore.Metal>
0.0000

> <Gold.Chemscore.Hbonds>
donor molecule, donor type, donor heavy atom, donor atom, acceptor molecule, acceptor atom, score
      L1  H    10    31       P1  8028  0.99

> <Gold.PLP.Chemscore.Internal.Correction>
0.3602

> <Gold.Rescore>
     Score         DG    S(hbond)    S(metal)    S(lipo)     H(rot)  DE(clash)    DE(int)     intcor
     14.64     -16.84       0.99        0.00     123.79       2.51       0.13       2.07       ----

> <Gold.Chemscore.Fitness>
14.6383

> <Gold.Chemscore.DG>
-16.8377

> <Gold.Chemscore.ZeroCoef>
-5.4800

> <Gold.Chemscore.Hbond>
0.9891

> <Gold.Chemscore.Metal>
0.0000

> <Gold.Chemscore.Lipo>
123.7852

> <Gold.Chemscore.Internal_Hbond>
0.0000

> <Gold.Chemscore.DEClash>
0.1255

> <Gold.Chemscore.DEInternal>
2.0738

> <Gold.Chemscore.Rot>
2.5113

> <Gold.Chemscore.Internal.Correction>
   9.000000E+99

> <Gold.Chemscore.Hbonds>
donor molecule, donor type, donor heavy atom, donor atom, acceptor molecule, acceptor atom, score
      L1  H    10    31       P1  8028  0.92

> <Gold.Chemscore.Hbond.Weighted>
-3.3037

> <Gold.Chemscore.Metal.Weighted>
-0.0000

> <Gold.Chemscore.Lipo.Weighted>
-14.4829

> <Gold.Chemscore.Internal_Hbond.Weighted>
0.0000

> <Gold.Chemscore.DEClash.Weighted>
0.1255

> <Gold.Chemscore.DEInternal.Weighted>
2.0738

> <Gold.Chemscore.Rot.Weighted>
6.4289

> <Gold.Chemscore.Internal.Correction.Weighted>
   9.000000E+99

> <Gold.Protein.RotatedTorsions>
[ 6907 6896 6895 6894 ] final  135.80 input  -60.11 | X-H torsion
[ 7974 7965 7964 7962 ] final -177.36 input  175.53 | X-H torsion
[ 8008 7997 7996 7995 ] final -159.30 input   59.86 | X-H torsion
[ 10167 10162 10161 10158 ] final  -68.24 input  -65.29 | X-H torsion
[ 10718 10713 10712 10709 ] final   -4.52 input   66.30 | X-H torsion
[ 10763 10752 10751 10750 ] final  -74.40 input  -60.55 | X-H torsion
[ 11005 11000 10999 10996 ] final    0.30 input  -57.11 | X-H torsion

> <Gold.Protein.ActiveResidues>
 VAL166  LYS551  ARG553  GLY616  TRP617  ASP618  TYR619  PRO620  LYS621  CYS622 
 ASP623  PHE694  ASN695  SER759  ASP760  ASP761  ALA762  ILE779  LEU786  VAL792 
 PHE793  MET794  SER795  GLU796  ALA797  LYS798  CYS799  TRP800  GLU811  SER814 

> <Gold.Protein.RotatedAtoms>
  152.2964  133.5612  159.5590 H   0  0  0  0  0  0  0  0  0  0  0  0  # atno 6907 bound_to 6896
  150.7258  134.0354  159.3756 H   0  0  0  0  0  0  0  0  0  0  0  0  # atno 6908 bound_to 6896
  151.8257  135.0638  160.0481 H   0  0  0  0  0  0  0  0  0  0  0  0  # atno 6909 bound_to 6896
  144.7127  140.1032  143.6415 H   0  0  0  0  0  0  0  0  0  0  0  0  # atno 7974 bound_to 7965
  155.7604  140.0838  157.2158 H   0  0  0  0  0  0  0  0  0  0  0  0  # atno 8008 bound_to 7997
  154.4004  140.1544  156.2883 H   0  0  0  0  0  0  0  0  0  0  0  0  # atno 8009 bound_to 7997
  155.8844  140.3419  155.5914 H   0  0  0  0  0  0  0  0  0  0  0  0  # atno 8010 bound_to 7997
  140.5522  143.2312  151.6890 H   0  0  0  0  0  0  0  0  0  0  0  0  # atno 10167 bound_to 10162
  156.7601  130.5267  149.5787 H   0  0  0  0  0  0  0  0  0  0  0  0  # atno 10718 bound_to 10713
  154.4725  135.5866  153.6332 H   0  0  0  0  0  0  0  0  0  0  0  0  # atno 10763 bound_to 10752
  152.9836  135.6070  154.3348 H   0  0  0  0  0  0  0  0  0  0  0  0  # atno 10764 bound_to 10752
  154.3231  135.2843  155.2488 H   0  0  0  0  0  0  0  0  0  0  0  0  # atno 10765 bound_to 10752
  140.6281  133.9600  155.8259 H   0  0  0  0  0  0  0  0  0  0  0  0  # atno 11005 bound_to 11000
  145.9520  139.2740  143.1207 LP  0  0  0  0  0  0  0  0  0  0  0  0  # atno 17320 bound_to 7965
  145.9313  140.9046  143.0355 LP  0  0  0  0  0  0  0  0  0  0  0  0  # atno 17321 bound_to 7965
  139.5032  144.3799  152.0386 LP  0  0  0  0  0  0  0  0  0  0  0  0  # atno 17342 bound_to 10162
  140.2918  144.3746  150.6086 LP  0  0  0  0  0  0  0  0  0  0  0  0  # atno 17343 bound_to 10162
  156.1345  130.6201  151.0380 LP  0  0  0  0  0  0  0  0  0  0  0  0  # atno 17370 bound_to 10713
  157.6738  131.0855  150.7545 LP  0  0  0  0  0  0  0  0  0  0  0  0  # atno 17371 bound_to 10713
  141.0695  134.0226  157.3546 LP  0  0  0  0  0  0  0  0  0  0  0  0  # atno 17394 bound_to 11000
  139.9127  135.0192  156.7757 LP  0  0  0  0  0  0  0  0  0  0  0  0  # atno 17395 bound_to 11000

$$$$
