AV-unprocessed.smi:3000|AV-procd|sdf|11430|dock8
  -GOLD-   2272016353D 1   1.00000     0.00000
 Structure written by MMmdl.
 44 45  0  0  0  0  0  0  0  0  1 V2000
  145.4736  129.5870  152.1011 C   0  0  0  0  0  0  0  0  0  0  0  0
  146.0188  130.9272  152.0647 N   0  0  0  0  0  0  0  0  0  0  0  0
  146.9030  131.5162  152.9463 C   0  0  0  0  0  0  0  0  0  0  0  0
  147.1059  132.7822  152.4739 C   0  0  0  0  0  0  0  0  0  0  0  0
  147.9199  133.8183  152.9980 N   0  0  0  0  0  0  0  0  0  0  0  0
  148.4804  133.8767  154.2170 C   0  0  0  0  0  0  0  0  0  0  0  0
  148.3801  133.0025  155.0766 O   0  0  0  0  0  0  0  0  0  0  0  0
  149.1646  135.0223  154.3767 N   0  0  0  0  0  0  0  0  0  0  0  0
  149.9334  135.4848  155.5432 C   0  0  2  0  0  0  0  0  0  0  0  0
  150.9215  134.3298  155.8282 C   0  0  0  0  0  0  0  0  0  0  0  0
  148.9830  135.5751  156.7756 C   0  0  0  0  0  0  0  0  0  0  0  0
  149.6444  135.5095  158.0231 O   0  0  0  0  0  0  0  0  0  0  0  0
  150.7096  136.8208  155.2466 C   0  0  0  0  0  0  0  0  0  0  0  0
  151.6054  137.3138  156.4126 C   0  0  0  0  0  0  0  0  0  0  0  0
  152.4325  138.5455  156.0089 C   0  0  0  0  0  0  0  0  0  0  0  0
  151.5310  139.6863  155.5148 C   0  0  0  0  0  0  0  0  0  0  0  0
  150.6271  139.2170  154.3656 C   0  0  0  0  0  0  0  0  0  0  0  0
  149.8027  137.9852  154.7736 C   0  0  0  0  0  0  0  0  0  0  0  0
  146.3119  132.8899  151.3024 C   0  0  0  0  0  0  0  0  0  0  0  0
  145.6582  131.7636  151.0609 N   0  0  0  0  0  0  0  0  0  0  0  0
  145.7410  129.1003  153.0397 H   0  0  0  0  0  0  0  0  0  0  0  0
  145.8754  129.0046  151.2716 H   0  0  0  0  0  0  0  0  0  0  0  0
  144.3868  129.6254  152.0195 H   0  0  0  0  0  0  0  0  0  0  0  0
  147.2931  130.9909  153.8056 H   0  0  0  0  0  0  0  0  0  0  0  0
  148.0880  134.5996  152.3815 H   0  0  0  0  0  0  0  0  0  0  0  0
  149.1616  135.6554  153.5907 H   0  0  0  0  0  0  0  0  0  0  0  0
  151.5399  134.5225  156.7043 H   0  0  0  0  0  0  0  0  0  0  0  0
  151.5895  134.1404  154.9882 H   0  0  0  0  0  0  0  0  0  0  0  0
  150.3887  133.3978  156.0231 H   0  0  0  0  0  0  0  0  0  0  0  0
  148.3775  136.4819  156.7389 H   0  0  0  0  0  0  0  0  0  0  0  0
  148.2771  134.7439  156.7644 H   0  0  0  0  0  0  0  0  0  0  0  0
  149.4293  136.2839  158.5196 H   0  0  0  0  0  0  0  0  0  0  0  0
  151.3912  136.6214  154.4198 H   0  0  0  0  0  0  0  0  0  0  0  0
  150.9946  137.5689  157.2784 H   0  0  0  0  0  0  0  0  0  0  0  0
  152.2892  136.5303  156.7380 H   0  0  0  0  0  0  0  0  0  0  0  0
  153.0292  138.8854  156.8558 H   0  0  0  0  0  0  0  0  0  0  0  0
  153.1390  138.2699  155.2249 H   0  0  0  0  0  0  0  0  0  0  0  0
  150.9150  140.0479  156.3390 H   0  0  0  0  0  0  0  0  0  0  0  0
  152.1409  140.5296  155.1897 H   0  0  0  0  0  0  0  0  0  0  0  0
  149.9612  140.0262  154.0649 H   0  0  0  0  0  0  0  0  0  0  0  0
  151.2361  138.9777  153.4927 H   0  0  0  0  0  0  0  0  0  0  0  0
  149.1880  137.6789  153.9280 H   0  0  0  0  0  0  0  0  0  0  0  0
  149.1138  138.2762  155.5662 H   0  0  0  0  0  0  0  0  0  0  0  0
  146.1906  133.7288  150.6330 H   0  0  0  0  0  0  0  0  0  0  0  0
  1  2  1  0  0  0  0
  1 21  1  0  0  0  0
  1 22  1  0  0  0  0
  1 23  1  0  0  0  0
  2 20  1  0  0  0  0
  2  3  1  0  0  0  0
  3  4  2  0  0  0  0
  3 24  1  0  0  0  0
  4  5  1  0  0  0  0
  4 19  1  0  0  0  0
  5  6  1  0  0  0  0
  5 25  1  0  0  0  0
  6  7  2  0  0  0  0
  6  8  1  0  0  0  0
  8  9  1  0  0  0  0
  8 26  1  0  0  0  0
  9 10  1  0  0  0  0
  9 11  1  0  0  0  0
  9 13  1  0  0  0  0
 10 27  1  0  0  0  0
 10 28  1  0  0  0  0
 10 29  1  0  0  0  0
 11 12  1  0  0  0  0
 11 30  1  0  0  0  0
 11 31  1  0  0  0  0
 12 32  1  0  0  0  0
 13 18  1  0  0  0  0
 13 14  1  0  0  0  0
 13 33  1  0  0  0  0
 14 15  1  0  0  0  0
 14 34  1  0  0  0  0
 14 35  1  0  0  0  0
 15 16  1  0  0  0  0
 15 36  1  0  0  0  0
 15 37  1  0  0  0  0
 16 17  1  0  0  0  0
 16 38  1  0  0  0  0
 16 39  1  0  0  0  0
 17 18  1  0  0  0  0
 17 40  1  0  0  0  0
 17 41  1  0  0  0  0
 18 42  1  0  0  0  0
 18 43  1  0  0  0  0
 19 20  2  0  0  0  0
 19 44  1  0  0  0  0
M  END
> <s_m_source_file>
AV-unprocessed.smi

> <i_m_source_file_index>
3000

> <i_lp_mmshare_version>
43012

> <i_f3d_flags>
0

> <s_epik_input>
W0NIM11uMVtjSF1jKFtjSF1uMSlbTkhdQyg9TylbTkhdW0NAQF0oW0NIM10pKFtDSDJdW09IXSlbQ0hdMltDSDJdW0NIMl1bQ0gyXVtDSDJdW0NIMl0y

> <s_epik_cmdline>
J2VwaWtfcHl0aG9uJywgJy1waCcsICc3LjAnLCAnLXRuJywgJzgnLCAnLW1hJywgJzIwMCcsICctbWV0YWxfYmluZGluZycsICctaW1hZScsICc8aW5maWxlLm1hZT4nLCAnLW9tYWUnLCAnPG91dGZpbGUubWFlPic=

> <r_lp_tautomer_probability>
1

> <r_epik_Ionization_Penalty>
0.000189471

> <r_epik_Ionization_Penalty_Charging>
0

> <r_epik_Ionization_Penalty_Neutral>
0.000189471

> <r_epik_State_Penalty>
-0

> <r_epik_Charging_Adjusted_Penalty>
0

> <i_epik_Tot_Q>
0

> <i_epik_Tot_abs_Q>
0

> <r_epik_Metal_State_Penalty>
-0

> <b_epik_Metal_Only>
0

> <s_lp_Force_Field>
OPLS_2005

> <r_lp_Energy>
23.0127

> <b_lp_Chiralities_Consistent>
1

> <s_lp_Variant>
AV-unprocessed.smi:3000-2

> <Gold.Version>
5.8.1

> <Gold.Id.Protein>
6NUR|6NUR_protein|mol2

> <Gold.PLP.Fitness>
40.6965

> <Gold.PLP.PLP>
-32.3820

> <Gold.PLP.part.hbond>
-3.0000

> <Gold.PLP.part.metal>
0.0000

> <Gold.PLP.part.buried>
-4.5949

> <Gold.PLP.part.nonpolar>
-25.1647

> <Gold.PLP.part.repulsive>
0.1444

> <Gold.PLP.ligand.clash>
0.0000

> <Gold.PLP.ligand.torsion>
0.3535

> <Gold.PLP.Chemscore.Hbond>
2.9760

> <Gold.PLP.Chemscore.CHOScore>
0.0000

> <Gold.PLP.Chemscore.Metal>
0.0000

> <Gold.Chemscore.Hbonds>
donor molecule, donor type, donor heavy atom, donor atom, acceptor molecule, acceptor atom, score
      L1  H     5    25       P1  7948  1.00
      L1  H     8    26       P1  7948  1.00
      P1  H  6896  6909       L1    12  0.83

> <Gold.PLP.Chemscore.Internal.Correction>
0.0935

> <Gold.Rescore>
     Score         DG    S(hbond)    S(metal)    S(lipo)     H(rot)  DE(clash)    DE(int)     intcor
     13.63     -16.00       2.25        0.00      69.88       2.02       0.01       2.36       ----

> <Gold.Chemscore.Fitness>
13.6327

> <Gold.Chemscore.DG>
-15.9997

> <Gold.Chemscore.ZeroCoef>
-5.4800

> <Gold.Chemscore.Hbond>
2.2473

> <Gold.Chemscore.Metal>
0.0000

> <Gold.Chemscore.Lipo>
69.8803

> <Gold.Chemscore.Internal_Hbond>
0.0000

> <Gold.Chemscore.DEClash>
0.0086

> <Gold.Chemscore.DEInternal>
2.3584

> <Gold.Chemscore.Rot>
2.0165

> <Gold.Chemscore.Internal.Correction>
   9.000000E+99

> <Gold.Chemscore.Hbonds>
donor molecule, donor type, donor heavy atom, donor atom, acceptor molecule, acceptor atom, score
      L1  H     5    25       P1  7948  0.34
      L1  H     8    26       P1  7948  0.65
      P1  H  6896  6909       L1    12  0.31

> <Gold.Chemscore.Hbond.Weighted>
-7.5059

> <Gold.Chemscore.Metal.Weighted>
-0.0000

> <Gold.Chemscore.Lipo.Weighted>
-8.1760

> <Gold.Chemscore.Internal_Hbond.Weighted>
0.0000

> <Gold.Chemscore.DEClash.Weighted>
0.0086

> <Gold.Chemscore.DEInternal.Weighted>
2.3584

> <Gold.Chemscore.Rot.Weighted>
5.1622

> <Gold.Chemscore.Internal.Correction.Weighted>
   9.000000E+99

> <Gold.Protein.RotatedTorsions>
[ 6907 6896 6895 6894 ] final   33.06 input  -60.11 | X-H torsion
[ 7974 7965 7964 7962 ] final -179.57 input  175.53 | X-H torsion
[ 8008 7997 7996 7995 ] final   89.16 input   59.86 | X-H torsion
[ 10167 10162 10161 10158 ] final  171.57 input  -65.29 | X-H torsion
[ 10718 10713 10712 10709 ] final  126.47 input   66.30 | X-H torsion
[ 10763 10752 10751 10750 ] final  131.25 input  -60.55 | X-H torsion
[ 11005 11000 10999 10996 ] final  -92.43 input  -57.11 | X-H torsion

> <Gold.Protein.ActiveResidues>
 VAL166  LYS551  ARG553  GLY616  TRP617  ASP618  TYR619  PRO620  LYS621  CYS622 
 ASP623  PHE694  ASN695  SER759  ASP760  ASP761  ALA762  ILE779  LEU786  VAL792 
 PHE793  MET794  SER795  GLU796  ALA797  LYS798  CYS799  TRP800  GLU811  SER814 

> <Gold.Protein.RotatedAtoms>
  152.0832  134.9457  160.0572 H   0  0  0  0  0  0  0  0  0  0  0  0  # atno 6907 bound_to 6896
  152.0737  133.4114  159.4479 H   0  0  0  0  0  0  0  0  0  0  0  0  # atno 6908 bound_to 6896
  150.6836  134.2981  159.4738 H   0  0  0  0  0  0  0  0  0  0  0  0  # atno 6909 bound_to 6896
  144.7137  140.0698  143.6430 H   0  0  0  0  0  0  0  0  0  0  0  0  # atno 7974 bound_to 7965
  155.9966  140.3364  155.6804 H   0  0  0  0  0  0  0  0  0  0  0  0  # atno 8008 bound_to 7997
  155.6348  140.0689  157.2655 H   0  0  0  0  0  0  0  0  0  0  0  0  # atno 8009 bound_to 7997
  154.4236  140.1753  156.1498 H   0  0  0  0  0  0  0  0  0  0  0  0  # atno 8010 bound_to 7997
  139.5051  144.3470  151.9961 H   0  0  0  0  0  0  0  0  0  0  0  0  # atno 10167 bound_to 10162
  157.5416  131.1096  150.8849 H   0  0  0  0  0  0  0  0  0  0  0  0  # atno 10718 bound_to 10713
  153.7712  135.3182  155.3352 H   0  0  0  0  0  0  0  0  0  0  0  0  # atno 10763 bound_to 10752
  154.8195  135.4613  154.0742 H   0  0  0  0  0  0  0  0  0  0  0  0  # atno 10764 bound_to 10752
  153.2002  135.6921  153.8325 H   0  0  0  0  0  0  0  0  0  0  0  0  # atno 10765 bound_to 10752
  141.1522  133.7820  157.0018 H   0  0  0  0  0  0  0  0  0  0  0  0  # atno 11005 bound_to 11000
  145.9793  139.2929  143.1051 LP  0  0  0  0  0  0  0  0  0  0  0  0  # atno 17320 bound_to 7965
  145.9028  140.9231  143.0494 LP  0  0  0  0  0  0  0  0  0  0  0  0  # atno 17321 bound_to 7965
  140.2908  144.3756  150.6089 LP  0  0  0  0  0  0  0  0  0  0  0  0  # atno 17342 bound_to 10162
  140.5948  143.2167  151.7185 LP  0  0  0  0  0  0  0  0  0  0  0  0  # atno 17343 bound_to 10162
  156.9400  130.5381  149.5280 LP  0  0  0  0  0  0  0  0  0  0  0  0  # atno 17370 bound_to 10713
  156.0501  130.5572  150.8971 LP  0  0  0  0  0  0  0  0  0  0  0  0  # atno 17371 bound_to 10713
  140.0935  134.9578  157.1813 LP  0  0  0  0  0  0  0  0  0  0  0  0  # atno 17394 bound_to 11000
  140.3414  134.2699  155.7211 LP  0  0  0  0  0  0  0  0  0  0  0  0  # atno 17395 bound_to 11000

$$$$
