AV-unprocessed.smi:3132|AV-procd|sdf|11931|dock2
  -GOLD-   2272017313D 1   1.00000     0.00000
 Structure written by MMmdl.
 34 35  0  0  0  0  0  0  0  0  2 V2000
  147.5937  141.0366  157.2945 C   0  0  0  0  0  0  0  0  0  0  0  0
  148.5337  141.5351  156.1888 C   0  0  2  0  0  0  0  0  0  0  0  0
  148.9896  140.3748  155.2779 C   0  0  0  0  0  0  0  0  0  0  0  0
  147.9693  139.9730  154.3039 N   0  0  0  0  0  0  0  0  0  0  0  0
  147.9622  138.8459  153.5225 C   0  0  0  0  0  0  0  0  0  0  0  0
  146.8204  138.9027  152.7659 C   0  0  0  0  0  0  0  0  0  0  0  0
  146.1765  140.0576  153.1213 N   0  3  0  0  0  0  0  0  0  0  0  0
  146.8743  140.7047  154.0601 C   0  0  0  0  0  0  0  0  0  0  0  0
  149.6793  142.2001  156.8079 N   0  0  0  0  0  0  0  0  0  0  0  0
  150.4779  141.6802  157.7549 C   0  0  0  0  0  0  0  0  0  0  0  0
  150.3046  140.5610  158.2384 O   0  0  0  0  0  0  0  0  0  0  0  0
  151.6312  142.5604  158.2580 C   0  0  1  0  0  0  0  0  0  0  0  0
  151.6801  143.9637  157.6237 C   0  0  0  0  0  0  0  0  0  0  0  0
  151.6412  144.9097  158.8125 C   0  0  0  0  0  0  0  0  0  0  0  0
  152.1129  144.0294  159.9615 C   0  0  0  0  0  0  0  0  0  0  0  0
  151.5053  142.7851  159.6613 O   0  0  0  0  0  0  0  0  0  0  0  0
  146.7074  140.5625  156.8718 H   0  0  0  0  0  0  0  0  0  0  0  0
  147.2559  141.8602  157.9246 H   0  0  0  0  0  0  0  0  0  0  0  0
  148.0867  140.3060  157.9370 H   0  0  0  0  0  0  0  0  0  0  0  0
  147.9705  142.2542  155.5910 H   0  0  0  0  0  0  0  0  0  0  0  0
  149.8949  140.6431  154.7313 H   0  0  0  0  0  0  0  0  0  0  0  0
  149.2315  139.4946  155.8754 H   0  0  0  0  0  0  0  0  0  0  0  0
  148.7531  138.1106  153.5566 H   0  0  0  0  0  0  0  0  0  0  0  0
  146.4286  138.2261  152.0202 H   0  0  0  0  0  0  0  0  0  0  0  0
  146.6107  141.6395  154.5222 H   0  0  0  0  0  0  0  0  0  0  0  0
  149.9007  143.1277  156.4743 H   0  0  0  0  0  0  0  0  0  0  0  0
  152.5735  142.0417  158.0757 H   0  0  0  0  0  0  0  0  0  0  0  0
  152.6104  144.0869  157.0683 H   0  0  0  0  0  0  0  0  0  0  0  0
  150.8584  144.1687  156.9358 H   0  0  0  0  0  0  0  0  0  0  0  0
  152.2592  145.7971  158.6738 H   0  0  0  0  0  0  0  0  0  0  0  0
  150.6158  145.2341  158.9946 H   0  0  0  0  0  0  0  0  0  0  0  0
  153.1988  143.9220  159.9565 H   0  0  0  0  0  0  0  0  0  0  0  0
  151.8041  144.4053  160.9368 H   0  0  0  0  0  0  0  0  0  0  0  0
  145.2998  140.3790  152.7300 H   0  0  0  0  0  0  0  0  0  0  0  0
  1  2  1  0  0  0  0
  1 17  1  0  0  0  0
  1 18  1  0  0  0  0
  1 19  1  0  0  0  0
  2  3  1  0  0  0  0
  2  9  1  0  0  0  0
  2 20  1  0  0  0  0
  3  4  1  0  0  0  0
  3 21  1  0  0  0  0
  3 22  1  0  0  0  0
  4  8  1  0  0  0  0
  4  5  1  0  0  0  0
  5  6  2  0  0  0  0
  5 23  1  0  0  0  0
  6  7  1  0  0  0  0
  6 24  1  0  0  0  0
  7  8  2  0  0  0  0
  7 34  1  0  0  0  0
  8 25  1  0  0  0  0
  9 10  1  0  0  0  0
  9 26  1  0  0  0  0
 10 11  2  0  0  0  0
 10 12  1  0  0  0  0
 12 16  1  0  0  0  0
 12 13  1  0  0  0  0
 12 27  1  0  0  0  0
 13 14  1  0  0  0  0
 13 28  1  0  0  0  0
 13 29  1  0  0  0  0
 14 15  1  0  0  0  0
 14 30  1  0  0  0  0
 14 31  1  0  0  0  0
 15 16  1  0  0  0  0
 15 32  1  0  0  0  0
 15 33  1  0  0  0  0
M  CHG  1   7   1
M  END
> <s_m_source_file>
AV-unprocessed.smi

> <i_m_source_file_index>
3132

> <i_lp_mmshare_version>
43012

> <i_f3d_flags>
0

> <s_epik_input>
W2NIXTFuW2NIXVtjSF1uMVtDSDJdW0NAQEhdKFtDSDNdKVtOSF1DKD1PKVtDQEBIXTJbQ0gyXVtDSDJdW0NIMl1PMg==

> <s_epik_cmdline>
J2VwaWtfcHl0aG9uJywgJy1waCcsICc3LjAnLCAnLXRuJywgJzgnLCAnLW1hJywgJzIwMCcsICctbWV0YWxfYmluZGluZycsICctaW1hZScsICc8aW5maWxlLm1hZT4nLCAnLW9tYWUnLCAnPG91dGZpbGUubWFlPic=

> <r_lp_tautomer_probability>
1

> <r_epik_Ionization_Penalty>
0.250802

> <r_epik_Ionization_Penalty_Charging>
0

> <r_epik_Ionization_Penalty_Neutral>
0.250802

> <r_epik_State_Penalty>
0.242139

> <r_epik_Charging_Adjusted_Penalty>
0.242139

> <i_epik_Tot_Q>
1

> <i_epik_Tot_abs_Q>
1

> <r_epik_Metal_State_Penalty>
0.533361

> <b_epik_Metal_Only>
0

> <s_lp_Force_Field>
OPLS_2005

> <r_lp_Energy>
20.312

> <b_lp_Chiralities_Consistent>
1

> <s_lp_Variant>
AV-unprocessed.smi:3132-3

> <Gold.Version>
5.8.1

> <Gold.Id.Protein>
6NUR|6NUR_protein|mol2

> <Gold.PLP.Fitness>
39.0559

> <Gold.PLP.PLP>
-28.9243

> <Gold.PLP.part.hbond>
-2.0000

> <Gold.PLP.part.metal>
0.0000

> <Gold.PLP.part.buried>
-2.2789

> <Gold.PLP.part.nonpolar>
-26.0313

> <Gold.PLP.part.repulsive>
0.0256

> <Gold.PLP.ligand.clash>
0.0000

> <Gold.PLP.ligand.torsion>
0.3760

> <Gold.PLP.Chemscore.Hbond>
2.7040

> <Gold.PLP.Chemscore.CHOScore>
0.9186

> <Gold.PLP.Chemscore.Metal>
0.0000

> <Gold.Chemscore.Hbonds>
donor molecule, donor type, donor heavy atom, donor atom, acceptor molecule, acceptor atom, score
      L1  H     7    34       P1 10175  2.00
      L1  H     9    26       P1  8028  0.71
      L1  C     5    23       P1  7948  0.86

> <Gold.PLP.Chemscore.Internal.Correction>
0.0158

> <Gold.Rescore>
     Score         DG    S(hbond)    S(metal)    S(lipo)     H(rot)  DE(clash)    DE(int)     intcor
     13.78     -15.15       1.88        0.00      71.22       1.93       0.06       1.30       ----

> <Gold.Chemscore.Fitness>
13.7834

> <Gold.Chemscore.DG>
-15.1464

> <Gold.Chemscore.ZeroCoef>
-5.4800

> <Gold.Chemscore.Hbond>
1.8792

> <Gold.Chemscore.Metal>
0.0000

> <Gold.Chemscore.Lipo>
71.2193

> <Gold.Chemscore.Internal_Hbond>
0.0000

> <Gold.Chemscore.DEClash>
0.0615

> <Gold.Chemscore.DEInternal>
1.3015

> <Gold.Chemscore.Rot>
1.9308

> <Gold.Chemscore.Internal.Correction>
   9.000000E+99

> <Gold.Chemscore.Hbonds>
donor molecule, donor type, donor heavy atom, donor atom, acceptor molecule, acceptor atom, score
      L1  H     7    34       P1 10175  0.85
      L1  H     9    26       P1  8028  0.68

> <Gold.Chemscore.Hbond.Weighted>
-6.2766

> <Gold.Chemscore.Metal.Weighted>
-0.0000

> <Gold.Chemscore.Lipo.Weighted>
-8.3327

> <Gold.Chemscore.Internal_Hbond.Weighted>
0.0000

> <Gold.Chemscore.DEClash.Weighted>
0.0615

> <Gold.Chemscore.DEInternal.Weighted>
1.3015

> <Gold.Chemscore.Rot.Weighted>
4.9429

> <Gold.Chemscore.Internal.Correction.Weighted>
   9.000000E+99

> <Gold.Protein.RotatedTorsions>
[ 6907 6896 6895 6894 ] final   66.49 input  -60.11 | X-H torsion
[ 7974 7965 7964 7962 ] final  -45.56 input  175.53 | X-H torsion
[ 8008 7997 7996 7995 ] final -115.39 input   59.86 | X-H torsion
[ 10167 10162 10161 10158 ] final -161.67 input  -65.29 | X-H torsion
[ 10718 10713 10712 10709 ] final   78.70 input   66.30 | X-H torsion
[ 10763 10752 10751 10750 ] final  112.89 input  -60.55 | X-H torsion
[ 11005 11000 10999 10996 ] final   20.66 input  -57.11 | X-H torsion

> <Gold.Protein.ActiveResidues>
 VAL166  LYS551  ARG553  GLY616  TRP617  ASP618  TYR619  PRO620  LYS621  CYS622 
 ASP623  PHE694  ASN695  SER759  ASP760  ASP761  ALA762  ILE779  LEU786  VAL792 
 PHE793  MET794  SER795  GLU796  ALA797  LYS798  CYS799  TRP800  GLU811  SER814 

> <Gold.Protein.RotatedAtoms>
  152.4484  134.5445  159.9848 H   0  0  0  0  0  0  0  0  0  0  0  0  # atno 6907 bound_to 6896
  151.5524  133.3409  159.2963 H   0  0  0  0  0  0  0  0  0  0  0  0  # atno 6908 bound_to 6896
  150.8407  134.7729  159.6993 H   0  0  0  0  0  0  0  0  0  0  0  0  # atno 6909 bound_to 6896
  145.9808  140.7285  142.9364 H   0  0  0  0  0  0  0  0  0  0  0  0  # atno 7974 bound_to 7965
  155.0513  140.0393  157.2545 H   0  0  0  0  0  0  0  0  0  0  0  0  # atno 8008 bound_to 7997
  154.7135  140.2697  155.6583 H   0  0  0  0  0  0  0  0  0  0  0  0  # atno 8009 bound_to 7997
  156.2796  140.2717  156.1784 H   0  0  0  0  0  0  0  0  0  0  0  0  # atno 8010 bound_to 7997
  139.6448  144.0192  152.2119 H   0  0  0  0  0  0  0  0  0  0  0  0  # atno 10167 bound_to 10162
  157.6753  130.9880  150.1824 H   0  0  0  0  0  0  0  0  0  0  0  0  # atno 10718 bound_to 10713
  153.4844  135.3672  155.2459 H   0  0  0  0  0  0  0  0  0  0  0  0  # atno 10763 bound_to 10752
  154.8754  135.3962  154.3662 H   0  0  0  0  0  0  0  0  0  0  0  0  # atno 10764 bound_to 10752
  153.4271  135.7081  153.6321 H   0  0  0  0  0  0  0  0  0  0  0  0  # atno 10765 bound_to 10752
  140.4002  134.1727  155.7664 H   0  0  0  0  0  0  0  0  0  0  0  0  # atno 11005 bound_to 11000
  144.6861  140.2906  143.7278 LP  0  0  0  0  0  0  0  0  0  0  0  0  # atno 17320 bound_to 7965
  145.7772  139.1878  143.2179 LP  0  0  0  0  0  0  0  0  0  0  0  0  # atno 17321 bound_to 7965
  139.9891  144.6374  150.7831 LP  0  0  0  0  0  0  0  0  0  0  0  0  # atno 17342 bound_to 10162
  140.7509  143.2963  151.3195 LP  0  0  0  0  0  0  0  0  0  0  0  0  # atno 17343 bound_to 10162
  156.2554  130.3705  149.8187 LP  0  0  0  0  0  0  0  0  0  0  0  0  # atno 17370 bound_to 10713
  156.5948  130.8521  151.3417 LP  0  0  0  0  0  0  0  0  0  0  0  0  # atno 17371 bound_to 10713
  141.1859  133.8312  157.1086 LP  0  0  0  0  0  0  0  0  0  0  0  0  # atno 17394 bound_to 11000
  140.0342  134.9886  157.0839 LP  0  0  0  0  0  0  0  0  0  0  0  0  # atno 17395 bound_to 11000

$$$$
