AV-unprocessed.smi:1535|AV-procd|sdf|6176|dock5
  -GOLD-   22720 6333D 1   1.00000     0.00000
 Structure written by MMmdl.
 47 48  0  0  0  0  0  0  0  0  2 V2000
  152.1236  144.1202  161.4190 C   0  0  0  0  0  0  0  0  0  0  0  0
  151.9915  143.2580  160.1752 C   0  0  0  0  0  0  0  0  0  0  0  0
  151.1516  143.7049  159.1303 C   0  0  0  0  0  0  0  0  0  0  0  0
  151.0515  142.8940  158.0058 C   0  0  0  0  0  0  0  0  0  0  0  0
  150.3174  143.0513  156.8284 N   0  3  0  0  0  0  0  0  0  0  0  0
  150.5405  141.9875  156.0082 C   0  0  0  0  0  0  0  0  0  0  0  0
  151.4077  141.1536  156.6435 N   0  0  0  0  0  0  0  0  0  0  0  0
  151.9730  139.8725  156.1974 C   0  0  0  0  0  0  0  0  0  0  0  0
  150.9096  138.9351  155.5904 C   0  0  2  0  0  0  0  0  0  0  0  0
  150.7704  139.1659  154.2026 O   0  0  0  0  0  0  0  0  0  0  0  0
  149.5080  138.9772  156.2413 C   0  0  0  0  0  0  0  0  0  0  0  0
  149.2552  137.9642  157.2723 N   0  0  0  0  0  0  0  0  0  0  0  0
  149.9284  138.3271  158.5158 C   0  0  0  0  0  0  0  0  0  0  0  0
  147.8223  137.7649  157.5123 C   0  0  0  0  0  0  0  0  0  0  0  0
  147.4824  136.5687  158.4197 C   0  0  1  0  0  0  0  0  0  0  0  0
  148.4129  135.3814  158.1443 C   0  0  0  0  0  0  0  0  0  0  0  0
  147.5362  136.9497  159.8411 C   0  0  0  0  0  0  0  0  0  0  0  0
  147.5770  137.2476  160.9585 N   0  0  0  0  0  0  0  0  0  0  0  0
  151.7517  141.6769  157.8962 C   0  0  0  0  0  0  0  0  0  0  0  0
  152.5804  141.2209  158.9190 C   0  0  0  0  0  0  0  0  0  0  0  0
  152.6968  142.0312  160.0705 C   0  0  0  0  0  0  0  0  0  0  0  0
  153.5973  141.5588  161.1991 C   0  0  0  0  0  0  0  0  0  0  0  0
  151.5202  145.0253  161.3435 H   0  0  0  0  0  0  0  0  0  0  0  0
  153.1607  144.4223  161.5670 H   0  0  0  0  0  0  0  0  0  0  0  0
  151.7924  143.5723  162.3011 H   0  0  0  0  0  0  0  0  0  0  0  0
  150.6104  144.6369  159.2034 H   0  0  0  0  0  0  0  0  0  0  0  0
  150.1073  141.8332  155.0304 H   0  0  0  0  0  0  0  0  0  0  0  0
  152.7350  140.1029  155.4521 H   0  0  0  0  0  0  0  0  0  0  0  0
  152.4868  139.4064  157.0371 H   0  0  0  0  0  0  0  0  0  0  0  0
  151.2772  137.9133  155.6916 H   0  0  0  0  0  0  0  0  0  0  0  0
  150.7011  138.3293  153.7681 H   0  0  0  0  0  0  0  0  0  0  0  0
  149.4002  139.9732  156.6745 H   0  0  0  0  0  0  0  0  0  0  0  0
  148.7373  138.9210  155.4708 H   0  0  0  0  0  0  0  0  0  0  0  0
  149.8019  137.5584  159.2770 H   0  0  0  0  0  0  0  0  0  0  0  0
  149.5446  139.2680  158.9127 H   0  0  0  0  0  0  0  0  0  0  0  0
  151.0011  138.4414  158.3552 H   0  0  0  0  0  0  0  0  0  0  0  0
  147.3972  138.6761  157.9359 H   0  0  0  0  0  0  0  0  0  0  0  0
  147.2941  137.6232  156.5727 H   0  0  0  0  0  0  0  0  0  0  0  0
  146.4615  136.2400  158.2297 H   0  0  0  0  0  0  0  0  0  0  0  0
  148.1536  134.5282  158.7719 H   0  0  0  0  0  0  0  0  0  0  0  0
  149.4528  135.6397  158.3475 H   0  0  0  0  0  0  0  0  0  0  0  0
  148.3440  135.0607  157.1046 H   0  0  0  0  0  0  0  0  0  0  0  0
  153.1140  140.2855  158.8460 H   0  0  0  0  0  0  0  0  0  0  0  0
  154.0565  140.5971  160.9675 H   0  0  0  0  0  0  0  0  0  0  0  0
  153.0277  141.4419  162.1212 H   0  0  0  0  0  0  0  0  0  0  0  0
  154.3989  142.2766  161.3746 H   0  0  0  0  0  0  0  0  0  0  0  0
  149.7076  143.8256  156.5995 H   0  0  0  0  0  0  0  0  0  0  0  0
  1  2  1  0  0  0  0
  1 23  1  0  0  0  0
  1 24  1  0  0  0  0
  1 25  1  0  0  0  0
  2 21  1  0  0  0  0
  2  3  2  0  0  0  0
  3  4  1  0  0  0  0
  3 26  1  0  0  0  0
  4 19  2  0  0  0  0
  4  5  1  0  0  0  0
  5  6  2  0  0  0  0
  5 47  1  0  0  0  0
  6  7  1  0  0  0  0
  6 27  1  0  0  0  0
  7  8  1  0  0  0  0
  7 19  1  0  0  0  0
  8  9  1  0  0  0  0
  8 28  1  0  0  0  0
  8 29  1  0  0  0  0
  9 10  1  0  0  0  0
  9 11  1  0  0  0  0
  9 30  1  0  0  0  0
 10 31  1  0  0  0  0
 11 12  1  0  0  0  0
 11 32  1  0  0  0  0
 11 33  1  0  0  0  0
 12 13  1  0  0  0  0
 12 14  1  0  0  0  0
 13 34  1  0  0  0  0
 13 35  1  0  0  0  0
 13 36  1  0  0  0  0
 14 15  1  0  0  0  0
 14 37  1  0  0  0  0
 14 38  1  0  0  0  0
 15 16  1  0  0  0  0
 15 17  1  0  0  0  0
 15 39  1  0  0  0  0
 16 40  1  0  0  0  0
 16 41  1  0  0  0  0
 16 42  1  0  0  0  0
 17 18  3  0  0  0  0
 19 20  1  0  0  0  0
 20 21  2  0  0  0  0
 20 43  1  0  0  0  0
 21 22  1  0  0  0  0
 22 44  1  0  0  0  0
 22 45  1  0  0  0  0
 22 46  1  0  0  0  0
M  CHG  1   5   1
M  END
> <s_m_source_file>
AV-unprocessed.smi

> <i_m_source_file_index>
1535

> <i_lp_mmshare_version>
43012

> <i_f3d_flags>
0

> <s_epik_input>
W0NIM11jKFtjSF0xKWMoW0NIM10pW2NIXWMoYzEyKW4oW2NIXW4yKVtDSDJdW0NASF0oW09IXSlbQ0gyXU4oW0NIM10pW0NIMl1bQ0BIXShbQ0gzXSlDI04=

> <s_epik_cmdline>
J2VwaWtfcHl0aG9uJywgJy1waCcsICc3LjAnLCAnLXRuJywgJzgnLCAnLW1hJywgJzIwMCcsICctbWV0YWxfYmluZGluZycsICctaW1hZScsICc8aW5maWxlLm1hZT4nLCAnLW9tYWUnLCAnPG91dGZpbGUubWFlPic=

> <r_epik_Ionization_Penalty>
1.22846

> <r_epik_Ionization_Penalty_Charging>
1.21333

> <r_epik_Ionization_Penalty_Neutral>
0.0151341

> <r_epik_State_Penalty>
1.27012

> <r_epik_Charging_Adjusted_Penalty>
2.48344

> <i_epik_Tot_Q>
1

> <i_epik_Tot_abs_Q>
1

> <r_epik_Metal_State_Penalty>
5.28751

> <b_epik_Metal_Only>
0

> <s_lp_Force_Field>
OPLS_2005

> <r_lp_Energy>
31.5295

> <b_lp_Chiralities_Consistent>
1

> <s_lp_Variant>
AV-unprocessed.smi:1535-7

> <Gold.Version>
5.8.1

> <Gold.Id.Protein>
6NUR|6NUR_protein|mol2

> <Gold.PLP.Fitness>
52.1976

> <Gold.PLP.PLP>
-40.4763

> <Gold.PLP.part.hbond>
-4.0000

> <Gold.PLP.part.metal>
0.0000

> <Gold.PLP.part.buried>
-5.4063

> <Gold.PLP.part.nonpolar>
-31.6460

> <Gold.PLP.part.repulsive>
0.0218

> <Gold.PLP.ligand.clash>
0.0000

> <Gold.PLP.ligand.torsion>
1.4389

> <Gold.PLP.Chemscore.Hbond>
4.8400

> <Gold.PLP.Chemscore.CHOScore>
0.0000

> <Gold.PLP.Chemscore.Metal>
0.0000

> <Gold.Chemscore.Hbonds>
donor molecule, donor type, donor heavy atom, donor atom, acceptor molecule, acceptor atom, score
      L1  H     5    47       P1  8028  1.98
      P1  H  6931  6943       L1    18  0.83
      P1  H  6934  6947       L1    18  0.96
      P1  H  7989  7998       L1    10  1.00

> <Gold.PLP.Chemscore.Internal.Correction>
0.0790

> <Gold.Rescore>
     Score         DG    S(hbond)    S(metal)    S(lipo)     H(rot)  DE(clash)    DE(int)     intcor
     20.50     -22.31       3.35        0.00     104.97       2.59       0.27       1.54       ----

> <Gold.Chemscore.Fitness>
20.5027

> <Gold.Chemscore.DG>
-22.3119

> <Gold.Chemscore.ZeroCoef>
-5.4800

> <Gold.Chemscore.Hbond>
3.3491

> <Gold.Chemscore.Metal>
0.0000

> <Gold.Chemscore.Lipo>
104.9655

> <Gold.Chemscore.Internal_Hbond>
0.0000

> <Gold.Chemscore.DEClash>
0.2741

> <Gold.Chemscore.DEInternal>
1.5352

> <Gold.Chemscore.Rot>
2.5918

> <Gold.Chemscore.Internal.Correction>
   9.000000E+99

> <Gold.Chemscore.Hbonds>
donor molecule, donor type, donor heavy atom, donor atom, acceptor molecule, acceptor atom, score
      L1  H     5    47       P1  8028  0.91
      P1  H  6931  6943       L1    18  0.80
      P1  H  6934  6947       L1    18  0.37
      P1  H  7989  7998       L1    10  0.88

> <Gold.Chemscore.Hbond.Weighted>
-11.1861

> <Gold.Chemscore.Metal.Weighted>
-0.0000

> <Gold.Chemscore.Lipo.Weighted>
-12.2810

> <Gold.Chemscore.Internal_Hbond.Weighted>
0.0000

> <Gold.Chemscore.DEClash.Weighted>
0.2741

> <Gold.Chemscore.DEInternal.Weighted>
1.5352

> <Gold.Chemscore.Rot.Weighted>
6.6351

> <Gold.Chemscore.Internal.Correction.Weighted>
   9.000000E+99

> <Gold.Protein.RotatedTorsions>
[ 6907 6896 6895 6894 ] final -164.13 input  -60.11 | X-H torsion
[ 7974 7965 7964 7962 ] final -134.00 input  175.53 | X-H torsion
[ 8008 7997 7996 7995 ] final    0.99 input   59.86 | X-H torsion
[ 10167 10162 10161 10158 ] final   27.50 input  -65.29 | X-H torsion
[ 10718 10713 10712 10709 ] final  116.42 input   66.30 | X-H torsion
[ 10763 10752 10751 10750 ] final   -0.34 input  -60.55 | X-H torsion
[ 11005 11000 10999 10996 ] final -157.64 input  -57.11 | X-H torsion

> <Gold.Protein.ActiveResidues>
 VAL166  LYS551  ARG553  GLY616  TRP617  ASP618  TYR619  PRO620  LYS621  CYS622 
 ASP623  PHE694  ASN695  SER759  ASP760  ASP761  ALA762  ILE779  LEU786  VAL792 
 PHE793  MET794  SER795  GLU796  ALA797  LYS798  CYS799  TRP800  GLU811  SER814 

> <Gold.Protein.RotatedAtoms>
  151.4070  133.3739  159.2738 H   0  0  0  0  0  0  0  0  0  0  0  0  # atno 6907 bound_to 6896
  150.9391  134.8803  159.7611 H   0  0  0  0  0  0  0  0  0  0  0  0  # atno 6908 bound_to 6896
  152.5063  134.4019  159.9471 H   0  0  0  0  0  0  0  0  0  0  0  0  # atno 6909 bound_to 6896
  144.9142  140.6934  143.5006 H   0  0  0  0  0  0  0  0  0  0  0  0  # atno 7974 bound_to 7965
  154.6746  140.2619  155.6972 H   0  0  0  0  0  0  0  0  0  0  0  0  # atno 8008 bound_to 7997
  156.2672  140.2822  156.1190 H   0  0  0  0  0  0  0  0  0  0  0  0  # atno 8009 bound_to 7997
  155.1119  140.0376  157.2716 H   0  0  0  0  0  0  0  0  0  0  0  0  # atno 8010 bound_to 7997
  140.4933  144.0432  150.6305 H   0  0  0  0  0  0  0  0  0  0  0  0  # atno 10167 bound_to 10162
  157.6161  131.1025  150.7470 H   0  0  0  0  0  0  0  0  0  0  0  0  # atno 10718 bound_to 10713
  153.3306  135.6975  153.6951 H   0  0  0  0  0  0  0  0  0  0  0  0  # atno 10763 bound_to 10752
  153.5755  135.3508  155.2855 H   0  0  0  0  0  0  0  0  0  0  0  0  # atno 10764 bound_to 10752
  154.8617  135.4282  154.2494 H   0  0  0  0  0  0  0  0  0  0  0  0  # atno 10765 bound_to 10752
  140.6624  134.4335  157.5234 H   0  0  0  0  0  0  0  0  0  0  0  0  # atno 11005 bound_to 11000
  145.3403  139.1734  143.4489 LP  0  0  0  0  0  0  0  0  0  0  0  0  # atno 17320 bound_to 7965
  146.3174  140.3443  142.8650 LP  0  0  0  0  0  0  0  0  0  0  0  0  # atno 17321 bound_to 7965
  140.3707  143.2856  152.0281 LP  0  0  0  0  0  0  0  0  0  0  0  0  # atno 17342 bound_to 10162
  139.4856  144.6232  151.7215 LP  0  0  0  0  0  0  0  0  0  0  0  0  # atno 17343 bound_to 10162
  156.7837  130.4867  149.5396 LP  0  0  0  0  0  0  0  0  0  0  0  0  # atno 17370 bound_to 10713
  156.1284  130.6160  151.0298 LP  0  0  0  0  0  0  0  0  0  0  0  0  # atno 17371 bound_to 10713
  139.9008  134.8560  156.1903 LP  0  0  0  0  0  0  0  0  0  0  0  0  # atno 17394 bound_to 11000
  141.0455  133.6915  156.1675 LP  0  0  0  0  0  0  0  0  0  0  0  0  # atno 17395 bound_to 11000

$$$$
