AV-unprocessed.smi:1240|AV-procd|sdf|5203|dock10
  -GOLD-   22720 4293D 1   1.00000     0.00000
 Structure written by MMmdl.
 48 50  0  0  0  0  0  0  0  0  2 V2000
  146.4133  131.6649  153.7616 O   0  0  0  0  0  0  0  0  0  0  0  0
  147.1855  131.4752  152.8223 C   0  0  0  0  0  0  0  0  0  0  0  0
  148.4369  131.0186  152.9761 N   0  0  0  0  0  0  0  0  0  0  0  0
  149.0628  130.6947  154.2545 C   0  0  0  0  0  0  0  0  0  0  0  0
  150.3486  129.8045  154.1482 C   0  0  2  0  0  0  0  0  0  0  0  0
  149.9303  128.2876  154.1190 C   0  0  2  0  0  0  0  0  0  0  0  0
  149.0321  127.8153  152.9857 C   0  0  0  0  0  0  0  0  0  0  0  0
  148.5771  126.4468  153.4705 C   0  0  0  0  0  0  0  0  0  0  0  0
  148.4045  126.6044  154.8696 O   0  0  0  0  0  0  0  0  0  0  0  0
  149.1043  127.7646  155.3084 C   0  0  0  0  0  0  0  0  0  0  0  0
  151.3542  130.0681  155.2197 N   0  0  0  0  0  0  0  0  0  0  0  0
  151.4571  131.4608  155.6743 C   0  0  0  0  0  0  0  0  0  0  0  0
  152.4915  131.6440  156.7998 C   0  0  0  0  0  0  0  0  0  0  0  0
  153.7647  131.1859  156.3663 O   0  0  0  0  0  0  0  0  0  0  0  0
  153.7345  129.8253  155.9578 C   0  0  0  0  0  0  0  0  0  0  0  0
  152.7084  129.6538  154.8255 C   0  0  0  0  0  0  0  0  0  0  0  0
  146.9116  131.7145  151.5281 N   0  0  0  0  0  0  0  0  0  0  0  0
  145.7159  132.2235  150.9511 C   0  0  0  0  0  0  0  0  0  0  0  0
  144.7509  132.7681  151.8275 C   0  0  0  0  0  0  0  0  0  0  0  0
  143.5544  133.2984  151.3036 C   0  0  0  0  0  0  0  0  0  0  0  0
  143.3429  133.2908  149.9702 N   0  3  0  0  0  0  0  0  0  0  0  0
  144.2403  132.7942  149.0918 C   0  0  0  0  0  0  0  0  0  0  0  0
  145.4552  132.2505  149.5569 C   0  0  0  0  0  0  0  0  0  0  0  0
  149.0054  130.8955  152.1508 H   0  0  0  0  0  0  0  0  0  0  0  0
  149.2699  131.6635  154.7079 H   0  0  0  0  0  0  0  0  0  0  0  0
  148.3211  130.2109  154.8910 H   0  0  0  0  0  0  0  0  0  0  0  0
  150.8136  130.0473  153.1917 H   0  0  0  0  0  0  0  0  0  0  0  0
  150.8451  127.6945  154.0663 H   0  0  0  0  0  0  0  0  0  0  0  0
  148.1616  128.4656  152.8871 H   0  0  0  0  0  0  0  0  0  0  0  0
  149.5437  127.7515  152.0248 H   0  0  0  0  0  0  0  0  0  0  0  0
  147.6597  126.1113  152.9865 H   0  0  0  0  0  0  0  0  0  0  0  0
  149.3524  125.7006  153.2914 H   0  0  0  0  0  0  0  0  0  0  0  0
  149.7241  127.5097  156.1679 H   0  0  0  0  0  0  0  0  0  0  0  0
  148.3654  128.5026  155.6234 H   0  0  0  0  0  0  0  0  0  0  0  0
  151.7143  132.1103  154.8361 H   0  0  0  0  0  0  0  0  0  0  0  0
  150.5013  131.8016  156.0710 H   0  0  0  0  0  0  0  0  0  0  0  0
  152.5680  132.6954  157.0766 H   0  0  0  0  0  0  0  0  0  0  0  0
  152.1874  131.0991  157.6949 H   0  0  0  0  0  0  0  0  0  0  0  0
  154.7282  129.5366  155.6155 H   0  0  0  0  0  0  0  0  0  0  0  0
  153.4876  129.1839  156.8053 H   0  0  0  0  0  0  0  0  0  0  0  0
  152.7455  128.6203  154.5049 H   0  0  0  0  0  0  0  0  0  0  0  0
  153.0313  130.2413  153.9645 H   0  0  0  0  0  0  0  0  0  0  0  0
  147.6763  131.5749  150.8838 H   0  0  0  0  0  0  0  0  0  0  0  0
  144.9204  132.7767  152.8947 H   0  0  0  0  0  0  0  0  0  0  0  0
  142.7672  133.7270  151.9066 H   0  0  0  0  0  0  0  0  0  0  0  0
  143.9646  132.8518  148.0488 H   0  0  0  0  0  0  0  0  0  0  0  0
  146.1644  131.8778  148.8342 H   0  0  0  0  0  0  0  0  0  0  0  0
  142.4710  133.6805  149.6105 H   0  0  0  0  0  0  0  0  0  0  0  0
  1  2  2  0  0  0  0
  2  3  1  0  0  0  0
  2 17  1  0  0  0  0
  3  4  1  0  0  0  0
  3 24  1  0  0  0  0
  4  5  1  0  0  0  0
  4 25  1  0  0  0  0
  4 26  1  0  0  0  0
  5  6  1  0  0  0  0
  5 11  1  0  0  0  0
  5 27  1  0  0  0  0
  6 10  1  0  0  0  0
  6  7  1  0  0  0  0
  6 28  1  0  0  0  0
  7  8  1  0  0  0  0
  7 29  1  0  0  0  0
  7 30  1  0  0  0  0
  8  9  1  0  0  0  0
  8 31  1  0  0  0  0
  8 32  1  0  0  0  0
  9 10  1  0  0  0  0
 10 33  1  0  0  0  0
 10 34  1  0  0  0  0
 11 16  1  0  0  0  0
 11 12  1  0  0  0  0
 12 13  1  0  0  0  0
 12 35  1  0  0  0  0
 12 36  1  0  0  0  0
 13 14  1  0  0  0  0
 13 37  1  0  0  0  0
 13 38  1  0  0  0  0
 14 15  1  0  0  0  0
 15 16  1  0  0  0  0
 15 39  1  0  0  0  0
 15 40  1  0  0  0  0
 16 41  1  0  0  0  0
 16 42  1  0  0  0  0
 17 18  1  0  0  0  0
 17 43  1  0  0  0  0
 18 23  1  0  0  0  0
 18 19  2  0  0  0  0
 19 20  1  0  0  0  0
 19 44  1  0  0  0  0
 20 21  2  0  0  0  0
 20 45  1  0  0  0  0
 21 22  1  0  0  0  0
 21 48  1  0  0  0  0
 22 23  2  0  0  0  0
 22 46  1  0  0  0  0
 23 47  1  0  0  0  0
M  CHG  1  21   1
M  END
> <s_m_source_file>
AV-unprocessed.smi

> <i_m_source_file_index>
1240

> <i_lp_mmshare_version>
43012

> <i_f3d_flags>
0

> <s_epik_input>
W2NIXTFbY0hdbltjSF1bY0hdYzFbTkhdQyg9TylbTkhdW0NIMl1bQ0BIXShbQ0BASF0yW0NIMl1bQ0gyXU9bQ0gyXTIpTjNbQ0gyXVtDSDJdT1tDSDJdW0NIMl0z

> <s_epik_cmdline>
J2VwaWtfcHl0aG9uJywgJy1waCcsICc3LjAnLCAnLXRuJywgJzgnLCAnLW1hJywgJzIwMCcsICctbWV0YWxfYmluZGluZycsICctaW1hZScsICc8aW5maWxlLm1hZT4nLCAnLW9tYWUnLCAnPG91dGZpbGUubWFlPic=

> <r_epik_Ionization_Penalty>
1.15944

> <r_epik_Ionization_Penalty_Charging>
1.0344

> <r_epik_Ionization_Penalty_Neutral>
0.125034

> <r_epik_State_Penalty>
1.2199

> <r_epik_Charging_Adjusted_Penalty>
2.25431

> <i_epik_Tot_Q>
1

> <i_epik_Tot_abs_Q>
1

> <r_epik_Metal_State_Penalty>
1.3155

> <b_epik_Metal_Only>
0

> <s_lp_Force_Field>
OPLS_2005

> <r_lp_Energy>
66.7815

> <b_lp_Chiralities_Consistent>
1

> <s_lp_Variant>
AV-unprocessed.smi:1240-9

> <Gold.Version>
5.8.1

> <Gold.Id.Protein>
6NUR|6NUR_protein|mol2

> <Gold.PLP.Fitness>
47.2070

> <Gold.PLP.PLP>
-37.1222

> <Gold.PLP.part.hbond>
-3.0000

> <Gold.PLP.part.metal>
0.0000

> <Gold.PLP.part.buried>
-6.1410

> <Gold.PLP.part.nonpolar>
-27.1115

> <Gold.PLP.part.repulsive>
0.2808

> <Gold.PLP.ligand.clash>
0.0000

> <Gold.PLP.ligand.torsion>
0.9721

> <Gold.PLP.Chemscore.Hbond>
3.9760

> <Gold.PLP.Chemscore.CHOScore>
0.0000

> <Gold.PLP.Chemscore.Metal>
0.0000

> <Gold.Chemscore.Hbonds>
donor molecule, donor type, donor heavy atom, donor atom, acceptor molecule, acceptor atom, score
      L1  H     3    24       P1 10747  0.91
      L1  H    17    43       P1 10747  1.00
      L1  H    21    48       P1 10186  2.00

> <Gold.PLP.Chemscore.Internal.Correction>
0.1010

> <Gold.Rescore>
     Score         DG    S(hbond)    S(metal)    S(lipo)     H(rot)  DE(clash)    DE(int)     intcor
     18.11     -20.63       2.65        0.00      90.99       1.69       0.12       2.40       ----

> <Gold.Chemscore.Fitness>
18.1077

> <Gold.Chemscore.DG>
-20.6320

> <Gold.Chemscore.ZeroCoef>
-5.4800

> <Gold.Chemscore.Hbond>
2.6455

> <Gold.Chemscore.Metal>
0.0000

> <Gold.Chemscore.Lipo>
90.9864

> <Gold.Chemscore.Internal_Hbond>
0.0000

> <Gold.Chemscore.DEClash>
0.1231

> <Gold.Chemscore.DEInternal>
2.4012

> <Gold.Chemscore.Rot>
1.6912

> <Gold.Chemscore.Internal.Correction>
   9.000000E+99

> <Gold.Chemscore.Hbonds>
donor molecule, donor type, donor heavy atom, donor atom, acceptor molecule, acceptor atom, score
      L1  H     3    24       P1 10747  0.36
      L1  H    17    43       P1 10747  0.98
      L1  H    21    48       P1 10186  0.99

> <Gold.Chemscore.Hbond.Weighted>
-8.8360

> <Gold.Chemscore.Metal.Weighted>
-0.0000

> <Gold.Chemscore.Lipo.Weighted>
-10.6454

> <Gold.Chemscore.Internal_Hbond.Weighted>
0.0000

> <Gold.Chemscore.DEClash.Weighted>
0.1231

> <Gold.Chemscore.DEInternal.Weighted>
2.4012

> <Gold.Chemscore.Rot.Weighted>
4.3295

> <Gold.Chemscore.Internal.Correction.Weighted>
   9.000000E+99

> <Gold.Protein.RotatedTorsions>
[ 6907 6896 6895 6894 ] final  113.09 input  -60.11 | X-H torsion
[ 7974 7965 7964 7962 ] final  125.69 input  175.53 | X-H torsion
[ 8008 7997 7996 7995 ] final   73.79 input   59.86 | X-H torsion
[ 10167 10162 10161 10158 ] final    7.45 input  -65.29 | X-H torsion
[ 10718 10713 10712 10709 ] final  169.26 input   66.30 | X-H torsion
[ 10763 10752 10751 10750 ] final    7.92 input  -60.55 | X-H torsion
[ 11005 11000 10999 10996 ] final  -72.42 input  -57.11 | X-H torsion

> <Gold.Protein.ActiveResidues>
 VAL166  LYS551  ARG553  GLY616  TRP617  ASP618  TYR619  PRO620  LYS621  CYS622 
 ASP623  PHE694  ASN695  SER759  ASP760  ASP761  ALA762  ILE779  LEU786  VAL792 
 PHE793  MET794  SER795  GLU796  ALA797  LYS798  CYS799  TRP800  GLU811  SER814 

> <Gold.Protein.RotatedAtoms>
  152.4880  133.8425  159.7159 H   0  0  0  0  0  0  0  0  0  0  0  0  # atno 6907 bound_to 6896
  150.8984  133.7141  159.2892 H   0  0  0  0  0  0  0  0  0  0  0  0  # atno 6908 bound_to 6896
  151.4590  135.1040  159.9772 H   0  0  0  0  0  0  0  0  0  0  0  0  # atno 6909 bound_to 6896
  145.0701  139.3736  143.4962 H   0  0  0  0  0  0  0  0  0  0  0  0  # atno 7974 bound_to 7965
  155.7888  140.3480  155.5338 H   0  0  0  0  0  0  0  0  0  0  0  0  # atno 8008 bound_to 7997
  155.8654  140.0978  157.1606 H   0  0  0  0  0  0  0  0  0  0  0  0  # atno 8009 bound_to 7997
  154.4014  140.1350  156.4000 H   0  0  0  0  0  0  0  0  0  0  0  0  # atno 8010 bound_to 7997
  140.6371  143.7861  150.7375 H   0  0  0  0  0  0  0  0  0  0  0  0  # atno 10167 bound_to 10162
  157.0252  131.0243  151.2762 H   0  0  0  0  0  0  0  0  0  0  0  0  # atno 10718 bound_to 10713
  153.2308  135.6892  153.7892 H   0  0  0  0  0  0  0  0  0  0  0  0  # atno 10763 bound_to 10752
  153.7056  135.3290  155.3236 H   0  0  0  0  0  0  0  0  0  0  0  0  # atno 10764 bound_to 10752
  154.8313  135.4578  154.1193 H   0  0  0  0  0  0  0  0  0  0  0  0  # atno 10765 bound_to 10752
  141.1608  133.6846  156.7056 H   0  0  0  0  0  0  0  0  0  0  0  0  # atno 11005 bound_to 11000
  146.3528  140.0442  142.8640 LP  0  0  0  0  0  0  0  0  0  0  0  0  # atno 17320 bound_to 7965
  145.1302  140.9513  143.4549 LP  0  0  0  0  0  0  0  0  0  0  0  0  # atno 17321 bound_to 7965
  140.1484  143.4379  152.2147 LP  0  0  0  0  0  0  0  0  0  0  0  0  # atno 17342 bound_to 10162
  139.5581  144.7387  151.4235 LP  0  0  0  0  0  0  0  0  0  0  0  0  # atno 17343 bound_to 10162
  157.5219  130.8003  149.7819 LP  0  0  0  0  0  0  0  0  0  0  0  0  # atno 17370 bound_to 10713
  156.0088  130.3843  150.2336 LP  0  0  0  0  0  0  0  0  0  0  0  0  # atno 17371 bound_to 10713
  140.2925  134.8229  157.4029 LP  0  0  0  0  0  0  0  0  0  0  0  0  # atno 17394 bound_to 11000
  140.1333  134.5066  155.8088 LP  0  0  0  0  0  0  0  0  0  0  0  0  # atno 17395 bound_to 11000

$$$$
