AV-unprocessed.smi:3131|AV-procd|sdf|11928|dock2
  -GOLD-   2272017313D 1   1.00000     0.00000
 Structure written by MMmdl.
 43 43  0  0  0  0  0  0  0  0  2 V2000
  141.7941  136.2401  153.5857 C   0  0  0  0  0  0  0  0  0  0  0  0
  142.9629  135.6573  152.7772 C   0  0  0  0  0  0  0  0  0  0  0  0
  144.0060  136.7017  152.3130 C   0  0  0  0  0  0  0  0  0  0  0  0
  145.0609  136.0572  151.3798 C   0  0  0  0  0  0  0  0  0  0  0  0
  145.7405  134.8095  151.9633 C   0  0  0  0  0  0  0  0  0  0  0  0
  144.6842  137.3882  153.5198 C   0  0  0  0  0  0  0  0  0  0  0  0
  145.5081  138.5394  153.1007 N   0  3  0  0  0  0  0  0  0  0  0  0
  146.5114  138.9697  154.0972 C   0  0  0  0  0  0  0  0  0  0  0  0
  147.1303  140.3360  153.7305 C   0  0  2  0  0  0  0  0  0  0  0  0
  146.2064  141.4832  154.1730 C   0  0  0  0  0  0  0  0  0  0  0  0
  147.1913  140.4073  152.3175 O   0  0  0  0  0  0  0  0  0  0  0  0
  148.4956  140.4994  154.3645 C   0  0  0  0  0  0  0  0  0  0  0  0
  149.6351  139.6569  154.2049 C   0  0  0  0  0  0  0  0  0  0  0  0
  150.6908  140.0783  154.8796 N   0  0  0  0  0  0  0  0  0  0  0  0
  150.2659  141.1956  155.5025 N   0  0  0  0  0  0  0  0  0  0  0  0
  151.1801  141.9303  156.3504 C   0  0  0  0  0  0  0  0  0  0  0  0
  148.9477  141.4735  155.2128 C   0  0  0  0  0  0  0  0  0  0  0  0
  141.0514  135.4693  153.7924 H   0  0  0  0  0  0  0  0  0  0  0  0
  141.2948  137.0397  153.0377 H   0  0  0  0  0  0  0  0  0  0  0  0
  142.1172  136.6384  154.5468 H   0  0  0  0  0  0  0  0  0  0  0  0
  143.4539  134.8747  153.3568 H   0  0  0  0  0  0  0  0  0  0  0  0
  142.5314  135.1578  151.9111 H   0  0  0  0  0  0  0  0  0  0  0  0
  143.4802  137.4709  151.7446 H   0  0  0  0  0  0  0  0  0  0  0  0
  144.5939  135.7550  150.4423 H   0  0  0  0  0  0  0  0  0  0  0  0
  145.8174  136.7945  151.1082 H   0  0  0  0  0  0  0  0  0  0  0  0
  146.4060  134.3564  151.2282 H   0  0  0  0  0  0  0  0  0  0  0  0
  145.0048  134.0567  152.2480 H   0  0  0  0  0  0  0  0  0  0  0  0
  146.3421  135.0415  152.8414 H   0  0  0  0  0  0  0  0  0  0  0  0
  143.9391  137.7610  154.2215 H   0  0  0  0  0  0  0  0  0  0  0  0
  145.3033  136.6725  154.0627 H   0  0  0  0  0  0  0  0  0  0  0  0
  145.9961  138.2867  152.2531 H   0  0  0  0  0  0  0  0  0  0  0  0
  146.0471  139.0077  155.0839 H   0  0  0  0  0  0  0  0  0  0  0  0
  147.2959  138.2131  154.1488 H   0  0  0  0  0  0  0  0  0  0  0  0
  146.0744  141.4926  155.2555 H   0  0  0  0  0  0  0  0  0  0  0  0
  145.2159  141.3950  153.7248 H   0  0  0  0  0  0  0  0  0  0  0  0
  146.6131  142.4535  153.8845 H   0  0  0  0  0  0  0  0  0  0  0  0
  148.0789  140.2329  152.0426 H   0  0  0  0  0  0  0  0  0  0  0  0
  149.7258  138.7579  153.6131 H   0  0  0  0  0  0  0  0  0  0  0  0
  150.6960  142.8296  156.7322 H   0  0  0  0  0  0  0  0  0  0  0  0
  152.0635  142.2186  155.7798 H   0  0  0  0  0  0  0  0  0  0  0  0
  151.4842  141.3070  157.1918 H   0  0  0  0  0  0  0  0  0  0  0  0
  148.4454  142.3352  155.6275 H   0  0  0  0  0  0  0  0  0  0  0  0
  144.9018  139.3218  152.8993 H   0  0  0  0  0  0  0  0  0  0  0  0
  1  2  1  0  0  0  0
  1 18  1  0  0  0  0
  1 19  1  0  0  0  0
  1 20  1  0  0  0  0
  2  3  1  0  0  0  0
  2 21  1  0  0  0  0
  2 22  1  0  0  0  0
  3  4  1  0  0  0  0
  3  6  1  0  0  0  0
  3 23  1  0  0  0  0
  4  5  1  0  0  0  0
  4 24  1  0  0  0  0
  4 25  1  0  0  0  0
  5 26  1  0  0  0  0
  5 27  1  0  0  0  0
  5 28  1  0  0  0  0
  6  7  1  0  0  0  0
  6 29  1  0  0  0  0
  6 30  1  0  0  0  0
  7  8  1  0  0  0  0
  7 31  1  0  0  0  0
  7 43  1  0  0  0  0
  8  9  1  0  0  0  0
  8 32  1  0  0  0  0
  8 33  1  0  0  0  0
  9 10  1  0  0  0  0
  9 11  1  0  0  0  0
  9 12  1  0  0  0  0
 10 34  1  0  0  0  0
 10 35  1  0  0  0  0
 10 36  1  0  0  0  0
 11 37  1  0  0  0  0
 12 17  2  0  0  0  0
 12 13  1  0  0  0  0
 13 14  2  0  0  0  0
 13 38  1  0  0  0  0
 14 15  1  0  0  0  0
 15 16  1  0  0  0  0
 15 17  1  0  0  0  0
 16 39  1  0  0  0  0
 16 40  1  0  0  0  0
 16 41  1  0  0  0  0
 17 42  1  0  0  0  0
M  CHG  1   7   1
M  END
> <s_m_source_file>
AV-unprocessed.smi

> <i_m_source_file_index>
3131

> <i_lp_mmshare_version>
43012

> <i_f3d_flags>
0

> <s_epik_input>
W0NIM11bQ0gyXVtDSF0oW0NIMl1bQ0gzXSlbQ0gyXVtOSF1bQ0gyXVtDQEBdKFtDSDNdKShbT0hdKWMxW2NIXW5uKFtDSDNdKVtjSF0x

> <s_epik_cmdline>
J2VwaWtfcHl0aG9uJywgJy1waCcsICc3LjAnLCAnLXRuJywgJzgnLCAnLW1hJywgJzIwMCcsICctbWV0YWxfYmluZGluZycsICctaW1hZScsICc8aW5maWxlLm1hZT4nLCAnLW9tYWUnLCAnPG91dGZpbGUubWFlPic=

> <r_lp_tautomer_probability>
1

> <r_epik_Ionization_Penalty>
0.00304809

> <r_epik_Ionization_Penalty_Charging>
0.00302982

> <r_epik_Ionization_Penalty_Neutral>
1.82731e-05

> <r_epik_State_Penalty>
0.00212874

> <r_epik_Charging_Adjusted_Penalty>
0.00515857

> <i_epik_Tot_Q>
1

> <i_epik_Tot_abs_Q>
1

> <r_epik_Metal_State_Penalty>
-0

> <b_epik_Metal_Only>
0

> <s_lp_Force_Field>
OPLS_2005

> <r_lp_Energy>
9.85369

> <b_lp_Chiralities_Consistent>
1

> <s_lp_Variant>
AV-unprocessed.smi:3131-2

> <Gold.Version>
5.8.1

> <Gold.Id.Protein>
6NUR|6NUR_protein|mol2

> <Gold.PLP.Fitness>
44.5428

> <Gold.PLP.PLP>
-29.8761

> <Gold.PLP.part.hbond>
-3.0000

> <Gold.PLP.part.metal>
0.0000

> <Gold.PLP.part.buried>
-2.4441

> <Gold.PLP.part.nonpolar>
-23.4017

> <Gold.PLP.part.repulsive>
0.0597

> <Gold.PLP.ligand.clash>
0.0000

> <Gold.PLP.ligand.torsion>
0.6036

> <Gold.PLP.Chemscore.Hbond>
4.0000

> <Gold.PLP.Chemscore.CHOScore>
1.1965

> <Gold.PLP.Chemscore.Metal>
0.0000

> <Gold.Chemscore.Hbonds>
donor molecule, donor type, donor heavy atom, donor atom, acceptor molecule, acceptor atom, score
      L1  H     7    43       P1 10175  2.00
      L1  H    11    37       P1  7957  1.00
      P1  H  7989  7998       L1    14  0.90
      L1  C    13    38       P1  7957  0.14
      L1  C    17    42       P1  8028  1.00

> <Gold.PLP.Chemscore.Internal.Correction>
0.2846

> <Gold.Rescore>
     Score         DG    S(hbond)    S(metal)    S(lipo)     H(rot)  DE(clash)    DE(int)     intcor
     14.02     -15.28       2.29        0.00      69.53       2.34       0.61       0.65       ----

> <Gold.Chemscore.Fitness>
14.0217

> <Gold.Chemscore.DG>
-15.2823

> <Gold.Chemscore.ZeroCoef>
-5.4800

> <Gold.Chemscore.Hbond>
2.2947

> <Gold.Chemscore.Metal>
0.0000

> <Gold.Chemscore.Lipo>
69.5309

> <Gold.Chemscore.Internal_Hbond>
0.0000

> <Gold.Chemscore.DEClash>
0.6098

> <Gold.Chemscore.DEInternal>
0.6508

> <Gold.Chemscore.Rot>
2.3426

> <Gold.Chemscore.Internal.Correction>
   9.000000E+99

> <Gold.Chemscore.Hbonds>
donor molecule, donor type, donor heavy atom, donor atom, acceptor molecule, acceptor atom, score
      L1  H     7    43       P1 10175  1.00
      L1  H    11    37       P1  7957  1.00
      P1  H  7989  7998       L1    14  0.05

> <Gold.Chemscore.Hbond.Weighted>
-7.6644

> <Gold.Chemscore.Metal.Weighted>
-0.0000

> <Gold.Chemscore.Lipo.Weighted>
-8.1351

> <Gold.Chemscore.Internal_Hbond.Weighted>
0.0000

> <Gold.Chemscore.DEClash.Weighted>
0.6098

> <Gold.Chemscore.DEInternal.Weighted>
0.6508

> <Gold.Chemscore.Rot.Weighted>
5.9972

> <Gold.Chemscore.Internal.Correction.Weighted>
   9.000000E+99

> <Gold.Protein.RotatedTorsions>
[ 6907 6896 6895 6894 ] final   33.94 input  -60.11 | X-H torsion
[ 7974 7965 7964 7962 ] final  106.26 input  175.53 | X-H torsion
[ 8008 7997 7996 7995 ] final  137.18 input   59.86 | X-H torsion
[ 10167 10162 10161 10158 ] final -163.15 input  -65.29 | X-H torsion
[ 10718 10713 10712 10709 ] final  111.42 input   66.30 | X-H torsion
[ 10763 10752 10751 10750 ] final -127.10 input  -60.55 | X-H torsion
[ 11005 11000 10999 10996 ] final  141.15 input  -57.11 | X-H torsion

> <Gold.Protein.ActiveResidues>
 VAL166  LYS551  ARG553  GLY616  TRP617  ASP618  TYR619  PRO620  LYS621  CYS622 
 ASP623  PHE694  ASN695  SER759  ASP760  ASP761  ALA762  ILE779  LEU786  VAL792 
 PHE793  MET794  SER795  GLU796  ALA797  LYS798  CYS799  TRP800  GLU811  SER814 

> <Gold.Protein.RotatedAtoms>
  152.0955  134.9378  160.0570 H   0  0  0  0  0  0  0  0  0  0  0  0  # atno 6907 bound_to 6896
  152.0613  133.4058  159.4427 H   0  0  0  0  0  0  0  0  0  0  0  0  # atno 6908 bound_to 6896
  150.6838  134.3118  159.4793 H   0  0  0  0  0  0  0  0  0  0  0  0  # atno 6909 bound_to 6896
  145.3089  139.2546  143.3774 H   0  0  0  0  0  0  0  0  0  0  0  0  # atno 7974 bound_to 7965
  156.3003  140.2426  156.3867 H   0  0  0  0  0  0  0  0  0  0  0  0  # atno 8008 bound_to 7997
  154.8651  140.0418  157.1709 H   0  0  0  0  0  0  0  0  0  0  0  0  # atno 8009 bound_to 7997
  154.8855  140.2955  155.5404 H   0  0  0  0  0  0  0  0  0  0  0  0  # atno 8010 bound_to 7997
  139.6341  144.0384  152.2040 H   0  0  0  0  0  0  0  0  0  0  0  0  # atno 10167 bound_to 10162
  157.6445  131.0950  150.6746 H   0  0  0  0  0  0  0  0  0  0  0  0  # atno 10718 bound_to 10713
  154.8750  135.3973  154.3538 H   0  0  0  0  0  0  0  0  0  0  0  0  # atno 10763 bound_to 10752
  153.4320  135.7025  153.6230 H   0  0  0  0  0  0  0  0  0  0  0  0  # atno 10764 bound_to 10752
  153.4847  135.3761  155.2430 H   0  0  0  0  0  0  0  0  0  0  0  0  # atno 10765 bound_to 10752
  140.0380  134.9319  157.0789 H   0  0  0  0  0  0  0  0  0  0  0  0  # atno 11005 bound_to 11000
  146.3125  140.3620  142.8666 LP  0  0  0  0  0  0  0  0  0  0  0  0  # atno 17320 bound_to 7965
  144.9032  140.7668  143.5854 LP  0  0  0  0  0  0  0  0  0  0  0  0  # atno 17321 bound_to 7965
  140.0056  144.6261  150.7691 LP  0  0  0  0  0  0  0  0  0  0  0  0  # atno 17342 bound_to 10162
  140.7455  143.2877  151.3417 LP  0  0  0  0  0  0  0  0  0  0  0  0  # atno 17343 bound_to 10162
  156.7065  130.4639  149.5558 LP  0  0  0  0  0  0  0  0  0  0  0  0  # atno 17370 bound_to 10713
  156.1759  130.6467  151.0893 LP  0  0  0  0  0  0  0  0  0  0  0  0  # atno 17371 bound_to 10713
  140.4116  134.1975  155.7163 LP  0  0  0  0  0  0  0  0  0  0  0  0  # atno 17394 bound_to 11000
  141.1868  133.8295  157.1056 LP  0  0  0  0  0  0  0  0  0  0  0  0  # atno 17395 bound_to 11000

$$$$
