AV-unprocessed.smi:1525|AV-procd|sdf|6145|dock6
  -GOLD-   22720 6293D 1   1.00000     0.00000
 Structure written by MMmdl.
 49 51  0  0  0  0  0  0  0  0  4 V2000
  150.2439  138.1260  159.2519 O   0  0  0  0  0  0  0  0  0  0  0  0
  149.1759  138.1736  158.6309 C   0  0  0  0  0  0  0  0  0  0  0  0
  148.1780  137.2501  158.6182 N   0  5  0  0  0  0  0  0  0  0  0  0
  148.0843  136.1084  159.5262 C   0  0  0  0  0  0  0  0  0  0  0  0
  147.4629  136.5499  160.8671 C   0  0  0  0  0  0  0  0  0  0  0  0
  146.4713  135.5650  161.3737 N   0  3  0  0  0  0  0  0  0  0  0  0
  147.0747  134.2910  161.8461 C   0  0  0  0  0  0  0  0  0  0  0  0
  145.9769  133.3103  162.2896 C   0  0  0  0  0  0  0  0  0  0  0  0
  145.1818  133.9106  163.3048 O   0  0  0  0  0  0  0  0  0  0  0  0
  144.5303  135.0879  162.8443 C   0  0  0  0  0  0  0  0  0  0  0  0
  145.5796  136.1275  162.4169 C   0  0  0  0  0  0  0  0  0  0  0  0
  148.8841  139.2364  157.8635 N   0  0  0  0  0  0  0  0  0  0  0  0
  149.6350  140.4289  157.6748 C   0  0  0  0  0  0  0  0  0  0  0  0
  150.8939  140.6203  158.2974 C   0  0  0  0  0  0  0  0  0  0  0  0
  151.6233  141.8003  158.0529 C   0  0  0  0  0  0  0  0  0  0  0  0
  151.0892  142.7652  157.1794 C   0  0  0  0  0  0  0  0  0  0  0  0
  149.8958  142.5461  156.5883 N   0  3  0  0  0  0  0  0  0  0  0  0
  149.1530  141.4344  156.7907 C   0  0  0  0  0  0  0  0  0  0  0  0
  147.9349  141.3812  156.0917 N   0  0  0  0  0  0  0  0  0  0  0  0
  148.0200  141.3192  154.6355 C   0  0  0  0  0  0  0  0  0  0  0  0
  147.1120  142.4297  154.0987 C   0  0  0  0  0  0  0  0  0  0  0  0
  146.1077  142.6382  155.2269 C   0  0  0  0  0  0  0  0  0  0  0  0
  146.9439  142.3777  156.4791 C   0  0  0  0  0  0  0  0  0  0  0  0
  147.4930  135.2923  159.1083 H   0  0  0  0  0  0  0  0  0  0  0  0
  149.0693  135.6820  159.7164 H   0  0  0  0  0  0  0  0  0  0  0  0
  148.2352  136.7258  161.6178 H   0  0  0  0  0  0  0  0  0  0  0  0
  146.9716  137.5120  160.7119 H   0  0  0  0  0  0  0  0  0  0  0  0
  147.6710  133.8366  161.0541 H   0  0  0  0  0  0  0  0  0  0  0  0
  147.7509  134.4922  162.6785 H   0  0  0  0  0  0  0  0  0  0  0  0
  145.3516  133.0172  161.4446 H   0  0  0  0  0  0  0  0  0  0  0  0
  146.4255  132.3990  162.6852 H   0  0  0  0  0  0  0  0  0  0  0  0
  143.8609  134.8479  162.0166 H   0  0  0  0  0  0  0  0  0  0  0  0
  143.9120  135.4874  163.6482 H   0  0  0  0  0  0  0  0  0  0  0  0
  146.1734  136.4392  163.2776 H   0  0  0  0  0  0  0  0  0  0  0  0
  145.0762  137.0159  162.0332 H   0  0  0  0  0  0  0  0  0  0  0  0
  147.9545  139.2387  157.4698 H   0  0  0  0  0  0  0  0  0  0  0  0
  151.3169  139.8698  158.9481 H   0  0  0  0  0  0  0  0  0  0  0  0
  152.5823  141.9582  158.5243 H   0  0  0  0  0  0  0  0  0  0  0  0
  151.5790  143.6956  156.9317 H   0  0  0  0  0  0  0  0  0  0  0  0
  149.0397  141.4156  154.2602 H   0  0  0  0  0  0  0  0  0  0  0  0
  147.6482  140.3443  154.3190 H   0  0  0  0  0  0  0  0  0  0  0  0
  147.6893  143.3425  153.9468 H   0  0  0  0  0  0  0  0  0  0  0  0
  146.6414  142.1708  153.1499 H   0  0  0  0  0  0  0  0  0  0  0  0
  145.6532  143.6293  155.2176 H   0  0  0  0  0  0  0  0  0  0  0  0
  145.3098  141.8979  155.1525 H   0  0  0  0  0  0  0  0  0  0  0  0
  146.3269  142.0125  157.3003 H   0  0  0  0  0  0  0  0  0  0  0  0
  147.4254  143.2981  156.8111 H   0  0  0  0  0  0  0  0  0  0  0  0
  145.8771  135.3404  160.5882 H   0  0  0  0  0  0  0  0  0  0  0  0
  149.5326  143.2587  155.9550 H   0  0  0  0  0  0  0  0  0  0  0  0
  1  2  2  0  0  0  0
  2  3  1  0  0  0  0
  2 12  1  0  0  0  0
  3  4  1  0  0  0  0
  4  5  1  0  0  0  0
  4 24  1  0  0  0  0
  4 25  1  0  0  0  0
  5  6  1  0  0  0  0
  5 26  1  0  0  0  0
  5 27  1  0  0  0  0
  6 11  1  0  0  0  0
  6  7  1  0  0  0  0
  6 48  1  0  0  0  0
  7  8  1  0  0  0  0
  7 28  1  0  0  0  0
  7 29  1  0  0  0  0
  8  9  1  0  0  0  0
  8 30  1  0  0  0  0
  8 31  1  0  0  0  0
  9 10  1  0  0  0  0
 10 11  1  0  0  0  0
 10 32  1  0  0  0  0
 10 33  1  0  0  0  0
 11 34  1  0  0  0  0
 11 35  1  0  0  0  0
 12 13  1  0  0  0  0
 12 36  1  0  0  0  0
 13 18  1  0  0  0  0
 13 14  2  0  0  0  0
 14 15  1  0  0  0  0
 14 37  1  0  0  0  0
 15 16  2  0  0  0  0
 15 38  1  0  0  0  0
 16 17  1  0  0  0  0
 16 39  1  0  0  0  0
 17 18  2  0  0  0  0
 17 49  1  0  0  0  0
 18 19  1  0  0  0  0
 19 23  1  0  0  0  0
 19 20  1  0  0  0  0
 20 21  1  0  0  0  0
 20 40  1  0  0  0  0
 20 41  1  0  0  0  0
 21 22  1  0  0  0  0
 21 42  1  0  0  0  0
 21 43  1  0  0  0  0
 22 23  1  0  0  0  0
 22 44  1  0  0  0  0
 22 45  1  0  0  0  0
 23 46  1  0  0  0  0
 23 47  1  0  0  0  0
M  CHG  1   3  -1
M  CHG  1   6   1
M  CHG  1  17   1
M  END
> <s_m_source_file>
AV-unprocessed.smi

> <i_m_source_file_index>
1525

> <i_lp_mmshare_version>
43012

> <i_f3d_flags>
0

> <s_epik_input>
W0NIMl0xW0NIMl1PW0NIMl1bQ0gyXU4xW0NIMl1bQ0gyXVtOSF1DKD1PKVtOSF1jMltjSF1bY0hdW2NIXW5jMk4zW0NIMl1bQ0gyXVtDSDJdW0NIMl0z

> <s_epik_cmdline>
J2VwaWtfcHl0aG9uJywgJy1waCcsICc3LjAnLCAnLXRuJywgJzgnLCAnLW1hJywgJzIwMCcsICctbWV0YWxfYmluZGluZycsICctaW1hZScsICc8aW5maWxlLm1hZT4nLCAnLW9tYWUnLCAnPG91dGZpbGUubWFlPic=

> <r_lp_tautomer_probability>
0.999994

> <r_epik_Ionization_Penalty>
8.59159

> <r_epik_Ionization_Penalty_Charging>
8.59159

> <r_epik_Ionization_Penalty_Neutral>
3.55275e-06

> <r_epik_State_Penalty>
8.58545

> <r_epik_Charging_Adjusted_Penalty>
17.177

> <i_epik_Tot_Q>
1

> <i_epik_Tot_abs_Q>
3

> <r_epik_Metal_State_Penalty>
4.58086

> <b_epik_Metal_Only>
1

> <s_lp_Force_Field>
OPLS_2005

> <r_lp_Energy>
45.7376

> <b_lp_Chiralities_Consistent>
1

> <s_lp_Variant>
AV-unprocessed.smi:1525-5

> <Gold.Version>
5.8.1

> <Gold.Id.Protein>
6NUR|6NUR_protein|mol2

> <Gold.PLP.Fitness>
41.4105

> <Gold.PLP.PLP>
-36.5710

> <Gold.PLP.part.hbond>
-2.8602

> <Gold.PLP.part.metal>
0.0000

> <Gold.PLP.part.buried>
-7.2297

> <Gold.PLP.part.nonpolar>
-27.7449

> <Gold.PLP.part.repulsive>
0.3798

> <Gold.PLP.ligand.clash>
0.0489

> <Gold.PLP.ligand.torsion>
0.6436

> <Gold.PLP.Chemscore.Hbond>
2.0000

> <Gold.PLP.Chemscore.CHOScore>
0.0000

> <Gold.PLP.Chemscore.Metal>
0.0000

> <Gold.Chemscore.Hbonds>
donor molecule, donor type, donor heavy atom, donor atom, acceptor molecule, acceptor atom, score
      L1  H    17    49       P1  8028  2.00

> <Gold.PLP.Chemscore.Internal.Correction>
0.1756

> <Gold.Rescore>
     Score         DG    S(hbond)    S(metal)    S(lipo)     H(rot)  DE(clash)    DE(int)     intcor
     11.81     -13.92       0.99        0.00      80.34       1.66       0.00       2.11       ----

> <Gold.Chemscore.Fitness>
11.8129

> <Gold.Chemscore.DG>
-13.9218

> <Gold.Chemscore.ZeroCoef>
-5.4800

> <Gold.Chemscore.Hbond>
0.9881

> <Gold.Chemscore.Metal>
0.0000

> <Gold.Chemscore.Lipo>
80.3353

> <Gold.Chemscore.Internal_Hbond>
0.0000

> <Gold.Chemscore.DEClash>
0.0013

> <Gold.Chemscore.DEInternal>
2.1076

> <Gold.Chemscore.Rot>
1.6632

> <Gold.Chemscore.Internal.Correction>
   9.000000E+99

> <Gold.Chemscore.Hbonds>
donor molecule, donor type, donor heavy atom, donor atom, acceptor molecule, acceptor atom, score
      L1  H    17    49       P1  8028  0.96

> <Gold.Chemscore.Hbond.Weighted>
-3.3003

> <Gold.Chemscore.Metal.Weighted>
-0.0000

> <Gold.Chemscore.Lipo.Weighted>
-9.3992

> <Gold.Chemscore.Internal_Hbond.Weighted>
0.0000

> <Gold.Chemscore.DEClash.Weighted>
0.0013

> <Gold.Chemscore.DEInternal.Weighted>
2.1076

> <Gold.Chemscore.Rot.Weighted>
4.2577

> <Gold.Chemscore.Internal.Correction.Weighted>
   9.000000E+99

> <Gold.Protein.RotatedTorsions>
[ 6907 6896 6895 6894 ] final -149.96 input  -60.11 | X-H torsion
[ 7974 7965 7964 7962 ] final  156.19 input  175.53 | X-H torsion
[ 8008 7997 7996 7995 ] final   24.65 input   59.86 | X-H torsion
[ 10167 10162 10161 10158 ] final  -55.01 input  -65.29 | X-H torsion
[ 10718 10713 10712 10709 ] final -108.30 input   66.30 | X-H torsion
[ 10763 10752 10751 10750 ] final   58.41 input  -60.55 | X-H torsion
[ 11005 11000 10999 10996 ] final  126.63 input  -57.11 | X-H torsion

> <Gold.Protein.ActiveResidues>
 VAL166  LYS551  ARG553  GLY616  TRP617  ASP618  TYR619  PRO620  LYS621  CYS622 
 ASP623  PHE694  ASN695  SER759  ASP760  ASP761  ALA762  ILE779  LEU786  VAL792 
 PHE793  MET794  SER795  GLU796  ALA797  LYS798  CYS799  TRP800  GLU811  SER814 

> <Gold.Protein.RotatedAtoms>
  151.1916  133.4664  159.2594 H   0  0  0  0  0  0  0  0  0  0  0  0  # atno 6907 bound_to 6896
  151.1158  135.0052  159.8525 H   0  0  0  0  0  0  0  0  0  0  0  0  # atno 6908 bound_to 6896
  152.5453  134.1831  159.8696 H   0  0  0  0  0  0  0  0  0  0  0  0  # atno 6909 bound_to 6896
  144.7978  139.7170  143.6194 H   0  0  0  0  0  0  0  0  0  0  0  0  # atno 7974 bound_to 7965
  154.9996  140.3123  155.4873 H   0  0  0  0  0  0  0  0  0  0  0  0  # atno 8008 bound_to 7997
  156.2927  140.2234  156.5046 H   0  0  0  0  0  0  0  0  0  0  0  0  # atno 8009 bound_to 7997
  154.7630  140.0457  157.0977 H   0  0  0  0  0  0  0  0  0  0  0  0  # atno 8010 bound_to 7997
  140.6398  143.2502  151.5019 H   0  0  0  0  0  0  0  0  0  0  0  0  # atno 10167 bound_to 10162
  156.0479  130.5706  150.7942 H   0  0  0  0  0  0  0  0  0  0  0  0  # atno 10718 bound_to 10713
  152.9870  135.5607  154.5548 H   0  0  0  0  0  0  0  0  0  0  0  0  # atno 10763 bound_to 10752
  154.4978  135.2796  155.1447 H   0  0  0  0  0  0  0  0  0  0  0  0  # atno 10764 bound_to 10752
  154.2890  135.6330  153.5430 H   0  0  0  0  0  0  0  0  0  0  0  0  # atno 10765 bound_to 10752
  139.9466  134.9629  156.8735 H   0  0  0  0  0  0  0  0  0  0  0  0  # atno 11005 bound_to 11000
  146.2251  139.5708  142.9592 LP  0  0  0  0  0  0  0  0  0  0  0  0  # atno 17320 bound_to 7965
  145.5629  141.0402  143.2216 LP  0  0  0  0  0  0  0  0  0  0  0  0  # atno 17321 bound_to 7965
  139.5608  144.2162  152.1687 LP  0  0  0  0  0  0  0  0  0  0  0  0  # atno 17342 bound_to 10162
  140.1429  144.5185  150.6733 LP  0  0  0  0  0  0  0  0  0  0  0  0  # atno 17343 bound_to 10162
  157.5374  131.0939  150.9874 LP  0  0  0  0  0  0  0  0  0  0  0  0  # atno 17370 bound_to 10713
  157.0165  130.5657  149.5326 LP  0  0  0  0  0  0  0  0  0  0  0  0  # atno 17371 bound_to 10713
  140.5820  134.0343  155.7468 LP  0  0  0  0  0  0  0  0  0  0  0  0  # atno 17394 bound_to 11000
  141.1118  133.9605  157.2897 LP  0  0  0  0  0  0  0  0  0  0  0  0  # atno 17395 bound_to 11000

$$$$
