AV-unprocessed.smi:2061|AV-procd|sdf|8373|dock10
  -GOLD-   2272011 53D 1   1.00000     0.00000
 Structure written by MMmdl.
 46 47  0  0  0  0  0  0  0  0  2 V2000
  150.6599  142.0758  156.2756 C   0  0  0  0  0  0  0  0  0  0  0  0
  150.5185  140.7631  155.5840 C   0  0  0  0  0  0  0  0  0  0  0  0
  149.4480  139.9473  155.3476 C   0  0  0  0  0  0  0  0  0  0  0  0
  150.0251  138.8605  154.6385 C   0  0  0  0  0  0  0  0  0  0  0  0
  149.2280  137.7718  154.2023 N   0  0  0  0  0  0  0  0  0  0  0  0
  148.0414  137.3777  154.6942 C   0  0  0  0  0  0  0  0  0  0  0  0
  147.4528  137.9037  155.6395 O   0  0  0  0  0  0  0  0  0  0  0  0
  147.5558  136.3272  154.0167 N   0  0  0  0  0  0  0  0  0  0  0  0
  146.2755  135.6804  154.2900 C   0  0  0  0  0  0  0  0  0  0  0  0
  145.4691  135.3524  153.0034 C   0  0  1  0  0  0  0  0  0  0  0  0
  144.8058  136.6396  152.4555 C   0  0  0  0  0  0  0  0  0  0  0  0
  146.3430  134.6647  151.9931 N   0  3  1  0  0  0  0  0  0  0  0  0
  147.0073  133.4281  152.4911 C   0  0  0  0  0  0  0  0  0  0  0  0
  146.0304  132.2308  152.5333 C   0  0  2  0  0  0  0  0  0  0  0  0
  146.7352  130.9299  152.9337 C   0  0  0  0  0  0  0  0  0  0  0  0
  145.4588  132.0412  151.2427 O   0  0  0  0  0  0  0  0  0  0  0  0
  144.7448  133.1807  150.7747 C   0  0  2  0  0  0  0  0  0  0  0  0
  144.1225  132.8279  149.4196 C   0  0  0  0  0  0  0  0  0  0  0  0
  145.7281  134.3643  150.6716 C   0  0  0  0  0  0  0  0  0  0  0  0
  151.3296  138.9996  154.4583 N   0  0  0  0  0  0  0  0  0  0  0  0
  151.6523  140.2207  155.0623 O   0  0  0  0  0  0  0  0  0  0  0  0
  149.7576  142.3199  156.8365 H   0  0  0  0  0  0  0  0  0  0  0  0
  150.8363  142.8745  155.5550 H   0  0  0  0  0  0  0  0  0  0  0  0
  151.4966  142.0583  156.9741 H   0  0  0  0  0  0  0  0  0  0  0  0
  148.4197  140.1052  155.6374 H   0  0  0  0  0  0  0  0  0  0  0  0
  149.5968  137.2443  153.4250 H   0  0  0  0  0  0  0  0  0  0  0  0
  148.1051  135.9524  153.2568 H   0  0  0  0  0  0  0  0  0  0  0  0
  146.4753  134.7615  154.8421 H   0  0  0  0  0  0  0  0  0  0  0  0
  145.7238  136.3266  154.9708 H   0  0  0  0  0  0  0  0  0  0  0  0
  144.6574  134.6753  153.2661 H   0  0  0  0  0  0  0  0  0  0  0  0
  144.2241  137.1547  153.2198 H   0  0  0  0  0  0  0  0  0  0  0  0
  144.1012  136.4266  151.6520 H   0  0  0  0  0  0  0  0  0  0  0  0
  145.5500  137.3441  152.0827 H   0  0  0  0  0  0  0  0  0  0  0  0
  147.8281  133.1944  151.8112 H   0  0  0  0  0  0  0  0  0  0  0  0
  147.4717  133.5721  153.4638 H   0  0  0  0  0  0  0  0  0  0  0  0
  145.2322  132.4156  153.2528 H   0  0  0  0  0  0  0  0  0  0  0  0
  147.1826  131.0148  153.9242 H   0  0  0  0  0  0  0  0  0  0  0  0
  147.5275  130.6756  152.2293 H   0  0  0  0  0  0  0  0  0  0  0  0
  146.0322  130.0969  152.9579 H   0  0  0  0  0  0  0  0  0  0  0  0
  143.9396  133.4155  151.4724 H   0  0  0  0  0  0  0  0  0  0  0  0
  143.5546  133.6677  149.0185 H   0  0  0  0  0  0  0  0  0  0  0  0
  143.4414  131.9815  149.5125 H   0  0  0  0  0  0  0  0  0  0  0  0
  144.8877  132.5615  148.6899 H   0  0  0  0  0  0  0  0  0  0  0  0
  145.2623  135.2393  150.2214 H   0  0  0  0  0  0  0  0  0  0  0  0
  146.5307  134.0967  149.9825 H   0  0  0  0  0  0  0  0  0  0  0  0
  147.0809  135.3268  151.8001 H   0  0  0  0  0  0  0  0  0  0  0  0
  1  2  1  0  0  0  0
  1 22  1  0  0  0  0
  1 23  1  0  0  0  0
  1 24  1  0  0  0  0
  2 21  1  0  0  0  0
  2  3  2  0  0  0  0
  3  4  1  0  0  0  0
  3 25  1  0  0  0  0
  4  5  1  0  0  0  0
  4 20  2  0  0  0  0
  5  6  1  0  0  0  0
  5 26  1  0  0  0  0
  6  7  2  0  0  0  0
  6  8  1  0  0  0  0
  8  9  1  0  0  0  0
  8 27  1  0  0  0  0
  9 10  1  0  0  0  0
  9 28  1  0  0  0  0
  9 29  1  0  0  0  0
 10 11  1  0  0  0  0
 10 12  1  0  0  0  0
 10 30  1  0  0  0  0
 11 31  1  0  0  0  0
 11 32  1  0  0  0  0
 11 33  1  0  0  0  0
 12 19  1  0  0  0  0
 12 13  1  0  0  0  0
 12 46  1  0  0  0  0
 13 14  1  0  0  0  0
 13 34  1  0  0  0  0
 13 35  1  0  0  0  0
 14 15  1  0  0  0  0
 14 16  1  0  0  0  0
 14 36  1  0  0  0  0
 15 37  1  0  0  0  0
 15 38  1  0  0  0  0
 15 39  1  0  0  0  0
 16 17  1  0  0  0  0
 17 18  1  0  0  0  0
 17 19  1  0  0  0  0
 17 40  1  0  0  0  0
 18 41  1  0  0  0  0
 18 42  1  0  0  0  0
 18 43  1  0  0  0  0
 19 44  1  0  0  0  0
 19 45  1  0  0  0  0
 20 21  1  0  0  0  0
M  CHG  1  12   1
M  END
> <s_m_source_file>
AV-unprocessed.smi

> <i_m_source_file_index>
2061

> <i_lp_mmshare_version>
43012

> <i_f3d_flags>
0

> <s_epik_input>
W0NIM11jMVtjSF1jKG5vMSlbTkhdQyg9TylbTkhdW0NIMl1bQ0BIXShbQ0gzXSlOMltDSDJdW0NAQEhdKFtDSDNdKU9bQ0BASF0oW0NIM10pW0NIMl0y

> <s_epik_cmdline>
J2VwaWtfcHl0aG9uJywgJy1waCcsICc3LjAnLCAnLXRuJywgJzgnLCAnLW1hJywgJzIwMCcsICctbWV0YWxfYmluZGluZycsICctaW1hZScsICc8aW5maWxlLm1hZT4nLCAnLW9tYWUnLCAnPG91dGZpbGUubWFlPic=

> <r_epik_Ionization_Penalty>
0.707076

> <r_epik_Ionization_Penalty_Charging>
0.707039

> <r_epik_Ionization_Penalty_Neutral>
3.6548e-05

> <r_epik_State_Penalty>
0.730276

> <r_epik_Charging_Adjusted_Penalty>
1.43732

> <i_epik_Tot_Q>
1

> <i_epik_Tot_abs_Q>
1

> <r_epik_Metal_State_Penalty>
0.743132

> <b_epik_Metal_Only>
0

> <s_lp_Force_Field>
OPLS_2005

> <r_lp_Energy>
17.8186

> <b_lp_Chiralities_Consistent>
1

> <s_lp_Variant>
AV-unprocessed.smi:2061-14

> <Gold.Version>
5.8.1

> <Gold.Id.Protein>
6NUR|6NUR_protein|mol2

> <Gold.PLP.Fitness>
42.6016

> <Gold.PLP.PLP>
-30.8259

> <Gold.PLP.part.hbond>
-4.7272

> <Gold.PLP.part.metal>
0.0000

> <Gold.PLP.part.buried>
-3.8421

> <Gold.PLP.part.nonpolar>
-22.4110

> <Gold.PLP.part.repulsive>
0.3349

> <Gold.PLP.ligand.clash>
0.0000

> <Gold.PLP.ligand.torsion>
0.3426

> <Gold.PLP.Chemscore.Hbond>
4.1361

> <Gold.PLP.Chemscore.CHOScore>
0.0000

> <Gold.PLP.Chemscore.Metal>
0.0000

> <Gold.Chemscore.Hbonds>
donor molecule, donor type, donor heavy atom, donor atom, acceptor molecule, acceptor atom, score
      L1  H     5    26       P1  7948  0.82
      L1  H     8    27       P1  7948  0.98
      L1  H    12    46       P1  7948  1.95
      P1  H  7989  7998       L1    21  0.33

> <Gold.PLP.Chemscore.Internal.Correction>
0.0528

> <Gold.Rescore>
     Score         DG    S(hbond)    S(metal)    S(lipo)     H(rot)  DE(clash)    DE(int)     intcor
     16.23     -17.93       2.59        0.00      67.19       1.58       0.07       1.64       ----

> <Gold.Chemscore.Fitness>
16.2257

> <Gold.Chemscore.DG>
-17.9273

> <Gold.Chemscore.ZeroCoef>
-5.4800

> <Gold.Chemscore.Hbond>
2.5869

> <Gold.Chemscore.Metal>
0.0000

> <Gold.Chemscore.Lipo>
67.1853

> <Gold.Chemscore.Internal_Hbond>
0.0000

> <Gold.Chemscore.DEClash>
0.0650

> <Gold.Chemscore.DEInternal>
1.6365

> <Gold.Chemscore.Rot>
1.5834

> <Gold.Chemscore.Internal.Correction>
   9.000000E+99

> <Gold.Chemscore.Hbonds>
donor molecule, donor type, donor heavy atom, donor atom, acceptor molecule, acceptor atom, score
      L1  H     5    26       P1  7948  0.66
      L1  H     8    27       P1  7948  0.93
      L1  H    12    46       P1  7948  0.90

> <Gold.Chemscore.Hbond.Weighted>
-8.6401

> <Gold.Chemscore.Metal.Weighted>
-0.0000

> <Gold.Chemscore.Lipo.Weighted>
-7.8607

> <Gold.Chemscore.Internal_Hbond.Weighted>
0.0000

> <Gold.Chemscore.DEClash.Weighted>
0.0650

> <Gold.Chemscore.DEInternal.Weighted>
1.6365

> <Gold.Chemscore.Rot.Weighted>
4.0535

> <Gold.Chemscore.Internal.Correction.Weighted>
   9.000000E+99

> <Gold.Protein.RotatedTorsions>
[ 6907 6896 6895 6894 ] final   66.41 input  -60.11 | X-H torsion
[ 7974 7965 7964 7962 ] final  114.91 input  175.53 | X-H torsion
[ 8008 7997 7996 7995 ] final  -52.90 input   59.86 | X-H torsion
[ 10167 10162 10161 10158 ] final  -29.62 input  -65.29 | X-H torsion
[ 10718 10713 10712 10709 ] final -155.88 input   66.30 | X-H torsion
[ 10763 10752 10751 10750 ] final  -84.05 input  -60.55 | X-H torsion
[ 11005 11000 10999 10996 ] final  -78.08 input  -57.11 | X-H torsion

> <Gold.Protein.ActiveResidues>
 VAL166  LYS551  ARG553  GLY616  TRP617  ASP618  TYR619  PRO620  LYS621  CYS622 
 ASP623  PHE694  ASN695  SER759  ASP760  ASP761  ALA762  ILE779  LEU786  VAL792 
 PHE793  MET794  SER795  GLU796  ALA797  LYS798  CYS799  TRP800  GLU811  SER814 

> <Gold.Protein.RotatedAtoms>
  152.4479  134.5456  159.9851 H   0  0  0  0  0  0  0  0  0  0  0  0  # atno 6907 bound_to 6896
  151.5537  133.3408  159.2966 H   0  0  0  0  0  0  0  0  0  0  0  0  # atno 6908 bound_to 6896
  150.8400  134.7720  159.6987 H   0  0  0  0  0  0  0  0  0  0  0  0  # atno 6909 bound_to 6896
  145.1985  139.2964  143.4331 H   0  0  0  0  0  0  0  0  0  0  0  0  # atno 7974 bound_to 7965
  154.4118  140.1213  156.5066 H   0  0  0  0  0  0  0  0  0  0  0  0  # atno 8008 bound_to 7997
  155.6841  140.3496  155.4848 H   0  0  0  0  0  0  0  0  0  0  0  0  # atno 8009 bound_to 7997
  155.9526  140.1107  157.0954 H   0  0  0  0  0  0  0  0  0  0  0  0  # atno 8010 bound_to 7997
  140.7258  143.3914  151.1423 H   0  0  0  0  0  0  0  0  0  0  0  0  # atno 10167 bound_to 10162
  156.5189  130.8469  151.2675 H   0  0  0  0  0  0  0  0  0  0  0  0  # atno 10718 bound_to 10713
  154.5949  135.5534  153.7315 H   0  0  0  0  0  0  0  0  0  0  0  0  # atno 10763 bound_to 10752
  153.0131  135.6352  154.1797 H   0  0  0  0  0  0  0  0  0  0  0  0  # atno 10764 bound_to 10752
  154.1737  135.2890  155.3053 H   0  0  0  0  0  0  0  0  0  0  0  0  # atno 10765 bound_to 10752
  141.1663  133.7048  156.7918 H   0  0  0  0  0  0  0  0  0  0  0  0  # atno 11005 bound_to 11000
  146.3422  140.2221  142.8591 LP  0  0  0  0  0  0  0  0  0  0  0  0  # atno 17320 bound_to 7965
  144.9971  140.8599  143.5304 LP  0  0  0  0  0  0  0  0  0  0  0  0  # atno 17321 bound_to 7965
  139.7520  143.8765  152.3079 LP  0  0  0  0  0  0  0  0  0  0  0  0  # atno 17342 bound_to 10162
  139.8621  144.7111  150.9087 LP  0  0  0  0  0  0  0  0  0  0  0  0  # atno 17343 bound_to 10162
  157.7440  130.9924  150.2635 LP  0  0  0  0  0  0  0  0  0  0  0  0  # atno 17370 bound_to 10713
  156.3168  130.3780  149.7611 LP  0  0  0  0  0  0  0  0  0  0  0  0  # atno 17371 bound_to 10713
  140.2320  134.8678  157.3486 LP  0  0  0  0  0  0  0  0  0  0  0  0  # atno 17394 bound_to 11000
  140.1881  134.4405  155.7731 LP  0  0  0  0  0  0  0  0  0  0  0  0  # atno 17395 bound_to 11000

$$$$
