AV-unprocessed.smi:2611|AV-procd|sdf|10210|dock1
  -GOLD-   2272014213D 1   1.00000     0.00000
 Structure written by MMmdl.
 39 40  0  0  0  0  0  0  0  0  1 V2000
  147.4752  135.1679  158.6425 C   0  0  0  0  0  0  0  0  0  0  0  0
  148.4742  135.6951  159.6831 C   0  0  0  0  0  0  0  0  0  0  0  0
  147.7898  136.3286  160.9032 C   0  0  0  0  0  0  0  0  0  0  0  0
  149.4792  136.6203  159.0679 C   0  0  0  0  0  0  0  0  0  0  0  0
  149.5802  137.8858  159.4583 N   0  0  0  0  0  0  0  0  0  0  0  0
  150.6180  138.3905  158.6618 O   0  0  0  0  0  0  0  0  0  0  0  0
  151.0076  137.3639  157.8690 C   0  0  0  0  0  0  0  0  0  0  0  0
  152.1464  137.5723  156.9282 C   0  0  0  0  0  0  0  0  0  0  0  0
  151.9965  138.8606  156.1037 C   0  0  0  0  0  0  0  0  0  0  0  0
  151.6471  139.9979  156.9468 N   0  0  0  0  0  0  0  0  0  0  0  0
  152.3654  140.4394  157.9935 C   0  0  0  0  0  0  0  0  0  0  0  0
  153.4020  139.8821  158.3572 O   0  0  0  0  0  0  0  0  0  0  0  0
  151.8456  141.5244  158.6224 N   0  0  0  0  0  0  0  0  0  0  0  0
  150.8647  142.4632  158.0531 C   0  0  0  0  0  0  0  0  0  0  0  0
  151.6110  143.6701  157.4609 C   0  0  0  0  0  0  0  0  0  0  0  0
  152.5157  144.5750  158.7556 S   0  0  0  0  0  0  0  0  0  0  0  0
  153.3892  143.1879  159.5476 C   0  0  0  0  0  0  0  0  0  0  0  0
  152.4213  142.0370  159.8712 C   0  0  0  0  0  0  0  0  0  0  0  0
  150.3448  136.2318  158.0899 N   0  0  0  0  0  0  0  0  0  0  0  0
  147.9902  134.6608  157.8261 H   0  0  0  0  0  0  0  0  0  0  0  0
  146.8850  135.9776  158.2128 H   0  0  0  0  0  0  0  0  0  0  0  0
  146.7829  134.4543  159.0898 H   0  0  0  0  0  0  0  0  0  0  0  0
  149.0187  134.8250  160.0539 H   0  0  0  0  0  0  0  0  0  0  0  0
  148.5229  136.6233  161.6547 H   0  0  0  0  0  0  0  0  0  0  0  0
  147.0992  135.6280  161.3727 H   0  0  0  0  0  0  0  0  0  0  0  0
  147.2223  137.2171  160.6242 H   0  0  0  0  0  0  0  0  0  0  0  0
  153.0715  137.5954  157.5055 H   0  0  0  0  0  0  0  0  0  0  0  0
  152.2123  136.7075  156.2668 H   0  0  0  0  0  0  0  0  0  0  0  0
  152.9365  139.0911  155.6017 H   0  0  0  0  0  0  0  0  0  0  0  0
  151.2494  138.7291  155.3190 H   0  0  0  0  0  0  0  0  0  0  0  0
  150.7995  140.4945  156.7136 H   0  0  0  0  0  0  0  0  0  0  0  0
  150.2280  142.0096  157.2934 H   0  0  0  0  0  0  0  0  0  0  0  0
  150.1761  142.7976  158.8304 H   0  0  0  0  0  0  0  0  0  0  0  0
  152.3150  143.3443  156.6943 H   0  0  0  0  0  0  0  0  0  0  0  0
  150.9104  144.3539  156.9821 H   0  0  0  0  0  0  0  0  0  0  0  0
  154.1831  142.8423  158.8846 H   0  0  0  0  0  0  0  0  0  0  0  0
  153.8685  143.5498  160.4574 H   0  0  0  0  0  0  0  0  0  0  0  0
  151.6300  142.3856  160.5363 H   0  0  0  0  0  0  0  0  0  0  0  0
  152.9428  141.2571  160.4283 H   0  0  0  0  0  0  0  0  0  0  0  0
  1  2  1  0  0  0  0
  1 20  1  0  0  0  0
  1 21  1  0  0  0  0
  1 22  1  0  0  0  0
  2  3  1  0  0  0  0
  2  4  1  0  0  0  0
  2 23  1  0  0  0  0
  3 24  1  0  0  0  0
  3 25  1  0  0  0  0
  3 26  1  0  0  0  0
  4 19  1  0  0  0  0
  4  5  2  0  0  0  0
  5  6  1  0  0  0  0
  6  7  1  0  0  0  0
  7  8  1  0  0  0  0
  7 19  2  0  0  0  0
  8  9  1  0  0  0  0
  8 27  1  0  0  0  0
  8 28  1  0  0  0  0
  9 10  1  0  0  0  0
  9 29  1  0  0  0  0
  9 30  1  0  0  0  0
 10 11  1  0  0  0  0
 10 31  1  0  0  0  0
 11 12  2  0  0  0  0
 11 13  1  0  0  0  0
 13 18  1  0  0  0  0
 13 14  1  0  0  0  0
 14 15  1  0  0  0  0
 14 32  1  0  0  0  0
 14 33  1  0  0  0  0
 15 16  1  0  0  0  0
 15 34  1  0  0  0  0
 15 35  1  0  0  0  0
 16 17  1  0  0  0  0
 17 18  1  0  0  0  0
 17 36  1  0  0  0  0
 17 37  1  0  0  0  0
 18 38  1  0  0  0  0
 18 39  1  0  0  0  0
M  END
> <s_m_source_file>
AV-unprocessed.smi

> <i_m_source_file_index>
2611

> <i_lp_mmshare_version>
43012

> <i_f3d_flags>
0

> <s_epik_input>
W0NIM11bQ0hdKFtDSDNdKWMxbm9jKG4xKVtDSDJdW0NIMl1bTkhdQyg9TylOMltDSDJdW0NIMl1TW0NIMl1bQ0gyXTI=

> <s_epik_cmdline>
J2VwaWtfcHl0aG9uJywgJy1waCcsICc3LjAnLCAnLXRuJywgJzgnLCAnLW1hJywgJzIwMCcsICctbWV0YWxfYmluZGluZycsICctaW1hZScsICc8aW5maWxlLm1hZT4nLCAnLW9tYWUnLCAnPG91dGZpbGUubWFlPic=

> <r_lp_tautomer_probability>
1

> <r_epik_Ionization_Penalty>
4.28847e-05

> <r_epik_Ionization_Penalty_Charging>
0

> <r_epik_Ionization_Penalty_Neutral>
4.28847e-05

> <r_epik_State_Penalty>
-0

> <r_epik_Charging_Adjusted_Penalty>
0

> <i_epik_Tot_Q>
0

> <i_epik_Tot_abs_Q>
0

> <r_epik_Metal_State_Penalty>
-0

> <b_epik_Metal_Only>
0

> <s_lp_Force_Field>
OPLS_2005

> <r_lp_Energy>
14.602

> <b_lp_Chiralities_Consistent>
1

> <s_lp_Variant>
AV-unprocessed.smi:2611-1

> <Gold.Version>
5.8.1

> <Gold.Id.Protein>
6NUR|6NUR_protein|mol2

> <Gold.PLP.Fitness>
36.4177

> <Gold.PLP.PLP>
-33.9663

> <Gold.PLP.part.hbond>
-3.1375

> <Gold.PLP.part.metal>
0.0000

> <Gold.PLP.part.buried>
-3.2261

> <Gold.PLP.part.nonpolar>
-27.3764

> <Gold.PLP.part.repulsive>
0.0975

> <Gold.PLP.ligand.clash>
0.0000

> <Gold.PLP.ligand.torsion>
0.3625

> <Gold.PLP.Chemscore.Hbond>
1.0098

> <Gold.PLP.Chemscore.CHOScore>
0.0000

> <Gold.PLP.Chemscore.Metal>
0.0000

> <Gold.Chemscore.Hbonds>
donor molecule, donor type, donor heavy atom, donor atom, acceptor molecule, acceptor atom, score
      P1  H  6896  6909       L1    19  0.01
      P1  H  7997  8010       L1    12  1.00

> <Gold.PLP.Chemscore.Internal.Correction>
0.1470

> <Gold.Rescore>
     Score         DG    S(hbond)    S(metal)    S(lipo)     H(rot)  DE(clash)    DE(int)     intcor
     11.51     -14.12       1.01        0.00      82.76       1.72       0.02       2.59       ----

> <Gold.Chemscore.Fitness>
11.5097

> <Gold.Chemscore.DG>
-14.1204

> <Gold.Chemscore.ZeroCoef>
-5.4800

> <Gold.Chemscore.Hbond>
1.0057

> <Gold.Chemscore.Metal>
0.0000

> <Gold.Chemscore.Lipo>
82.7582

> <Gold.Chemscore.Internal_Hbond>
0.0000

> <Gold.Chemscore.DEClash>
0.0249

> <Gold.Chemscore.DEInternal>
2.5857

> <Gold.Chemscore.Rot>
1.7193

> <Gold.Chemscore.Internal.Correction>
   9.000000E+99

> <Gold.Chemscore.Hbonds>
donor molecule, donor type, donor heavy atom, donor atom, acceptor molecule, acceptor atom, score
      P1  H  7997  8010       L1    12  0.83

> <Gold.Chemscore.Hbond.Weighted>
-3.3592

> <Gold.Chemscore.Metal.Weighted>
-0.0000

> <Gold.Chemscore.Lipo.Weighted>
-9.6827

> <Gold.Chemscore.Internal_Hbond.Weighted>
0.0000

> <Gold.Chemscore.DEClash.Weighted>
0.0249

> <Gold.Chemscore.DEInternal.Weighted>
2.5857

> <Gold.Chemscore.Rot.Weighted>
4.4015

> <Gold.Chemscore.Internal.Correction.Weighted>
   9.000000E+99

> <Gold.Protein.RotatedTorsions>
[ 6907 6896 6895 6894 ] final  109.01 input  -60.11 | X-H torsion
[ 7974 7965 7964 7962 ] final   63.93 input  175.53 | X-H torsion
[ 8008 7997 7996 7995 ] final   22.69 input   59.86 | X-H torsion
[ 10167 10162 10161 10158 ] final  140.17 input  -65.29 | X-H torsion
[ 10718 10713 10712 10709 ] final -113.67 input   66.30 | X-H torsion
[ 10763 10752 10751 10750 ] final   93.76 input  -60.55 | X-H torsion
[ 11005 11000 10999 10996 ] final  -96.96 input  -57.11 | X-H torsion

> <Gold.Protein.ActiveResidues>
 VAL166  LYS551  ARG553  GLY616  TRP617  ASP618  TYR619  PRO620  LYS621  CYS622 
 ASP623  PHE694  ASN695  SER759  ASP760  ASP761  ALA762  ILE779  LEU786  VAL792 
 PHE793  MET794  SER795  GLU796  ALA797  LYS798  CYS799  TRP800  GLU811  SER814 

> <Gold.Protein.RotatedAtoms>
  152.5086  133.9006  159.7438 H   0  0  0  0  0  0  0  0  0  0  0  0  # atno 6907 bound_to 6896
  150.9422  133.6634  159.2795 H   0  0  0  0  0  0  0  0  0  0  0  0  # atno 6908 bound_to 6896
  151.3942  135.0966  159.9588 H   0  0  0  0  0  0  0  0  0  0  0  0  # atno 6909 bound_to 6896
  145.8561  139.3285  143.0846 H   0  0  0  0  0  0  0  0  0  0  0  0  # atno 7974 bound_to 7965
  154.9696  140.3088  155.4994 H   0  0  0  0  0  0  0  0  0  0  0  0  # atno 8008 bound_to 7997
  156.2967  140.2286  156.4726 H   0  0  0  0  0  0  0  0  0  0  0  0  # atno 8009 bound_to 7997
  154.7889  140.0441  157.1174 H   0  0  0  0  0  0  0  0  0  0  0  0  # atno 8010 bound_to 7997
  139.5057  144.6250  151.5958 H   0  0  0  0  0  0  0  0  0  0  0  0  # atno 10167 bound_to 10162
  156.0781  130.5985  150.8673 H   0  0  0  0  0  0  0  0  0  0  0  0  # atno 10718 bound_to 10713
  153.2339  135.4314  155.0625 H   0  0  0  0  0  0  0  0  0  0  0  0  # atno 10763 bound_to 10752
  154.8310  135.3386  154.6747 H   0  0  0  0  0  0  0  0  0  0  0  0  # atno 10764 bound_to 10752
  153.7173  135.7019  153.5078 H   0  0  0  0  0  0  0  0  0  0  0  0  # atno 10765 bound_to 10752
  141.1395  133.8135  157.0641 H   0  0  0  0  0  0  0  0  0  0  0  0  # atno 11005 bound_to 11000
  145.9302  140.9054  143.0360 LP  0  0  0  0  0  0  0  0  0  0  0  0  # atno 17320 bound_to 7965
  144.6727  140.1408  143.7437 LP  0  0  0  0  0  0  0  0  0  0  0  0  # atno 17321 bound_to 7965
  140.5965  143.9687  150.6358 LP  0  0  0  0  0  0  0  0  0  0  0  0  # atno 17342 bound_to 10162
  140.2885  143.3341  152.1085 LP  0  0  0  0  0  0  0  0  0  0  0  0  # atno 17343 bound_to 10162
  157.5886  131.0945  150.9156 LP  0  0  0  0  0  0  0  0  0  0  0  0  # atno 17370 bound_to 10713
  156.9336  130.5359  149.5279 LP  0  0  0  0  0  0  0  0  0  0  0  0  # atno 17371 bound_to 10713
  140.0552  134.9784  157.1208 LP  0  0  0  0  0  0  0  0  0  0  0  0  # atno 17394 bound_to 11000
  140.3929  134.2164  155.7165 LP  0  0  0  0  0  0  0  0  0  0  0  0  # atno 17395 bound_to 11000

$$$$
