AV-unprocessed.smi:2523|AV-procd|sdf|9920|dock2
  -GOLD-   2272013553D 1   1.00000     0.00000
 Structure written by MMmdl.
 34 36  0  0  0  0  0  0  0  0  1 V2000
  153.7728  137.1848  157.2119 C   0  0  0  0  0  0  0  0  0  0  0  0
  152.7203  137.6459  156.3096 N   0  0  0  0  0  0  0  0  0  0  0  0
  152.2520  136.6789  155.4124 N   0  0  0  0  0  0  0  0  0  0  0  0
  151.3204  136.9521  154.5534 C   0  0  0  0  0  0  0  0  0  0  0  0
  150.7661  138.3022  154.5414 C   0  0  0  0  0  0  0  0  0  0  0  0
  149.7735  138.9776  153.7795 C   0  0  0  0  0  0  0  0  0  0  0  0
  149.6298  140.2459  154.1590 N   0  0  0  0  0  0  0  0  0  0  0  0
  150.5158  140.4311  155.1715 N   0  0  0  0  0  0  0  0  0  0  0  0
  150.6140  141.7353  155.8090 C   0  0  0  0  0  0  0  0  0  0  0  0
  150.2577  141.6928  157.3092 C   0  0  2  0  0  0  0  0  0  0  0  0
  148.9206  142.1104  157.5082 O   0  0  0  0  0  0  0  0  0  0  0  0
  151.2358  142.5145  158.1335 C   0  0  0  0  0  0  0  0  0  0  0  0
  151.4269  143.8838  157.8497 C   0  0  0  0  0  0  0  0  0  0  0  0
  152.3295  144.6474  158.6151 C   0  0  0  0  0  0  0  0  0  0  0  0
  153.0435  144.0474  159.6700 C   0  0  0  0  0  0  0  0  0  0  0  0
  152.8549  142.6821  159.9599 C   0  0  0  0  0  0  0  0  0  0  0  0
  153.7267  141.9462  161.2541 Cl  0  0  0  0  0  0  0  0  0  0  0  0
  151.9537  141.9176  159.1933 C   0  0  0  0  0  0  0  0  0  0  0  0
  151.2023  139.2550  155.4019 C   0  0  0  0  0  0  0  0  0  0  0  0
  152.2686  138.9344  156.3814 C   0  0  0  0  0  0  0  0  0  0  0  0
  152.6944  139.7700  157.1787 O   0  0  0  0  0  0  0  0  0  0  0  0
  153.4597  137.2877  158.2518 H   0  0  0  0  0  0  0  0  0  0  0  0
  154.6831  137.7690  157.0696 H   0  0  0  0  0  0  0  0  0  0  0  0
  154.0239  136.1360  157.0456 H   0  0  0  0  0  0  0  0  0  0  0  0
  150.9570  136.1978  153.8556 H   0  0  0  0  0  0  0  0  0  0  0  0
  149.1628  138.5976  152.9739 H   0  0  0  0  0  0  0  0  0  0  0  0
  151.6344  142.1004  155.6825 H   0  0  0  0  0  0  0  0  0  0  0  0
  149.9770  142.4409  155.2769 H   0  0  0  0  0  0  0  0  0  0  0  0
  150.3105  140.6568  157.6465 H   0  0  0  0  0  0  0  0  0  0  0  0
  148.3620  141.6093  156.9341 H   0  0  0  0  0  0  0  0  0  0  0  0
  150.8822  144.3544  157.0442 H   0  0  0  0  0  0  0  0  0  0  0  0
  152.4739  145.6944  158.3936 H   0  0  0  0  0  0  0  0  0  0  0  0
  153.7340  144.6355  160.2564 H   0  0  0  0  0  0  0  0  0  0  0  0
  151.8112  140.8712  159.4210 H   0  0  0  0  0  0  0  0  0  0  0  0
  1  2  1  0  0  0  0
  1 22  1  0  0  0  0
  1 23  1  0  0  0  0
  1 24  1  0  0  0  0
  2 20  1  0  0  0  0
  2  3  1  0  0  0  0
  3  4  2  0  0  0  0
  4  5  1  0  0  0  0
  4 25  1  0  0  0  0
  5 19  2  0  0  0  0
  5  6  1  0  0  0  0
  6  7  2  0  0  0  0
  6 26  1  0  0  0  0
  7  8  1  0  0  0  0
  8  9  1  0  0  0  0
  8 19  1  0  0  0  0
  9 10  1  0  0  0  0
  9 27  1  0  0  0  0
  9 28  1  0  0  0  0
 10 11  1  0  0  0  0
 10 12  1  0  0  0  0
 10 29  1  0  0  0  0
 11 30  1  0  0  0  0
 12 18  1  0  0  0  0
 12 13  2  0  0  0  0
 13 14  1  0  0  0  0
 13 31  1  0  0  0  0
 14 15  2  0  0  0  0
 14 32  1  0  0  0  0
 15 16  1  0  0  0  0
 15 33  1  0  0  0  0
 16 17  1  0  0  0  0
 16 18  2  0  0  0  0
 18 34  1  0  0  0  0
 19 20  1  0  0  0  0
 20 21  2  0  0  0  0
M  END
> <s_m_source_file>
AV-unprocessed.smi

> <i_m_source_file_index>
2523

> <i_lp_mmshare_version>
43012

> <i_f3d_flags>
0

> <s_epik_input>
W2NIXTFubihbQ0gzXSljKD1PKWMoYzEyKW4obltjSF0yKVtDSDJdW0NASF0oW09IXSljM1tjSF1bY0hdW2NIXWMoQ2wpW2NIXTM=

> <s_epik_cmdline>
J2VwaWtfcHl0aG9uJywgJy1waCcsICc3LjAnLCAnLXRuJywgJzgnLCAnLW1hJywgJzIwMCcsICctbWV0YWxfYmluZGluZycsICctaW1hZScsICc8aW5maWxlLm1hZT4nLCAnLW9tYWUnLCAnPG91dGZpbGUubWFlPic=

> <r_lp_tautomer_probability>
1

> <r_epik_Ionization_Penalty>
8.52698e-06

> <r_epik_Ionization_Penalty_Charging>
1.65421e-10

> <r_epik_Ionization_Penalty_Neutral>
8.52681e-06

> <r_epik_State_Penalty>
-0

> <r_epik_Charging_Adjusted_Penalty>
1.65421e-10

> <i_epik_Tot_Q>
0

> <i_epik_Tot_abs_Q>
0

> <r_epik_Metal_State_Penalty>
-0

> <b_epik_Metal_Only>
0

> <s_lp_Force_Field>
OPLS_2005

> <r_lp_Energy>
27.0285

> <b_lp_Chiralities_Consistent>
1

> <s_lp_Variant>
AV-unprocessed.smi:2523-1

> <Gold.Version>
5.8.1

> <Gold.Id.Protein>
6NUR|6NUR_protein|mol2

> <Gold.PLP.Fitness>
54.4177

> <Gold.PLP.PLP>
-42.2035

> <Gold.PLP.part.hbond>
-3.6589

> <Gold.PLP.part.metal>
0.0000

> <Gold.PLP.part.buried>
-0.9862

> <Gold.PLP.part.nonpolar>
-39.2183

> <Gold.PLP.part.repulsive>
0.9512

> <Gold.PLP.ligand.clash>
0.0000

> <Gold.PLP.ligand.torsion>
0.6388

> <Gold.PLP.Chemscore.Hbond>
2.0000

> <Gold.PLP.Chemscore.CHOScore>
2.4897

> <Gold.PLP.Chemscore.Metal>
0.0000

> <Gold.Chemscore.Hbonds>
donor molecule, donor type, donor heavy atom, donor atom, acceptor molecule, acceptor atom, score
      P1  H  7997  8010       L1    21  1.00
      P1  H 10752 10763       L1     3  0.86
      L1  C     4    25       P1  7948  0.01
      L1  C     4    25       P1  7949  0.92
      L1  C     6    26       P1  7948  0.86
      L1  C     6    26       P1  7957  0.51

> <Gold.PLP.Chemscore.Internal.Correction>
0.0226

> <Gold.Rescore>
     Score         DG    S(hbond)    S(metal)    S(lipo)     H(rot)  DE(clash)    DE(int)     intcor
     19.25     -19.86       1.60        0.00     119.32       1.93       0.00       0.60       ----

> <Gold.Chemscore.Fitness>
19.2529

> <Gold.Chemscore.DG>
-19.8556

> <Gold.Chemscore.ZeroCoef>
-5.4800

> <Gold.Chemscore.Hbond>
1.6009

> <Gold.Chemscore.Metal>
0.0000

> <Gold.Chemscore.Lipo>
119.3194

> <Gold.Chemscore.Internal_Hbond>
0.0000

> <Gold.Chemscore.DEClash>
0.0000

> <Gold.Chemscore.DEInternal>
0.6028

> <Gold.Chemscore.Rot>
1.9265

> <Gold.Chemscore.Internal.Correction>
   9.000000E+99

> <Gold.Chemscore.Hbonds>
donor molecule, donor type, donor heavy atom, donor atom, acceptor molecule, acceptor atom, score
      P1  H  7997  8010       L1    21  0.50
      P1  H 10752 10763       L1     3  0.56

> <Gold.Chemscore.Hbond.Weighted>
-5.3470

> <Gold.Chemscore.Metal.Weighted>
-0.0000

> <Gold.Chemscore.Lipo.Weighted>
-13.9604

> <Gold.Chemscore.Internal_Hbond.Weighted>
0.0000

> <Gold.Chemscore.DEClash.Weighted>
0.0000

> <Gold.Chemscore.DEInternal.Weighted>
0.6028

> <Gold.Chemscore.Rot.Weighted>
4.9317

> <Gold.Chemscore.Internal.Correction.Weighted>
   9.000000E+99

> <Gold.Protein.RotatedTorsions>
[ 6907 6896 6895 6894 ] final -121.53 input  -60.11 | X-H torsion
[ 7974 7965 7964 7962 ] final   -1.30 input  175.53 | X-H torsion
[ 8008 7997 7996 7995 ] final   57.32 input   59.86 | X-H torsion
[ 10167 10162 10161 10158 ] final    3.96 input  -65.29 | X-H torsion
[ 10718 10713 10712 10709 ] final  -94.70 input   66.30 | X-H torsion
[ 10763 10752 10751 10750 ] final   79.78 input  -60.55 | X-H torsion
[ 11005 11000 10999 10996 ] final   64.05 input  -57.11 | X-H torsion

> <Gold.Protein.ActiveResidues>
 VAL166  LYS551  ARG553  GLY616  TRP617  ASP618  TYR619  PRO620  LYS621  CYS622 
 ASP623  PHE694  ASN695  SER759  ASP760  ASP761  ALA762  ILE779  LEU786  VAL792 
 PHE793  MET794  SER795  GLU796  ALA797  LYS798  CYS799  TRP800  GLU811  SER814 

> <Gold.Protein.RotatedAtoms>
  150.8492  133.7814  159.3031 H   0  0  0  0  0  0  0  0  0  0  0  0  # atno 6907 bound_to 6896
  151.5492  135.1066  159.9955 H   0  0  0  0  0  0  0  0  0  0  0  0  # atno 6908 bound_to 6896
  152.4538  133.7639  159.6818 H   0  0  0  0  0  0  0  0  0  0  0  0  # atno 6909 bound_to 6896
  146.2418  140.1400  142.8336 H   0  0  0  0  0  0  0  0  0  0  0  0  # atno 7974 bound_to 7965
  155.5318  140.3482  155.4428 H   0  0  0  0  0  0  0  0  0  0  0  0  # atno 8008 bound_to 7997
  156.0713  140.1363  156.9852 H   0  0  0  0  0  0  0  0  0  0  0  0  # atno 8009 bound_to 7997
  154.4529  140.0965  156.6648 H   0  0  0  0  0  0  0  0  0  0  0  0  # atno 8010 bound_to 7997
  140.6559  143.7428  150.7653 H   0  0  0  0  0  0  0  0  0  0  0  0  # atno 10167 bound_to 10162
  156.0031  130.5078  150.5966 H   0  0  0  0  0  0  0  0  0  0  0  0  # atno 10718 bound_to 10713
  153.0980  135.4827  154.8815 H   0  0  0  0  0  0  0  0  0  0  0  0  # atno 10763 bound_to 10752
  154.7347  135.3068  154.8834 H   0  0  0  0  0  0  0  0  0  0  0  0  # atno 10764 bound_to 10752
  153.9460  135.6829  153.4797 H   0  0  0  0  0  0  0  0  0  0  0  0  # atno 10765 bound_to 10752
  139.9984  134.6481  155.9971 H   0  0  0  0  0  0  0  0  0  0  0  0  # atno 11005 bound_to 11000
  145.0255  140.8828  143.5141 LP  0  0  0  0  0  0  0  0  0  0  0  0  # atno 17320 bound_to 7965
  145.1455  139.2546  143.5468 LP  0  0  0  0  0  0  0  0  0  0  0  0  # atno 17321 bound_to 7965
  140.1088  143.4719  152.2382 LP  0  0  0  0  0  0  0  0  0  0  0  0  # atno 17342 bound_to 10162
  139.5782  144.7498  151.3710 LP  0  0  0  0  0  0  0  0  0  0  0  0  # atno 17343 bound_to 10162
  157.3822  131.0782  151.1467 LP  0  0  0  0  0  0  0  0  0  0  0  0  # atno 17370 bound_to 10713
  157.2186  130.6471  149.5802 LP  0  0  0  0  0  0  0  0  0  0  0  0  # atno 17371 bound_to 10713
  141.1623  133.6538  156.4359 LP  0  0  0  0  0  0  0  0  0  0  0  0  # atno 17394 bound_to 11000
  140.4774  134.6696  157.5156 LP  0  0  0  0  0  0  0  0  0  0  0  0  # atno 17395 bound_to 11000

$$$$
