#       Name:                AV-unprocessed.smi:2058
#       Creating user name   scv26
#       Creation time:       Fri Mar 27 11:01:39 2020


#       File generated by GOLD software.
#

@<TRIPOS>MOLECULE
AV-unprocessed.smi:2058
    48    49     1
SMALL
NO_CHARGES


@<TRIPOS>ATOM
      1 ****        -4.6681  -4.7383  -0.5928 C.3            1 S1                 0.0000
      2 ****        -4.4450  -3.2631  -0.2265 C.3            1 S1                 0.0000
      3 ****        -5.1811  -2.8642   1.0683 C.3            1 S1                 0.0000
      4 ****        -6.5773  -2.8502   0.8595 O.3            1 S1                 0.0000
      5 ****        -3.0114  -3.0176  -0.0933 N.am           1 S1                 0.0000
      6 ****        -2.4090  -1.8285  -0.2376 C.2            1 S1                 0.0000
      7 ****        -3.0135  -0.7874  -0.4931 O.2            1 S1                 0.0000
      8 ****        -1.0831  -1.9315  -0.0447 N.am           1 S1                 0.0000
      9 ****        -0.1009  -0.9062  -0.0947 C.ar           1 S1                 0.0000
     10 ****         1.1264  -1.1332   0.5572 C.ar           1 S1                 0.0000
     11 ****         2.1224  -0.1398   0.5151 C.ar           1 S1                 0.0000
     12 ****         1.8701   1.0599  -0.1901 C.ar           1 S1                 0.0000
     13 ****         2.8524   2.0724  -0.2368 N.3            1 S1                 0.0000
     14 ****         3.3304   2.5345   1.0678 C.3            1 S1                 0.0000
     15 ****         4.6470   3.3178   0.9313 C.3            1 S1                 0.0000
     16 ****         4.5081   4.4607  -0.0850 C.3            1 S1                 0.0000
     17 ****         4.0101   3.9107  -1.4296 C.3            1 S1                 0.0000
     18 ****         2.7038   3.1176  -1.2528 C.3            1 S1                 0.0000
     19 ****         0.6976   1.2686  -0.8376 N.ar           1 S1                 0.0000
     20 ****        -0.2568   0.3152  -0.7920 C.ar           1 S1                 0.0000
     21 ****        -5.7262  -4.9511  -0.7473 H              1 S1                 0.0000
     22 ****        -4.3069  -5.4022   0.1931 H              1 S1                 0.0000
     23 ****        -4.1458  -4.9973  -1.5144 H              1 S1                 0.0000
     24 ****        -4.8201  -2.6511  -1.0495 H              1 S1                 0.0000
     25 ****        -4.9390  -3.5458   1.8844 H              1 S1                 0.0000
     26 ****        -4.8873  -1.8638   1.3883 H              1 S1                 0.0000
     27 ****        -6.9972  -2.5673   1.6573 H              1 S1                 0.0000
     28 ****        -2.4348  -3.8174   0.1221 H              1 S1                 0.0000
     29 ****        -0.7449  -2.8410   0.2335 H              1 S1                 0.0000
     30 ****         1.3057  -2.0566   1.0886 H              1 S1                 0.0000
     31 ****         3.0675  -0.3117   1.0085 H              1 S1                 0.0000
     32 ****         2.5644   3.1717   1.5119 H              1 S1                 0.0000
     33 ****         3.4829   1.7056   1.7578 H              1 S1                 0.0000
     34 ****         4.9470   3.7141   1.9017 H              1 S1                 0.0000
     35 ****         5.4416   2.6413   0.6136 H              1 S1                 0.0000
     36 ****         3.8056   5.2052   0.2914 H              1 S1                 0.0000
     37 ****         5.4643   4.9684  -0.2151 H              1 S1                 0.0000
     38 ****         3.8573   4.7272  -2.1356 H              1 S1                 0.0000
     39 ****         4.7731   3.2638  -1.8644 H              1 S1                 0.0000
     40 ****         2.4235   2.6750  -2.2095 H              1 S1                 0.0000
     41 ****         1.8964   3.7900  -0.9590 H              1 S1                 0.0000
     42 ****        -1.1505   0.5467  -1.3499 H              1 S1                 0.0000
     43 ****        -6.8917  -3.7689   0.6203 LP             1 S1                 0.0000
     44 ****        -6.8011  -2.2177   0.1180 LP             1 S1                 0.0000
     45 ****        -4.0072  -0.8006  -0.6041 LP             1 S1                 0.0000
     46 ****        -2.5109   0.0717  -0.5897 LP             1 S1                 0.0000
     47 ****         3.6245   1.5615  -0.6149 LP             1 S1                 0.0000
     48 ****         0.5418   2.1176  -1.3424 LP             1 S1                 0.0000
@<TRIPOS>BOND
    1    1    2 1     
    2    1   21 1     
    3    1   22 1     
    4    1   23 1     
    5    2    3 1     
    6    2    5 1     
    7    2   24 1     
    8    3    4 1     
    9    3   25 1     
   10    3   26 1     
   11    4   27 1     
   12    5    6 am    
   13    5   28 1     
   14    6    7 2     
   15    6    8 am    
   16    8    9 1     
   17    8   29 1     
   18    9   20 ar    
   19    9   10 ar    
   20   10   11 ar    
   21   10   30 1     
   22   11   12 ar    
   23   11   31 1     
   24   12   13 1     
   25   12   19 ar    
   26   13   18 1     
   27   13   14 1     
   28   14   15 1     
   29   14   32 1     
   30   14   33 1     
   31   15   16 1     
   32   15   34 1     
   33   15   35 1     
   34   16   17 1     
   35   16   36 1     
   36   16   37 1     
   37   17   18 1     
   38   17   38 1     
   39   17   39 1     
   40   18   40 1     
   41   18   41 1     
   42   19   20 ar    
   43   20   42 1     
   44    4   43 1     
   45    4   44 1     
   46    7   45 1     
   47    7   46 1     
   48   13   47 1     
   49   19   48 1     
@<TRIPOS>SUBSTRUCTURE
      1 S1             1
@<TRIPOS>SET
LONE_PAIRS      STATIC     ATOMS    <user>   **** ""
6 43 44 45 46 47 48
DONOR_HYDROGENS      STATIC     ATOMS    <user>   **** ""
3 27 28 29
ATOM$BLUE        STATIC     ATOMS    COLORGROUP SYSTEM
6 43 44 45 46 47 48
ATOM$RED        STATIC     ATOMS    COLORGROUP SYSTEM
3 27 28 29
