#       Name:                AV-unprocessed.smi:260
#       Creating user name   scv26
#       Creation time:       Thu Mar 26 21:14:47 2020


#       File generated by GOLD software.
#

@<TRIPOS>MOLECULE
AV-unprocessed.smi:260
    62    65     1
SMALL
NO_CHARGES


@<TRIPOS>ATOM
      1 ****        -4.0588   3.8887  -4.0286 C.3            1 S1                 0.0000
      2 ****        -4.3946   3.5953  -2.6437 N.am           1 S1                 0.0000
      3 ****        -3.6663   2.8085  -1.8353 C.2            1 S1                 0.0000
      4 ****        -2.6299   2.2650  -2.2215 O.2            1 S1                 0.0000
      5 ****        -4.1663   2.5923  -0.3795 C.3            1 S1                 0.0000
      6 ****        -5.2959   3.5770   0.0032 C.3            1 S1                 0.0000
      7 ****        -4.6037   1.1261  -0.1828 C.3            1 S1                 0.0000
      8 ****        -3.3198   0.3677   0.1627 C.3            1 S1                 0.0000
      9 ****        -2.4629   1.3546   0.7961 N.pl3          1 S1                 0.0000
     10 ****        -1.1744   1.1099   1.1506 C.ar           1 S1                 0.0000
     11 ****        -0.4291   2.1470   1.6169 N.ar           1 S1                 0.0000
     12 ****         0.8433   1.9637   1.9786 C.ar           1 S1                 0.0000
     13 ****         1.5612   0.8404   1.9596 N.ar           1 S1                 0.0000
     14 ****         0.8219  -0.2089   1.5005 C.ar           1 S1                 0.0000
     15 ****        -0.5394  -0.1668   1.0798 C.ar           1 S1                 0.0000
     16 ****        -0.9393  -1.4390   0.6817 N.2            1 S1                 0.0000
     17 ****         0.1190  -2.1826   0.8508 C.2            1 S1                 0.0000
     18 ****         1.2229  -1.5230   1.3367 N.pl3          1 S1                 0.0000
     19 ****         2.5259  -2.1030   1.6111 C.3            1 S1                 0.0000
     20 ****         3.3959  -2.2158   0.3443 C.3            1 S1                 0.0000
     21 ****         3.6125  -0.9238  -0.1904 O.3            1 S1                 0.0000
     22 ****         4.7597  -2.8697   0.6322 C.3            1 S1                 0.0000
     23 ****         5.6469  -3.0605  -0.5995 C.3            1 S1                 0.0000
     24 ****         6.5426  -4.2305  -0.2222 C.3            1 S1                 0.0000
     25 ****         5.8573  -4.8455   1.0008 C.3            1 S1                 0.0000
     26 ****         4.5900  -4.2079   1.0743 O.3            1 S1                 0.0000
     27 ****        -2.9886   2.7044   0.6162 C.3            1 S1                 0.0000
     28 ****        -4.8097   4.5499  -4.4610 H              1 S1                 0.0000
     29 ****        -4.0267   2.9744  -4.6225 H              1 S1                 0.0000
     30 ****        -3.0890   4.3833  -4.0964 H              1 S1                 0.0000
     31 ****        -5.2351   4.0147  -2.2731 H              1 S1                 0.0000
     32 ****        -5.5982   3.4451   1.0427 H              1 S1                 0.0000
     33 ****        -6.1872   3.4266  -0.6073 H              1 S1                 0.0000
     34 ****        -4.9786   4.6147  -0.1088 H              1 S1                 0.0000
     35 ****        -5.2976   1.0530   0.6557 H              1 S1                 0.0000
     36 ****        -5.1074   0.7020  -1.0528 H              1 S1                 0.0000
     37 ****        -3.5218  -0.4747   0.8247 H              1 S1                 0.0000
     38 ****        -2.8394  -0.0084  -0.7413 H              1 S1                 0.0000
     39 ****         1.3598   2.8430   2.3341 H              1 S1                 0.0000
     40 ****         0.1244  -3.2382   0.6209 H              1 S1                 0.0000
     41 ****         3.0277  -1.5012   2.3699 H              1 S1                 0.0000
     42 ****         2.3695  -3.0886   2.0511 H              1 S1                 0.0000
     43 ****         2.8654  -2.8047  -0.4052 H              1 S1                 0.0000
     44 ****         2.7725  -0.5224  -0.3544 H              1 S1                 0.0000
     45 ****         5.3000  -2.3099   1.3984 H              1 S1                 0.0000
     46 ****         5.0395  -3.3319  -1.4641 H              1 S1                 0.0000
     47 ****         6.2095  -2.1618  -0.8541 H              1 S1                 0.0000
     48 ****         6.6171  -4.9424  -1.0449 H              1 S1                 0.0000
     49 ****         7.5510  -3.8991   0.0280 H              1 S1                 0.0000
     50 ****         5.7488  -5.9274   0.9214 H              1 S1                 0.0000
     51 ****         6.4224  -4.6258   1.9078 H              1 S1                 0.0000
     52 ****        -2.2248   3.3936   0.2518 H              1 S1                 0.0000
     53 ****        -3.3230   3.0745   1.5859 H              1 S1                 0.0000
     54 ****        -2.3113   2.4049  -3.1590 LP             1 S1                 0.0000
     55 ****        -2.1075   1.6840  -1.5974 LP             1 S1                 0.0000
     56 ****        -0.8380   3.0566   1.6898 LP             1 S1                 0.0000
     57 ****         2.5175   0.7759   2.2450 LP             1 S1                 0.0000
     58 ****        -1.8369  -1.7201   0.3421 LP             1 S1                 0.0000
     59 ****         4.1254  -0.9945  -1.0459 LP             1 S1                 0.0000
     60 ****         4.1290  -0.3705   0.4632 LP             1 S1                 0.0000
     61 ****         3.9348  -4.6815   0.4857 LP             1 S1                 0.0000
     62 ****         4.2577  -4.2164   2.0174 LP             1 S1                 0.0000
@<TRIPOS>BOND
    1    1    2 1     
    2    1   28 1     
    3    1   29 1     
    4    1   30 1     
    5    2    3 am    
    6    2   31 1     
    7    3    4 2     
    8    3    5 1     
    9    5   27 1     
   10    5    6 1     
   11    5    7 1     
   12    6   32 1     
   13    6   33 1     
   14    6   34 1     
   15    7    8 1     
   16    7   35 1     
   17    7   36 1     
   18    8    9 1     
   19    8   37 1     
   20    8   38 1     
   21    9   10 1     
   22    9   27 1     
   23   10   15 ar    
   24   10   11 ar    
   25   11   12 ar    
   26   12   13 ar    
   27   12   39 1     
   28   13   14 ar    
   29   14   18 1     
   30   14   15 ar    
   31   15   16 1     
   32   16   17 2     
   33   17   18 1     
   34   17   40 1     
   35   18   19 1     
   36   19   20 1     
   37   19   41 1     
   38   19   42 1     
   39   20   21 1     
   40   20   22 1     
   41   20   43 1     
   42   21   44 1     
   43   22   26 1     
   44   22   23 1     
   45   22   45 1     
   46   23   24 1     
   47   23   46 1     
   48   23   47 1     
   49   24   25 1     
   50   24   48 1     
   51   24   49 1     
   52   25   26 1     
   53   25   50 1     
   54   25   51 1     
   55   27   52 1     
   56   27   53 1     
   57    4   54 1     
   58    4   55 1     
   59   11   56 1     
   60   13   57 1     
   61   16   58 1     
   62   21   59 1     
   63   21   60 1     
   64   26   61 1     
   65   26   62 1     
@<TRIPOS>SUBSTRUCTURE
      1 S1             1
@<TRIPOS>SET
LONE_PAIRS      STATIC     ATOMS    <user>   **** ""
9 54 55 56 57 58 59 60 61 62
DONOR_HYDROGENS      STATIC     ATOMS    <user>   **** ""
2 31 44
ATOM$BLUE        STATIC     ATOMS    COLORGROUP SYSTEM
9 54 55 56 57 58 59 60 61 62
ATOM$RED        STATIC     ATOMS    COLORGROUP SYSTEM
2 31 44
