AV-unprocessed.smi:1621|AV-procd|sdf|6493|dock10
  -GOLD-   22720 7153D 1   1.00000     0.00000
 Structure written by MMmdl.
 39 40  0  0  0  0  0  0  0  0  2 V2000
  143.2245  132.1016  150.1824 C   0  0  0  0  0  0  0  0  0  0  0  0
  143.5476  133.4733  150.6303 N   0  3  2  0  0  0  0  0  0  0  0  0
  144.9286  133.8752  150.2659 C   0  0  0  0  0  0  0  0  0  0  0  0
  145.1953  135.3434  150.6378 C   0  0  0  0  0  0  0  0  0  0  0  0
  144.9345  135.5994  152.1358 C   0  0  1  0  0  0  0  0  0  0  0  0
  145.1586  137.0726  152.5386 C   0  0  0  0  0  0  0  0  0  0  0  0
  146.5594  137.3741  152.8183 N   0  0  0  0  0  0  0  0  0  0  0  0
  146.9931  138.4033  153.5607 C   0  0  0  0  0  0  0  0  0  0  0  0
  146.2368  139.2100  154.1006 O   0  0  0  0  0  0  0  0  0  0  0  0
  148.3367  138.4263  153.6178 N   0  0  0  0  0  0  0  0  0  0  0  0
  149.1978  139.3489  154.2751 C   0  0  0  0  0  0  0  0  0  0  0  0
  150.4737  138.8847  154.6579 C   0  0  0  0  0  0  0  0  0  0  0  0
  151.3504  139.7678  155.3191 C   0  0  0  0  0  0  0  0  0  0  0  0
  151.0317  141.0449  155.6156 N   0  0  0  0  0  0  0  0  0  0  0  0
  149.8071  141.4856  155.2585 C   0  0  0  0  0  0  0  0  0  0  0  0
  148.8555  140.6858  154.5941 C   0  0  0  0  0  0  0  0  0  0  0  0
  143.5063  135.1405  152.4804 C   0  0  0  0  0  0  0  0  0  0  0  0
  143.2733  133.6756  152.0742 C   0  0  0  0  0  0  0  0  0  0  0  0
  143.8602  131.3677  150.6791 H   0  0  0  0  0  0  0  0  0  0  0  0
  143.3666  132.0049  149.1055 H   0  0  0  0  0  0  0  0  0  0  0  0
  142.1844  131.8593  150.4026 H   0  0  0  0  0  0  0  0  0  0  0  0
  145.6445  133.2240  150.7703 H   0  0  0  0  0  0  0  0  0  0  0  0
  145.0769  133.7398  149.1937 H   0  0  0  0  0  0  0  0  0  0  0  0
  146.2247  135.5954  150.3816 H   0  0  0  0  0  0  0  0  0  0  0  0
  144.5590  135.9934  150.0353 H   0  0  0  0  0  0  0  0  0  0  0  0
  145.6271  134.9818  152.7102 H   0  0  0  0  0  0  0  0  0  0  0  0
  144.8263  137.7333  151.7373 H   0  0  0  0  0  0  0  0  0  0  0  0
  144.5521  137.3233  153.4106 H   0  0  0  0  0  0  0  0  0  0  0  0
  147.2475  136.7610  152.4062 H   0  0  0  0  0  0  0  0  0  0  0  0
  148.8092  137.7147  153.0802 H   0  0  0  0  0  0  0  0  0  0  0  0
  150.7821  137.8709  154.4480 H   0  0  0  0  0  0  0  0  0  0  0  0
  152.3340  139.4380  155.6194 H   0  0  0  0  0  0  0  0  0  0  0  0
  149.5750  142.5087  155.5147 H   0  0  0  0  0  0  0  0  0  0  0  0
  147.8942  141.1127  154.3575 H   0  0  0  0  0  0  0  0  0  0  0  0
  143.3248  135.2551  153.5497 H   0  0  0  0  0  0  0  0  0  0  0  0
  142.7797  135.7785  151.9751 H   0  0  0  0  0  0  0  0  0  0  0  0
  142.2410  133.3982  152.2918 H   0  0  0  0  0  0  0  0  0  0  0  0
  143.9107  133.0155  152.6647 H   0  0  0  0  0  0  0  0  0  0  0  0
  142.9255  134.0921  150.1299 H   0  0  0  0  0  0  0  0  0  0  0  0
  1  2  1  0  0  0  0
  1 19  1  0  0  0  0
  1 20  1  0  0  0  0
  1 21  1  0  0  0  0
  2 18  1  0  0  0  0
  2  3  1  0  0  0  0
  2 39  1  0  0  0  0
  3  4  1  0  0  0  0
  3 22  1  0  0  0  0
  3 23  1  0  0  0  0
  4  5  1  0  0  0  0
  4 24  1  0  0  0  0
  4 25  1  0  0  0  0
  5  6  1  0  0  0  0
  5 17  1  0  0  0  0
  5 26  1  0  0  0  0
  6  7  1  0  0  0  0
  6 27  1  0  0  0  0
  6 28  1  0  0  0  0
  7  8  1  0  0  0  0
  7 29  1  0  0  0  0
  8  9  2  0  0  0  0
  8 10  1  0  0  0  0
 10 11  1  0  0  0  0
 10 30  1  0  0  0  0
 11 16  1  0  0  0  0
 11 12  2  0  0  0  0
 12 13  1  0  0  0  0
 12 31  1  0  0  0  0
 13 14  2  0  0  0  0
 13 32  1  0  0  0  0
 14 15  1  0  0  0  0
 15 16  2  0  0  0  0
 15 33  1  0  0  0  0
 16 34  1  0  0  0  0
 17 18  1  0  0  0  0
 17 35  1  0  0  0  0
 17 36  1  0  0  0  0
 18 37  1  0  0  0  0
 18 38  1  0  0  0  0
M  CHG  1   2   1
M  END
> <s_m_source_file>
AV-unprocessed.smi

> <i_m_source_file_index>
1621

> <i_lp_mmshare_version>
43012

> <i_f3d_flags>
0

> <s_epik_input>
W0NIM11OMVtDSDJdW0NIMl1bQ0hdKFtDSDJdW0NIMl0xKVtDSDJdW05IXUMoPU8pW05IXWMyW2NIXVtjSF1uW2NIXVtjSF0y

> <s_epik_cmdline>
J2VwaWtfcHl0aG9uJywgJy1waCcsICc3LjAnLCAnLXRuJywgJzgnLCAnLW1hJywgJzIwMCcsICctbWV0YWxfYmluZGluZycsICctaW1hZScsICc8aW5maWxlLm1hZT4nLCAnLW9tYWUnLCAnPG91dGZpbGUubWFlPic=

> <r_epik_Ionization_Penalty>
0.107254

> <r_epik_Ionization_Penalty_Charging>
0.00106265

> <r_epik_Ionization_Penalty_Neutral>
0.106191

> <r_epik_State_Penalty>
0.0960133

> <r_epik_Charging_Adjusted_Penalty>
0.0970759

> <i_epik_Tot_Q>
1

> <i_epik_Tot_abs_Q>
1

> <r_epik_Metal_State_Penalty>
0.0813061

> <b_epik_Metal_Only>
0

> <s_lp_Force_Field>
OPLS_2005

> <r_lp_Energy>
22.3351

> <b_lp_Chiralities_Consistent>
1

> <s_lp_Variant>
AV-unprocessed.smi:1621-1

> <Gold.Version>
5.8.1

> <Gold.Id.Protein>
6NUR|6NUR_protein|mol2

> <Gold.PLP.Fitness>
45.0485

> <Gold.PLP.PLP>
-31.6189

> <Gold.PLP.part.hbond>
-4.4387

> <Gold.PLP.part.metal>
0.0000

> <Gold.PLP.part.buried>
0.6319

> <Gold.PLP.part.nonpolar>
-28.9975

> <Gold.PLP.part.repulsive>
0.2379

> <Gold.PLP.ligand.clash>
0.0000

> <Gold.PLP.ligand.torsion>
0.5704

> <Gold.PLP.Chemscore.Hbond>
3.8560

> <Gold.PLP.Chemscore.CHOScore>
1.0000

> <Gold.PLP.Chemscore.Metal>
0.0000

> <Gold.Chemscore.Hbonds>
donor molecule, donor type, donor heavy atom, donor atom, acceptor molecule, acceptor atom, score
      L1  H     2    39       P1 10186  1.82
      L1  H     7    29       P1  7948  1.00
      L1  H    10    30       P1  7948  1.00
      L1  C    15    33       P1  8028  1.00

> <Gold.PLP.Chemscore.Internal.Correction>
0.0025

> <Gold.Rescore>
     Score         DG    S(hbond)    S(metal)    S(lipo)     H(rot)  DE(clash)    DE(int)     intcor
     18.99     -21.25       2.87        0.00      80.12       1.25       0.80       1.46       ----

> <Gold.Chemscore.Fitness>
18.9878

> <Gold.Chemscore.DG>
-21.2512

> <Gold.Chemscore.ZeroCoef>
-5.4800

> <Gold.Chemscore.Hbond>
2.8722

> <Gold.Chemscore.Metal>
0.0000

> <Gold.Chemscore.Lipo>
80.1170

> <Gold.Chemscore.Internal_Hbond>
0.0000

> <Gold.Chemscore.DEClash>
0.7998

> <Gold.Chemscore.DEInternal>
1.4636

> <Gold.Chemscore.Rot>
1.2482

> <Gold.Chemscore.Internal.Correction>
   9.000000E+99

> <Gold.Chemscore.Hbonds>
donor molecule, donor type, donor heavy atom, donor atom, acceptor molecule, acceptor atom, score
      L1  H     2    39       P1 10186  0.82
      L1  H     7    29       P1  7948  0.98
      L1  H    10    30       P1  7948  0.99

> <Gold.Chemscore.Hbond.Weighted>
-9.5930

> <Gold.Chemscore.Metal.Weighted>
-0.0000

> <Gold.Chemscore.Lipo.Weighted>
-9.3737

> <Gold.Chemscore.Internal_Hbond.Weighted>
0.0000

> <Gold.Chemscore.DEClash.Weighted>
0.7998

> <Gold.Chemscore.DEInternal.Weighted>
1.4636

> <Gold.Chemscore.Rot.Weighted>
3.1954

> <Gold.Chemscore.Internal.Correction.Weighted>
   9.000000E+99

> <Gold.Protein.RotatedTorsions>
[ 6907 6896 6895 6894 ] final -123.24 input  -60.11 | X-H torsion
[ 7974 7965 7964 7962 ] final -171.40 input  175.53 | X-H torsion
[ 8008 7997 7996 7995 ] final   57.53 input   59.86 | X-H torsion
[ 10167 10162 10161 10158 ] final  112.87 input  -65.29 | X-H torsion
[ 10718 10713 10712 10709 ] final  -79.93 input   66.30 | X-H torsion
[ 10763 10752 10751 10750 ] final -104.07 input  -60.55 | X-H torsion
[ 11005 11000 10999 10996 ] final  -49.28 input  -57.11 | X-H torsion

> <Gold.Protein.ActiveResidues>
 VAL166  LYS551  ARG553  GLY616  TRP617  ASP618  TYR619  PRO620  LYS621  CYS622 
 ASP623  PHE694  ASN695  SER759  ASP760  ASP761  ALA762  ILE779  LEU786  VAL792 
 PHE793  MET794  SER795  GLU796  ALA797  LYS798  CYS799  TRP800  GLU811  SER814 

> <Gold.Protein.RotatedAtoms>
  150.8652  133.7585  159.2978 H   0  0  0  0  0  0  0  0  0  0  0  0  # atno 6907 bound_to 6896
  151.5214  135.1065  159.9889 H   0  0  0  0  0  0  0  0  0  0  0  0  # atno 6908 bound_to 6896
  152.4656  133.7871  159.6937 H   0  0  0  0  0  0  0  0  0  0  0  0  # atno 6909 bound_to 6896
  144.7157  140.1928  143.6347 H   0  0  0  0  0  0  0  0  0  0  0  0  # atno 7974 bound_to 7965
  155.5352  140.3483  155.4435 H   0  0  0  0  0  0  0  0  0  0  0  0  # atno 8008 bound_to 7997
  156.0690  140.1358  156.9878 H   0  0  0  0  0  0  0  0  0  0  0  0  # atno 8009 bound_to 7997
  154.4518  140.0969  156.6615 H   0  0  0  0  0  0  0  0  0  0  0  0  # atno 8010 bound_to 7997
  139.6503  144.7128  151.2061 H   0  0  0  0  0  0  0  0  0  0  0  0  # atno 10167 bound_to 10162
  156.0081  130.4560  150.3723 H   0  0  0  0  0  0  0  0  0  0  0  0  # atno 10718 bound_to 10713
  154.7852  135.4800  153.9930 H   0  0  0  0  0  0  0  0  0  0  0  0  # atno 10763 bound_to 10752
  153.1550  135.6798  153.8833 H   0  0  0  0  0  0  0  0  0  0  0  0  # atno 10764 bound_to 10752
  153.8465  135.3172  155.3408 H   0  0  0  0  0  0  0  0  0  0  0  0  # atno 10765 bound_to 10752
  141.0750  133.6668  156.3563 H   0  0  0  0  0  0  0  0  0  0  0  0  # atno 11005 bound_to 11000
  145.8753  139.2293  143.1637 LP  0  0  0  0  0  0  0  0  0  0  0  0  # atno 17320 bound_to 7965
  146.0046  140.8489  143.0001 LP  0  0  0  0  0  0  0  0  0  0  0  0  # atno 17321 bound_to 7965
  140.7534  143.6161  150.8558 LP  0  0  0  0  0  0  0  0  0  0  0  0  # atno 17342 bound_to 10162
  139.9809  143.5953  152.2943 LP  0  0  0  0  0  0  0  0  0  0  0  0  # atno 17343 bound_to 10162
  157.1807  131.0391  151.2750 LP  0  0  0  0  0  0  0  0  0  0  0  0  # atno 17370 bound_to 10713
  157.4148  130.7405  149.6867 LP  0  0  0  0  0  0  0  0  0  0  0  0  # atno 17371 bound_to 10713
  140.5593  134.5950  157.5429 LP  0  0  0  0  0  0  0  0  0  0  0  0  # atno 17394 bound_to 11000
  139.9562  134.7530  156.0336 LP  0  0  0  0  0  0  0  0  0  0  0  0  # atno 17395 bound_to 11000

$$$$
