AV-unprocessed.smi:2056|AV-procd|sdf|8339|dock7
  -GOLD-   2272011 03D 1   1.00000     0.00000
 Structure written by MMmdl.
 33 33  0  0  0  0  0  0  0  0  2 V2000
  145.4300  136.1239  161.6415 C   0  0  0  0  0  0  0  0  0  0  0  0
  146.6089  135.1678  161.9224 C   0  0  0  0  0  0  0  0  0  0  0  0
  147.5333  135.8307  162.9623 C   0  0  0  0  0  0  0  0  0  0  0  0
  146.0638  133.8555  162.5253 C   0  0  0  0  0  0  0  0  0  0  0  0
  147.4445  134.9002  160.6357 C   0  0  0  0  0  0  0  0  0  0  0  0
  148.2140  136.1074  160.0720 C   0  0  0  0  0  0  0  0  0  0  0  0
  147.9241  137.2398  160.4616 O   0  0  0  0  0  0  0  0  0  0  0  0
  149.1503  135.7373  159.1651 N   0  5  0  0  0  0  0  0  0  0  0  0
  149.7168  136.6667  158.3807 C   0  0  0  0  0  0  0  0  0  0  0  0
  150.0935  136.4239  157.1207 N   0  0  0  0  0  0  0  0  0  0  0  0
  150.6504  137.5336  156.4781 C   0  0  0  0  0  0  0  0  0  0  0  0
  151.1291  137.4230  155.0574 C   0  0  0  0  0  0  0  0  0  0  0  0
  150.6171  138.5826  154.1949 C   0  0  0  0  0  0  0  0  0  0  0  0
  149.8684  138.2830  153.1287 N   0  0  0  0  0  0  0  0  0  0  0  0
  150.8756  139.7444  154.5025 O   0  0  0  0  0  0  0  0  0  0  0  0
  150.6991  138.6467  157.2777 C   0  0  0  0  0  0  0  0  0  0  0  0
  150.0324  138.3369  158.8549 S   0  0  0  0  0  0  0  0  0  0  0  0
  144.9013  136.3820  162.5595 H   0  0  0  0  0  0  0  0  0  0  0  0
  144.6987  135.6798  160.9653 H   0  0  0  0  0  0  0  0  0  0  0  0
  145.7744  137.0538  161.1877 H   0  0  0  0  0  0  0  0  0  0  0  0
  147.9338  136.7753  162.5929 H   0  0  0  0  0  0  0  0  0  0  0  0
  148.3801  135.1888  163.2076 H   0  0  0  0  0  0  0  0  0  0  0  0
  147.0030  136.0421  163.8916 H   0  0  0  0  0  0  0  0  0  0  0  0
  145.5642  134.0355  163.4776 H   0  0  0  0  0  0  0  0  0  0  0  0
  146.8658  133.1393  162.7061 H   0  0  0  0  0  0  0  0  0  0  0  0
  145.3356  133.3776  161.8696 H   0  0  0  0  0  0  0  0  0  0  0  0
  148.1387  134.0765  160.8158 H   0  0  0  0  0  0  0  0  0  0  0  0
  146.7822  134.5436  159.8457 H   0  0  0  0  0  0  0  0  0  0  0  0
  152.2188  137.4167  155.0185 H   0  0  0  0  0  0  0  0  0  0  0  0
  150.8023  136.4783  154.6206 H   0  0  0  0  0  0  0  0  0  0  0  0
  149.4939  139.0235  152.5533 H   0  0  0  0  0  0  0  0  0  0  0  0
  149.6598  137.3181  152.9177 H   0  0  0  0  0  0  0  0  0  0  0  0
  151.0809  139.6268  157.0355 H   0  0  0  0  0  0  0  0  0  0  0  0
  1  2  1  0  0  0  0
  1 18  1  0  0  0  0
  1 19  1  0  0  0  0
  1 20  1  0  0  0  0
  2  3  1  0  0  0  0
  2  4  1  0  0  0  0
  2  5  1  0  0  0  0
  3 21  1  0  0  0  0
  3 22  1  0  0  0  0
  3 23  1  0  0  0  0
  4 24  1  0  0  0  0
  4 25  1  0  0  0  0
  4 26  1  0  0  0  0
  5  6  1  0  0  0  0
  5 27  1  0  0  0  0
  5 28  1  0  0  0  0
  6  7  2  0  0  0  0
  6  8  1  0  0  0  0
  8  9  1  0  0  0  0
  9 17  1  0  0  0  0
  9 10  2  0  0  0  0
 10 11  1  0  0  0  0
 11 12  1  0  0  0  0
 11 16  2  0  0  0  0
 12 13  1  0  0  0  0
 12 29  1  0  0  0  0
 12 30  1  0  0  0  0
 13 14  1  0  0  0  0
 13 15  2  0  0  0  0
 14 31  1  0  0  0  0
 14 32  1  0  0  0  0
 16 17  1  0  0  0  0
 16 33  1  0  0  0  0
M  CHG  1   8  -1
M  END
> <s_m_source_file>
AV-unprocessed.smi

> <i_m_source_file_index>
2056

> <i_lp_mmshare_version>
43012

> <i_f3d_flags>
0

> <s_epik_input>
W0NIM11DKFtDSDNdKShbQ0gzXSlbQ0gyXUMoPU8pW05IXWMxbmMoW2NIXXMxKVtDSDJdQyg9TylbTkgyXQ==

> <s_epik_cmdline>
J2VwaWtfcHl0aG9uJywgJy1waCcsICc3LjAnLCAnLXRuJywgJzgnLCAnLW1hJywgJzIwMCcsICctbWV0YWxfYmluZGluZycsICctaW1hZScsICc8aW5maWxlLm1hZT4nLCAnLW9tYWUnLCAnPG91dGZpbGUubWFlPic=

> <r_lp_tautomer_probability>
1

> <r_epik_Ionization_Penalty>
5.16109

> <r_epik_Ionization_Penalty_Charging>
4.76142

> <r_epik_Ionization_Penalty_Neutral>
0.39967

> <r_epik_State_Penalty>
4.76123

> <r_epik_Charging_Adjusted_Penalty>
9.52265

> <i_epik_Tot_Q>
-1

> <i_epik_Tot_abs_Q>
1

> <r_epik_Metal_State_Penalty>
0.964035

> <b_epik_Metal_Only>
1

> <s_lp_Force_Field>
OPLS_2005

> <r_lp_Energy>
1.47772

> <b_lp_Chiralities_Consistent>
1

> <s_lp_Variant>
AV-unprocessed.smi:2056-2

> <Gold.Version>
5.8.1

> <Gold.Id.Protein>
6NUR|6NUR_protein|mol2

> <Gold.PLP.Fitness>
48.8708

> <Gold.PLP.PLP>
-30.8379

> <Gold.PLP.part.hbond>
-6.5075

> <Gold.PLP.part.metal>
0.0000

> <Gold.PLP.part.buried>
-2.9743

> <Gold.PLP.part.nonpolar>
-21.0571

> <Gold.PLP.part.repulsive>
0.1846

> <Gold.PLP.ligand.clash>
0.0000

> <Gold.PLP.ligand.torsion>
0.6311

> <Gold.PLP.Chemscore.Hbond>
6.3949

> <Gold.PLP.Chemscore.CHOScore>
0.0000

> <Gold.PLP.Chemscore.Metal>
0.0000

> <Gold.Chemscore.Hbonds>
donor molecule, donor type, donor heavy atom, donor atom, acceptor molecule, acceptor atom, score
      L1  H    14    31       P1  7957  0.98
      L1  H    14    32       P1  7948  0.94
      P1  H  6896  6907       L1     8  2.00
      P1  H  6931  6943       L1     7  0.64
      P1  H  6934  6947       L1     7  0.78
      P1  H  7989  7998       L1    15  1.00

> <Gold.PLP.Chemscore.Internal.Correction>
0.1104

> <Gold.Rescore>
     Score         DG    S(hbond)    S(metal)    S(lipo)     H(rot)  DE(clash)    DE(int)     intcor
     17.30     -21.70       4.53        0.00      56.55       2.16       0.00       4.39       ----

> <Gold.Chemscore.Fitness>
17.3030

> <Gold.Chemscore.DG>
-21.6968

> <Gold.Chemscore.ZeroCoef>
-5.4800

> <Gold.Chemscore.Hbond>
4.5294

> <Gold.Chemscore.Metal>
0.0000

> <Gold.Chemscore.Lipo>
56.5523

> <Gold.Chemscore.Internal_Hbond>
0.0000

> <Gold.Chemscore.DEClash>
0.0044

> <Gold.Chemscore.DEInternal>
4.3894

> <Gold.Chemscore.Rot>
2.1594

> <Gold.Chemscore.Internal.Correction>
   9.000000E+99

> <Gold.Chemscore.Hbonds>
donor molecule, donor type, donor heavy atom, donor atom, acceptor molecule, acceptor atom, score
      L1  H    14    31       P1  7957  0.88
      L1  H    14    32       P1  7948  0.50
      P1  H  6896  6907       L1     8  0.38
      P1  H  6931  6943       L1     7  0.61
      P1  H  6934  6947       L1     7  0.76
      P1  H  7989  7998       L1    15  1.00

> <Gold.Chemscore.Hbond.Weighted>
-15.1283

> <Gold.Chemscore.Metal.Weighted>
-0.0000

> <Gold.Chemscore.Lipo.Weighted>
-6.6166

> <Gold.Chemscore.Internal_Hbond.Weighted>
0.0000

> <Gold.Chemscore.DEClash.Weighted>
0.0044

> <Gold.Chemscore.DEInternal.Weighted>
4.3894

> <Gold.Chemscore.Rot.Weighted>
5.5281

> <Gold.Chemscore.Internal.Correction.Weighted>
   9.000000E+99

> <Gold.Protein.RotatedTorsions>
[ 6907 6896 6895 6894 ] final  -79.43 input  -60.11 | X-H torsion
[ 7974 7965 7964 7962 ] final   54.43 input  175.53 | X-H torsion
[ 8008 7997 7996 7995 ] final  112.73 input   59.86 | X-H torsion
[ 10167 10162 10161 10158 ] final  129.93 input  -65.29 | X-H torsion
[ 10718 10713 10712 10709 ] final   46.65 input   66.30 | X-H torsion
[ 10763 10752 10751 10750 ] final  -47.35 input  -60.55 | X-H torsion
[ 11005 11000 10999 10996 ] final  -80.44 input  -57.11 | X-H torsion

> <Gold.Protein.ActiveResidues>
 VAL166  LYS551  ARG553  GLY616  TRP617  ASP618  TYR619  PRO620  LYS621  CYS622 
 ASP623  PHE694  ASN695  SER759  ASP760  ASP761  ALA762  ILE779  LEU786  VAL792 
 PHE793  MET794  SER795  GLU796  ALA797  LYS798  CYS799  TRP800  GLU811  SER814 

> <Gold.Protein.RotatedAtoms>
  150.6950  134.4122  159.5166 H   0  0  0  0  0  0  0  0  0  0  0  0  # atno 6907 bound_to 6896
  152.1879  134.8695  160.0529 H   0  0  0  0  0  0  0  0  0  0  0  0  # atno 6908 bound_to 6896
  151.9661  133.3676  159.4090 H   0  0  0  0  0  0  0  0  0  0  0  0  # atno 6909 bound_to 6896
  145.9610  139.4059  143.0248 H   0  0  0  0  0  0  0  0  0  0  0  0  # atno 7974 bound_to 7965
  156.2212  140.2993  155.9956 H   0  0  0  0  0  0  0  0  0  0  0  0  # atno 8008 bound_to 7997
  155.2477  140.0425  157.3000 H   0  0  0  0  0  0  0  0  0  0  0  0  # atno 8009 bound_to 7997
  154.5843  140.2384  155.8017 H   0  0  0  0  0  0  0  0  0  0  0  0  # atno 8010 bound_to 7997
  139.5454  144.6768  151.4490 H   0  0  0  0  0  0  0  0  0  0  0  0  # atno 10167 bound_to 10162
  157.4504  130.8135  149.7782 H   0  0  0  0  0  0  0  0  0  0  0  0  # atno 10718 bound_to 10713
  154.0600  135.6619  153.4810 H   0  0  0  0  0  0  0  0  0  0  0  0  # atno 10763 bound_to 10752
  153.0430  135.5132  154.7668 H   0  0  0  0  0  0  0  0  0  0  0  0  # atno 10764 bound_to 10752
  154.6702  135.3028  154.9719 H   0  0  0  0  0  0  0  0  0  0  0  0  # atno 10765 bound_to 10752
  141.1668  133.7150  156.8273 H   0  0  0  0  0  0  0  0  0  0  0  0  # atno 11005 bound_to 11000
  145.8040  140.9757  143.0983 LP  0  0  0  0  0  0  0  0  0  0  0  0  # atno 17320 bound_to 7965
  144.6815  139.9838  143.7483 LP  0  0  0  0  0  0  0  0  0  0  0  0  # atno 17321 bound_to 7965
  140.6700  143.8314  150.6988 LP  0  0  0  0  0  0  0  0  0  0  0  0  # atno 17342 bound_to 10162
  140.1735  143.4174  152.1984 LP  0  0  0  0  0  0  0  0  0  0  0  0  # atno 17343 bound_to 10162
  155.9984  130.3894  150.2701 LP  0  0  0  0  0  0  0  0  0  0  0  0  # atno 17370 bound_to 10713
  157.0872  131.0160  151.3135 LP  0  0  0  0  0  0  0  0  0  0  0  0  # atno 17371 bound_to 10713
  140.2076  134.8851  157.3239 LP  0  0  0  0  0  0  0  0  0  0  0  0  # atno 17394 bound_to 11000
  140.2121  134.4126  155.7607 LP  0  0  0  0  0  0  0  0  0  0  0  0  # atno 17395 bound_to 11000

$$$$
