AV-unprocessed.smi:561|AV-procd|sdf|2938|dock4
  -GOLD-   2262023433D 1   1.00000     0.00000
 Structure written by MMmdl.
 36 37  0  0  0  0  0  0  0  0  1 V2000
  144.8331  134.8505  153.6271 C   0  0  0  0  0  0  0  0  0  0  0  0
  145.6781  135.3160  152.4340 C   0  0  2  0  0  0  0  0  0  0  0  0
  146.3972  134.1313  151.7561 C   0  0  0  0  0  0  0  0  0  0  0  0
  145.5007  133.3160  150.9568 N   0  0  0  0  0  0  0  0  0  0  0  0
  144.1194  133.4312  150.8672 C   0  0  0  0  0  0  0  0  0  0  0  0
  143.6983  132.4456  150.0036 C   0  0  0  0  0  0  0  0  0  0  0  0
  144.7970  131.7206  149.5479 N   0  0  0  0  0  0  0  0  0  0  0  0
  145.8284  132.2944  150.1539 C   0  0  0  0  0  0  0  0  0  0  0  0
  146.6466  136.3097  152.8951 N   0  0  0  0  0  0  0  0  0  0  0  0
  146.3516  137.5129  153.4226 C   0  0  0  0  0  0  0  0  0  0  0  0
  145.1983  137.8996  153.6134 O   0  0  0  0  0  0  0  0  0  0  0  0
  147.5136  138.3794  153.7530 C   0  0  0  0  0  0  0  0  0  0  0  0
  148.6360  137.8465  154.1232 N   0  0  0  0  0  0  0  0  0  0  0  0
  149.7464  138.6100  154.4201 N   0  0  0  0  0  0  0  0  0  0  0  0
  150.9927  137.8571  154.5471 C   0  0  0  0  0  0  0  0  0  0  0  0
  149.7302  139.9525  154.6130 C   0  0  0  0  0  0  0  0  0  0  0  0
  150.7341  140.6207  154.8603 O   0  0  0  0  0  0  0  0  0  0  0  0
  148.3614  140.6355  154.5409 C   0  0  0  0  0  0  0  0  0  0  0  0
  147.3822  139.8834  153.6179 C   0  0  0  0  0  0  0  0  0  0  0  0
  144.0830  134.1228  153.3158 H   0  0  0  0  0  0  0  0  0  0  0  0
  144.3071  135.6880  154.0865 H   0  0  0  0  0  0  0  0  0  0  0  0
  145.4513  134.3832  154.3945 H   0  0  0  0  0  0  0  0  0  0  0  0
  144.9944  135.7666  151.7123 H   0  0  0  0  0  0  0  0  0  0  0  0
  147.2079  134.4882  151.1193 H   0  0  0  0  0  0  0  0  0  0  0  0
  146.8527  133.4877  152.5098 H   0  0  0  0  0  0  0  0  0  0  0  0
  143.5656  134.1792  151.4153 H   0  0  0  0  0  0  0  0  0  0  0  0
  142.6972  132.2048  149.6776 H   0  0  0  0  0  0  0  0  0  0  0  0
  146.8461  131.9598  150.0155 H   0  0  0  0  0  0  0  0  0  0  0  0
  147.6228  136.0793  152.7769 H   0  0  0  0  0  0  0  0  0  0  0  0
  151.4273  137.9943  155.5385 H   0  0  0  0  0  0  0  0  0  0  0  0
  151.7195  138.1934  153.8063 H   0  0  0  0  0  0  0  0  0  0  0  0
  150.8420  136.7863  154.3989 H   0  0  0  0  0  0  0  0  0  0  0  0
  147.9586  140.6687  155.5539 H   0  0  0  0  0  0  0  0  0  0  0  0
  148.4735  141.6695  154.2131 H   0  0  0  0  0  0  0  0  0  0  0  0
  147.5572  140.1670  152.5795 H   0  0  0  0  0  0  0  0  0  0  0  0
  146.3676  140.2044  153.8575 H   0  0  0  0  0  0  0  0  0  0  0  0
  1  2  1  0  0  0  0
  1 20  1  0  0  0  0
  1 21  1  0  0  0  0
  1 22  1  0  0  0  0
  2  3  1  0  0  0  0
  2  9  1  0  0  0  0
  2 23  1  0  0  0  0
  3  4  1  0  0  0  0
  3 24  1  0  0  0  0
  3 25  1  0  0  0  0
  4  8  1  0  0  0  0
  4  5  1  0  0  0  0
  5  6  2  0  0  0  0
  5 26  1  0  0  0  0
  6  7  1  0  0  0  0
  6 27  1  0  0  0  0
  7  8  2  0  0  0  0
  8 28  1  0  0  0  0
  9 10  1  0  0  0  0
  9 29  1  0  0  0  0
 10 11  2  0  0  0  0
 10 12  1  0  0  0  0
 12 19  1  0  0  0  0
 12 13  2  0  0  0  0
 13 14  1  0  0  0  0
 14 15  1  0  0  0  0
 14 16  1  0  0  0  0
 15 30  1  0  0  0  0
 15 31  1  0  0  0  0
 15 32  1  0  0  0  0
 16 17  2  0  0  0  0
 16 18  1  0  0  0  0
 18 19  1  0  0  0  0
 18 33  1  0  0  0  0
 18 34  1  0  0  0  0
 19 35  1  0  0  0  0
 19 36  1  0  0  0  0
M  END
> <s_m_source_file>
AV-unprocessed.smi

> <i_m_source_file_index>
561

> <i_lp_mmshare_version>
43012

> <i_f3d_flags>
0

> <s_epik_input>
W2NIXTFuW2NIXVtjSF1uMVtDSDJdW0NAQEhdKFtDSDNdKVtOSF1DKD1PKUMyPU5OKFtDSDNdKUMoPU8pW0NIMl1bQ0gyXTI=

> <s_epik_cmdline>
J2VwaWtfcHl0aG9uJywgJy1waCcsICc3LjAnLCAnLXRuJywgJzgnLCAnLW1hJywgJzIwMCcsICctbWV0YWxfYmluZGluZycsICctaW1hZScsICc8aW5maWxlLm1hZT4nLCAnLW9tYWUnLCAnPG91dGZpbGUubWFlPic=

> <r_lp_tautomer_probability>
1

> <r_epik_Ionization_Penalty>
0.46798

> <r_epik_Ionization_Penalty_Charging>
0.467902

> <r_epik_Ionization_Penalty_Neutral>
7.78263e-05

> <r_epik_State_Penalty>
0.47192

> <r_epik_Charging_Adjusted_Penalty>
0.939822

> <i_epik_Tot_Q>
0

> <i_epik_Tot_abs_Q>
0

> <r_epik_Metal_State_Penalty>
0.280825

> <b_epik_Metal_Only>
0

> <s_epik_Chemistry_Notes>
This compound has an imine and may undergo hydrolysis.

> <s_lp_Force_Field>
OPLS_2005

> <r_lp_Energy>
18.1828

> <b_lp_Chiralities_Consistent>
1

> <s_lp_Variant>
AV-unprocessed.smi:561-3

> <Gold.Version>
5.8.1

> <Gold.Id.Protein>
6NUR|6NUR_protein|mol2

> <Gold.PLP.Fitness>
39.9300

> <Gold.PLP.PLP>
-28.0822

> <Gold.PLP.part.hbond>
-3.0000

> <Gold.PLP.part.metal>
0.0000

> <Gold.PLP.part.buried>
-4.3360

> <Gold.PLP.part.nonpolar>
-24.0324

> <Gold.PLP.part.repulsive>
3.0336

> <Gold.PLP.ligand.clash>
0.0000

> <Gold.PLP.ligand.torsion>
0.6051

> <Gold.PLP.Chemscore.Hbond>
1.9171

> <Gold.PLP.Chemscore.CHOScore>
2.4161

> <Gold.PLP.Chemscore.Metal>
0.0000

> <Gold.Chemscore.Hbonds>
donor molecule, donor type, donor heavy atom, donor atom, acceptor molecule, acceptor atom, score
      L1  H     9    29       P1  7948  0.93
      P1  H  7989  7998       L1    17  0.96
      P1  H 10785 10796       L1     7  0.02
      L1  C     6    27       P1 10186  0.25
      L1  C     6    27       P1 10952  0.73
      L1  C     8    28       P1 10747  1.00

> <Gold.PLP.Chemscore.Internal.Correction>
0.0585

> <Gold.Rescore>
     Score         DG    S(hbond)    S(metal)    S(lipo)     H(rot)  DE(clash)    DE(int)     intcor
     10.76     -13.33       1.72        0.00      55.34       1.71       2.03       0.54       ----

> <Gold.Chemscore.Fitness>
10.7632

> <Gold.Chemscore.DG>
-13.3308

> <Gold.Chemscore.ZeroCoef>
-5.4800

> <Gold.Chemscore.Hbond>
1.7216

> <Gold.Chemscore.Metal>
0.0000

> <Gold.Chemscore.Lipo>
55.3378

> <Gold.Chemscore.Internal_Hbond>
0.0000

> <Gold.Chemscore.DEClash>
2.0263

> <Gold.Chemscore.DEInternal>
0.5413

> <Gold.Chemscore.Rot>
1.7086

> <Gold.Chemscore.Internal.Correction>
   9.000000E+99

> <Gold.Chemscore.Hbonds>
donor molecule, donor type, donor heavy atom, donor atom, acceptor molecule, acceptor atom, score
      L1  H     9    29       P1  7948  0.90
      P1  H  7989  7998       L1    17  0.72

> <Gold.Chemscore.Hbond.Weighted>
-5.7502

> <Gold.Chemscore.Metal.Weighted>
-0.0000

> <Gold.Chemscore.Lipo.Weighted>
-6.4745

> <Gold.Chemscore.Internal_Hbond.Weighted>
0.0000

> <Gold.Chemscore.DEClash.Weighted>
2.0263

> <Gold.Chemscore.DEInternal.Weighted>
0.5413

> <Gold.Chemscore.Rot.Weighted>
4.3739

> <Gold.Chemscore.Internal.Correction.Weighted>
   9.000000E+99

> <Gold.Protein.RotatedTorsions>
[ 6907 6896 6895 6894 ] final    1.66 input  -60.11 | X-H torsion
[ 7974 7965 7964 7962 ] final  175.98 input  175.53 | X-H torsion
[ 8008 7997 7996 7995 ] final   57.92 input   59.86 | X-H torsion
[ 10167 10162 10161 10158 ] final   48.85 input  -65.29 | X-H torsion
[ 10718 10713 10712 10709 ] final -125.98 input   66.30 | X-H torsion
[ 10763 10752 10751 10750 ] final  177.66 input  -60.55 | X-H torsion
[ 11005 11000 10999 10996 ] final  102.24 input  -57.11 | X-H torsion

> <Gold.Protein.ActiveResidues>
 VAL166  LYS551  ARG553  GLY616  TRP617  ASP618  TYR619  PRO620  LYS621  CYS622 
 ASP623  PHE694  ASN695  SER759  ASP760  ASP761  ALA762  ILE779  LEU786  VAL792 
 PHE793  MET794  SER795  GLU796  ALA797  LYS798  CYS799  TRP800  GLU811  SER814 

> <Gold.Protein.RotatedAtoms>
  151.5963  135.1050  160.0050 H   0  0  0  0  0  0  0  0  0  0  0  0  # atno 6907 bound_to 6896
  152.4281  133.7225  159.6552 H   0  0  0  0  0  0  0  0  0  0  0  0  # atno 6908 bound_to 6896
  150.8171  133.8247  159.3178 H   0  0  0  0  0  0  0  0  0  0  0  0  # atno 6909 bound_to 6896
  144.7192  140.0028  143.6440 H   0  0  0  0  0  0  0  0  0  0  0  0  # atno 7974 bound_to 7965
  155.5416  140.3484  155.4448 H   0  0  0  0  0  0  0  0  0  0  0  0  # atno 8008 bound_to 7997
  156.0647  140.1348  156.9926 H   0  0  0  0  0  0  0  0  0  0  0  0  # atno 8009 bound_to 7997
  154.4497  140.0978  156.6554 H   0  0  0  0  0  0  0  0  0  0  0  0  # atno 8010 bound_to 7997
  140.2890  144.3068  150.6245 H   0  0  0  0  0  0  0  0  0  0  0  0  # atno 10167 bound_to 10162
  156.1724  130.6676  151.0197 H   0  0  0  0  0  0  0  0  0  0  0  0  # atno 10718 bound_to 10713
  154.4975  135.2782  155.1448 H   0  0  0  0  0  0  0  0  0  0  0  0  # atno 10763 bound_to 10752
  154.3094  135.6232  153.5463 H   0  0  0  0  0  0  0  0  0  0  0  0  # atno 10764 bound_to 10752
  152.9897  135.5716  154.5410 H   0  0  0  0  0  0  0  0  0  0  0  0  # atno 10765 bound_to 10752
  139.8776  134.9216  156.5028 H   0  0  0  0  0  0  0  0  0  0  0  0  # atno 11005 bound_to 11000
  146.0322  139.3345  143.0748 LP  0  0  0  0  0  0  0  0  0  0  0  0  # atno 17320 bound_to 7965
  145.8439  140.9566  143.0785 LP  0  0  0  0  0  0  0  0  0  0  0  0  # atno 17321 bound_to 7965
  140.5748  143.2177  151.7534 LP  0  0  0  0  0  0  0  0  0  0  0  0  # atno 17342 bound_to 10162
  139.4943  144.4165  152.0024 LP  0  0  0  0  0  0  0  0  0  0  0  0  # atno 17343 bound_to 10162
  157.6812  131.0837  150.7365 LP  0  0  0  0  0  0  0  0  0  0  0  0  # atno 17370 bound_to 10713
  156.7423  130.4743  149.5474 LP  0  0  0  0  0  0  0  0  0  0  0  0  # atno 17371 bound_to 10713
  140.8577  133.8083  155.9233 LP  0  0  0  0  0  0  0  0  0  0  0  0  # atno 17394 bound_to 11000
  140.9081  134.2295  157.5002 LP  0  0  0  0  0  0  0  0  0  0  0  0  # atno 17395 bound_to 11000

$$$$
