AV-unprocessed.smi:1560|AV-procd|sdf|6277|dock7
  -GOLD-   22720 6473D 1   1.00000     0.00000
 Structure written by MMmdl.
 48 49  0  0  0  0  0  0  0  0  2 V2000
  150.2044  133.4232  155.2771 C   0  0  0  0  0  0  0  0  0  0  0  0
  149.3885  133.6105  153.9855 C   0  0  0  0  0  0  0  0  0  0  0  0
  147.8909  134.0027  154.1824 C   0  0  1  0  0  0  0  0  0  0  0  0
  147.2108  132.8411  154.9548 C   0  0  0  0  0  0  0  0  0  0  0  0
  147.7884  135.3044  155.0390 C   0  0  0  0  0  0  0  0  0  0  0  0
  148.5116  136.4379  154.4646 N   0  0  0  0  0  0  0  0  0  0  0  0
  149.2557  137.3205  155.1483 C   0  0  0  0  0  0  0  0  0  0  0  0
  149.4529  137.2430  156.3615 O   0  0  0  0  0  0  0  0  0  0  0  0
  149.8699  138.4661  154.3335 C   0  0  0  0  0  0  0  0  0  0  0  0
  148.9886  139.6408  154.2723 N   0  0  0  0  0  0  0  0  0  0  0  0
  147.7279  139.5454  153.6999 C   0  0  0  0  0  0  0  0  0  0  0  0
  146.8713  140.5899  153.6056 C   0  0  0  0  0  0  0  0  0  0  0  0
  147.2482  141.9034  154.1170 C   0  0  0  0  0  0  0  0  0  0  0  0
  146.5421  142.9086  154.0787 O   0  0  0  0  0  0  0  0  0  0  0  0
  148.5245  141.9597  154.6833 N   0  0  0  0  0  0  0  0  0  0  0  0
  149.4126  140.8877  154.7832 C   0  0  0  0  0  0  0  0  0  0  0  0
  150.5190  141.0467  155.2987 O   0  0  0  0  0  0  0  0  0  0  0  0
  147.2313  134.1963  152.8394 N   0  3  0  0  0  0  0  0  0  0  0  0
  147.0846  132.9750  151.9976 C   0  0  0  0  0  0  0  0  0  0  0  0
  146.5838  133.3462  150.5913 C   0  0  0  0  0  0  0  0  0  0  0  0
  145.3530  134.0493  150.6864 O   0  0  0  0  0  0  0  0  0  0  0  0
  145.4952  135.2619  151.4123 C   0  0  0  0  0  0  0  0  0  0  0  0
  145.9450  134.9497  152.8485 C   0  0  0  0  0  0  0  0  0  0  0  0
  148.8294  142.8500  155.0494 H   0  0  0  0  0  0  0  0  0  0  0  0
  151.2341  133.1555  155.0389 H   0  0  0  0  0  0  0  0  0  0  0  0
  149.8010  132.6279  155.9036 H   0  0  0  0  0  0  0  0  0  0  0  0
  150.2389  134.3362  155.8708 H   0  0  0  0  0  0  0  0  0  0  0  0
  149.8933  134.3761  153.3965 H   0  0  0  0  0  0  0  0  0  0  0  0
  149.4705  132.7077  153.3807 H   0  0  0  0  0  0  0  0  0  0  0  0
  147.8026  132.5278  155.8157 H   0  0  0  0  0  0  0  0  0  0  0  0
  147.0709  131.9620  154.3255 H   0  0  0  0  0  0  0  0  0  0  0  0
  146.2331  133.1254  155.3449 H   0  0  0  0  0  0  0  0  0  0  0  0
  146.7482  135.5857  155.2053 H   0  0  0  0  0  0  0  0  0  0  0  0
  148.2126  135.1419  156.0291 H   0  0  0  0  0  0  0  0  0  0  0  0
  148.4140  136.5800  153.4694 H   0  0  0  0  0  0  0  0  0  0  0  0
  150.8285  138.7261  154.7849 H   0  0  0  0  0  0  0  0  0  0  0  0
  150.1081  138.1307  153.3218 H   0  0  0  0  0  0  0  0  0  0  0  0
  147.4064  138.5925  153.3036 H   0  0  0  0  0  0  0  0  0  0  0  0
  145.9023  140.4530  153.1481 H   0  0  0  0  0  0  0  0  0  0  0  0
  148.0307  132.4500  151.8798 H   0  0  0  0  0  0  0  0  0  0  0  0
  146.3847  132.2794  152.4612 H   0  0  0  0  0  0  0  0  0  0  0  0
  147.3222  133.9511  150.0624 H   0  0  0  0  0  0  0  0  0  0  0  0
  146.4290  132.4445  149.9984 H   0  0  0  0  0  0  0  0  0  0  0  0
  146.2071  135.9218  150.9137 H   0  0  0  0  0  0  0  0  0  0  0  0
  144.5356  135.7790  151.4235 H   0  0  0  0  0  0  0  0  0  0  0  0
  145.1675  134.3681  153.3441 H   0  0  0  0  0  0  0  0  0  0  0  0
  146.0337  135.8912  153.3867 H   0  0  0  0  0  0  0  0  0  0  0  0
  147.8759  134.7849  152.3308 H   0  0  0  0  0  0  0  0  0  0  0  0
  1  2  1  0  0  0  0
  1 25  1  0  0  0  0
  1 26  1  0  0  0  0
  1 27  1  0  0  0  0
  2  3  1  0  0  0  0
  2 28  1  0  0  0  0
  2 29  1  0  0  0  0
  3  4  1  0  0  0  0
  3  5  1  0  0  0  0
  3 18  1  0  0  0  0
  4 30  1  0  0  0  0
  4 31  1  0  0  0  0
  4 32  1  0  0  0  0
  5  6  1  0  0  0  0
  5 33  1  0  0  0  0
  5 34  1  0  0  0  0
  6  7  1  0  0  0  0
  6 35  1  0  0  0  0
  7  8  2  0  0  0  0
  7  9  1  0  0  0  0
  9 10  1  0  0  0  0
  9 36  1  0  0  0  0
  9 37  1  0  0  0  0
 10 16  1  0  0  0  0
 10 11  1  0  0  0  0
 11 12  2  0  0  0  0
 11 38  1  0  0  0  0
 12 13  1  0  0  0  0
 12 39  1  0  0  0  0
 13 14  2  0  0  0  0
 13 15  1  0  0  0  0
 15 24  1  0  0  0  0
 15 16  1  0  0  0  0
 16 17  2  0  0  0  0
 18 23  1  0  0  0  0
 18 19  1  0  0  0  0
 18 48  1  0  0  0  0
 19 20  1  0  0  0  0
 19 40  1  0  0  0  0
 19 41  1  0  0  0  0
 20 21  1  0  0  0  0
 20 42  1  0  0  0  0
 20 43  1  0  0  0  0
 21 22  1  0  0  0  0
 22 23  1  0  0  0  0
 22 44  1  0  0  0  0
 22 45  1  0  0  0  0
 23 46  1  0  0  0  0
 23 47  1  0  0  0  0
M  CHG  1  18   1
M  END
> <s_m_source_file>
AV-unprocessed.smi

> <i_m_source_file_index>
1560

> <i_lp_mmshare_version>
43012

> <i_f3d_flags>
0

> <s_epik_input>
W0NIMl0xW0NIMl1PW0NIMl1bQ0gyXU4xW0NAQF0oW0NIM10pKFtDSDJdW0NIM10pW0NIMl1bTkhdQyg9TylbQ0gyXW4yW2NIXVtjSF1jKD1PKVtuSF1jMj1P

> <s_epik_cmdline>
J2VwaWtfcHl0aG9uJywgJy1waCcsICc3LjAnLCAnLXRuJywgJzgnLCAnLW1hJywgJzIwMCcsICctbWV0YWxfYmluZGluZycsICctaW1hZScsICc8aW5maWxlLm1hZT4nLCAnLW9tYWUnLCAnPG91dGZpbGUubWFlPic=

> <r_lp_tautomer_probability>
0.999537

> <r_epik_Ionization_Penalty>
0.523885

> <r_epik_Ionization_Penalty_Charging>
0.523885

> <r_epik_Ionization_Penalty_Neutral>
8.70177e-08

> <r_epik_State_Penalty>
0.572334

> <r_epik_Charging_Adjusted_Penalty>
1.09622

> <i_epik_Tot_Q>
1

> <i_epik_Tot_abs_Q>
1

> <r_epik_Metal_State_Penalty>
0.938906

> <b_epik_Metal_Only>
0

> <s_lp_Force_Field>
OPLS_2005

> <r_lp_Energy>
27.5913

> <b_lp_Chiralities_Consistent>
1

> <s_lp_Variant>
AV-unprocessed.smi:1560-3

> <Gold.Version>
5.8.1

> <Gold.Id.Protein>
6NUR|6NUR_protein|mol2

> <Gold.PLP.Fitness>
48.1324

> <Gold.PLP.PLP>
-36.0890

> <Gold.PLP.part.hbond>
-4.1419

> <Gold.PLP.part.metal>
0.0000

> <Gold.PLP.part.buried>
-4.1544

> <Gold.PLP.part.nonpolar>
-28.6208

> <Gold.PLP.part.repulsive>
0.6555

> <Gold.PLP.ligand.clash>
0.0000

> <Gold.PLP.ligand.torsion>
0.8191

> <Gold.PLP.Chemscore.Hbond>
4.4960

> <Gold.PLP.Chemscore.CHOScore>
0.0000

> <Gold.PLP.Chemscore.Metal>
0.0000

> <Gold.Chemscore.Hbonds>
donor molecule, donor type, donor heavy atom, donor atom, acceptor molecule, acceptor atom, score
      L1  H     6    35       P1  7948  0.96
      L1  H    15    24       P1  8028  1.00
      L1  H    18    48       P1  7948  2.00
      P1  H  7989  7998       L1    17  0.45

> <Gold.PLP.Chemscore.Internal.Correction>
0.1936

> <Gold.Rescore>
     Score         DG    S(hbond)    S(metal)    S(lipo)     H(rot)  DE(clash)    DE(int)     intcor
     15.71     -16.37       3.15        0.00      59.15       2.56       0.01       0.65       ----

> <Gold.Chemscore.Fitness>
15.7087

> <Gold.Chemscore.DG>
-16.3722

> <Gold.Chemscore.ZeroCoef>
-5.4800

> <Gold.Chemscore.Hbond>
3.1540

> <Gold.Chemscore.Metal>
0.0000

> <Gold.Chemscore.Lipo>
59.1473

> <Gold.Chemscore.Internal_Hbond>
0.0000

> <Gold.Chemscore.DEClash>
0.0126

> <Gold.Chemscore.DEInternal>
0.6509

> <Gold.Chemscore.Rot>
2.5634

> <Gold.Chemscore.Internal.Correction>
   9.000000E+99

> <Gold.Chemscore.Hbonds>
donor molecule, donor type, donor heavy atom, donor atom, acceptor molecule, acceptor atom, score
      L1  H     6    35       P1  7948  0.92
      L1  H    15    24       P1  8028  0.99
      L1  H    18    48       P1  7948  0.70
      P1  H  7989  7998       L1    17  0.06

> <Gold.Chemscore.Hbond.Weighted>
-10.5344

> <Gold.Chemscore.Metal.Weighted>
-0.0000

> <Gold.Chemscore.Lipo.Weighted>
-6.9202

> <Gold.Chemscore.Internal_Hbond.Weighted>
0.0000

> <Gold.Chemscore.DEClash.Weighted>
0.0126

> <Gold.Chemscore.DEInternal.Weighted>
0.6509

> <Gold.Chemscore.Rot.Weighted>
6.5624

> <Gold.Chemscore.Internal.Correction.Weighted>
   9.000000E+99

> <Gold.Protein.RotatedTorsions>
[ 6907 6896 6895 6894 ] final   35.30 input  -60.11 | X-H torsion
[ 7974 7965 7964 7962 ] final    8.76 input  175.53 | X-H torsion
[ 8008 7997 7996 7995 ] final -117.94 input   59.86 | X-H torsion
[ 10167 10162 10161 10158 ] final -134.30 input  -65.29 | X-H torsion
[ 10718 10713 10712 10709 ] final  -25.30 input   66.30 | X-H torsion
[ 10763 10752 10751 10750 ] final  152.66 input  -60.55 | X-H torsion
[ 11005 11000 10999 10996 ] final   52.91 input  -57.11 | X-H torsion

> <Gold.Protein.ActiveResidues>
 VAL166  LYS551  ARG553  GLY616  TRP617  ASP618  TYR619  PRO620  LYS621  CYS622 
 ASP623  PHE694  ASN695  SER759  ASP760  ASP761  ALA762  ILE779  LEU786  VAL792 
 PHE793  MET794  SER795  GLU796  ALA797  LYS798  CYS799  TRP800  GLU811  SER814 

> <Gold.Protein.RotatedAtoms>
  152.1143  134.9252  160.0565 H   0  0  0  0  0  0  0  0  0  0  0  0  # atno 6907 bound_to 6896
  152.0417  133.3975  159.4348 H   0  0  0  0  0  0  0  0  0  0  0  0  # atno 6908 bound_to 6896
  150.6845  134.3328  159.4878 H   0  0  0  0  0  0  0  0  0  0  0  0  # atno 6909 bound_to 6896
  146.2412  139.9885  142.8428 H   0  0  0  0  0  0  0  0  0  0  0  0  # atno 7974 bound_to 7965
  155.0917  140.0395  157.2670 H   0  0  0  0  0  0  0  0  0  0  0  0  # atno 8008 bound_to 7997
  154.6827  140.2636  155.6867 H   0  0  0  0  0  0  0  0  0  0  0  0  # atno 8009 bound_to 7997
  156.2700  140.2775  156.1377 H   0  0  0  0  0  0  0  0  0  0  0  0  # atno 8010 bound_to 7997
  139.8895  143.6740  152.2614 H   0  0  0  0  0  0  0  0  0  0  0  0  # atno 10167 bound_to 10162
  156.4662  130.4514  149.6897 H   0  0  0  0  0  0  0  0  0  0  0  0  # atno 10718 bound_to 10713
  154.1235  135.2831  155.3202 H   0  0  0  0  0  0  0  0  0  0  0  0  # atno 10763 bound_to 10752
  154.6406  135.5404  153.7788 H   0  0  0  0  0  0  0  0  0  0  0  0  # atno 10764 bound_to 10752
  153.0305  135.6485  154.1389 H   0  0  0  0  0  0  0  0  0  0  0  0  # atno 10765 bound_to 10752
  140.0810  134.5338  155.8946 H   0  0  0  0  0  0  0  0  0  0  0  0  # atno 11005 bound_to 11000
  145.1525  140.9630  143.4424 LP  0  0  0  0  0  0  0  0  0  0  0  0  # atno 17320 bound_to 7965
  145.0192  139.3440  143.6081 LP  0  0  0  0  0  0  0  0  0  0  0  0  # atno 17321 bound_to 7965
  139.7123  144.7618  151.1092 LP  0  0  0  0  0  0  0  0  0  0  0  0  # atno 17342 bound_to 10162
  140.7729  143.5315  150.9418 LP  0  0  0  0  0  0  0  0  0  0  0  0  # atno 17343 bound_to 10162
  156.3665  130.7508  151.2487 LP  0  0  0  0  0  0  0  0  0  0  0  0  # atno 17370 bound_to 10713
  157.7494  131.0335  150.4276 LP  0  0  0  0  0  0  0  0  0  0  0  0  # atno 17371 bound_to 10713
  141.2047  133.6641  156.6134 LP  0  0  0  0  0  0  0  0  0  0  0  0  # atno 17394 bound_to 11000
  140.3487  134.7787  157.4451 LP  0  0  0  0  0  0  0  0  0  0  0  0  # atno 17395 bound_to 11000

$$$$
