AV-unprocessed.smi:1211|AV-procd|sdf|5081|dock8
  -GOLD-   22720 4133D 1   1.00000     0.00000
 Structure written by MMmdl.
 48 50  0  0  0  0  0  0  0  0  2 V2000
  145.3113  135.5390  151.0789 C   0  0  0  0  0  0  0  0  0  0  0  0
  145.2612  134.0194  151.0841 C   0  0  0  0  0  0  0  0  0  0  0  0
  144.2243  133.3605  150.3896 C   0  0  0  0  0  0  0  0  0  0  0  0
  144.1788  131.9558  150.3964 C   0  0  0  0  0  0  0  0  0  0  0  0
  145.1788  131.2648  151.1017 C   0  0  0  0  0  0  0  0  0  0  0  0
  146.1735  131.8863  151.7674 N   0  0  0  0  0  0  0  0  0  0  0  0
  146.2307  133.2419  151.7727 C   0  0  0  0  0  0  0  0  0  0  0  0
  147.2514  133.9645  152.4529 N   0  0  0  0  0  0  0  0  0  0  0  0
  147.7579  133.7413  153.6782 C   0  0  0  0  0  0  0  0  0  0  0  0
  147.3927  132.8560  154.4515 O   0  0  0  0  0  0  0  0  0  0  0  0
  148.7326  134.6161  153.9660 N   0  0  0  0  0  0  0  0  0  0  0  0
  149.4830  134.6659  155.2206 C   0  0  0  0  0  0  0  0  0  0  0  0
  149.2359  135.9704  156.0450 C   0  0  2  0  0  0  0  0  0  0  0  0
  149.7832  137.1447  155.2692 N   0  3  0  0  0  0  0  0  0  0  0  0
  149.3205  138.4738  155.7596 C   0  0  0  0  0  0  0  0  0  0  0  0
  149.7645  139.5947  154.8085 C   0  0  0  0  0  0  0  0  0  0  0  0
  151.1800  139.5825  154.7046 O   0  0  0  0  0  0  0  0  0  0  0  0
  151.6485  138.3667  154.1406 C   0  0  0  0  0  0  0  0  0  0  0  0
  151.2540  137.1752  155.0318 C   0  0  0  0  0  0  0  0  0  0  0  0
  149.8522  135.8283  157.4657 C   0  0  0  0  0  0  0  0  0  0  0  0
  149.0242  134.8119  158.2573 C   0  0  0  0  0  0  0  0  0  0  0  0
  147.3058  135.0068  157.7250 S   0  0  0  0  0  0  0  0  0  0  0  0
  147.7257  136.1127  156.3487 C   0  0  0  0  0  0  0  0  0  0  0  0
  144.4919  135.9617  150.4966 H   0  0  0  0  0  0  0  0  0  0  0  0
  146.2473  135.8889  150.6428 H   0  0  0  0  0  0  0  0  0  0  0  0
  145.2344  135.9267  152.0953 H   0  0  0  0  0  0  0  0  0  0  0  0
  143.4706  133.9219  149.8572 H   0  0  0  0  0  0  0  0  0  0  0  0
  143.3980  131.4220  149.8754 H   0  0  0  0  0  0  0  0  0  0  0  0
  145.1811  130.1851  151.1328 H   0  0  0  0  0  0  0  0  0  0  0  0
  147.6411  134.7416  151.9408 H   0  0  0  0  0  0  0  0  0  0  0  0
  148.9515  135.3209  153.2774 H   0  0  0  0  0  0  0  0  0  0  0  0
  149.1810  133.7925  155.7970 H   0  0  0  0  0  0  0  0  0  0  0  0
  150.5429  134.4970  155.0308 H   0  0  0  0  0  0  0  0  0  0  0  0
  148.2360  138.5038  155.8476 H   0  0  0  0  0  0  0  0  0  0  0  0
  149.7266  138.6709  156.7524 H   0  0  0  0  0  0  0  0  0  0  0  0
  149.3067  139.4805  153.8244 H   0  0  0  0  0  0  0  0  0  0  0  0
  149.4486  140.5635  155.1965 H   0  0  0  0  0  0  0  0  0  0  0  0
  151.2484  138.2447  153.1326 H   0  0  0  0  0  0  0  0  0  0  0  0
  152.7333  138.4182  154.0447 H   0  0  0  0  0  0  0  0  0  0  0  0
  151.7854  137.2243  155.9830 H   0  0  0  0  0  0  0  0  0  0  0  0
  151.5843  136.2777  154.5112 H   0  0  0  0  0  0  0  0  0  0  0  0
  150.9112  135.5734  157.4523 H   0  0  0  0  0  0  0  0  0  0  0  0
  149.7622  136.7586  158.0250 H   0  0  0  0  0  0  0  0  0  0  0  0
  149.3486  133.7930  158.0458 H   0  0  0  0  0  0  0  0  0  0  0  0
  149.1149  134.9644  159.3329 H   0  0  0  0  0  0  0  0  0  0  0  0
  147.4938  137.1274  156.6735 H   0  0  0  0  0  0  0  0  0  0  0  0
  147.0958  135.8969  155.4851 H   0  0  0  0  0  0  0  0  0  0  0  0
  149.3849  137.0419  154.3469 H   0  0  0  0  0  0  0  0  0  0  0  0
  1  2  1  0  0  0  0
  1 24  1  0  0  0  0
  1 25  1  0  0  0  0
  1 26  1  0  0  0  0
  2  7  1  0  0  0  0
  2  3  2  0  0  0  0
  3  4  1  0  0  0  0
  3 27  1  0  0  0  0
  4  5  2  0  0  0  0
  4 28  1  0  0  0  0
  5  6  1  0  0  0  0
  5 29  1  0  0  0  0
  6  7  2  0  0  0  0
  7  8  1  0  0  0  0
  8  9  1  0  0  0  0
  8 30  1  0  0  0  0
  9 10  2  0  0  0  0
  9 11  1  0  0  0  0
 11 12  1  0  0  0  0
 11 31  1  0  0  0  0
 12 13  1  0  0  0  0
 12 32  1  0  0  0  0
 12 33  1  0  0  0  0
 13 23  1  0  0  0  0
 13 14  1  0  0  0  0
 13 20  1  0  0  0  0
 14 19  1  0  0  0  0
 14 15  1  0  0  0  0
 14 48  1  0  0  0  0
 15 16  1  0  0  0  0
 15 34  1  0  0  0  0
 15 35  1  0  0  0  0
 16 17  1  0  0  0  0
 16 36  1  0  0  0  0
 16 37  1  0  0  0  0
 17 18  1  0  0  0  0
 18 19  1  0  0  0  0
 18 38  1  0  0  0  0
 18 39  1  0  0  0  0
 19 40  1  0  0  0  0
 19 41  1  0  0  0  0
 20 21  1  0  0  0  0
 20 42  1  0  0  0  0
 20 43  1  0  0  0  0
 21 22  1  0  0  0  0
 21 44  1  0  0  0  0
 21 45  1  0  0  0  0
 22 23  1  0  0  0  0
 23 46  1  0  0  0  0
 23 47  1  0  0  0  0
M  CHG  1  14   1
M  END
> <s_m_source_file>
AV-unprocessed.smi

> <i_m_source_file_index>
1211

> <i_lp_mmshare_version>
43012

> <i_f3d_flags>
0

> <s_epik_input>
W0NIM11jMVtjSF1bY0hdW2NIXW5jMVtOSF1DKD1PKVtOSF1bQ0gyXVtDQF0yKFtDSDJdW0NIMl1TW0NIMl0yKU4zW0NIMl1bQ0gyXU9bQ0gyXVtDSDJdMw==

> <s_epik_cmdline>
J2VwaWtfcHl0aG9uJywgJy1waCcsICc3LjAnLCAnLXRuJywgJzgnLCAnLW1hJywgJzIwMCcsICctbWV0YWxfYmluZGluZycsICctaW1hZScsICc8aW5maWxlLm1hZT4nLCAnLW9tYWUnLCAnPG91dGZpbGUubWFlPic=

> <r_epik_Ionization_Penalty>
2.03223

> <r_epik_Ionization_Penalty_Charging>
2.03219

> <r_epik_Ionization_Penalty_Neutral>
4.05816e-05

> <r_epik_State_Penalty>
2.16328

> <r_epik_Charging_Adjusted_Penalty>
4.19546

> <i_epik_Tot_Q>
1

> <i_epik_Tot_abs_Q>
1

> <r_epik_Metal_State_Penalty>
2.16328

> <b_epik_Metal_Only>
0

> <s_lp_Force_Field>
OPLS_2005

> <r_lp_Energy>
45.9337

> <b_lp_Chiralities_Consistent>
1

> <s_lp_Variant>
AV-unprocessed.smi:1211-4

> <Gold.Version>
5.8.1

> <Gold.Id.Protein>
6NUR|6NUR_protein|mol2

> <Gold.PLP.Fitness>
41.3528

> <Gold.PLP.PLP>
-33.3457

> <Gold.PLP.part.hbond>
-3.0000

> <Gold.PLP.part.metal>
0.0000

> <Gold.PLP.part.buried>
-6.3483

> <Gold.PLP.part.nonpolar>
-23.9935

> <Gold.PLP.part.repulsive>
0.2499

> <Gold.PLP.ligand.clash>
0.0000

> <Gold.PLP.ligand.torsion>
0.5668

> <Gold.PLP.Chemscore.Hbond>
3.0000

> <Gold.PLP.Chemscore.CHOScore>
0.0000

> <Gold.PLP.Chemscore.Metal>
0.0000

> <Gold.Chemscore.Hbonds>
donor molecule, donor type, donor heavy atom, donor atom, acceptor molecule, acceptor atom, score
      L1  H     8    30       P1  7948  0.99
      L1  H    11    31       P1  7948  1.00
      P1  H  7989  7998       L1    17  1.00

> <Gold.PLP.Chemscore.Internal.Correction>
0.1406

> <Gold.Rescore>
     Score         DG    S(hbond)    S(metal)    S(lipo)     H(rot)  DE(clash)    DE(int)     intcor
     16.06     -16.85       1.94        0.00      74.36       1.48       0.03       0.76       ----

> <Gold.Chemscore.Fitness>
16.0608

> <Gold.Chemscore.DG>
-16.8515

> <Gold.Chemscore.ZeroCoef>
-5.4800

> <Gold.Chemscore.Hbond>
1.9358

> <Gold.Chemscore.Metal>
0.0000

> <Gold.Chemscore.Lipo>
74.3556

> <Gold.Chemscore.Internal_Hbond>
0.0000

> <Gold.Chemscore.DEClash>
0.0285

> <Gold.Chemscore.DEInternal>
0.7622

> <Gold.Chemscore.Rot>
1.4820

> <Gold.Chemscore.Internal.Correction>
   9.000000E+99

> <Gold.Chemscore.Hbonds>
donor molecule, donor type, donor heavy atom, donor atom, acceptor molecule, acceptor atom, score
      L1  H     8    30       P1  7948  0.56
      L1  H    11    31       P1  7948  0.55
      P1  H  7989  7998       L1    17  0.27

> <Gold.Chemscore.Hbond.Weighted>
-6.4657

> <Gold.Chemscore.Metal.Weighted>
-0.0000

> <Gold.Chemscore.Lipo.Weighted>
-8.6996

> <Gold.Chemscore.Internal_Hbond.Weighted>
0.0000

> <Gold.Chemscore.DEClash.Weighted>
0.0285

> <Gold.Chemscore.DEInternal.Weighted>
0.7622

> <Gold.Chemscore.Rot.Weighted>
3.7939

> <Gold.Chemscore.Internal.Correction.Weighted>
   9.000000E+99

> <Gold.Protein.RotatedTorsions>
[ 6907 6896 6895 6894 ] final -161.52 input  -60.11 | X-H torsion
[ 7974 7965 7964 7962 ] final   92.05 input  175.53 | X-H torsion
[ 8008 7997 7996 7995 ] final  106.77 input   59.86 | X-H torsion
[ 10167 10162 10161 10158 ] final   64.86 input  -65.29 | X-H torsion
[ 10718 10713 10712 10709 ] final  127.73 input   66.30 | X-H torsion
[ 10763 10752 10751 10750 ] final   63.62 input  -60.55 | X-H torsion
[ 11005 11000 10999 10996 ] final    1.89 input  -57.11 | X-H torsion

> <Gold.Protein.ActiveResidues>
 VAL166  LYS551  ARG553  GLY616  TRP617  ASP618  TYR619  PRO620  LYS621  CYS622 
 ASP623  PHE694  ASN695  SER759  ASP760  ASP761  ALA762  ILE779  LEU786  VAL792 
 PHE793  MET794  SER795  GLU796  ALA797  LYS798  CYS799  TRP800  GLU811  SER814 

> <Gold.Protein.RotatedAtoms>
  151.3659  133.3872  159.2694 H   0  0  0  0  0  0  0  0  0  0  0  0  # atno 6907 bound_to 6896
  150.9689  134.9066  159.7786 H   0  0  0  0  0  0  0  0  0  0  0  0  # atno 6908 bound_to 6896
  152.5177  134.3620  159.9340 H   0  0  0  0  0  0  0  0  0  0  0  0  # atno 6909 bound_to 6896
  145.4974  139.2276  143.2796 H   0  0  0  0  0  0  0  0  0  0  0  0  # atno 7974 bound_to 7965
  156.1770  140.3107  155.9078 H   0  0  0  0  0  0  0  0  0  0  0  0  # atno 8008 bound_to 7997
  155.3466  140.0468  157.3062 H   0  0  0  0  0  0  0  0  0  0  0  0  # atno 8009 bound_to 7997
  154.5301  140.2227  155.8830 H   0  0  0  0  0  0  0  0  0  0  0  0  # atno 8010 bound_to 7997
  140.1175  144.4761  150.6940 H   0  0  0  0  0  0  0  0  0  0  0  0  # atno 10167 bound_to 10162
  157.5307  131.1098  150.9013 H   0  0  0  0  0  0  0  0  0  0  0  0  # atno 10718 bound_to 10713
  153.0025  135.5422  154.6381 H   0  0  0  0  0  0  0  0  0  0  0  0  # atno 10763 bound_to 10752
  154.5643  135.2836  155.0891 H   0  0  0  0  0  0  0  0  0  0  0  0  # atno 10764 bound_to 10752
  154.2082  135.6472  153.5160 H   0  0  0  0  0  0  0  0  0  0  0  0  # atno 10765 bound_to 10752
  140.6104  133.9754  155.8174 H   0  0  0  0  0  0  0  0  0  0  0  0  # atno 11005 bound_to 11000
  146.2247  140.5773  142.9002 LP  0  0  0  0  0  0  0  0  0  0  0  0  # atno 17320 bound_to 7965
  144.7799  140.5818  143.6612 LP  0  0  0  0  0  0  0  0  0  0  0  0  # atno 17321 bound_to 7965
  140.6891  143.2366  151.5181 LP  0  0  0  0  0  0  0  0  0  0  0  0  # atno 17342 bound_to 10162
  139.5586  144.2213  152.1654 LP  0  0  0  0  0  0  0  0  0  0  0  0  # atno 17343 bound_to 10162
  156.9595  130.5450  149.5285 LP  0  0  0  0  0  0  0  0  0  0  0  0  # atno 17370 bound_to 10713
  156.0420  130.5502  150.8794 LP  0  0  0  0  0  0  0  0  0  0  0  0  # atno 17371 bound_to 10713
  141.0812  134.0059  157.3383 LP  0  0  0  0  0  0  0  0  0  0  0  0  # atno 17394 bound_to 11000
  139.9195  135.0199  156.8009 LP  0  0  0  0  0  0  0  0  0  0  0  0  # atno 17395 bound_to 11000

$$$$
