AV-unprocessed.smi:2079|AV-procd|sdf|8485|dock4
  -GOLD-   2272011193D 1   1.00000     0.00000
 Structure written by MMmdl.
 41 42  0  0  0  0  0  0  0  0  3 V2000
  147.5882  136.1198  162.9679 C   0  0  0  0  0  0  0  0  0  0  0  0
  147.7521  136.0352  161.4892 C   0  0  0  0  0  0  0  0  0  0  0  0
  147.7568  134.9877  160.6118 C   0  0  0  0  0  0  0  0  0  0  0  0
  147.9553  135.6213  159.3560 C   0  0  0  0  0  0  0  0  0  0  0  0
  148.0184  134.8566  158.1609 N   0  0  0  0  0  0  0  0  0  0  0  0
  149.0669  134.6604  157.3406 C   0  0  0  0  0  0  0  0  0  0  0  0
  150.1651  135.1691  157.5965 O   0  0  0  0  0  0  0  0  0  0  0  0
  148.7492  133.8724  156.2759 N   0  5  0  0  0  0  0  0  0  0  0  0
  149.3999  133.9342  154.9680 C   0  0  0  0  0  0  0  0  0  0  0  0
  148.6252  133.0836  153.9405 C   0  0  0  0  0  0  0  0  0  0  0  0
  147.7031  133.9117  153.1167 N   0  3  2  0  0  0  0  0  0  0  0  0
  146.7739  134.7670  153.9107 C   0  0  0  0  0  0  0  0  0  0  0  0
  146.0292  135.7598  153.0032 C   0  0  0  0  0  0  0  0  0  0  0  0
  145.2849  135.0319  151.8768 C   0  0  0  0  0  0  0  0  0  0  0  0
  146.2535  134.1252  151.1024 C   0  0  0  0  0  0  0  0  0  0  0  0
  147.0087  133.1533  152.0333 C   0  0  2  0  0  0  0  0  0  0  0  0
  146.1011  132.0217  152.5636 C   0  0  0  0  0  0  0  0  0  0  0  0
  148.0658  136.9374  159.4597 N   0  0  0  0  0  0  0  0  0  0  0  0
  147.9352  137.2093  160.8267 O   0  0  0  0  0  0  0  0  0  0  0  0
  147.6197  135.1287  163.4208 H   0  0  0  0  0  0  0  0  0  0  0  0
  146.6335  136.5791  163.2237 H   0  0  0  0  0  0  0  0  0  0  0  0
  148.3829  136.7195  163.4118 H   0  0  0  0  0  0  0  0  0  0  0  0
  147.6344  133.9380  160.8337 H   0  0  0  0  0  0  0  0  0  0  0  0
  147.1567  134.4108  157.8828 H   0  0  0  0  0  0  0  0  0  0  0  0
  149.4497  134.9620  154.6083 H   0  0  0  0  0  0  0  0  0  0  0  0
  150.4352  133.5920  155.0057 H   0  0  0  0  0  0  0  0  0  0  0  0
  149.3554  132.5976  153.2917 H   0  0  0  0  0  0  0  0  0  0  0  0
  148.0715  132.2806  154.4300 H   0  0  0  0  0  0  0  0  0  0  0  0
  146.0655  134.1456  154.4591 H   0  0  0  0  0  0  0  0  0  0  0  0
  147.3299  135.3294  154.6612 H   0  0  0  0  0  0  0  0  0  0  0  0
  145.3274  136.3504  153.5931 H   0  0  0  0  0  0  0  0  0  0  0  0
  146.7417  136.4653  152.5737 H   0  0  0  0  0  0  0  0  0  0  0  0
  144.4684  134.4418  152.2932 H   0  0  0  0  0  0  0  0  0  0  0  0
  144.8277  135.7557  151.2016 H   0  0  0  0  0  0  0  0  0  0  0  0
  145.7149  133.5721  150.3321 H   0  0  0  0  0  0  0  0  0  0  0  0
  146.9772  134.7488  150.5755 H   0  0  0  0  0  0  0  0  0  0  0  0
  147.7849  132.6820  151.4283 H   0  0  0  0  0  0  0  0  0  0  0  0
  145.6468  131.4754  151.7368 H   0  0  0  0  0  0  0  0  0  0  0  0
  145.2894  132.3955  153.1866 H   0  0  0  0  0  0  0  0  0  0  0  0
  146.6606  131.2961  153.1538 H   0  0  0  0  0  0  0  0  0  0  0  0
  148.3128  134.5526  152.6290 H   0  0  0  0  0  0  0  0  0  0  0  0
  1  2  1  0  0  0  0
  1 20  1  0  0  0  0
  1 21  1  0  0  0  0
  1 22  1  0  0  0  0
  2 19  1  0  0  0  0
  2  3  2  0  0  0  0
  3  4  1  0  0  0  0
  3 23  1  0  0  0  0
  4  5  1  0  0  0  0
  4 18  2  0  0  0  0
  5  6  1  0  0  0  0
  5 24  1  0  0  0  0
  6  7  2  0  0  0  0
  6  8  1  0  0  0  0
  8  9  1  0  0  0  0
  9 10  1  0  0  0  0
  9 25  1  0  0  0  0
  9 26  1  0  0  0  0
 10 11  1  0  0  0  0
 10 27  1  0  0  0  0
 10 28  1  0  0  0  0
 11 16  1  0  0  0  0
 11 12  1  0  0  0  0
 11 41  1  0  0  0  0
 12 13  1  0  0  0  0
 12 29  1  0  0  0  0
 12 30  1  0  0  0  0
 13 14  1  0  0  0  0
 13 31  1  0  0  0  0
 13 32  1  0  0  0  0
 14 15  1  0  0  0  0
 14 33  1  0  0  0  0
 14 34  1  0  0  0  0
 15 16  1  0  0  0  0
 15 35  1  0  0  0  0
 15 36  1  0  0  0  0
 16 17  1  0  0  0  0
 16 37  1  0  0  0  0
 17 38  1  0  0  0  0
 17 39  1  0  0  0  0
 17 40  1  0  0  0  0
 18 19  1  0  0  0  0
M  CHG  1   8  -1
M  CHG  1  11   1
M  END
> <s_m_source_file>
AV-unprocessed.smi

> <i_m_source_file_index>
2079

> <i_lp_mmshare_version>
43012

> <i_f3d_flags>
0

> <s_epik_input>
W0NIM11jMVtjSF1jKG5vMSlbTkhdQyg9TylbTkhdW0NIMl1bQ0gyXU4yW0NIMl1bQ0gyXVtDSDJdW0NIMl1bQ0BIXTJbQ0gzXQ==

> <s_epik_cmdline>
J2VwaWtfcHl0aG9uJywgJy1waCcsICc3LjAnLCAnLXRuJywgJzgnLCAnLW1hJywgJzIwMCcsICctbWV0YWxfYmluZGluZycsICctaW1hZScsICc8aW5maWxlLm1hZT4nLCAnLW9tYWUnLCAnPG91dGZpbGUubWFlPic=

> <r_epik_Ionization_Penalty>
6.7666

> <r_epik_Ionization_Penalty_Charging>
6.7666

> <r_epik_Ionization_Penalty_Neutral>
5.77131e-06

> <r_epik_State_Penalty>
6.79217

> <r_epik_Charging_Adjusted_Penalty>
13.5588

> <i_epik_Tot_Q>
0

> <i_epik_Tot_abs_Q>
2

> <r_epik_Metal_State_Penalty>
2.72569

> <b_epik_Metal_Only>
1

> <s_lp_Force_Field>
OPLS_2005

> <r_lp_Energy>
14.7709

> <b_lp_Chiralities_Consistent>
1

> <s_lp_Variant>
AV-unprocessed.smi:2079-11

> <Gold.Version>
5.8.1

> <Gold.Id.Protein>
6NUR|6NUR_protein|mol2

> <Gold.PLP.Fitness>
41.0929

> <Gold.PLP.PLP>
-29.6278

> <Gold.PLP.part.hbond>
-4.0000

> <Gold.PLP.part.metal>
0.0000

> <Gold.PLP.part.buried>
-4.5433

> <Gold.PLP.part.nonpolar>
-22.5679

> <Gold.PLP.part.repulsive>
0.0518

> <Gold.PLP.ligand.clash>
0.0000

> <Gold.PLP.ligand.torsion>
1.1268

> <Gold.PLP.Chemscore.Hbond>
4.5299

> <Gold.PLP.Chemscore.CHOScore>
0.0000

> <Gold.PLP.Chemscore.Metal>
0.0000

> <Gold.Chemscore.Hbonds>
donor molecule, donor type, donor heavy atom, donor atom, acceptor molecule, acceptor atom, score
      L1  H    11    41       P1  7948  2.00
      P1  H  6896  6908       L1     7  0.63
      P1  H  6931  6943       L1    19  0.86
      P1  H  6934  6947       L1    19  0.78

> <Gold.PLP.Chemscore.Internal.Correction>
0.1291

> <Gold.Rescore>
     Score         DG    S(hbond)    S(metal)    S(lipo)     H(rot)  DE(clash)    DE(int)     intcor
     17.05     -18.03       2.87        0.00      59.07       1.54       0.00       0.98       ----

> <Gold.Chemscore.Fitness>
17.0513

> <Gold.Chemscore.DG>
-18.0292

> <Gold.Chemscore.ZeroCoef>
-5.4800

> <Gold.Chemscore.Hbond>
2.8691

> <Gold.Chemscore.Metal>
0.0000

> <Gold.Chemscore.Lipo>
59.0671

> <Gold.Chemscore.Internal_Hbond>
0.0000

> <Gold.Chemscore.DEClash>
0.0000

> <Gold.Chemscore.DEInternal>
0.9778

> <Gold.Chemscore.Rot>
1.5409

> <Gold.Chemscore.Internal.Correction>
   9.000000E+99

> <Gold.Chemscore.Hbonds>
donor molecule, donor type, donor heavy atom, donor atom, acceptor molecule, acceptor atom, score
      L1  H    11    41       P1  7948  0.25
      P1  H  6896  6908       L1     7  0.21
      P1  H  6931  6943       L1    19  0.51
      P1  H  6934  6947       L1    19  0.38

> <Gold.Chemscore.Hbond.Weighted>
-9.5830

> <Gold.Chemscore.Metal.Weighted>
-0.0000

> <Gold.Chemscore.Lipo.Weighted>
-6.9108

> <Gold.Chemscore.Internal_Hbond.Weighted>
0.0000

> <Gold.Chemscore.DEClash.Weighted>
0.0000

> <Gold.Chemscore.DEInternal.Weighted>
0.9778

> <Gold.Chemscore.Rot.Weighted>
3.9446

> <Gold.Chemscore.Internal.Correction.Weighted>
   9.000000E+99

> <Gold.Protein.RotatedTorsions>
[ 6907 6896 6895 6894 ] final  146.88 input  -60.11 | X-H torsion
[ 7974 7965 7964 7962 ] final  -84.32 input  175.53 | X-H torsion
[ 8008 7997 7996 7995 ] final   80.27 input   59.86 | X-H torsion
[ 10167 10162 10161 10158 ] final  -44.52 input  -65.29 | X-H torsion
[ 10718 10713 10712 10709 ] final -140.58 input   66.30 | X-H torsion
[ 10763 10752 10751 10750 ] final   34.27 input  -60.55 | X-H torsion
[ 11005 11000 10999 10996 ] final -131.61 input  -57.11 | X-H torsion

> <Gold.Protein.ActiveResidues>
 VAL166  LYS551  ARG553  GLY616  TRP617  ASP618  TYR619  PRO620  LYS621  CYS622 
 ASP623  PHE694  ASN695  SER759  ASP760  ASP761  ALA762  ILE779  LEU786  VAL792 
 PHE793  MET794  SER795  GLU796  ALA797  LYS798  CYS799  TRP800  GLU811  SER814 

> <Gold.Protein.RotatedAtoms>
  152.1622  133.4589  159.4866 H   0  0  0  0  0  0  0  0  0  0  0  0  # atno 6907 bound_to 6896
  150.6908  134.2058  159.4349 H   0  0  0  0  0  0  0  0  0  0  0  0  # atno 6908 bound_to 6896
  151.9961  134.9953  160.0614 H   0  0  0  0  0  0  0  0  0  0  0  0  # atno 6909 bound_to 6896
  145.5082  140.9542  143.1722 H   0  0  0  0  0  0  0  0  0  0  0  0  # atno 7974 bound_to 7965
  155.8811  140.3444  155.5888 H   0  0  0  0  0  0  0  0  0  0  0  0  # atno 8008 bound_to 7997
  155.7718  140.0846  157.2123 H   0  0  0  0  0  0  0  0  0  0  0  0  # atno 8009 bound_to 7997
  154.4024  140.1517  156.2938 H   0  0  0  0  0  0  0  0  0  0  0  0  # atno 8010 bound_to 7997
  140.6894  143.2926  151.3507 H   0  0  0  0  0  0  0  0  0  0  0  0  # atno 10167 bound_to 10162
  156.3240  130.7550  151.1654 H   0  0  0  0  0  0  0  0  0  0  0  0  # atno 10718 bound_to 10713
  153.0172  135.6365  154.1642 H   0  0  0  0  0  0  0  0  0  0  0  0  # atno 10763 bound_to 10752
  154.1380  135.2836  155.3170 H   0  0  0  0  0  0  0  0  0  0  0  0  # atno 10764 bound_to 10752
  154.6146  135.5545  153.7571 H   0  0  0  0  0  0  0  0  0  0  0  0  # atno 10765 bound_to 10752
  140.9243  134.1403  157.4288 H   0  0  0  0  0  0  0  0  0  0  0  0  # atno 11005 bound_to 11000
  144.7742  139.6667  143.7182 LP  0  0  0  0  0  0  0  0  0  0  0  0  # atno 17320 bound_to 7965
  146.2183  139.5589  142.9635 LP  0  0  0  0  0  0  0  0  0  0  0  0  # atno 17321 bound_to 7965
  139.6281  144.0774  152.2452 LP  0  0  0  0  0  0  0  0  0  0  0  0  # atno 17342 bound_to 10162
  140.0240  144.6132  150.7543 LP  0  0  0  0  0  0  0  0  0  0  0  0  # atno 17343 bound_to 10162
  157.7417  131.0499  150.5074 LP  0  0  0  0  0  0  0  0  0  0  0  0  # atno 17370 bound_to 10713
  156.5231  130.4166  149.6240 LP  0  0  0  0  0  0  0  0  0  0  0  0  # atno 17371 bound_to 10713
  139.8782  134.9982  156.5890 LP  0  0  0  0  0  0  0  0  0  0  0  0  # atno 17394 bound_to 11000
  140.7947  133.8554  155.8675 LP  0  0  0  0  0  0  0  0  0  0  0  0  # atno 17395 bound_to 11000

$$$$
