AV-unprocessed.smi:1112|AV-procd|sdf|4796|dock2
  -GOLD-   22720 3343D 1   1.00000     0.00000
 Structure written by MMmdl.
 49 51  0  0  0  0  0  0  0  0  1 V2000
  145.0561  138.1744  152.6777 O   0  0  0  0  0  0  0  0  0  0  0  0
  146.1375  137.6619  152.3901 C   0  0  0  0  0  0  0  0  0  0  0  0
  146.2589  136.4948  151.7413 N   0  0  0  0  0  0  0  0  0  0  0  0
  145.1583  135.6717  151.2414 C   0  0  0  0  0  0  0  0  0  0  0  0
  145.0823  134.2827  151.9311 C   0  0  0  0  0  0  0  0  0  0  0  0
  144.8554  134.5316  153.3058 O   0  0  0  0  0  0  0  0  0  0  0  0
  143.8614  133.4704  151.4351 C   0  0  0  0  0  0  0  0  0  0  0  0
  144.0560  132.9080  150.0138 C   0  0  0  0  0  0  0  0  0  0  0  0
  145.3501  132.0867  149.9038 C   0  0  0  0  0  0  0  0  0  0  0  0
  146.5681  132.8968  150.3723 C   0  0  0  0  0  0  0  0  0  0  0  0
  146.3643  133.4222  151.8034 C   0  0  0  0  0  0  0  0  0  0  0  0
  147.3424  138.1765  152.6875 N   0  0  0  0  0  0  0  0  0  0  0  0
  147.6500  139.3996  153.3513 C   0  0  0  0  0  0  0  0  0  0  0  0
  146.8644  140.5707  153.2154 C   0  0  0  0  0  0  0  0  0  0  0  0
  147.2550  141.7419  153.8902 C   0  0  0  0  0  0  0  0  0  0  0  0
  148.4238  141.7057  154.6710 C   0  0  0  0  0  0  0  0  0  0  0  0
  149.1913  140.6046  154.7992 N   0  0  0  0  0  0  0  0  0  0  0  0
  148.8190  139.4727  154.1523 C   0  0  0  0  0  0  0  0  0  0  0  0
  149.6388  138.3393  154.2995 N   0  0  0  0  0  0  0  0  0  0  0  0
  149.0657  137.2456  155.0662 C   0  0  0  0  0  0  0  0  0  0  0  0
  150.2416  136.3257  155.4029 C   0  0  0  0  0  0  0  0  0  0  0  0
  151.4843  137.2174  155.2901 C   0  0  0  0  0  0  0  0  0  0  0  0
  150.9489  138.5909  154.8763 C   0  0  0  0  0  0  0  0  0  0  0  0
  147.1904  136.1530  151.5556 H   0  0  0  0  0  0  0  0  0  0  0  0
  144.2274  136.2192  151.3947 H   0  0  0  0  0  0  0  0  0  0  0  0
  145.2466  135.5517  150.1619 H   0  0  0  0  0  0  0  0  0  0  0  0
  145.5507  134.1275  153.8024 H   0  0  0  0  0  0  0  0  0  0  0  0
  143.6829  132.6319  152.1105 H   0  0  0  0  0  0  0  0  0  0  0  0
  142.9583  134.0814  151.4699 H   0  0  0  0  0  0  0  0  0  0  0  0
  143.2027  132.2851  149.7452 H   0  0  0  0  0  0  0  0  0  0  0  0
  144.0756  133.7196  149.2868 H   0  0  0  0  0  0  0  0  0  0  0  0
  145.2609  131.1825  150.5072 H   0  0  0  0  0  0  0  0  0  0  0  0
  145.4952  131.7575  148.8745 H   0  0  0  0  0  0  0  0  0  0  0  0
  147.4634  132.2761  150.3305 H   0  0  0  0  0  0  0  0  0  0  0  0
  146.7404  133.7285  149.6892 H   0  0  0  0  0  0  0  0  0  0  0  0
  147.2474  133.9711  152.1308 H   0  0  0  0  0  0  0  0  0  0  0  0
  146.2909  132.5647  152.4744 H   0  0  0  0  0  0  0  0  0  0  0  0
  148.1388  137.5950  152.4703 H   0  0  0  0  0  0  0  0  0  0  0  0
  145.9810  140.5999  152.5968 H   0  0  0  0  0  0  0  0  0  0  0  0
  146.6750  142.6490  153.8062 H   0  0  0  0  0  0  0  0  0  0  0  0
  148.7559  142.5863  155.2007 H   0  0  0  0  0  0  0  0  0  0  0  0
  148.6074  137.6170  155.9838 H   0  0  0  0  0  0  0  0  0  0  0  0
  148.2986  136.7240  154.4932 H   0  0  0  0  0  0  0  0  0  0  0  0
  150.1351  135.8841  156.3943 H   0  0  0  0  0  0  0  0  0  0  0  0
  150.3031  135.5109  154.6806 H   0  0  0  0  0  0  0  0  0  0  0  0
  152.0413  137.2715  156.2258 H   0  0  0  0  0  0  0  0  0  0  0  0
  152.1557  136.8248  154.5257 H   0  0  0  0  0  0  0  0  0  0  0  0
  151.6073  139.0782  154.1565 H   0  0  0  0  0  0  0  0  0  0  0  0
  150.8652  139.2397  155.7494 H   0  0  0  0  0  0  0  0  0  0  0  0
  1  2  2  0  0  0  0
  2  3  1  0  0  0  0
  2 12  1  0  0  0  0
  3  4  1  0  0  0  0
  3 24  1  0  0  0  0
  4  5  1  0  0  0  0
  4 25  1  0  0  0  0
  4 26  1  0  0  0  0
  5 11  1  0  0  0  0
  5  6  1  0  0  0  0
  5  7  1  0  0  0  0
  6 27  1  0  0  0  0
  7  8  1  0  0  0  0
  7 28  1  0  0  0  0
  7 29  1  0  0  0  0
  8  9  1  0  0  0  0
  8 30  1  0  0  0  0
  8 31  1  0  0  0  0
  9 10  1  0  0  0  0
  9 32  1  0  0  0  0
  9 33  1  0  0  0  0
 10 11  1  0  0  0  0
 10 34  1  0  0  0  0
 10 35  1  0  0  0  0
 11 36  1  0  0  0  0
 11 37  1  0  0  0  0
 12 13  1  0  0  0  0
 12 38  1  0  0  0  0
 13 18  1  0  0  0  0
 13 14  2  0  0  0  0
 14 15  1  0  0  0  0
 14 39  1  0  0  0  0
 15 16  2  0  0  0  0
 15 40  1  0  0  0  0
 16 17  1  0  0  0  0
 16 41  1  0  0  0  0
 17 18  2  0  0  0  0
 18 19  1  0  0  0  0
 19 23  1  0  0  0  0
 19 20  1  0  0  0  0
 20 21  1  0  0  0  0
 20 42  1  0  0  0  0
 20 43  1  0  0  0  0
 21 22  1  0  0  0  0
 21 44  1  0  0  0  0
 21 45  1  0  0  0  0
 22 23  1  0  0  0  0
 22 46  1  0  0  0  0
 22 47  1  0  0  0  0
 23 48  1  0  0  0  0
 23 49  1  0  0  0  0
M  END
> <s_m_source_file>
AV-unprocessed.smi

> <i_m_source_file_index>
1112

> <i_lp_mmshare_version>
43012

> <i_f3d_flags>
0

> <s_epik_input>
W0NIMl0xW0NIMl1bQ0gyXVtDSDJdW0NIMl1DMShbT0hdKVtDSDJdW05IXUMoPU8pW05IXWMyW2NIXVtjSF1bY0hdbmMyTjNbQ0gyXVtDSDJdW0NIMl1bQ0gyXTM=

> <s_epik_cmdline>
J2VwaWtfcHl0aG9uJywgJy1waCcsICc3LjAnLCAnLXRuJywgJzgnLCAnLW1hJywgJzIwMCcsICctbWV0YWxfYmluZGluZycsICctaW1hZScsICc8aW5maWxlLm1hZT4nLCAnLW9tYWUnLCAnPG91dGZpbGUubWFlPic=

> <r_lp_tautomer_probability>
1

> <r_epik_Ionization_Penalty>
0.100401

> <r_epik_Ionization_Penalty_Charging>
0

> <r_epik_Ionization_Penalty_Neutral>
0.100401

> <r_epik_State_Penalty>
0.0898606

> <r_epik_Charging_Adjusted_Penalty>
0.0898606

> <i_epik_Tot_Q>
0

> <i_epik_Tot_abs_Q>
0

> <r_epik_Metal_State_Penalty>
0.0767935

> <b_epik_Metal_Only>
0

> <s_lp_Force_Field>
OPLS_2005

> <r_lp_Energy>
45.6108

> <b_lp_Chiralities_Consistent>
1

> <s_lp_Variant>
AV-unprocessed.smi:1112-1

> <Gold.Version>
5.8.1

> <Gold.Id.Protein>
6NUR|6NUR_protein|mol2

> <Gold.PLP.Fitness>
46.2045

> <Gold.PLP.PLP>
-38.1131

> <Gold.PLP.part.hbond>
-2.3649

> <Gold.PLP.part.metal>
0.0000

> <Gold.PLP.part.buried>
-1.7355

> <Gold.PLP.part.nonpolar>
-37.2582

> <Gold.PLP.part.repulsive>
3.9587

> <Gold.PLP.ligand.clash>
0.0000

> <Gold.PLP.ligand.torsion>
0.4701

> <Gold.PLP.Chemscore.Hbond>
2.0000

> <Gold.PLP.Chemscore.CHOScore>
1.0000

> <Gold.PLP.Chemscore.Metal>
0.0000

> <Gold.Chemscore.Hbonds>
donor molecule, donor type, donor heavy atom, donor atom, acceptor molecule, acceptor atom, score
      L1  H     3    24       P1  7948  1.00
      L1  H    12    38       P1  7948  1.00
      L1  C    16    41       P1  8028  1.00

> <Gold.PLP.Chemscore.Internal.Correction>
0.0316

> <Gold.Rescore>
     Score         DG    S(hbond)    S(metal)    S(lipo)     H(rot)  DE(clash)    DE(int)     intcor
     15.88     -19.04       1.93        0.00     101.95       1.89       1.88       1.27       ----

> <Gold.Chemscore.Fitness>
15.8848

> <Gold.Chemscore.DG>
-19.0356

> <Gold.Chemscore.ZeroCoef>
-5.4800

> <Gold.Chemscore.Hbond>
1.9334

> <Gold.Chemscore.Metal>
0.0000

> <Gold.Chemscore.Lipo>
101.9471

> <Gold.Chemscore.Internal_Hbond>
0.0000

> <Gold.Chemscore.DEClash>
1.8843

> <Gold.Chemscore.DEInternal>
1.2665

> <Gold.Chemscore.Rot>
1.8866

> <Gold.Chemscore.Internal.Correction>
   9.000000E+99

> <Gold.Chemscore.Hbonds>
donor molecule, donor type, donor heavy atom, donor atom, acceptor molecule, acceptor atom, score
      L1  H     3    24       P1  7948  0.95
      L1  H    12    38       P1  7948  0.99

> <Gold.Chemscore.Hbond.Weighted>
-6.4575

> <Gold.Chemscore.Metal.Weighted>
-0.0000

> <Gold.Chemscore.Lipo.Weighted>
-11.9278

> <Gold.Chemscore.Internal_Hbond.Weighted>
0.0000

> <Gold.Chemscore.DEClash.Weighted>
1.8843

> <Gold.Chemscore.DEInternal.Weighted>
1.2665

> <Gold.Chemscore.Rot.Weighted>
4.8297

> <Gold.Chemscore.Internal.Correction.Weighted>
   9.000000E+99

> <Gold.Protein.RotatedTorsions>
[ 6907 6896 6895 6894 ] final   82.13 input  -60.11 | X-H torsion
[ 7974 7965 7964 7962 ] final  130.03 input  175.53 | X-H torsion
[ 8008 7997 7996 7995 ] final  145.59 input   59.86 | X-H torsion
[ 10167 10162 10161 10158 ] final    2.23 input  -65.29 | X-H torsion
[ 10718 10713 10712 10709 ] final  106.87 input   66.30 | X-H torsion
[ 10763 10752 10751 10750 ] final   89.70 input  -60.55 | X-H torsion
[ 11005 11000 10999 10996 ] final  171.01 input  -57.11 | X-H torsion

> <Gold.Protein.ActiveResidues>
 VAL166  LYS551  ARG553  GLY616  TRP617  ASP618  TYR619  PRO620  LYS621  CYS622 
 ASP623  PHE694  ASN695  SER759  ASP760  ASP761  ALA762  ILE779  LEU786  VAL792 
 PHE793  MET794  SER795  GLU796  ALA797  LYS798  CYS799  TRP800  GLU811  SER814 

> <Gold.Protein.RotatedAtoms>
  152.5290  134.3097  159.9108 H   0  0  0  0  0  0  0  0  0  0  0  0  # atno 6907 bound_to 6896
  151.3047  133.4100  159.2650 H   0  0  0  0  0  0  0  0  0  0  0  0  # atno 6908 bound_to 6896
  151.0089  134.9398  159.8053 H   0  0  0  0  0  0  0  0  0  0  0  0  # atno 6909 bound_to 6896
  145.0223  139.4121  143.5191 H   0  0  0  0  0  0  0  0  0  0  0  0  # atno 7974 bound_to 7965
  156.2879  140.2205  156.5240 H   0  0  0  0  0  0  0  0  0  0  0  0  # atno 8008 bound_to 7997
  154.7505  140.0481  157.0911 H   0  0  0  0  0  0  0  0  0  0  0  0  # atno 8009 bound_to 7997
  155.0116  140.3113  155.4830 H   0  0  0  0  0  0  0  0  0  0  0  0  # atno 8010 bound_to 7997
  140.6645  143.7216  150.7801 H   0  0  0  0  0  0  0  0  0  0  0  0  # atno 10167 bound_to 10162
  157.6651  131.0860  150.6071 H   0  0  0  0  0  0  0  0  0  0  0  0  # atno 10718 bound_to 10713
  153.1899  135.4460  155.0135 H   0  0  0  0  0  0  0  0  0  0  0  0  # atno 10763 bound_to 10752
  154.8083  135.3284  154.7374 H   0  0  0  0  0  0  0  0  0  0  0  0  # atno 10764 bound_to 10752
  153.7830  135.6976  153.4940 H   0  0  0  0  0  0  0  0  0  0  0  0  # atno 10765 bound_to 10752
  140.3144  134.7489  157.4016 H   0  0  0  0  0  0  0  0  0  0  0  0  # atno 11005 bound_to 11000
  146.3487  139.9727  142.8704 LP  0  0  0  0  0  0  0  0  0  0  0  0  # atno 17320 bound_to 7965
  145.1880  140.9798  143.4227 LP  0  0  0  0  0  0  0  0  0  0  0  0  # atno 17321 bound_to 7965
  140.0890  143.4895  152.2489 LP  0  0  0  0  0  0  0  0  0  0  0  0  # atno 17342 bound_to 10162
  139.5889  144.7542  151.3449 LP  0  0  0  0  0  0  0  0  0  0  0  0  # atno 17343 bound_to 10162
  156.6372  130.4448  149.5765 LP  0  0  0  0  0  0  0  0  0  0  0  0  # atno 17370 bound_to 10713
  156.2236  130.6752  151.1393 LP  0  0  0  0  0  0  0  0  0  0  0  0  # atno 17371 bound_to 10713
  140.0996  134.5490  155.8365 LP  0  0  0  0  0  0  0  0  0  0  0  0  # atno 17394 bound_to 11000
  141.2101  133.6691  156.6484 LP  0  0  0  0  0  0  0  0  0  0  0  0  # atno 17395 bound_to 11000

$$$$
