AV-unprocessed.smi:2005|AV-procd|sdf|8128|dock3
  -GOLD-   2272010363D 1   1.00000     0.00000
 Structure written by MMmdl.
 38 39  0  0  0  0  0  0  0  0  2 V2000
  145.7941  134.2466  162.4458 C   0  0  0  0  0  0  0  0  0  0  0  0
  145.9529  135.7628  162.2593 C   0  0  0  0  0  0  0  0  0  0  0  0
  144.6318  136.4712  161.9255 C   0  0  0  0  0  0  0  0  0  0  0  0
  147.0369  136.1001  161.2837 C   0  0  0  0  0  0  0  0  0  0  0  0
  147.4106  137.3543  161.0111 N   0  0  0  0  0  0  0  0  0  0  0  0
  148.4320  137.4057  160.0744 N   0  0  0  0  0  0  0  0  0  0  0  0
  148.8101  136.1946  159.6418 C   0  0  0  0  0  0  0  0  0  0  0  0
  149.7848  136.0257  158.7332 N   0  5  0  0  0  0  0  0  0  0  0  0
  150.6463  137.0351  158.4708 C   0  0  0  0  0  0  0  0  0  0  0  0
  151.8064  137.1292  158.8787 O   0  0  0  0  0  0  0  0  0  0  0  0
  150.1314  137.9943  157.6874 N   0  0  0  0  0  0  0  0  0  0  0  0
  150.8196  139.2016  157.2377 C   0  0  2  0  0  0  0  0  0  0  0  0
  151.1515  140.0891  158.4509 C   0  0  0  0  0  0  0  0  0  0  0  0
  151.8407  141.3968  158.0227 C   0  0  0  0  0  0  0  0  0  0  0  0
  151.0207  142.1736  156.9752 C   0  0  2  0  0  0  0  0  0  0  0  0
  149.8584  142.7141  157.5727 O   0  0  0  0  0  0  0  0  0  0  0  0
  150.6363  141.2815  155.7796 C   0  0  0  0  0  0  0  0  0  0  0  0
  149.9556  139.9737  156.2204 C   0  0  0  0  0  0  0  0  0  0  0  0
  147.9252  134.8705  160.3982 S   0  0  0  0  0  0  0  0  0  0  0  0
  146.7320  133.7915  162.7655 H   0  0  0  0  0  0  0  0  0  0  0  0
  145.4881  133.7622  161.5177 H   0  0  0  0  0  0  0  0  0  0  0  0
  145.0424  134.0204  163.2024 H   0  0  0  0  0  0  0  0  0  0  0  0
  146.2753  136.1572  163.2238 H   0  0  0  0  0  0  0  0  0  0  0  0
  144.7669  137.5525  161.8814 H   0  0  0  0  0  0  0  0  0  0  0  0
  143.8734  136.2635  162.6807 H   0  0  0  0  0  0  0  0  0  0  0  0
  144.2393  136.1443  160.9619 H   0  0  0  0  0  0  0  0  0  0  0  0
  149.1788  137.8727  157.3762 H   0  0  0  0  0  0  0  0  0  0  0  0
  151.7599  138.9180  156.7607 H   0  0  0  0  0  0  0  0  0  0  0  0
  150.2381  140.3219  159.0004 H   0  0  0  0  0  0  0  0  0  0  0  0
  151.7964  139.5471  159.1438 H   0  0  0  0  0  0  0  0  0  0  0  0
  152.0318  142.0232  158.8948 H   0  0  0  0  0  0  0  0  0  0  0  0
  152.8178  141.1574  157.6013 H   0  0  0  0  0  0  0  0  0  0  0  0
  151.6118  143.0161  156.6146 H   0  0  0  0  0  0  0  0  0  0  0  0
  149.4796  143.3429  156.9775 H   0  0  0  0  0  0  0  0  0  0  0  0
  149.9901  141.8270  155.0911 H   0  0  0  0  0  0  0  0  0  0  0  0
  151.5378  141.0346  155.2176 H   0  0  0  0  0  0  0  0  0  0  0  0
  149.7611  139.3538  155.3447 H   0  0  0  0  0  0  0  0  0  0  0  0
  148.9820  140.1981  156.6587 H   0  0  0  0  0  0  0  0  0  0  0  0
  1  2  1  0  0  0  0
  1 20  1  0  0  0  0
  1 21  1  0  0  0  0
  1 22  1  0  0  0  0
  2  3  1  0  0  0  0
  2  4  1  0  0  0  0
  2 23  1  0  0  0  0
  3 24  1  0  0  0  0
  3 25  1  0  0  0  0
  3 26  1  0  0  0  0
  4 19  1  0  0  0  0
  4  5  2  0  0  0  0
  5  6  1  0  0  0  0
  6  7  2  0  0  0  0
  7  8  1  0  0  0  0
  7 19  1  0  0  0  0
  8  9  1  0  0  0  0
  9 10  2  0  0  0  0
  9 11  1  0  0  0  0
 11 12  1  0  0  0  0
 11 27  1  0  0  0  0
 12 18  1  0  0  0  0
 12 13  1  0  0  0  0
 12 28  1  0  0  0  0
 13 14  1  0  0  0  0
 13 29  1  0  0  0  0
 13 30  1  0  0  0  0
 14 15  1  0  0  0  0
 14 31  1  0  0  0  0
 14 32  1  0  0  0  0
 15 16  1  0  0  0  0
 15 17  1  0  0  0  0
 15 33  1  0  0  0  0
 16 34  1  0  0  0  0
 17 18  1  0  0  0  0
 17 35  1  0  0  0  0
 17 36  1  0  0  0  0
 18 37  1  0  0  0  0
 18 38  1  0  0  0  0
M  CHG  1   8  -1
M  END
> <s_m_source_file>
AV-unprocessed.smi

> <i_m_source_file_index>
2005

> <i_lp_mmshare_version>
43012

> <i_f3d_flags>
0

> <s_epik_input>
W0NIM11bQ0hdKFtDSDNdKWMxbm5jKHMxKVtOSF1DKD1PKVtOSF1bQ0BASF0yW0NIMl1bQ0gyXVtDQEBIXShbT0hdKVtDSDJdW0NIMl0y

> <s_epik_cmdline>
J2VwaWtfcHl0aG9uJywgJy1waCcsICc3LjAnLCAnLXRuJywgJzgnLCAnLW1hJywgJzIwMCcsICctbWV0YWxfYmluZGluZycsICctaW1hZScsICc8aW5maWxlLm1hZT4nLCAnLW9tYWUnLCAnPG91dGZpbGUubWFlPic=

> <r_lp_tautomer_probability>
1

> <r_epik_Ionization_Penalty>
4.58298

> <r_epik_Ionization_Penalty_Charging>
4.41114

> <r_epik_Ionization_Penalty_Neutral>
0.171842

> <r_epik_State_Penalty>
4.41079

> <r_epik_Charging_Adjusted_Penalty>
8.82193

> <i_epik_Tot_Q>
-1

> <i_epik_Tot_abs_Q>
1

> <r_epik_Metal_State_Penalty>
0.7766

> <b_epik_Metal_Only>
1

> <s_lp_Force_Field>
OPLS_2005

> <r_lp_Energy>
2.0831

> <b_lp_Chiralities_Consistent>
1

> <s_lp_Variant>
AV-unprocessed.smi:2005-4

> <Gold.Version>
5.8.1

> <Gold.Id.Protein>
6NUR|6NUR_protein|mol2

> <Gold.PLP.Fitness>
39.8155

> <Gold.PLP.PLP>
-30.7661

> <Gold.PLP.part.hbond>
-6.2689

> <Gold.PLP.part.metal>
0.0000

> <Gold.PLP.part.buried>
-2.9677

> <Gold.PLP.part.nonpolar>
-21.1403

> <Gold.PLP.part.repulsive>
0.0641

> <Gold.PLP.ligand.clash>
0.0000

> <Gold.PLP.ligand.torsion>
0.8493

> <Gold.PLP.Chemscore.Hbond>
3.5500

> <Gold.PLP.Chemscore.CHOScore>
0.0000

> <Gold.PLP.Chemscore.Metal>
0.0000

> <Gold.Chemscore.Hbonds>
donor molecule, donor type, donor heavy atom, donor atom, acceptor molecule, acceptor atom, score
      L1  H    16    34       P1  8028  1.00
      P1  H  6896  6909       L1     8  1.80
      P1  H  6934  6947       L1     5  0.60

> <Gold.PLP.Chemscore.Internal.Correction>
0.0980

> <Gold.Rescore>
     Score         DG    S(hbond)    S(metal)    S(lipo)     H(rot)  DE(clash)    DE(int)     intcor
     13.82     -14.88       1.84        0.00      64.88       1.70       0.16       0.89       ----

> <Gold.Chemscore.Fitness>
13.8172

> <Gold.Chemscore.DG>
-14.8764

> <Gold.Chemscore.ZeroCoef>
-5.4800

> <Gold.Chemscore.Hbond>
1.8411

> <Gold.Chemscore.Metal>
0.0000

> <Gold.Chemscore.Lipo>
64.8809

> <Gold.Chemscore.Internal_Hbond>
0.0000

> <Gold.Chemscore.DEClash>
0.1644

> <Gold.Chemscore.DEInternal>
0.8948

> <Gold.Chemscore.Rot>
1.6968

> <Gold.Chemscore.Internal.Correction>
   9.000000E+99

> <Gold.Chemscore.Hbonds>
donor molecule, donor type, donor heavy atom, donor atom, acceptor molecule, acceptor atom, score
      L1  H    16    34       P1  8028  0.94
      P1  H  6896  6909       L1     8  0.08
      P1  H  6934  6947       L1     5  0.04

> <Gold.Chemscore.Hbond.Weighted>
-6.1493

> <Gold.Chemscore.Metal.Weighted>
-0.0000

> <Gold.Chemscore.Lipo.Weighted>
-7.5911

> <Gold.Chemscore.Internal_Hbond.Weighted>
0.0000

> <Gold.Chemscore.DEClash.Weighted>
0.1644

> <Gold.Chemscore.DEInternal.Weighted>
0.8948

> <Gold.Chemscore.Rot.Weighted>
4.3439

> <Gold.Chemscore.Internal.Correction.Weighted>
   9.000000E+99

> <Gold.Protein.RotatedTorsions>
[ 6907 6896 6895 6894 ] final   65.07 input  -60.11 | X-H torsion
[ 7974 7965 7964 7962 ] final  130.18 input  175.53 | X-H torsion
[ 8008 7997 7996 7995 ] final   14.91 input   59.86 | X-H torsion
[ 10167 10162 10161 10158 ] final  109.11 input  -65.29 | X-H torsion
[ 10718 10713 10712 10709 ] final -166.69 input   66.30 | X-H torsion
[ 10763 10752 10751 10750 ] final   43.11 input  -60.55 | X-H torsion
[ 11005 11000 10999 10996 ] final  124.21 input  -57.11 | X-H torsion

> <Gold.Protein.ActiveResidues>
 VAL166  LYS551  ARG553  GLY616  TRP617  ASP618  TYR619  PRO620  LYS621  CYS622 
 ASP623  PHE694  ASN695  SER759  ASP760  ASP761  ALA762  ILE779  LEU786  VAL792 
 PHE793  MET794  SER795  GLU796  ALA797  LYS798  CYS799  TRP800  GLU811  SER814 

> <Gold.Protein.RotatedAtoms>
  152.4380  134.5649  159.9904 H   0  0  0  0  0  0  0  0  0  0  0  0  # atno 6907 bound_to 6896
  151.5754  133.3379  159.3006 H   0  0  0  0  0  0  0  0  0  0  0  0  # atno 6908 bound_to 6896
  150.8281  134.7556  159.6894 H   0  0  0  0  0  0  0  0  0  0  0  0  # atno 6909 bound_to 6896
  145.0207  139.4135  143.5199 H   0  0  0  0  0  0  0  0  0  0  0  0  # atno 7974 bound_to 7965
  154.8552  140.2936  155.5573 H   0  0  0  0  0  0  0  0  0  0  0  0  # atno 8008 bound_to 7997
  156.3018  140.2488  156.3449 H   0  0  0  0  0  0  0  0  0  0  0  0  # atno 8009 bound_to 7997
  154.8978  140.0392  157.1865 H   0  0  0  0  0  0  0  0  0  0  0  0  # atno 8010 bound_to 7997
  139.6792  144.7119  151.1545 H   0  0  0  0  0  0  0  0  0  0  0  0  # atno 10167 bound_to 10162
  156.6716  130.9086  151.3044 H   0  0  0  0  0  0  0  0  0  0  0  0  # atno 10718 bound_to 10713
  152.9868  135.6111  154.3059 H   0  0  0  0  0  0  0  0  0  0  0  0  # atno 10763 bound_to 10752
  154.2777  135.2778  155.2713 H   0  0  0  0  0  0  0  0  0  0  0  0  # atno 10764 bound_to 10752
  154.5066  135.5852  153.6629 H   0  0  0  0  0  0  0  0  0  0  0  0  # atno 10765 bound_to 10752
  139.9348  134.9640  156.8376 H   0  0  0  0  0  0  0  0  0  0  0  0  # atno 11005 bound_to 11000
  146.3485  139.9702  142.8707 LP  0  0  0  0  0  0  0  0  0  0  0  0  # atno 17320 bound_to 7965
  145.1900  140.9807  143.4216 LP  0  0  0  0  0  0  0  0  0  0  0  0  # atno 17321 bound_to 7965
  140.7646  143.5724  150.8981 LP  0  0  0  0  0  0  0  0  0  0  0  0  # atno 17342 bound_to 10162
  139.9395  143.6398  152.3057 LP  0  0  0  0  0  0  0  0  0  0  0  0  # atno 17343 bound_to 10162
  157.7075  130.9402  150.0979 LP  0  0  0  0  0  0  0  0  0  0  0  0  # atno 17370 bound_to 10713
  156.1934  130.3656  149.8880 LP  0  0  0  0  0  0  0  0  0  0  0  0  # atno 17371 bound_to 10713
  140.6104  134.0087  155.7574 LP  0  0  0  0  0  0  0  0  0  0  0  0  # atno 17394 bound_to 11000
  141.0956  133.9848  157.3165 LP  0  0  0  0  0  0  0  0  0  0  0  0  # atno 17395 bound_to 11000

$$$$
