AV-unprocessed.smi:1632|AV-procd|sdf|6528|dock10
  -GOLD-   22720 7203D 1   1.00000     0.00000
 Structure written by MMmdl.
 42 44  0  0  0  0  0  0  0  0  1 V2000
  151.0598  136.4703  158.9631 O   0  0  0  0  0  0  0  0  0  0  0  0
  150.5332  136.9867  157.7595 C   0  0  0  0  0  0  0  0  0  0  0  0
  151.2804  136.4077  156.5498 C   0  0  0  0  0  0  0  0  0  0  0  0
  151.7944  137.4838  155.5785 C   0  0  0  0  0  0  0  0  0  0  0  0
  150.6998  138.3837  155.0767 C   0  0  0  0  0  0  0  0  0  0  0  0
  149.6972  137.8893  154.3484 N   0  0  0  0  0  0  0  0  0  0  0  0
  148.9248  139.0021  154.0869 C   0  0  0  0  0  0  0  0  0  0  0  0
  147.7155  139.1323  153.3673 C   0  0  0  0  0  0  0  0  0  0  0  0
  147.1011  140.3938  153.2265 C   0  0  0  0  0  0  0  0  0  0  0  0
  147.6873  141.5402  153.8010 C   0  0  0  0  0  0  0  0  0  0  0  0
  148.8928  141.4316  154.5202 C   0  0  0  0  0  0  0  0  0  0  0  0
  149.5011  140.1693  154.6597 C   0  0  0  0  0  0  0  0  0  0  0  0
  150.6634  139.7286  155.2869 N   0  0  0  0  0  0  0  0  0  0  0  0
  151.6069  140.5922  155.9892 C   0  0  0  0  0  0  0  0  0  0  0  0
  151.3451  140.6533  157.5072 C   0  0  2  0  0  0  0  0  0  0  0  0
  149.9830  140.3463  157.7262 O   0  0  0  0  0  0  0  0  0  0  0  0
  151.7351  141.9902  158.1257 C   0  0  0  0  0  0  0  0  0  0  0  0
  151.2410  143.1961  157.5799 C   0  0  0  0  0  0  0  0  0  0  0  0
  151.5864  144.4337  158.1560 C   0  0  0  0  0  0  0  0  0  0  0  0
  152.4303  144.4749  159.2817 C   0  0  0  0  0  0  0  0  0  0  0  0
  152.9321  143.2778  159.8272 C   0  0  0  0  0  0  0  0  0  0  0  0
  152.5899  142.0386  159.2509 C   0  0  0  0  0  0  0  0  0  0  0  0
  153.0894  140.8981  159.7850 F   0  0  0  0  0  0  0  0  0  0  0  0
  150.7061  136.9676  159.6846 H   0  0  0  0  0  0  0  0  0  0  0  0
  149.4762  136.7252  157.7056 H   0  0  0  0  0  0  0  0  0  0  0  0
  150.5944  138.0751  157.7713 H   0  0  0  0  0  0  0  0  0  0  0  0
  152.1051  135.7795  156.8893 H   0  0  0  0  0  0  0  0  0  0  0  0
  150.6028  135.7464  156.0125 H   0  0  0  0  0  0  0  0  0  0  0  0
  152.5752  138.0537  156.0742 H   0  0  0  0  0  0  0  0  0  0  0  0
  152.2674  137.0115  154.7170 H   0  0  0  0  0  0  0  0  0  0  0  0
  147.2600  138.2597  152.9228 H   0  0  0  0  0  0  0  0  0  0  0  0
  146.1770  140.4822  152.6745 H   0  0  0  0  0  0  0  0  0  0  0  0
  147.2113  142.5033  153.6880 H   0  0  0  0  0  0  0  0  0  0  0  0
  149.3439  142.3084  154.9602 H   0  0  0  0  0  0  0  0  0  0  0  0
  152.6343  140.3082  155.7730 H   0  0  0  0  0  0  0  0  0  0  0  0
  151.4961  141.5922  155.5673 H   0  0  0  0  0  0  0  0  0  0  0  0
  151.9090  139.8574  157.9944 H   0  0  0  0  0  0  0  0  0  0  0  0
  149.6686  140.8755  158.4434 H   0  0  0  0  0  0  0  0  0  0  0  0
  150.5933  143.1754  156.7156 H   0  0  0  0  0  0  0  0  0  0  0  0
  151.2042  145.3513  157.7335 H   0  0  0  0  0  0  0  0  0  0  0  0
  152.6963  145.4237  159.7238 H   0  0  0  0  0  0  0  0  0  0  0  0
  153.5843  143.3098  160.6873 H   0  0  0  0  0  0  0  0  0  0  0  0
  1  2  1  0  0  0  0
  1 24  1  0  0  0  0
  2  3  1  0  0  0  0
  2 25  1  0  0  0  0
  2 26  1  0  0  0  0
  3  4  1  0  0  0  0
  3 27  1  0  0  0  0
  3 28  1  0  0  0  0
  4  5  1  0  0  0  0
  4 29  1  0  0  0  0
  4 30  1  0  0  0  0
  5 13  1  0  0  0  0
  5  6  2  0  0  0  0
  6  7  1  0  0  0  0
  7 12  2  0  0  0  0
  7  8  1  0  0  0  0
  8  9  2  0  0  0  0
  8 31  1  0  0  0  0
  9 10  1  0  0  0  0
  9 32  1  0  0  0  0
 10 11  2  0  0  0  0
 10 33  1  0  0  0  0
 11 12  1  0  0  0  0
 11 34  1  0  0  0  0
 12 13  1  0  0  0  0
 13 14  1  0  0  0  0
 14 15  1  0  0  0  0
 14 35  1  0  0  0  0
 14 36  1  0  0  0  0
 15 16  1  0  0  0  0
 15 17  1  0  0  0  0
 15 37  1  0  0  0  0
 16 38  1  0  0  0  0
 17 22  1  0  0  0  0
 17 18  2  0  0  0  0
 18 19  1  0  0  0  0
 18 39  1  0  0  0  0
 19 20  2  0  0  0  0
 19 40  1  0  0  0  0
 20 21  1  0  0  0  0
 20 41  1  0  0  0  0
 21 22  2  0  0  0  0
 21 42  1  0  0  0  0
 22 23  1  0  0  0  0
M  END
> <s_m_source_file>
AV-unprocessed.smi

> <i_m_source_file_index>
1632

> <i_lp_mmshare_version>
43012

> <i_f3d_flags>
0

> <s_epik_input>
W09IXVtDSDJdW0NIMl1bQ0gyXWMobjEpbihjKGMxMilbY0hdW2NIXVtjSF1bY0hdMilbQ0gyXVtDQEhdKFtPSF0pYzNbY0hdW2NIXVtjSF1bY0hdYzNG

> <s_epik_cmdline>
J2VwaWtfcHl0aG9uJywgJy1waCcsICc3LjAnLCAnLXRuJywgJzgnLCAnLW1hJywgJzIwMCcsICctbWV0YWxfYmluZGluZycsICctaW1hZScsICc8aW5maWxlLm1hZT4nLCAnLW9tYWUnLCAnPG91dGZpbGUubWFlPic=

> <r_epik_Ionization_Penalty>
0.182561

> <r_epik_Ionization_Penalty_Charging>
0

> <r_epik_Ionization_Penalty_Neutral>
0.182561

> <r_epik_State_Penalty>
0.172086

> <r_epik_Charging_Adjusted_Penalty>
0.172086

> <i_epik_Tot_Q>
0

> <i_epik_Tot_abs_Q>
0

> <r_epik_Metal_State_Penalty>
0.000199649

> <b_epik_Metal_Only>
0

> <s_lp_Force_Field>
OPLS_2005

> <r_lp_Energy>
12.9461

> <b_lp_Chiralities_Consistent>
1

> <s_lp_Variant>
AV-unprocessed.smi:1632-1

> <Gold.Version>
5.8.1

> <Gold.Id.Protein>
6NUR|6NUR_protein|mol2

> <Gold.PLP.Fitness>
51.8311

> <Gold.PLP.PLP>
-51.3764

> <Gold.PLP.part.hbond>
-1.0000

> <Gold.PLP.part.metal>
0.0000

> <Gold.PLP.part.buried>
-3.5099

> <Gold.PLP.part.nonpolar>
-45.9257

> <Gold.PLP.part.repulsive>
0.4596

> <Gold.PLP.ligand.clash>
0.0000

> <Gold.PLP.ligand.torsion>
1.2968

> <Gold.PLP.Chemscore.Hbond>
1.0000

> <Gold.PLP.Chemscore.CHOScore>
0.0000

> <Gold.PLP.Chemscore.Metal>
0.0000

> <Gold.Chemscore.Hbonds>
donor molecule, donor type, donor heavy atom, donor atom, acceptor molecule, acceptor atom, score
      P1  H  6896  6907       L1     1  0.62

> <Gold.PLP.Chemscore.Internal.Correction>
0.0483

> <Gold.Rescore>
     Score         DG    S(hbond)    S(metal)    S(lipo)     H(rot)  DE(clash)    DE(int)     intcor
     15.95     -17.21       0.99        0.00     139.37       3.07       0.08       1.18       ----

> <Gold.Chemscore.Fitness>
15.9520

> <Gold.Chemscore.DG>
-17.2149

> <Gold.Chemscore.ZeroCoef>
-5.4800

> <Gold.Chemscore.Hbond>
0.9876

> <Gold.Chemscore.Metal>
0.0000

> <Gold.Chemscore.Lipo>
139.3688

> <Gold.Chemscore.Internal_Hbond>
0.0000

> <Gold.Chemscore.DEClash>
0.0840

> <Gold.Chemscore.DEInternal>
1.1790

> <Gold.Chemscore.Rot>
3.0741

> <Gold.Chemscore.Internal.Correction>
   9.000000E+99

> <Gold.Chemscore.Hbonds>
donor molecule, donor type, donor heavy atom, donor atom, acceptor molecule, acceptor atom, score
      P1  H  6896  6907       L1     1  0.05

> <Gold.Chemscore.Hbond.Weighted>
-3.2986

> <Gold.Chemscore.Metal.Weighted>
-0.0000

> <Gold.Chemscore.Lipo.Weighted>
-16.3062

> <Gold.Chemscore.Internal_Hbond.Weighted>
0.0000

> <Gold.Chemscore.DEClash.Weighted>
0.0840

> <Gold.Chemscore.DEInternal.Weighted>
1.1790

> <Gold.Chemscore.Rot.Weighted>
7.8698

> <Gold.Chemscore.Internal.Correction.Weighted>
   9.000000E+99

> <Gold.Protein.RotatedTorsions>
[ 6907 6896 6895 6894 ] final  -16.95 input  -60.11 | X-H torsion
[ 7974 7965 7964 7962 ] final  -78.15 input  175.53 | X-H torsion
[ 8008 7997 7996 7995 ] final  134.04 input   59.86 | X-H torsion
[ 10167 10162 10161 10158 ] final   -1.54 input  -65.29 | X-H torsion
[ 10718 10713 10712 10709 ] final  178.15 input   66.30 | X-H torsion
[ 10763 10752 10751 10750 ] final -135.10 input  -60.55 | X-H torsion
[ 11005 11000 10999 10996 ] final  177.99 input  -57.11 | X-H torsion

> <Gold.Protein.ActiveResidues>
 VAL166  LYS551  ARG553  GLY616  TRP617  ASP618  TYR619  PRO620  LYS621  CYS622 
 ASP623  PHE694  ASN695  SER759  ASP760  ASP761  ALA762  ILE779  LEU786  VAL792 
 PHE793  MET794  SER795  GLU796  ALA797  LYS798  CYS799  TRP800  GLU811  SER814 

> <Gold.Protein.RotatedAtoms>
  151.3007  135.0768  159.9237 H   0  0  0  0  0  0  0  0  0  0  0  0  # atno 6907 bound_to 6896
  152.5298  133.9836  159.7828 H   0  0  0  0  0  0  0  0  0  0  0  0  # atno 6908 bound_to 6896
  151.0122  133.5903  159.2711 H   0  0  0  0  0  0  0  0  0  0  0  0  # atno 6909 bound_to 6896
  145.5903  140.9430  143.1296 H   0  0  0  0  0  0  0  0  0  0  0  0  # atno 7974 bound_to 7965
  156.2996  140.2506  156.3352 H   0  0  0  0  0  0  0  0  0  0  0  0  # atno 8008 bound_to 7997
  154.9107  140.0403  157.1964 H   0  0  0  0  0  0  0  0  0  0  0  0  # atno 8009 bound_to 7997
  154.8408  140.2890  155.5665 H   0  0  0  0  0  0  0  0  0  0  0  0  # atno 8010 bound_to 7997
  140.6814  143.6763  150.8142 H   0  0  0  0  0  0  0  0  0  0  0  0  # atno 10167 bound_to 10162
  156.8948  130.9859  151.3044 H   0  0  0  0  0  0  0  0  0  0  0  0  # atno 10718 bound_to 10713
  154.8709  135.3714  154.4843 H   0  0  0  0  0  0  0  0  0  0  0  0  # atno 10763 bound_to 10752
  153.5494  135.7025  153.5603 H   0  0  0  0  0  0  0  0  0  0  0  0  # atno 10764 bound_to 10752
  153.3729  135.4016  155.1766 H   0  0  0  0  0  0  0  0  0  0  0  0  # atno 10765 bound_to 10752
  140.3901  134.6869  157.4502 H   0  0  0  0  0  0  0  0  0  0  0  0  # atno 11005 bound_to 11000
  144.7354  139.7601  143.7331 LP  0  0  0  0  0  0  0  0  0  0  0  0  # atno 17320 bound_to 7965
  146.1651  139.4780  142.9963 LP  0  0  0  0  0  0  0  0  0  0  0  0  # atno 17321 bound_to 7965
  140.0464  143.5293  152.2694 LP  0  0  0  0  0  0  0  0  0  0  0  0  # atno 17342 bound_to 10162
  139.6140  144.7615  151.2889 LP  0  0  0  0  0  0  0  0  0  0  0  0  # atno 17343 bound_to 10162
  157.6062  130.8549  149.8879 LP  0  0  0  0  0  0  0  0  0  0  0  0  # atno 17370 bound_to 10713
  156.0611  130.3700  150.0980 LP  0  0  0  0  0  0  0  0  0  0  0  0  # atno 17371 bound_to 10713
  140.0413  134.6264  155.8978 LP  0  0  0  0  0  0  0  0  0  0  0  0  # atno 17394 bound_to 11000
  141.1893  133.6565  156.5364 LP  0  0  0  0  0  0  0  0  0  0  0  0  # atno 17395 bound_to 11000

$$$$
