AV-unprocessed.smi:2067|AV-procd|sdf|8426|dock1
  -GOLD-   2272011123D 1   1.00000     0.00000
 Structure written by MMmdl.
 47 48  0  0  0  0  0  0  0  0  1 V2000
  145.3071  135.6472  150.8333 C   0  0  0  0  0  0  0  0  0  0  0  0
  145.0274  134.2095  151.2976 C   0  0  1  0  0  0  0  0  0  0  0  0
  144.0940  133.4906  150.3034 C   0  0  0  0  0  0  0  0  0  0  0  0
  143.7818  132.0561  150.7532 C   0  0  0  0  0  0  0  0  0  0  0  0
  145.0722  131.2517  150.9597 C   0  0  0  0  0  0  0  0  0  0  0  0
  146.0104  131.9551  151.9519 C   0  0  0  0  0  0  0  0  0  0  0  0
  146.3293  133.4009  151.5077 C   0  0  2  0  0  0  0  0  0  0  0  0
  147.1058  134.0798  152.4889 O   0  0  0  0  0  0  0  0  0  0  0  0
  146.4359  134.3515  153.7123 C   0  0  0  0  0  0  0  0  0  0  0  0
  147.4770  134.8032  154.7417 C   0  0  0  0  0  0  0  0  0  0  0  0
  147.8453  136.1962  154.5378 N   0  0  0  0  0  0  0  0  0  0  0  0
  149.0616  136.7681  154.8943 C   0  0  0  0  0  0  0  0  0  0  0  0
  150.0483  136.0339  155.4799 C   0  0  0  0  0  0  0  0  0  0  0  0
  149.9394  134.6303  155.7252 C   0  0  0  0  0  0  0  0  0  0  0  0
  149.8674  133.4884  155.9049 N   0  0  0  0  0  0  0  0  0  0  0  0
  151.3289  136.6225  155.8696 C   0  0  0  0  0  0  0  0  0  0  0  0
  152.2340  135.9811  156.4074 O   0  0  0  0  0  0  0  0  0  0  0  0
  151.4544  137.9988  155.5793 N   0  0  0  0  0  0  0  0  0  0  0  0
  152.6790  138.6894  155.9310 C   0  0  0  0  0  0  0  0  0  0  0  0
  150.4561  138.7746  154.9599 C   0  0  0  0  0  0  0  0  0  0  0  0
  150.6326  139.9755  154.7305 O   0  0  0  0  0  0  0  0  0  0  0  0
  149.2438  138.1268  154.6222 N   0  0  0  0  0  0  0  0  0  0  0  0
  148.2483  138.9908  154.0220 C   0  0  0  0  0  0  0  0  0  0  0  0
  145.8614  135.6616  149.8946 H   0  0  0  0  0  0  0  0  0  0  0  0
  145.8885  136.1942  151.5750 H   0  0  0  0  0  0  0  0  0  0  0  0
  144.3796  136.1994  150.6808 H   0  0  0  0  0  0  0  0  0  0  0  0
  144.5096  134.2705  152.2561 H   0  0  0  0  0  0  0  0  0  0  0  0
  143.1622  134.0474  150.1961 H   0  0  0  0  0  0  0  0  0  0  0  0
  144.5551  133.4686  149.3149 H   0  0  0  0  0  0  0  0  0  0  0  0
  143.2106  132.0789  151.6822 H   0  0  0  0  0  0  0  0  0  0  0  0
  143.1503  131.5632  150.0135 H   0  0  0  0  0  0  0  0  0  0  0  0
  144.8330  130.2506  151.3197 H   0  0  0  0  0  0  0  0  0  0  0  0
  145.5809  131.1235  150.0035 H   0  0  0  0  0  0  0  0  0  0  0  0
  145.5498  131.9696  152.9407 H   0  0  0  0  0  0  0  0  0  0  0  0
  146.9246  131.3689  152.0442 H   0  0  0  0  0  0  0  0  0  0  0  0
  146.8827  133.3795  150.5669 H   0  0  0  0  0  0  0  0  0  0  0  0
  145.7107  135.1498  153.5536 H   0  0  0  0  0  0  0  0  0  0  0  0
  145.8914  133.4797  154.0798 H   0  0  0  0  0  0  0  0  0  0  0  0
  147.1120  134.6141  155.7491 H   0  0  0  0  0  0  0  0  0  0  0  0
  148.3832  134.2092  154.6223 H   0  0  0  0  0  0  0  0  0  0  0  0
  147.0550  136.8116  154.6659 H   0  0  0  0  0  0  0  0  0  0  0  0
  152.4083  139.5126  156.5948 H   0  0  0  0  0  0  0  0  0  0  0  0
  153.1203  139.0554  155.0022 H   0  0  0  0  0  0  0  0  0  0  0  0
  153.3804  138.0291  156.4395 H   0  0  0  0  0  0  0  0  0  0  0  0
  148.0078  139.7673  154.7506 H   0  0  0  0  0  0  0  0  0  0  0  0
  147.3501  138.4300  153.7743 H   0  0  0  0  0  0  0  0  0  0  0  0
  148.6813  139.4092  153.1116 H   0  0  0  0  0  0  0  0  0  0  0  0
  1  2  1  0  0  0  0
  1 24  1  0  0  0  0
  1 25  1  0  0  0  0
  1 26  1  0  0  0  0
  2  7  1  0  0  0  0
  2  3  1  0  0  0  0
  2 27  1  0  0  0  0
  3  4  1  0  0  0  0
  3 28  1  0  0  0  0
  3 29  1  0  0  0  0
  4  5  1  0  0  0  0
  4 30  1  0  0  0  0
  4 31  1  0  0  0  0
  5  6  1  0  0  0  0
  5 32  1  0  0  0  0
  5 33  1  0  0  0  0
  6  7  1  0  0  0  0
  6 34  1  0  0  0  0
  6 35  1  0  0  0  0
  7  8  1  0  0  0  0
  7 36  1  0  0  0  0
  8  9  1  0  0  0  0
  9 10  1  0  0  0  0
  9 37  1  0  0  0  0
  9 38  1  0  0  0  0
 10 11  1  0  0  0  0
 10 39  1  0  0  0  0
 10 40  1  0  0  0  0
 11 12  1  0  0  0  0
 11 41  1  0  0  0  0
 12 22  1  0  0  0  0
 12 13  2  0  0  0  0
 13 14  1  0  0  0  0
 13 16  1  0  0  0  0
 14 15  3  0  0  0  0
 16 17  2  0  0  0  0
 16 18  1  0  0  0  0
 18 19  1  0  0  0  0
 18 20  1  0  0  0  0
 19 42  1  0  0  0  0
 19 43  1  0  0  0  0
 19 44  1  0  0  0  0
 20 21  2  0  0  0  0
 20 22  1  0  0  0  0
 22 23  1  0  0  0  0
 23 45  1  0  0  0  0
 23 46  1  0  0  0  0
 23 47  1  0  0  0  0
M  END
> <s_m_source_file>
AV-unprocessed.smi

> <i_m_source_file_index>
2067

> <i_lp_mmshare_version>
43012

> <i_f3d_flags>
0

> <s_epik_input>
W0NIM11bQ0BASF0xW0NIMl1bQ0gyXVtDSDJdW0NIMl1bQ0BIXTFPW0NIMl1bQ0gyXVtOSF1jMmMoQyNOKWMoPU8pbihbQ0gzXSljKD1PKW4yW0NIM10=

> <s_epik_cmdline>
J2VwaWtfcHl0aG9uJywgJy1waCcsICc3LjAnLCAnLXRuJywgJzgnLCAnLW1hJywgJzIwMCcsICctbWV0YWxfYmluZGluZycsICctaW1hZScsICc8aW5maWxlLm1hZT4nLCAnLW9tYWUnLCAnPG91dGZpbGUubWFlPic=

> <r_epik_Ionization_Penalty>
0.00056529

> <r_epik_Ionization_Penalty_Charging>
3.94678e-10

> <r_epik_Ionization_Penalty_Neutral>
0.000565289

> <r_epik_State_Penalty>
0.000354611

> <r_epik_Charging_Adjusted_Penalty>
0.000354611

> <i_epik_Tot_Q>
0

> <i_epik_Tot_abs_Q>
0

> <r_epik_Metal_State_Penalty>
-0

> <b_epik_Metal_Only>
0

> <s_lp_Force_Field>
OPLS_2005

> <r_lp_Energy>
31.2775

> <b_lp_Chiralities_Consistent>
1

> <s_lp_Variant>
AV-unprocessed.smi:2067-4

> <Gold.Version>
5.8.1

> <Gold.Id.Protein>
6NUR|6NUR_protein|mol2

> <Gold.PLP.Fitness>
40.1499

> <Gold.PLP.PLP>
-34.7159

> <Gold.PLP.part.hbond>
-3.0000

> <Gold.PLP.part.metal>
0.0000

> <Gold.PLP.part.buried>
-4.9736

> <Gold.PLP.part.nonpolar>
-29.1884

> <Gold.PLP.part.repulsive>
1.8213

> <Gold.PLP.ligand.clash>
10.7747

> <Gold.PLP.ligand.torsion>
0.3272

> <Gold.PLP.Chemscore.Hbond>
2.0000

> <Gold.PLP.Chemscore.CHOScore>
0.0000

> <Gold.PLP.Chemscore.Metal>
0.0000

> <Gold.Chemscore.Hbonds>
donor molecule, donor type, donor heavy atom, donor atom, acceptor molecule, acceptor atom, score
      P1  H  7989  7998       L1    21  1.00
      P1  H 10752 10764       L1    17  1.00

> <Gold.PLP.Chemscore.Internal.Correction>
10.8630

> <Gold.Rescore>
     Score         DG    S(hbond)    S(metal)    S(lipo)     H(rot)  DE(clash)    DE(int)     intcor
     12.33     -15.59       1.71        0.00      76.03       1.76       0.23       3.04       ----

> <Gold.Chemscore.Fitness>
12.3263

> <Gold.Chemscore.DG>
-15.5909

> <Gold.Chemscore.ZeroCoef>
-5.4800

> <Gold.Chemscore.Hbond>
1.7116

> <Gold.Chemscore.Metal>
0.0000

> <Gold.Chemscore.Lipo>
76.0305

> <Gold.Chemscore.Internal_Hbond>
0.0000

> <Gold.Chemscore.DEClash>
0.2268

> <Gold.Chemscore.DEInternal>
3.0378

> <Gold.Chemscore.Rot>
1.7583

> <Gold.Chemscore.Internal.Correction>
   9.000000E+99

> <Gold.Chemscore.Hbonds>
donor molecule, donor type, donor heavy atom, donor atom, acceptor molecule, acceptor atom, score
      P1  H  7989  7998       L1    21  1.00
      P1  H 10752 10764       L1    17  0.86

> <Gold.Chemscore.Hbond.Weighted>
-5.7166

> <Gold.Chemscore.Metal.Weighted>
-0.0000

> <Gold.Chemscore.Lipo.Weighted>
-8.8956

> <Gold.Chemscore.Internal_Hbond.Weighted>
0.0000

> <Gold.Chemscore.DEClash.Weighted>
0.2268

> <Gold.Chemscore.DEInternal.Weighted>
3.0378

> <Gold.Chemscore.Rot.Weighted>
4.5012

> <Gold.Chemscore.Internal.Correction.Weighted>
   9.000000E+99

> <Gold.Protein.RotatedTorsions>
[ 6907 6896 6895 6894 ] final  178.12 input  -60.11 | X-H torsion
[ 7974 7965 7964 7962 ] final   27.17 input  175.53 | X-H torsion
[ 8008 7997 7996 7995 ] final  159.49 input   59.86 | X-H torsion
[ 10167 10162 10161 10158 ] final  168.64 input  -65.29 | X-H torsion
[ 10718 10713 10712 10709 ] final   54.76 input   66.30 | X-H torsion
[ 10763 10752 10751 10750 ] final   -4.78 input  -60.55 | X-H torsion
[ 11005 11000 10999 10996 ] final   70.71 input  -57.11 | X-H torsion

> <Gold.Protein.ActiveResidues>
 VAL166  LYS551  ARG553  GLY616  TRP617  ASP618  TYR619  PRO620  LYS621  CYS622 
 ASP623  PHE694  ASN695  SER759  ASP760  ASP761  ALA762  ILE779  LEU786  VAL792 
 PHE793  MET794  SER795  GLU796  ALA797  LYS798  CYS799  TRP800  GLU811  SER814 

> <Gold.Protein.RotatedAtoms>
  151.6930  133.3311  159.3247 H   0  0  0  0  0  0  0  0  0  0  0  0  # atno 6907 bound_to 6896
  150.7770  134.6682  159.6386 H   0  0  0  0  0  0  0  0  0  0  0  0  # atno 6908 bound_to 6896
  152.3815  134.6586  160.0193 H   0  0  0  0  0  0  0  0  0  0  0  0  # atno 6909 bound_to 6896
  146.1799  139.7229  142.8908 H   0  0  0  0  0  0  0  0  0  0  0  0  # atno 7974 bound_to 7965
  156.2235  140.1830  156.7420 H   0  0  0  0  0  0  0  0  0  0  0  0  # atno 8008 bound_to 7997
  154.5903  140.0652  156.9258 H   0  0  0  0  0  0  0  0  0  0  0  0  # atno 8009 bound_to 7997
  155.2348  140.3317  155.4301 H   0  0  0  0  0  0  0  0  0  0  0  0  # atno 8010 bound_to 7997
  139.4973  144.3792  151.9640 H   0  0  0  0  0  0  0  0  0  0  0  0  # atno 10167 bound_to 10162
  157.5286  130.8614  149.8656 H   0  0  0  0  0  0  0  0  0  0  0  0  # atno 10718 bound_to 10713
  153.3895  135.7001  153.6505 H   0  0  0  0  0  0  0  0  0  0  0  0  # atno 10763 bound_to 10752
  153.5083  135.3637  155.2575 H   0  0  0  0  0  0  0  0  0  0  0  0  # atno 10764 bound_to 10752
  154.8701  135.4129  154.3209 H   0  0  0  0  0  0  0  0  0  0  0  0  # atno 10765 bound_to 10752
  139.9583  134.7106  156.0703 H   0  0  0  0  0  0  0  0  0  0  0  0  # atno 11005 bound_to 11000
  145.4106  141.0396  143.3019 LP  0  0  0  0  0  0  0  0  0  0  0  0  # atno 17320 bound_to 7965
  144.8297  139.5649  143.6949 LP  0  0  0  0  0  0  0  0  0  0  0  0  # atno 17321 bound_to 7965
  140.3229  144.3407  150.6005 LP  0  0  0  0  0  0  0  0  0  0  0  0  # atno 17342 bound_to 10162
  140.5708  143.2181  151.7602 LP  0  0  0  0  0  0  0  0  0  0  0  0  # atno 17343 bound_to 10162
  156.0405  130.3740  150.1447 LP  0  0  0  0  0  0  0  0  0  0  0  0  # atno 17370 bound_to 10713
  156.9633  130.9811  151.3474 LP  0  0  0  0  0  0  0  0  0  0  0  0  # atno 17371 bound_to 10713
  141.1257  133.6600  156.3330 LP  0  0  0  0  0  0  0  0  0  0  0  0  # atno 17394 bound_to 11000
  140.5559  134.5982  157.5420 LP  0  0  0  0  0  0  0  0  0  0  0  0  # atno 17395 bound_to 11000

$$$$
