#       Name:                AV-unprocessed.smi:89
#       Creating user name   scv26
#       Creation time:       Thu Mar 26 17:23:43 2020


#       File generated by GOLD software.
#

@<TRIPOS>MOLECULE
AV-unprocessed.smi:89
    61    63     1
SMALL
NO_CHARGES


@<TRIPOS>ATOM
      1 ****        -1.6520   3.0557  -0.5046 C.3            1 S1                 0.0000
      2 ****        -0.1874   2.7981  -0.1147 C.3            1 S1                 0.0000
      3 ****         0.4081   1.6559  -0.8139 N.pl3          1 S1                 0.0000
      4 ****        -0.2349   0.4649  -0.7535 C.ar           1 S1                 0.0000
      5 ****        -0.3324  -0.2441  -1.9064 N.ar           1 S1                 0.0000
      6 ****        -0.9561  -1.4251  -1.9177 C.ar           1 S1                 0.0000
      7 ****        -1.5346  -2.0724  -0.9044 N.ar           1 S1                 0.0000
      8 ****        -1.4238  -1.3718   0.2606 C.ar           1 S1                 0.0000
      9 ****        -0.7993  -0.1027   0.4248 C.ar           1 S1                 0.0000
     10 ****        -0.8836   0.2952   1.7539 N.2            1 S1                 0.0000
     11 ****        -1.5283  -0.6766   2.3385 C.2            1 S1                 0.0000
     12 ****        -1.8767  -1.7267   1.5197 N.pl3          1 S1                 0.0000
     13 ****        -2.5892  -2.9349   1.9083 C.3            1 S1                 0.0000
     14 ****        -1.6688  -4.1344   2.2531 C.3            1 S1                 0.0000
     15 ****        -0.8904  -4.4674   1.1189 O.3            1 S1                 0.0000
     16 ****        -0.7372  -3.8927   3.4437 C.3            1 S1                 0.0000
     17 ****        -1.4589  -4.5844   4.5911 C.3            1 S1                 0.0000
     18 ****        -1.9733  -5.7464   3.9663 O.3            1 S1                 0.0000
     19 ****        -2.4860  -5.3659   2.6953 C.3            1 S1                 0.0000
     20 ****         1.8666   1.5379  -0.9238 C.3            1 S1                 0.0000
     21 ****         2.5410   1.5077   0.4588 C.3            1 S1                 0.0000
     22 ****         2.4755   2.6228  -1.8334 C.3            1 S1                 0.0000
     23 ****         1.8476   2.4909  -3.5670 S.o2           1 S1                 0.0000
     24 ****         2.1326   1.1348  -4.0598 O.2            1 S1                 0.0000
     25 ****         0.4683   3.0014  -3.5971 O.2            1 S1                 0.0000
     26 ****         2.9310   3.6796  -4.4719 C.3            1 S1                 0.0000
     27 ****         2.6708   5.1311  -4.0522 C.3            1 S1                 0.0000
     28 ****        -2.0273   3.9530  -0.0130 H              1 S1                 0.0000
     29 ****        -2.3040   2.2308  -0.2175 H              1 S1                 0.0000
     30 ****        -1.7492   3.2021  -1.5807 H              1 S1                 0.0000
     31 ****         0.3873   3.6945  -0.3417 H              1 S1                 0.0000
     32 ****        -0.1049   2.6593   0.9627 H              1 S1                 0.0000
     33 ****        -0.9957  -1.9231  -2.8753 H              1 S1                 0.0000
     34 ****        -1.7611  -0.6579   3.3933 H              1 S1                 0.0000
     35 ****        -3.2217  -2.6915   2.7630 H              1 S1                 0.0000
     36 ****        -3.2668  -3.2040   1.0967 H              1 S1                 0.0000
     37 ****        -0.3569  -5.2179   1.3307 H              1 S1                 0.0000
     38 ****         0.2235  -4.3872   3.2889 H              1 S1                 0.0000
     39 ****        -0.5294  -2.8448   3.6532 H              1 S1                 0.0000
     40 ****        -0.7961  -4.8307   5.4209 H              1 S1                 0.0000
     41 ****        -2.2784  -3.9710   4.9688 H              1 S1                 0.0000
     42 ****        -3.5424  -5.1190   2.8113 H              1 S1                 0.0000
     43 ****        -2.4227  -6.2008   1.9962 H              1 S1                 0.0000
     44 ****         2.0994   0.5811  -1.3940 H              1 S1                 0.0000
     45 ****         3.6132   1.3342   0.3654 H              1 S1                 0.0000
     46 ****         2.1342   0.7090   1.0796 H              1 S1                 0.0000
     47 ****         2.4053   2.4483   0.9933 H              1 S1                 0.0000
     48 ****         2.2769   3.6262  -1.4606 H              1 S1                 0.0000
     49 ****         3.5583   2.5045  -1.8731 H              1 S1                 0.0000
     50 ****         3.9698   3.4010  -4.2958 H              1 S1                 0.0000
     51 ****         2.7362   3.5583  -5.5376 H              1 S1                 0.0000
     52 ****         3.2982   5.8149  -4.6243 H              1 S1                 0.0000
     53 ****         2.8912   5.2887  -2.9971 H              1 S1                 0.0000
     54 ****         1.6321   5.4124  -4.2251 H              1 S1                 0.0000
     55 ****         0.0639   0.1186  -2.7499 LP             1 S1                 0.0000
     56 ****        -1.9911  -2.9582  -0.9884 LP             1 S1                 0.0000
     57 ****        -0.5307   1.1345   2.1674 LP             1 S1                 0.0000
     58 ****        -0.3041  -3.6953   0.8738 LP             1 S1                 0.0000
     59 ****        -1.4912  -4.6869   0.3502 LP             1 S1                 0.0000
     60 ****        -2.7047  -6.1376   4.5249 LP             1 S1                 0.0000
     61 ****        -1.2446  -6.4215   3.8509 LP             1 S1                 0.0000
@<TRIPOS>BOND
    1    1    2 1     
    2    1   28 1     
    3    1   29 1     
    4    1   30 1     
    5    2    3 1     
    6    2   31 1     
    7    2   32 1     
    8    3    4 1     
    9    3   20 1     
   10    4    9 ar    
   11    4    5 ar    
   12    5    6 ar    
   13    6    7 ar    
   14    6   33 1     
   15    7    8 ar    
   16    8   12 1     
   17    8    9 ar    
   18    9   10 1     
   19   10   11 2     
   20   11   12 1     
   21   11   34 1     
   22   12   13 1     
   23   13   14 1     
   24   13   35 1     
   25   13   36 1     
   26   14   19 1     
   27   14   15 1     
   28   14   16 1     
   29   15   37 1     
   30   16   17 1     
   31   16   38 1     
   32   16   39 1     
   33   17   18 1     
   34   17   40 1     
   35   17   41 1     
   36   18   19 1     
   37   19   42 1     
   38   19   43 1     
   39   20   21 1     
   40   20   22 1     
   41   20   44 1     
   42   21   45 1     
   43   21   46 1     
   44   21   47 1     
   45   22   23 1     
   46   22   48 1     
   47   22   49 1     
   48   23   24 2     
   49   23   25 2     
   50   23   26 1     
   51   26   27 1     
   52   26   50 1     
   53   26   51 1     
   54   27   52 1     
   55   27   53 1     
   56   27   54 1     
   57    5   55 1     
   58    7   56 1     
   59   10   57 1     
   60   15   58 1     
   61   15   59 1     
   62   18   60 1     
   63   18   61 1     
@<TRIPOS>SUBSTRUCTURE
      1 S1             1
@<TRIPOS>SET
LONE_PAIRS      STATIC     ATOMS    <user>   **** ""
9 55 56 57 58 59 60 61 24 25
DONOR_HYDROGENS      STATIC     ATOMS    <user>   **** ""
1 37
ATOM$BLUE        STATIC     ATOMS    COLORGROUP SYSTEM
9 55 56 57 58 59 60 61 24 25
ATOM$RED        STATIC     ATOMS    COLORGROUP SYSTEM
1 37
