#       Name:                AV-unprocessed.smi:1441
#       Creating user name   scv26
#       Creation time:       Fri Mar 27 05:55:22 2020


#       File generated by GOLD software.
#

@<TRIPOS>MOLECULE
AV-unprocessed.smi:1441
    50    51     1
SMALL
NO_CHARGES


@<TRIPOS>ATOM
      1 ****        -4.2419   4.3562   1.5635 C.3            1 S1                 0.0000
      2 ****        -4.0880   3.3540   0.4577 C.2            1 S1                 0.0000
      3 ****        -4.2627   3.5514  -0.9404 C.2            1 S1                 0.0000
      4 ****        -4.0012   2.3277  -1.4893 C.2            1 S1                 0.0000
      5 ****        -4.0139   1.8897  -2.9169 C.3            1 S1                 0.0000
      6 ****        -3.6927   1.4762  -0.4430 N.pl3          1 S1                 0.0000
      7 ****        -3.3301   0.0666  -0.4808 C.3            1 S1                 0.0000
      8 ****        -1.8153  -0.1435  -0.5908 C.2            1 S1                 0.0000
      9 ****        -1.1044   0.6784  -1.1713 O.2            1 S1                 0.0000
     10 ****        -1.3329  -1.2617  -0.0277 N.am           1 S1                 0.0000
     11 ****         0.0733  -1.6448  -0.0045 C.3            1 S1                 0.0000
     12 ****         0.8174  -0.9712   1.1635 C.3            1 S1                 0.0000
     13 ****         2.2532  -1.2891   1.1407 N.am           1 S1                 0.0000
     14 ****         3.1245  -0.2718   0.5315 C.3            1 S1                 0.0000
     15 ****         3.8184  -0.7727  -0.7499 C.3            1 S1                 0.0000
     16 ****         5.0719  -1.6216  -0.4904 C.3            1 S1                 0.0000
     17 ****         4.8032  -2.9361   0.2560 C.3            1 S1                 0.0000
     18 ****         4.2239  -2.7261   1.6649 C.3            1 S1                 0.0000
     19 ****         2.7135  -2.4568   1.6505 C.2            1 S1                 0.0000
     20 ****         1.9666  -3.3147   2.1231 O.2            1 S1                 0.0000
     21 ****        -3.7485   2.1093   0.7493 N.2            1 S1                 0.0000
     22 ****        -4.5385   5.3302   1.1739 H              1 S1                 0.0000
     23 ****        -3.3062   4.4877   2.1073 H              1 S1                 0.0000
     24 ****        -5.0023   4.0390   2.2775 H              1 S1                 0.0000
     25 ****        -4.5369   4.4564  -1.4620 H              1 S1                 0.0000
     26 ****        -4.1967   2.7343  -3.5814 H              1 S1                 0.0000
     27 ****        -4.7970   1.1513  -3.0890 H              1 S1                 0.0000
     28 ****        -3.0589   1.4446  -3.1967 H              1 S1                 0.0000
     29 ****        -3.7129  -0.4194   0.4186 H              1 S1                 0.0000
     30 ****        -3.8228  -0.4075  -1.3299 H              1 S1                 0.0000
     31 ****        -1.9841  -1.8846   0.4279 H              1 S1                 0.0000
     32 ****         0.1265  -2.7297   0.0868 H              1 S1                 0.0000
     33 ****         0.5459  -1.3924  -0.9556 H              1 S1                 0.0000
     34 ****         0.6608   0.1076   1.1325 H              1 S1                 0.0000
     35 ****         0.3772  -1.2850   2.1118 H              1 S1                 0.0000
     36 ****         2.5453   0.6131   0.2664 H              1 S1                 0.0000
     37 ****         3.8583   0.0784   1.2586 H              1 S1                 0.0000
     38 ****         3.1108  -1.3191  -1.3748 H              1 S1                 0.0000
     39 ****         4.1212   0.0957  -1.3358 H              1 S1                 0.0000
     40 ****         5.5428  -1.8525  -1.4464 H              1 S1                 0.0000
     41 ****         5.8012  -1.0308   0.0651 H              1 S1                 0.0000
     42 ****         4.1436  -3.5730  -0.3360 H              1 S1                 0.0000
     43 ****         5.7429  -3.4826   0.3423 H              1 S1                 0.0000
     44 ****         4.3961  -3.6310   2.2493 H              1 S1                 0.0000
     45 ****         4.7480  -1.9293   2.1937 H              1 S1                 0.0000
     46 ****        -1.5140   1.4949  -1.5780 LP             1 S1                 0.0000
     47 ****        -0.1177   0.5290  -1.2357 LP             1 S1                 0.0000
     48 ****         0.9784  -3.1626   2.1406 LP             1 S1                 0.0000
     49 ****         2.3485  -4.1633   2.4893 LP             1 S1                 0.0000
     50 ****        -3.5718   1.7217   1.6541 LP             1 S1                 0.0000
@<TRIPOS>BOND
    1    1    2 1     
    2    1   22 1     
    3    1   23 1     
    4    1   24 1     
    5    2   21 2     
    6    2    3 1     
    7    3    4 2     
    8    3   25 1     
    9    4    5 1     
   10    4    6 1     
   11    5   26 1     
   12    5   27 1     
   13    5   28 1     
   14    6    7 1     
   15    6   21 1     
   16    7    8 1     
   17    7   29 1     
   18    7   30 1     
   19    8    9 2     
   20    8   10 am    
   21   10   11 1     
   22   10   31 1     
   23   11   12 1     
   24   11   32 1     
   25   11   33 1     
   26   12   13 1     
   27   12   34 1     
   28   12   35 1     
   29   13   19 am    
   30   13   14 1     
   31   14   15 1     
   32   14   36 1     
   33   14   37 1     
   34   15   16 1     
   35   15   38 1     
   36   15   39 1     
   37   16   17 1     
   38   16   40 1     
   39   16   41 1     
   40   17   18 1     
   41   17   42 1     
   42   17   43 1     
   43   18   19 1     
   44   18   44 1     
   45   18   45 1     
   46   19   20 2     
   47    9   46 1     
   48    9   47 1     
   49   20   48 1     
   50   20   49 1     
   51   21   50 1     
@<TRIPOS>SUBSTRUCTURE
      1 S1             1
@<TRIPOS>SET
LONE_PAIRS      STATIC     ATOMS    <user>   **** ""
5 46 47 48 49 50
DONOR_HYDROGENS      STATIC     ATOMS    <user>   **** ""
1 31
ATOM$BLUE        STATIC     ATOMS    COLORGROUP SYSTEM
5 46 47 48 49 50
ATOM$RED        STATIC     ATOMS    COLORGROUP SYSTEM
1 31
