#       Name:                AV-unprocessed.smi:1378
#       Creating user name   scv26
#       Creation time:       Fri Mar 27 05:20:10 2020


#       File generated by GOLD software.
#

@<TRIPOS>MOLECULE
AV-unprocessed.smi:1378
    51    53     1
SMALL
NO_CHARGES


@<TRIPOS>ATOM
      1 ****        -2.6666   4.6308  -1.5558 C.3            1 S1                 0.0000
      2 ****        -2.1101   3.3438  -1.3566 O.3            1 S1                 0.0000
      3 ****        -2.6327   2.6953  -0.2084 C.3            1 S1                 0.0000
      4 ****        -1.9649   1.3235  -0.0446 C.3            1 S1                 0.0000
      5 ****        -0.5200   1.4340   0.0854 N.pl3          1 S1                 0.0000
      6 ****         0.2001   1.6476   1.2132 C.2            1 S1                 0.0000
      7 ****        -0.5651   1.8025   2.7946 S.3            1 S1                 0.0000
      8 ****        -0.0023   0.2308   3.5184 C.3            1 S1                 0.0000
      9 ****        -0.5449  -0.9924   2.7783 C.2            1 S1                 0.0000
     10 ****        -1.6448  -1.4567   3.0761 O.2            1 S1                 0.0000
     11 ****         0.2274  -1.4815   1.7961 N.am           1 S1                 0.0000
     12 ****        -0.1370  -2.5590   0.8826 C.3            1 S1                 0.0000
     13 ****         0.3739  -3.9190   1.3936 C.3            1 S1                 0.0000
     14 ****         1.5442  -4.2939   0.4840 C.3            1 S1                 0.0000
     15 ****         1.1849  -3.6697  -0.8608 C.3            1 S1                 0.0000
     16 ****         0.5185  -2.3426  -0.4954 C.3            1 S1                 0.0000
     17 ****         1.5229   1.6950   1.0555 N.2            1 S1                 0.0000
     18 ****         1.6745   1.4899  -0.3018 C.ar           1 S1                 0.0000
     19 ****         2.8419   1.4177  -1.0949 C.ar           1 S1                 0.0000
     20 ****         2.7481   1.1885  -2.4833 C.ar           1 S1                 0.0000
     21 ****         1.4890   1.0298  -3.0974 C.ar           1 S1                 0.0000
     22 ****         0.3135   1.0983  -2.3255 C.ar           1 S1                 0.0000
     23 ****         0.4130   1.3244  -0.9398 C.ar           1 S1                 0.0000
     24 ****        -2.2370   5.0800  -2.4511 H              1 S1                 0.0000
     25 ****        -2.4506   5.2882  -0.7127 H              1 S1                 0.0000
     26 ****        -3.7476   4.5771  -1.6912 H              1 S1                 0.0000
     27 ****        -2.4552   3.3053   0.6788 H              1 S1                 0.0000
     28 ****        -3.7118   2.5713  -0.3087 H              1 S1                 0.0000
     29 ****        -2.3670   0.8027   0.8247 H              1 S1                 0.0000
     30 ****        -2.1903   0.6928  -0.9049 H              1 S1                 0.0000
     31 ****         1.0880   0.2082   3.5344 H              1 S1                 0.0000
     32 ****        -0.3311   0.1911   4.5572 H              1 S1                 0.0000
     33 ****         1.1179  -1.0340   1.6332 H              1 S1                 0.0000
     34 ****        -1.2212  -2.5990   0.7629 H              1 S1                 0.0000
     35 ****         0.6591  -3.9083   2.4464 H              1 S1                 0.0000
     36 ****        -0.4171  -4.6621   1.2848 H              1 S1                 0.0000
     37 ****         2.4633  -3.8456   0.8635 H              1 S1                 0.0000
     38 ****         1.6990  -5.3712   0.4199 H              1 S1                 0.0000
     39 ****         2.0516  -3.5394  -1.5098 H              1 S1                 0.0000
     40 ****         0.4709  -4.3087  -1.3818 H              1 S1                 0.0000
     41 ****        -0.2025  -2.0260  -1.2498 H              1 S1                 0.0000
     42 ****         1.2847  -1.5675  -0.4414 H              1 S1                 0.0000
     43 ****         3.8113   1.5375  -0.6343 H              1 S1                 0.0000
     44 ****         3.6467   1.1354  -3.0802 H              1 S1                 0.0000
     45 ****         1.4262   0.8558  -4.1616 H              1 S1                 0.0000
     46 ****        -0.6529   0.9783  -2.7924 H              1 S1                 0.0000
     47 ****        -1.1201   3.4360  -1.2496 LP             1 S1                 0.0000
     48 ****        -2.3076   2.7817  -2.1597 LP             1 S1                 0.0000
     49 ****        -2.1856  -1.0340   3.8033 LP             1 S1                 0.0000
     50 ****        -1.9978  -2.2566   2.5909 LP             1 S1                 0.0000
     51 ****         2.2295   1.8424   1.7476 LP             1 S1                 0.0000
@<TRIPOS>BOND
    1    1    2 1     
    2    1   24 1     
    3    1   25 1     
    4    1   26 1     
    5    2    3 1     
    6    3    4 1     
    7    3   27 1     
    8    3   28 1     
    9    4    5 1     
   10    4   29 1     
   11    4   30 1     
   12    5   23 1     
   13    5    6 1     
   14    6    7 1     
   15    6   17 2     
   16    7    8 1     
   17    8    9 1     
   18    8   31 1     
   19    8   32 1     
   20    9   10 2     
   21    9   11 am    
   22   11   12 1     
   23   11   33 1     
   24   12   16 1     
   25   12   13 1     
   26   12   34 1     
   27   13   14 1     
   28   13   35 1     
   29   13   36 1     
   30   14   15 1     
   31   14   37 1     
   32   14   38 1     
   33   15   16 1     
   34   15   39 1     
   35   15   40 1     
   36   16   41 1     
   37   16   42 1     
   38   17   18 1     
   39   18   23 ar    
   40   18   19 ar    
   41   19   20 ar    
   42   19   43 1     
   43   20   21 ar    
   44   20   44 1     
   45   21   22 ar    
   46   21   45 1     
   47   22   23 ar    
   48   22   46 1     
   49    2   47 1     
   50    2   48 1     
   51   10   49 1     
   52   10   50 1     
   53   17   51 1     
@<TRIPOS>SUBSTRUCTURE
      1 S1             1
@<TRIPOS>SET
LONE_PAIRS      STATIC     ATOMS    <user>   **** ""
5 47 48 49 50 51
DONOR_HYDROGENS      STATIC     ATOMS    <user>   **** ""
1 33
ATOM$BLUE        STATIC     ATOMS    COLORGROUP SYSTEM
5 47 48 49 50 51
ATOM$RED        STATIC     ATOMS    COLORGROUP SYSTEM
1 33
