AV-unprocessed.smi:424|AV-procd|sdf|2539|dock5
  -GOLD-   2262022503D 1   1.00000     0.00000
 Structure written by MMmdl.
 34 35  0  0  0  0  0  0  0  0  1 V2000
  147.1152  140.6851  153.1360 C   0  0  0  0  0  0  0  0  0  0  0  0
  147.9962  141.7151  153.8614 C   0  0  0  0  0  0  0  0  0  0  0  0
  148.9254  141.1024  154.9155 C   0  0  0  0  0  0  0  0  0  0  0  0
  149.2756  139.9254  154.8282 O   0  0  0  0  0  0  0  0  0  0  0  0
  149.2839  141.9352  155.9099 N   0  0  0  0  0  0  0  0  0  0  0  0
  150.1359  141.6888  157.0213 C   0  0  0  0  0  0  0  0  0  0  0  0
  150.8161  140.4714  157.2582 C   0  0  0  0  0  0  0  0  0  0  0  0
  151.6487  140.3635  158.3887 C   0  0  0  0  0  0  0  0  0  0  0  0
  151.7904  141.4731  159.2549 C   0  0  0  0  0  0  0  0  0  0  0  0
  152.6228  141.3860  160.3920 N   0  0  0  0  0  0  0  0  0  0  0  0
  152.6903  142.5847  161.2243 C   0  0  0  0  0  0  0  0  0  0  0  0
  153.3601  142.2648  162.5721 C   0  0  0  0  0  0  0  0  0  0  0  0
  154.6343  141.6693  162.3510 O   0  0  0  0  0  0  0  0  0  0  0  0
  154.5277  140.4427  161.6365 C   0  0  0  0  0  0  0  0  0  0  0  0
  153.9080  140.7032  160.2532 C   0  0  0  0  0  0  0  0  0  0  0  0
  151.1501  142.6435  159.0148 N   0  0  0  0  0  0  0  0  0  0  0  0
  150.3522  142.7425  157.9312 C   0  0  0  0  0  0  0  0  0  0  0  0
  146.4903  141.1728  152.3877 H   0  0  0  0  0  0  0  0  0  0  0  0
  146.4520  140.1681  153.8306 H   0  0  0  0  0  0  0  0  0  0  0  0
  147.7181  139.9351  152.6223 H   0  0  0  0  0  0  0  0  0  0  0  0
  148.6034  142.2497  153.1297 H   0  0  0  0  0  0  0  0  0  0  0  0
  147.3627  142.4585  154.3461 H   0  0  0  0  0  0  0  0  0  0  0  0
  148.8558  142.8496  155.8910 H   0  0  0  0  0  0  0  0  0  0  0  0
  150.7349  139.6264  156.5930 H   0  0  0  0  0  0  0  0  0  0  0  0
  152.1827  139.4417  158.5641 H   0  0  0  0  0  0  0  0  0  0  0  0
  153.2634  143.3472  160.6952 H   0  0  0  0  0  0  0  0  0  0  0  0
  151.7028  143.0038  161.4112 H   0  0  0  0  0  0  0  0  0  0  0  0
  153.4917  143.1788  163.1513 H   0  0  0  0  0  0  0  0  0  0  0  0
  152.7342  141.5984  163.1678 H   0  0  0  0  0  0  0  0  0  0  0  0
  155.5208  140.0068  161.5273 H   0  0  0  0  0  0  0  0  0  0  0  0
  153.9274  139.7293  162.2038 H   0  0  0  0  0  0  0  0  0  0  0  0
  153.7783  139.7539  159.7319 H   0  0  0  0  0  0  0  0  0  0  0  0
  154.5804  141.3175  159.6529 H   0  0  0  0  0  0  0  0  0  0  0  0
  149.8691  143.6982  157.7889 H   0  0  0  0  0  0  0  0  0  0  0  0
  1  2  1  0  0  0  0
  1 18  1  0  0  0  0
  1 19  1  0  0  0  0
  1 20  1  0  0  0  0
  2  3  1  0  0  0  0
  2 21  1  0  0  0  0
  2 22  1  0  0  0  0
  3  4  2  0  0  0  0
  3  5  1  0  0  0  0
  5  6  1  0  0  0  0
  5 23  1  0  0  0  0
  6 17  1  0  0  0  0
  6  7  2  0  0  0  0
  7  8  1  0  0  0  0
  7 24  1  0  0  0  0
  8  9  2  0  0  0  0
  8 25  1  0  0  0  0
  9 10  1  0  0  0  0
  9 16  1  0  0  0  0
 10 15  1  0  0  0  0
 10 11  1  0  0  0  0
 11 12  1  0  0  0  0
 11 26  1  0  0  0  0
 11 27  1  0  0  0  0
 12 13  1  0  0  0  0
 12 28  1  0  0  0  0
 12 29  1  0  0  0  0
 13 14  1  0  0  0  0
 14 15  1  0  0  0  0
 14 30  1  0  0  0  0
 14 31  1  0  0  0  0
 15 32  1  0  0  0  0
 15 33  1  0  0  0  0
 16 17  2  0  0  0  0
 17 34  1  0  0  0  0
M  END
> <s_m_source_file>
AV-unprocessed.smi

> <i_m_source_file_index>
424

> <i_lp_mmshare_version>
43012

> <i_f3d_flags>
0

> <s_epik_input>
W0NIM11bQ0gyXUMoPU8pW05IXWMxW2NIXVtjSF1jKG5bY0hdMSlOMltDSDJdW0NIMl1PW0NIMl1bQ0gyXTI=

> <s_epik_cmdline>
J2VwaWtfcHl0aG9uJywgJy1waCcsICc3LjAnLCAnLXRuJywgJzgnLCAnLW1hJywgJzIwMCcsICctbWV0YWxfYmluZGluZycsICctaW1hZScsICc8aW5maWxlLm1hZT4nLCAnLW9tYWUnLCAnPG91dGZpbGUubWFlPic=

> <r_lp_tautomer_probability>
1

> <r_epik_Ionization_Penalty>
0.000622595

> <r_epik_Ionization_Penalty_Charging>
0

> <r_epik_Ionization_Penalty_Neutral>
0.000622595

> <r_epik_State_Penalty>
0.000387388

> <r_epik_Charging_Adjusted_Penalty>
0.000387388

> <i_epik_Tot_Q>
0

> <i_epik_Tot_abs_Q>
0

> <r_epik_Metal_State_Penalty>
-0

> <b_epik_Metal_Only>
0

> <s_lp_Force_Field>
OPLS_2005

> <r_lp_Energy>
21.9993

> <b_lp_Chiralities_Consistent>
1

> <s_lp_Variant>
AV-unprocessed.smi:424-1

> <Gold.Version>
5.8.1

> <Gold.Id.Protein>
6NUR|6NUR_protein|mol2

> <Gold.PLP.Fitness>
39.4117

> <Gold.PLP.PLP>
-34.2825

> <Gold.PLP.part.hbond>
-1.9813

> <Gold.PLP.part.metal>
0.0000

> <Gold.PLP.part.buried>
-3.7842

> <Gold.PLP.part.nonpolar>
-28.2462

> <Gold.PLP.part.repulsive>
0.2078

> <Gold.PLP.ligand.clash>
0.0000

> <Gold.PLP.ligand.torsion>
0.6111

> <Gold.PLP.Chemscore.Hbond>
1.0000

> <Gold.PLP.Chemscore.CHOScore>
1.0000

> <Gold.PLP.Chemscore.Metal>
0.0000

> <Gold.Chemscore.Hbonds>
donor molecule, donor type, donor heavy atom, donor atom, acceptor molecule, acceptor atom, score
      L1  H     5    23       P1  8028  1.00
      L1  C    17    34       P1  8028  0.98

> <Gold.PLP.Chemscore.Internal.Correction>
0.3514

> <Gold.Rescore>
     Score         DG    S(hbond)    S(metal)    S(lipo)     H(rot)  DE(clash)    DE(int)     intcor
     11.67     -14.81       1.00        0.00      77.18       1.18       1.40       1.75       ----

> <Gold.Chemscore.Fitness>
11.6653

> <Gold.Chemscore.DG>
-14.8096

> <Gold.Chemscore.ZeroCoef>
-5.4800

> <Gold.Chemscore.Hbond>
0.9978

> <Gold.Chemscore.Metal>
0.0000

> <Gold.Chemscore.Lipo>
77.1801

> <Gold.Chemscore.Internal_Hbond>
0.0000

> <Gold.Chemscore.DEClash>
1.3984

> <Gold.Chemscore.DEInternal>
1.7459

> <Gold.Chemscore.Rot>
1.1848

> <Gold.Chemscore.Internal.Correction>
   9.000000E+99

> <Gold.Chemscore.Hbonds>
donor molecule, donor type, donor heavy atom, donor atom, acceptor molecule, acceptor atom, score
      L1  H     5    23       P1  8028  0.97

> <Gold.Chemscore.Hbond.Weighted>
-3.3326

> <Gold.Chemscore.Metal.Weighted>
-0.0000

> <Gold.Chemscore.Lipo.Weighted>
-9.0301

> <Gold.Chemscore.Internal_Hbond.Weighted>
0.0000

> <Gold.Chemscore.DEClash.Weighted>
1.3984

> <Gold.Chemscore.DEInternal.Weighted>
1.7459

> <Gold.Chemscore.Rot.Weighted>
3.0331

> <Gold.Chemscore.Internal.Correction.Weighted>
   9.000000E+99

> <Gold.Protein.RotatedTorsions>
[ 6907 6896 6895 6894 ] final  -56.95 input  -60.11 | X-H torsion
[ 7974 7965 7964 7962 ] final -153.69 input  175.53 | X-H torsion
[ 8008 7997 7996 7995 ] final  -80.59 input   59.86 | X-H torsion
[ 10167 10162 10161 10158 ] final  115.45 input  -65.29 | X-H torsion
[ 10718 10713 10712 10709 ] final  113.48 input   66.30 | X-H torsion
[ 10763 10752 10751 10750 ] final   11.16 input  -60.55 | X-H torsion
[ 11005 11000 10999 10996 ] final   91.88 input  -57.11 | X-H torsion

> <Gold.Protein.ActiveResidues>
 VAL166  LYS551  ARG553  GLY616  TRP617  ASP618  TYR619  PRO620  LYS621  CYS622 
 ASP623  PHE694  ASN695  SER759  ASP760  ASP761  ALA762  ILE779  LEU786  VAL792 
 PHE793  MET794  SER795  GLU796  ALA797  LYS798  CYS799  TRP800  GLU811  SER814 

> <Gold.Protein.RotatedAtoms>
  150.8125  134.7288  159.6700 H   0  0  0  0  0  0  0  0  0  0  0  0  # atno 6907 bound_to 6896
  152.4245  134.5891  159.9979 H   0  0  0  0  0  0  0  0  0  0  0  0  # atno 6908 bound_to 6896
  151.6097  133.3311  159.3101 H   0  0  0  0  0  0  0  0  0  0  0  0  # atno 6909 bound_to 6896
  144.7728  140.4491  143.5895 H   0  0  0  0  0  0  0  0  0  0  0  0  # atno 7974 bound_to 7965
  154.5898  140.0660  156.9223 H   0  0  0  0  0  0  0  0  0  0  0  0  # atno 8008 bound_to 7997
  155.2314  140.3338  155.4284 H   0  0  0  0  0  0  0  0  0  0  0  0  # atno 8009 bound_to 7997
  156.2248  140.1814  156.7374 H   0  0  0  0  0  0  0  0  0  0  0  0  # atno 8010 bound_to 7997
  139.6316  144.7115  151.2420 H   0  0  0  0  0  0  0  0  0  0  0  0  # atno 10167 bound_to 10162
  157.6336  131.0984  150.7046 H   0  0  0  0  0  0  0  0  0  0  0  0  # atno 10718 bound_to 10713
  153.1956  135.6848  153.8297 H   0  0  0  0  0  0  0  0  0  0  0  0  # atno 10763 bound_to 10752
  153.7581  135.3214  155.3333 H   0  0  0  0  0  0  0  0  0  0  0  0  # atno 10764 bound_to 10752
  154.8142  135.4697  154.0698 H   0  0  0  0  0  0  0  0  0  0  0  0  # atno 10765 bound_to 10752
  139.8832  134.8700  156.3492 H   0  0  0  0  0  0  0  0  0  0  0  0  # atno 11005 bound_to 11000
  145.6275  139.1532  143.2988 LP  0  0  0  0  0  0  0  0  0  0  0  0  # atno 17320 bound_to 7965
  146.1886  140.6381  142.9156 LP  0  0  0  0  0  0  0  0  0  0  0  0  # atno 17321 bound_to 7965
  140.7442  143.6470  150.8283 LP  0  0  0  0  0  0  0  0  0  0  0  0  # atno 17342 bound_to 10162
  140.0095  143.5657  152.2844 LP  0  0  0  0  0  0  0  0  0  0  0  0  # atno 17343 bound_to 10162
  156.7381  130.4730  149.5484 LP  0  0  0  0  0  0  0  0  0  0  0  0  # atno 17370 bound_to 10713
  156.1557  130.6340  151.0654 LP  0  0  0  0  0  0  0  0  0  0  0  0  # atno 17371 bound_to 10713
  140.9606  133.7391  156.0396 LP  0  0  0  0  0  0  0  0  0  0  0  0  # atno 17394 bound_to 11000
  140.7994  134.3526  157.5443 LP  0  0  0  0  0  0  0  0  0  0  0  0  # atno 17395 bound_to 11000

$$$$
