#       Name:                AV-unprocessed.smi:36
#       Creating user name   scv26
#       Creation time:       Thu Mar 26 16:07:14 2020


#       File generated by GOLD software.
#

@<TRIPOS>MOLECULE
AV-unprocessed.smi:36
    73    76     1
SMALL
NO_CHARGES


@<TRIPOS>ATOM
      1 ****        -3.3302   3.5799  -1.5867 C.3            1 S1                 0.0000
      2 ****        -3.4529   2.5421  -0.4588 C.3            1 S1                 0.0000
      3 ****        -4.7799   2.7399   0.2926 C.3            1 S1                 0.0000
      4 ****        -3.3976   1.1216  -1.0459 C.3            1 S1                 0.0000
      5 ****        -2.0033   2.7622   0.7657 Si             1 S1                 0.0000
      6 ****        -0.3317   2.5147  -0.1055 C.3            1 S1                 0.0000
      7 ****        -2.0491   4.4742   1.5879 C.3            1 S1                 0.0000
      8 ****        -2.1653   1.5914   1.9759 O.3            1 S1                 0.0000
      9 ****        -1.1653   1.3225   2.9350 C.3            1 S1                 0.0000
     10 ****        -1.6391   0.1724   3.8460 C.3            1 S1                 0.0000
     11 ****        -1.7694  -1.0190   3.0723 O.3            1 S1                 0.0000
     12 ****        -0.5955  -1.7811   3.1225 C.3            1 S1                 0.0000
     13 ****         0.0349  -1.7862   1.7638 N.pl3          1 S1                 0.0000
     14 ****        -0.4405  -1.2343   0.6296 C.2            1 S1                 0.0000
     15 ****         0.3166  -1.4053  -0.4509 N.2            1 S1                 0.0000
     16 ****         1.3770  -2.1597   0.0387 C.2            1 S1                 0.0000
     17 ****         2.5672  -2.6987  -0.6539 C.2            1 S1                 0.0000
     18 ****         2.6927  -2.4475  -1.9219 N.2            1 S1                 0.0000
     19 ****         3.7872  -2.9346  -2.6244 C.2            1 S1                 0.0000
     20 ****         4.7306  -3.6155  -2.2129 O.2            1 S1                 0.0000
     21 ****         3.7880  -2.5360  -4.0641 C.ar           1 S1                 0.0000
     22 ****         3.0534  -3.2859  -5.0069 C.ar           1 S1                 0.0000
     23 ****         3.0479  -2.9045  -6.3630 C.ar           1 S1                 0.0000
     24 ****         3.7744  -1.7722  -6.7797 C.ar           1 S1                 0.0000
     25 ****         4.5067  -1.0205  -5.8403 C.ar           1 S1                 0.0000
     26 ****         4.5131  -1.4005  -4.4838 C.ar           1 S1                 0.0000
     27 ****         3.3612  -3.4132   0.2525 N.pl3          1 S1                 0.0000
     28 ****         3.0861  -3.6048   1.6153 C.2            1 S1                 0.0000
     29 ****         2.0386  -3.1360   2.2391 N.2            1 S1                 0.0000
     30 ****         1.2186  -2.4126   1.3844 C.2            1 S1                 0.0000
     31 ****         0.3328  -1.1156   4.1474 C.3            1 S1                 0.0000
     32 ****        -0.6390  -0.2536   4.9267 C.3            1 S1                 0.0000
     33 ****         0.0055   0.8233   5.5764 O.3            1 S1                 0.0000
     34 ****        -4.1453   3.4825  -2.3046 H              1 S1                 0.0000
     35 ****        -2.3951   3.4622  -2.1347 H              1 S1                 0.0000
     36 ****        -3.3571   4.5972  -1.1953 H              1 S1                 0.0000
     37 ****        -4.8530   3.7426   0.7144 H              1 S1                 0.0000
     38 ****        -4.8792   2.0294   1.1140 H              1 S1                 0.0000
     39 ****        -5.6349   2.5996  -0.3694 H              1 S1                 0.0000
     40 ****        -4.2145   0.9498  -1.7475 H              1 S1                 0.0000
     41 ****        -3.4732   0.3667  -0.2626 H              1 S1                 0.0000
     42 ****        -2.4637   0.9471  -1.5809 H              1 S1                 0.0000
     43 ****        -0.1824   3.2458  -0.8994 H              1 S1                 0.0000
     44 ****        -0.2556   1.5268  -0.5578 H              1 S1                 0.0000
     45 ****         0.5017   2.6180   0.5887 H              1 S1                 0.0000
     46 ****        -1.9688   5.2744   0.8527 H              1 S1                 0.0000
     47 ****        -1.2283   4.5990   2.2938 H              1 S1                 0.0000
     48 ****        -2.9764   4.6299   2.1389 H              1 S1                 0.0000
     49 ****        -0.2290   1.0802   2.4336 H              1 S1                 0.0000
     50 ****        -0.9944   2.2278   3.5177 H              1 S1                 0.0000
     51 ****        -2.5995   0.4355   4.2904 H              1 S1                 0.0000
     52 ****        -0.8186  -2.8273   3.3345 H              1 S1                 0.0000
     53 ****        -1.3693  -0.6852   0.5899 H              1 S1                 0.0000
     54 ****         2.4923  -4.1547  -4.6941 H              1 S1                 0.0000
     55 ****         2.4860  -3.4804  -7.0833 H              1 S1                 0.0000
     56 ****         3.7696  -1.4800  -7.8194 H              1 S1                 0.0000
     57 ****         5.0633  -0.1518  -6.1598 H              1 S1                 0.0000
     58 ****         5.0761  -0.8180  -3.7687 H              1 S1                 0.0000
     59 ****         3.8375  -4.1963   2.1402 H              1 S1                 0.0000
     60 ****         0.8438  -1.8598   4.7588 H              1 S1                 0.0000
     61 ****         1.0794  -0.5041   3.6373 H              1 S1                 0.0000
     62 ****        -1.1488  -0.8655   5.6722 H              1 S1                 0.0000
     63 ****        -0.6469   1.3307   6.0347 H              1 S1                 0.0000
     64 ****         4.2078  -3.8280  -0.1092 H              1 S1                 0.0000
     65 ****        -1.9588  -0.7726   2.1219 LP             1 S1                 0.0000
     66 ****        -2.5275  -1.5621   3.4334 LP             1 S1                 0.0000
     67 ****         0.1619  -1.0743  -1.3817 LP             1 S1                 0.0000
     68 ****         1.9998  -1.9022  -2.3934 LP             1 S1                 0.0000
     69 ****         4.7698  -3.8863  -1.2510 LP             1 S1                 0.0000
     70 ****         5.4560  -3.8965  -2.8413 LP             1 S1                 0.0000
     71 ****         1.8510  -3.2803   3.2107 LP             1 S1                 0.0000
     72 ****         0.4663   1.3982   4.9002 LP             1 S1                 0.0000
     73 ****         0.6776   0.4709   6.2277 LP             1 S1                 0.0000
@<TRIPOS>BOND
    1    1    2 1     
    2    1   34 1     
    3    1   35 1     
    4    1   36 1     
    5    2    3 1     
    6    2    4 1     
    7    2    5 1     
    8    3   37 1     
    9    3   38 1     
   10    3   39 1     
   11    4   40 1     
   12    4   41 1     
   13    4   42 1     
   14    5    6 1     
   15    5    7 1     
   16    5    8 1     
   17    6   43 1     
   18    6   44 1     
   19    6   45 1     
   20    7   46 1     
   21    7   47 1     
   22    7   48 1     
   23    8    9 1     
   24    9   10 1     
   25    9   49 1     
   26    9   50 1     
   27   10   32 1     
   28   10   11 1     
   29   10   51 1     
   30   11   12 1     
   31   12   13 1     
   32   12   31 1     
   33   12   52 1     
   34   13   30 1     
   35   13   14 1     
   36   14   15 2     
   37   14   53 1     
   38   15   16 1     
   39   16   30 2     
   40   16   17 1     
   41   17   18 2     
   42   17   27 1     
   43   18   19 1     
   44   19   20 2     
   45   19   21 1     
   46   21   26 ar    
   47   21   22 ar    
   48   22   23 ar    
   49   22   54 1     
   50   23   24 ar    
   51   23   55 1     
   52   24   25 ar    
   53   24   56 1     
   54   25   26 ar    
   55   25   57 1     
   56   26   58 1     
   57   27   28 1     
   58   27   64 1     
   59   28   29 2     
   60   28   59 1     
   61   29   30 1     
   62   31   32 1     
   63   31   60 1     
   64   31   61 1     
   65   32   33 1     
   66   32   62 1     
   67   33   63 1     
   68   11   65 1     
   69   11   66 1     
   70   15   67 1     
   71   18   68 1     
   72   20   69 1     
   73   20   70 1     
   74   29   71 1     
   75   33   72 1     
   76   33   73 1     
@<TRIPOS>SUBSTRUCTURE
      1 S1             1
@<TRIPOS>SET
LONE_PAIRS      STATIC     ATOMS    <user>   **** ""
9 65 66 67 68 69 70 71 72 73
DONOR_HYDROGENS      STATIC     ATOMS    <user>   **** ""
2 64 63
ATOM$BLUE        STATIC     ATOMS    COLORGROUP SYSTEM
9 65 66 67 68 69 70 71 72 73
ATOM$RED        STATIC     ATOMS    COLORGROUP SYSTEM
2 64 63
