AV-unprocessed.smi:3303|AV-procd|sdf|12681|dock4
  -GOLD-   2272019 13D 1   1.00000     0.00000
 Structure written by MMmdl.
 44 45  0  0  0  0  0  0  0  0  2 V2000
  147.5315  140.8387  153.9070 C   0  0  0  0  0  0  0  0  0  0  0  0
  148.3580  139.5451  154.0203 C   0  0  2  0  0  0  0  0  0  0  0  0
  147.4276  138.3454  154.2863 C   0  0  0  0  0  0  0  0  0  0  0  0
  148.1733  137.0634  154.3789 N   0  3  2  0  0  0  0  0  0  0  0  0
  147.2412  135.9137  154.4738 C   0  0  0  0  0  0  0  0  0  0  0  0
  149.2079  137.0999  155.4549 C   0  0  1  0  0  0  0  0  0  0  0  0
  150.0053  135.7852  155.5611 C   0  0  0  0  0  0  0  0  0  0  0  0
  150.1768  138.2743  155.2150 C   0  0  0  0  0  0  0  0  0  0  0  0
  149.4423  139.6208  155.1187 C   0  0  1  0  0  0  0  0  0  0  0  0
  150.4315  140.6356  154.7794 N   0  0  0  0  0  0  0  0  0  0  0  0
  151.2529  140.9917  155.9281 C   0  0  0  0  0  0  0  0  0  0  0  0
  150.4115  141.6834  157.0144 C   0  0  0  0  0  0  0  0  0  0  0  0
  151.2421  142.5248  157.9695 C   0  0  0  0  0  0  0  0  0  0  0  0
  151.6937  143.8057  157.5864 C   0  0  0  0  0  0  0  0  0  0  0  0
  152.4782  144.5413  158.4957 C   0  0  0  0  0  0  0  0  0  0  0  0
  152.7817  143.9700  159.7464 C   0  0  0  0  0  0  0  0  0  0  0  0
  152.2836  142.6837  160.0338 C   0  0  0  0  0  0  0  0  0  0  0  0
  151.5299  141.9705  159.1697 N   0  0  0  0  0  0  0  0  0  0  0  0
  147.0509  141.0872  154.8537 H   0  0  0  0  0  0  0  0  0  0  0  0
  146.7500  140.7399  153.1531 H   0  0  0  0  0  0  0  0  0  0  0  0
  148.1512  141.6862  153.6134 H   0  0  0  0  0  0  0  0  0  0  0  0
  148.8474  139.3804  153.0585 H   0  0  0  0  0  0  0  0  0  0  0  0
  146.8649  138.5026  155.2082 H   0  0  0  0  0  0  0  0  0  0  0  0
  146.6954  138.2760  153.4805 H   0  0  0  0  0  0  0  0  0  0  0  0
  146.7427  135.8929  155.4438 H   0  0  0  0  0  0  0  0  0  0  0  0
  147.7577  134.9655  154.3277 H   0  0  0  0  0  0  0  0  0  0  0  0
  146.4742  135.9715  153.7007 H   0  0  0  0  0  0  0  0  0  0  0  0
  148.6996  137.2626  156.4071 H   0  0  0  0  0  0  0  0  0  0  0  0
  150.8139  135.8794  156.2863 H   0  0  0  0  0  0  0  0  0  0  0  0
  150.4519  135.5104  154.6049 H   0  0  0  0  0  0  0  0  0  0  0  0
  149.3846  134.9550  155.8976 H   0  0  0  0  0  0  0  0  0  0  0  0
  150.9087  138.3176  156.0230 H   0  0  0  0  0  0  0  0  0  0  0  0
  150.7420  138.0932  154.2985 H   0  0  0  0  0  0  0  0  0  0  0  0
  148.9797  139.8350  156.0839 H   0  0  0  0  0  0  0  0  0  0  0  0
  151.0270  140.3108  154.0309 H   0  0  0  0  0  0  0  0  0  0  0  0
  151.7316  140.1051  156.3450 H   0  0  0  0  0  0  0  0  0  0  0  0
  152.0478  141.6598  155.5948 H   0  0  0  0  0  0  0  0  0  0  0  0
  149.6717  142.3288  156.5393 H   0  0  0  0  0  0  0  0  0  0  0  0
  149.8439  140.9434  157.5807 H   0  0  0  0  0  0  0  0  0  0  0  0
  151.4494  144.2150  156.6171 H   0  0  0  0  0  0  0  0  0  0  0  0
  152.8422  145.5247  158.2377 H   0  0  0  0  0  0  0  0  0  0  0  0
  153.3822  144.5039  160.4680 H   0  0  0  0  0  0  0  0  0  0  0  0
  152.4986  142.2139  160.9821 H   0  0  0  0  0  0  0  0  0  0  0  0
  148.6677  136.9579  153.5044 H   0  0  0  0  0  0  0  0  0  0  0  0
  1  2  1  0  0  0  0
  1 19  1  0  0  0  0
  1 20  1  0  0  0  0
  1 21  1  0  0  0  0
  2  9  1  0  0  0  0
  2  3  1  0  0  0  0
  2 22  1  0  0  0  0
  3  4  1  0  0  0  0
  3 23  1  0  0  0  0
  3 24  1  0  0  0  0
  4  5  1  0  0  0  0
  4  6  1  0  0  0  0
  4 44  1  0  0  0  0
  5 25  1  0  0  0  0
  5 26  1  0  0  0  0
  5 27  1  0  0  0  0
  6  7  1  0  0  0  0
  6  8  1  0  0  0  0
  6 28  1  0  0  0  0
  7 29  1  0  0  0  0
  7 30  1  0  0  0  0
  7 31  1  0  0  0  0
  8  9  1  0  0  0  0
  8 32  1  0  0  0  0
  8 33  1  0  0  0  0
  9 10  1  0  0  0  0
  9 34  1  0  0  0  0
 10 11  1  0  0  0  0
 10 35  1  0  0  0  0
 11 12  1  0  0  0  0
 11 36  1  0  0  0  0
 11 37  1  0  0  0  0
 12 13  1  0  0  0  0
 12 38  1  0  0  0  0
 12 39  1  0  0  0  0
 13 18  1  0  0  0  0
 13 14  2  0  0  0  0
 14 15  1  0  0  0  0
 14 40  1  0  0  0  0
 15 16  2  0  0  0  0
 15 41  1  0  0  0  0
 16 17  1  0  0  0  0
 16 42  1  0  0  0  0
 17 18  2  0  0  0  0
 17 43  1  0  0  0  0
M  CHG  1   4   1
M  END
> <s_m_source_file>
AV-unprocessed.smi

> <i_m_source_file_index>
3303

> <i_lp_mmshare_version>
43012

> <i_f3d_flags>
0

> <s_epik_input>
W0NIM11bQ0BASF0xW0NIMl1OKFtDSDNdKVtDQEBIXShbQ0gzXSlbQ0gyXVtDQEhdMVtOSF1bQ0gyXVtDSDJdYzJbY0hdW2NIXVtjSF1bY0hdbjI=

> <s_epik_cmdline>
J2VwaWtfcHl0aG9uJywgJy1waCcsICc3LjAnLCAnLXRuJywgJzgnLCAnLW1hJywgJzIwMCcsICctbWV0YWxfYmluZGluZycsICctaW1hZScsICc8aW5maWxlLm1hZT4nLCAnLW9tYWUnLCAnPG91dGZpbGUubWFlPic=

> <r_epik_Ionization_Penalty>
2.31085

> <r_epik_Ionization_Penalty_Charging>
0.000313057

> <r_epik_Ionization_Penalty_Neutral>
2.31054

> <r_epik_State_Penalty>
2.4087

> <r_epik_Charging_Adjusted_Penalty>
2.40902

> <i_epik_Tot_Q>
1

> <i_epik_Tot_abs_Q>
1

> <r_epik_Metal_State_Penalty>
2.30979

> <b_epik_Metal_Only>
0

> <s_lp_Force_Field>
OPLS_2005

> <r_lp_Energy>
25.5146

> <b_lp_Chiralities_Consistent>
1

> <s_lp_Variant>
AV-unprocessed.smi:3303-25

> <Gold.Version>
5.8.1

> <Gold.Id.Protein>
6NUR|6NUR_protein|mol2

> <Gold.PLP.Fitness>
39.9079

> <Gold.PLP.PLP>
-34.8992

> <Gold.PLP.part.hbond>
-2.0000

> <Gold.PLP.part.metal>
0.0000

> <Gold.PLP.part.buried>
-2.2816

> <Gold.PLP.part.nonpolar>
-30.1788

> <Gold.PLP.part.repulsive>
0.0000

> <Gold.PLP.ligand.clash>
0.0000

> <Gold.PLP.ligand.torsion>
0.4985

> <Gold.PLP.Chemscore.Hbond>
2.0000

> <Gold.PLP.Chemscore.CHOScore>
0.0000

> <Gold.PLP.Chemscore.Metal>
0.0000

> <Gold.Chemscore.Hbonds>
donor molecule, donor type, donor heavy atom, donor atom, acceptor molecule, acceptor atom, score
      L1  H     4    44       P1  7948  2.00

> <Gold.PLP.Chemscore.Internal.Correction>
0.0058

> <Gold.Rescore>
     Score         DG    S(hbond)    S(metal)    S(lipo)     H(rot)  DE(clash)    DE(int)     intcor
     17.34     -18.00       0.99        0.00     107.79       1.33       0.19       0.47       ----

> <Gold.Chemscore.Fitness>
17.3374

> <Gold.Chemscore.DG>
-17.9950

> <Gold.Chemscore.ZeroCoef>
-5.4800

> <Gold.Chemscore.Hbond>
0.9883

> <Gold.Chemscore.Metal>
0.0000

> <Gold.Chemscore.Lipo>
107.7923

> <Gold.Chemscore.Internal_Hbond>
0.0000

> <Gold.Chemscore.DEClash>
0.1887

> <Gold.Chemscore.DEInternal>
0.4689

> <Gold.Chemscore.Rot>
1.3272

> <Gold.Chemscore.Internal.Correction>
   9.000000E+99

> <Gold.Chemscore.Hbonds>
donor molecule, donor type, donor heavy atom, donor atom, acceptor molecule, acceptor atom, score
      L1  H     4    44       P1  7948  0.98

> <Gold.Chemscore.Hbond.Weighted>
-3.3010

> <Gold.Chemscore.Metal.Weighted>
-0.0000

> <Gold.Chemscore.Lipo.Weighted>
-12.6117

> <Gold.Chemscore.Internal_Hbond.Weighted>
0.0000

> <Gold.Chemscore.DEClash.Weighted>
0.1887

> <Gold.Chemscore.DEInternal.Weighted>
0.4689

> <Gold.Chemscore.Rot.Weighted>
3.3976

> <Gold.Chemscore.Internal.Correction.Weighted>
   9.000000E+99

> <Gold.Protein.RotatedTorsions>
[ 6907 6896 6895 6894 ] final    7.94 input  -60.11 | X-H torsion
[ 7974 7965 7964 7962 ] final  123.40 input  175.53 | X-H torsion
[ 8008 7997 7996 7995 ] final -167.56 input   59.86 | X-H torsion
[ 10167 10162 10161 10158 ] final  -55.19 input  -65.29 | X-H torsion
[ 10718 10713 10712 10709 ] final   12.04 input   66.30 | X-H torsion
[ 10763 10752 10751 10750 ] final -127.59 input  -60.55 | X-H torsion
[ 11005 11000 10999 10996 ] final -151.92 input  -57.11 | X-H torsion

> <Gold.Protein.ActiveResidues>
 VAL166  LYS551  ARG553  GLY616  TRP617  ASP618  TYR619  PRO620  LYS621  CYS622 
 ASP623  PHE694  ASN695  SER759  ASP760  ASP761  ALA762  ILE779  LEU786  VAL792 
 PHE793  MET794  SER795  GLU796  ALA797  LYS798  CYS799  TRP800  GLU811  SER814 

> <Gold.Protein.RotatedAtoms>
  151.6979  135.0935  160.0245 H   0  0  0  0  0  0  0  0  0  0  0  0  # atno 6907 bound_to 6896
  152.3738  133.6450  159.6116 H   0  0  0  0  0  0  0  0  0  0  0  0  # atno 6908 bound_to 6896
  150.7694  133.9142  159.3420 H   0  0  0  0  0  0  0  0  0  0  0  0  # atno 6909 bound_to 6896
  145.0963  139.3550  143.4835 H   0  0  0  0  0  0  0  0  0  0  0  0  # atno 7974 bound_to 7965
  155.8794  140.1006  157.1496 H   0  0  0  0  0  0  0  0  0  0  0  0  # atno 8008 bound_to 7997
  154.4004  140.1332  156.4241 H   0  0  0  0  0  0  0  0  0  0  0  0  # atno 8009 bound_to 7997
  155.7660  140.3462  155.5225 H   0  0  0  0  0  0  0  0  0  0  0  0  # atno 8010 bound_to 7997
  140.6388  143.2496  151.5045 H   0  0  0  0  0  0  0  0  0  0  0  0  # atno 10167 bound_to 10162
  157.0043  130.6092  149.5700 H   0  0  0  0  0  0  0  0  0  0  0  0  # atno 10718 bound_to 10713
  154.8753  135.3956  154.3619 H   0  0  0  0  0  0  0  0  0  0  0  0  # atno 10763 bound_to 10752
  153.4390  135.7026  153.6186 H   0  0  0  0  0  0  0  0  0  0  0  0  # atno 10764 bound_to 10752
  153.4775  135.3776  155.2393 H   0  0  0  0  0  0  0  0  0  0  0  0  # atno 10765 bound_to 10752
  140.7244  134.3691  157.5178 H   0  0  0  0  0  0  0  0  0  0  0  0  # atno 11005 bound_to 11000
  146.3530  140.0820  142.8617 LP  0  0  0  0  0  0  0  0  0  0  0  0  # atno 17320 bound_to 7965
  145.1007  140.9344  143.4714 LP  0  0  0  0  0  0  0  0  0  0  0  0  # atno 17321 bound_to 7965
  139.5598  144.2185  152.1672 LP  0  0  0  0  0  0  0  0  0  0  0  0  # atno 17342 bound_to 10162
  140.1450  144.5167  150.6721 LP  0  0  0  0  0  0  0  0  0  0  0  0  # atno 17343 bound_to 10162
  156.0159  130.5253  150.8133 LP  0  0  0  0  0  0  0  0  0  0  0  0  # atno 17370 bound_to 10713
  157.5367  131.0939  150.9883 LP  0  0  0  0  0  0  0  0  0  0  0  0  # atno 17371 bound_to 10713
  139.8840  134.8977  156.2728 LP  0  0  0  0  0  0  0  0  0  0  0  0  # atno 17394 bound_to 11000
  140.9975  133.7171  156.0909 LP  0  0  0  0  0  0  0  0  0  0  0  0  # atno 17395 bound_to 11000

$$$$
