AV-unprocessed.smi:1141|AV-procd|sdf|4872|dock8
  -GOLD-   22720 3443D 1   1.00000     0.00000
 Structure written by MMmdl.
 45 46  0  0  0  0  0  0  0  0  1 V2000
  151.3723  136.4372  155.1463 C   0  0  0  0  0  0  0  0  0  0  0  0
  151.7417  137.6374  154.4912 O   0  0  0  0  0  0  0  0  0  0  0  0
  152.7788  138.3286  155.1710 C   0  0  0  0  0  0  0  0  0  0  0  0
  152.2497  139.6720  155.6730 C   0  0  0  0  0  0  0  0  0  0  0  0
  151.7331  140.4539  154.8756 O   0  0  0  0  0  0  0  0  0  0  0  0
  152.4286  139.9237  156.9825 N   0  0  0  0  0  0  0  0  0  0  0  0
  152.0756  141.0913  157.7171 C   0  0  0  0  0  0  0  0  0  0  0  0
  151.3135  142.1416  157.1521 C   0  0  0  0  0  0  0  0  0  0  0  0
  150.9614  143.2434  157.9520 C   0  0  0  0  0  0  0  0  0  0  0  0
  151.3710  143.2609  159.2975 C   0  0  0  0  0  0  0  0  0  0  0  0
  151.0252  144.3420  160.0820 O   0  0  0  0  0  0  0  0  0  0  0  0
  151.2237  144.2453  161.4884 C   0  0  0  0  0  0  0  0  0  0  0  0
  152.0877  142.2535  159.8506 N   0  0  0  0  0  0  0  0  0  0  0  0
  152.4335  141.1886  159.0881 C   0  0  0  0  0  0  0  0  0  0  0  0
  153.1914  140.1739  159.7059 N   0  0  0  0  0  0  0  0  0  0  0  0
  153.8806  140.6098  160.9210 C   0  0  0  0  0  0  0  0  0  0  0  0
  154.8772  139.5358  161.3968 C   0  0  0  0  0  0  0  0  0  0  0  0
  154.1670  138.2592  161.5498 N   0  0  0  0  0  0  0  0  0  0  0  0
  153.9638  137.6696  162.7521 C   0  0  0  0  0  0  0  0  0  0  0  0
  154.5634  138.3055  164.0083 C   0  0  0  0  0  0  0  0  0  0  0  0
  153.3140  136.6323  162.8826 O   0  0  0  0  0  0  0  0  0  0  0  0
  153.6075  137.8048  160.2691 C   0  0  0  0  0  0  0  0  0  0  0  0
  152.5823  138.8438  159.7779 C   0  0  0  0  0  0  0  0  0  0  0  0
  150.5778  135.9440  154.5864 H   0  0  0  0  0  0  0  0  0  0  0  0
  151.0019  136.6357  156.1530 H   0  0  0  0  0  0  0  0  0  0  0  0
  152.2158  135.7486  155.2127 H   0  0  0  0  0  0  0  0  0  0  0  0
  153.1317  137.7459  156.0235 H   0  0  0  0  0  0  0  0  0  0  0  0
  153.6262  138.4930  154.5027 H   0  0  0  0  0  0  0  0  0  0  0  0
  152.9547  139.2311  157.4961 H   0  0  0  0  0  0  0  0  0  0  0  0
  150.9767  142.1128  156.1274 H   0  0  0  0  0  0  0  0  0  0  0  0
  150.3807  144.0564  157.5419 H   0  0  0  0  0  0  0  0  0  0  0  0
  150.9050  145.1735  161.9626 H   0  0  0  0  0  0  0  0  0  0  0  0
  152.2762  144.0937  161.7323 H   0  0  0  0  0  0  0  0  0  0  0  0
  150.6356  143.4342  161.9202 H   0  0  0  0  0  0  0  0  0  0  0  0
  154.4072  141.5491  160.7529 H   0  0  0  0  0  0  0  0  0  0  0  0
  153.1391  140.8000  161.6984 H   0  0  0  0  0  0  0  0  0  0  0  0
  155.6769  139.4162  160.6642 H   0  0  0  0  0  0  0  0  0  0  0  0
  155.3618  139.8659  162.3165 H   0  0  0  0  0  0  0  0  0  0  0  0
  155.6491  138.3674  163.9296 H   0  0  0  0  0  0  0  0  0  0  0  0
  154.3278  137.7091  164.8905 H   0  0  0  0  0  0  0  0  0  0  0  0
  154.1598  139.3060  164.1659 H   0  0  0  0  0  0  0  0  0  0  0  0
  154.4164  137.7094  159.5430 H   0  0  0  0  0  0  0  0  0  0  0  0
  153.1404  136.8224  160.3164 H   0  0  0  0  0  0  0  0  0  0  0  0
  151.7284  138.8661  160.4568 H   0  0  0  0  0  0  0  0  0  0  0  0
  152.2069  138.5593  158.7942 H   0  0  0  0  0  0  0  0  0  0  0  0
  1  2  1  0  0  0  0
  1 24  1  0  0  0  0
  1 25  1  0  0  0  0
  1 26  1  0  0  0  0
  2  3  1  0  0  0  0
  3  4  1  0  0  0  0
  3 27  1  0  0  0  0
  3 28  1  0  0  0  0
  4  5  2  0  0  0  0
  4  6  1  0  0  0  0
  6  7  1  0  0  0  0
  6 29  1  0  0  0  0
  7 14  1  0  0  0  0
  7  8  2  0  0  0  0
  8  9  1  0  0  0  0
  8 30  1  0  0  0  0
  9 10  2  0  0  0  0
  9 31  1  0  0  0  0
 10 11  1  0  0  0  0
 10 13  1  0  0  0  0
 11 12  1  0  0  0  0
 12 32  1  0  0  0  0
 12 33  1  0  0  0  0
 12 34  1  0  0  0  0
 13 14  2  0  0  0  0
 14 15  1  0  0  0  0
 15 23  1  0  0  0  0
 15 16  1  0  0  0  0
 16 17  1  0  0  0  0
 16 35  1  0  0  0  0
 16 36  1  0  0  0  0
 17 18  1  0  0  0  0
 17 37  1  0  0  0  0
 17 38  1  0  0  0  0
 18 19  1  0  0  0  0
 18 22  1  0  0  0  0
 19 20  1  0  0  0  0
 19 21  2  0  0  0  0
 20 39  1  0  0  0  0
 20 40  1  0  0  0  0
 20 41  1  0  0  0  0
 22 23  1  0  0  0  0
 22 42  1  0  0  0  0
 22 43  1  0  0  0  0
 23 44  1  0  0  0  0
 23 45  1  0  0  0  0
M  END
> <s_m_source_file>
AV-unprocessed.smi

> <i_m_source_file_index>
1141

> <i_lp_mmshare_version>
43012

> <i_f3d_flags>
0

> <s_epik_input>
W0NIM11PW0NIMl1DKD1PKVtOSF1jMVtjSF1bY0hdYyhPW0NIM10pbmMxTjJbQ0gyXVtDSDJdTihDKD1PKVtDSDNdKVtDSDJdW0NIMl0y

> <s_epik_cmdline>
J2VwaWtfcHl0aG9uJywgJy1waCcsICc3LjAnLCAnLXRuJywgJzgnLCAnLW1hJywgJzIwMCcsICctbWV0YWxfYmluZGluZycsICctaW1hZScsICc8aW5maWxlLm1hZT4nLCAnLW9tYWUnLCAnPG91dGZpbGUubWFlPic=

> <r_lp_tautomer_probability>
1

> <r_epik_Ionization_Penalty>
0.000141552

> <r_epik_Ionization_Penalty_Charging>
0

> <r_epik_Ionization_Penalty_Neutral>
0.000141552

> <r_epik_State_Penalty>
-0

> <r_epik_Charging_Adjusted_Penalty>
0

> <i_epik_Tot_Q>
0

> <i_epik_Tot_abs_Q>
0

> <r_epik_Metal_State_Penalty>
-0

> <b_epik_Metal_Only>
0

> <s_lp_Force_Field>
OPLS_2005

> <r_lp_Energy>
39.8062

> <b_lp_Chiralities_Consistent>
1

> <s_lp_Variant>
AV-unprocessed.smi:1141-1

> <Gold.Version>
5.8.1

> <Gold.Id.Protein>
6NUR|6NUR_protein|mol2

> <Gold.PLP.Fitness>
38.2566

> <Gold.PLP.PLP>
-36.5219

> <Gold.PLP.part.hbond>
-1.0000

> <Gold.PLP.part.metal>
0.0000

> <Gold.PLP.part.buried>
-7.6715

> <Gold.PLP.part.nonpolar>
-27.5051

> <Gold.PLP.part.repulsive>
0.4285

> <Gold.PLP.ligand.clash>
0.0000

> <Gold.PLP.ligand.torsion>
0.8307

> <Gold.PLP.Chemscore.Hbond>
1.0000

> <Gold.PLP.Chemscore.CHOScore>
0.0000

> <Gold.PLP.Chemscore.Metal>
0.0000

> <Gold.Chemscore.Hbonds>
donor molecule, donor type, donor heavy atom, donor atom, acceptor molecule, acceptor atom, score
      P1  H  7989  7998       L1     5  0.62

> <Gold.PLP.Chemscore.Internal.Correction>
0.3960

> <Gold.Rescore>
     Score         DG    S(hbond)    S(metal)    S(lipo)     H(rot)  DE(clash)    DE(int)     intcor
     11.09     -13.42       0.99        0.00      78.00       1.75       0.00       2.33       ----

> <Gold.Chemscore.Fitness>
11.0864

> <Gold.Chemscore.DG>
-13.4185

> <Gold.Chemscore.ZeroCoef>
-5.4800

> <Gold.Chemscore.Hbond>
0.9886

> <Gold.Chemscore.Metal>
0.0000

> <Gold.Chemscore.Lipo>
77.9960

> <Gold.Chemscore.Internal_Hbond>
0.0000

> <Gold.Chemscore.DEClash>
0.0004

> <Gold.Chemscore.DEInternal>
2.3317

> <Gold.Chemscore.Rot>
1.7535

> <Gold.Chemscore.Internal.Correction>
   9.000000E+99

> <Gold.Chemscore.Hbonds>
donor molecule, donor type, donor heavy atom, donor atom, acceptor molecule, acceptor atom, score
      P1  H  7989  7998       L1     5  0.61

> <Gold.Chemscore.Hbond.Weighted>
-3.3019

> <Gold.Chemscore.Metal.Weighted>
-0.0000

> <Gold.Chemscore.Lipo.Weighted>
-9.1255

> <Gold.Chemscore.Internal_Hbond.Weighted>
0.0000

> <Gold.Chemscore.DEClash.Weighted>
0.0004

> <Gold.Chemscore.DEInternal.Weighted>
2.3317

> <Gold.Chemscore.Rot.Weighted>
4.4890

> <Gold.Chemscore.Internal.Correction.Weighted>
   9.000000E+99

> <Gold.Protein.RotatedTorsions>
[ 6907 6896 6895 6894 ] final   29.33 input  -60.11 | X-H torsion
[ 7974 7965 7964 7962 ] final  -94.61 input  175.53 | X-H torsion
[ 8008 7997 7996 7995 ] final  -11.95 input   59.86 | X-H torsion
[ 10167 10162 10161 10158 ] final  139.69 input  -65.29 | X-H torsion
[ 10718 10713 10712 10709 ] final   -9.39 input   66.30 | X-H torsion
[ 10763 10752 10751 10750 ] final  107.63 input  -60.55 | X-H torsion
[ 11005 11000 10999 10996 ] final   39.91 input  -57.11 | X-H torsion

> <Gold.Protein.ActiveResidues>
 VAL166  LYS551  ARG553  GLY616  TRP617  ASP618  TYR619  PRO620  LYS621  CYS622 
 ASP623  PHE694  ASN695  SER759  ASP760  ASP761  ALA762  ILE779  LEU786  VAL792 
 PHE793  MET794  SER795  GLU796  ALA797  LYS798  CYS799  TRP800  GLU811  SER814 

> <Gold.Protein.RotatedAtoms>
  152.0300  134.9773  160.0572 H   0  0  0  0  0  0  0  0  0  0  0  0  # atno 6907 bound_to 6896
  152.1253  133.4372  159.4703 H   0  0  0  0  0  0  0  0  0  0  0  0  # atno 6908 bound_to 6896
  150.6852  134.2404  159.4513 H   0  0  0  0  0  0  0  0  0  0  0  0  # atno 6909 bound_to 6896
  145.3710  140.9505  143.2447 H   0  0  0  0  0  0  0  0  0  0  0  0  # atno 7974 bound_to 7965
  154.5420  140.2289  155.8625 H   0  0  0  0  0  0  0  0  0  0  0  0  # atno 8008 bound_to 7997
  156.1867  140.3087  155.9215 H   0  0  0  0  0  0  0  0  0  0  0  0  # atno 8009 bound_to 7997
  155.3239  140.0442  157.3031 H   0  0  0  0  0  0  0  0  0  0  0  0  # atno 8010 bound_to 7997
  139.5071  144.6279  151.5890 H   0  0  0  0  0  0  0  0  0  0  0  0  # atno 10167 bound_to 10162
  156.6887  130.5058  149.5950 H   0  0  0  0  0  0  0  0  0  0  0  0  # atno 10718 bound_to 10713
  153.4094  135.3838  155.2040 H   0  0  0  0  0  0  0  0  0  0  0  0  # atno 10763 bound_to 10752
  154.8736  135.3790  154.4520 H   0  0  0  0  0  0  0  0  0  0  0  0  # atno 10764 bound_to 10752
  153.5027  135.7088  153.5885 H   0  0  0  0  0  0  0  0  0  0  0  0  # atno 10765 bound_to 10752
  140.1982  134.3903  155.8110 H   0  0  0  0  0  0  0  0  0  0  0  0  # atno 11005 bound_to 11000
  144.8576  139.5226  143.6827 LP  0  0  0  0  0  0  0  0  0  0  0  0  # atno 17320 bound_to 7965
  146.2885  139.7072  142.9178 LP  0  0  0  0  0  0  0  0  0  0  0  0  # atno 17321 bound_to 7965
  140.6002  143.9623  150.6381 LP  0  0  0  0  0  0  0  0  0  0  0  0  # atno 17342 bound_to 10162
  140.2832  143.3375  152.1132 LP  0  0  0  0  0  0  0  0  0  0  0  0  # atno 17343 bound_to 10162
  156.1813  130.6501  151.0955 LP  0  0  0  0  0  0  0  0  0  0  0  0  # atno 17370 bound_to 10713
  157.7017  131.0773  150.6800 LP  0  0  0  0  0  0  0  0  0  0  0  0  # atno 17371 bound_to 10713
  141.2227  133.7080  156.8212 LP  0  0  0  0  0  0  0  0  0  0  0  0  # atno 17394 bound_to 11000
  140.2084  134.8846  157.3247 LP  0  0  0  0  0  0  0  0  0  0  0  0  # atno 17395 bound_to 11000

$$$$
