AV-unprocessed.smi:1815|AV-procd|sdf|7360|dock1
  -GOLD-   22720 9 23D 1   1.00000     0.00000
 Structure written by MMmdl.
 39 40  0  0  0  0  0  0  0  0  3 V2000
  145.9118  131.7848  149.8825 C   0  0  0  0  0  0  0  0  0  0  0  0
  146.1853  133.0959  150.6280 C   0  0  2  0  0  0  0  0  0  0  0  0
  146.9261  132.8606  151.9563 C   0  0  0  0  0  0  0  0  0  0  0  0
  147.0983  134.1379  152.6856 N   0  3  2  0  0  0  0  0  0  0  0  0
  147.9043  133.9826  153.9214 C   0  0  0  0  0  0  0  0  0  0  0  0
  147.8973  135.2546  154.7828 C   0  0  0  0  0  0  0  0  0  0  0  0
  149.1463  135.9843  154.6196 N   0  0  0  0  0  0  0  0  0  0  0  0
  150.3471  135.5550  155.0284 C   0  0  0  0  0  0  0  0  0  0  0  0
  150.4501  134.4588  155.5839 O   0  0  0  0  0  0  0  0  0  0  0  0
  151.3507  136.4223  154.7679 N   0  5  0  0  0  0  0  0  0  0  0  0
  151.2397  137.7090  155.1364 C   0  0  0  0  0  0  0  0  0  0  0  0
  150.2077  138.1776  155.8473 N   0  0  0  0  0  0  0  0  0  0  0  0
  150.2915  139.5456  156.1121 C   0  0  0  0  0  0  0  0  0  0  0  0
  151.4092  140.1341  155.5827 C   0  0  0  0  0  0  0  0  0  0  0  0
  152.3966  138.9803  154.7326 S   0  0  0  0  0  0  0  0  0  0  0  0
  145.7807  134.7808  152.9129 C   0  0  0  0  0  0  0  0  0  0  0  0
  145.0160  134.9649  151.5874 C   0  0  1  0  0  0  0  0  0  0  0  0
  145.5768  136.0951  150.7057 C   0  0  0  0  0  0  0  0  0  0  0  0
  144.9321  133.7229  150.8880 O   0  0  0  0  0  0  0  0  0  0  0  0
  146.8413  131.2669  149.6446 H   0  0  0  0  0  0  0  0  0  0  0  0
  145.3873  131.9720  148.9452 H   0  0  0  0  0  0  0  0  0  0  0  0
  145.2962  131.1112  150.4792 H   0  0  0  0  0  0  0  0  0  0  0  0
  146.7882  133.7319  149.9795 H   0  0  0  0  0  0  0  0  0  0  0  0
  146.3748  132.1554  152.5810 H   0  0  0  0  0  0  0  0  0  0  0  0
  147.9018  132.4158  151.7549 H   0  0  0  0  0  0  0  0  0  0  0  0
  147.5486  133.1234  154.4924 H   0  0  0  0  0  0  0  0  0  0  0  0
  148.9382  133.7654  153.6481 H   0  0  0  0  0  0  0  0  0  0  0  0
  147.0625  135.8962  154.4959 H   0  0  0  0  0  0  0  0  0  0  0  0
  147.7744  135.0135  155.8387 H   0  0  0  0  0  0  0  0  0  0  0  0
  149.1030  136.8860  154.1673 H   0  0  0  0  0  0  0  0  0  0  0  0
  149.5079  140.0196  156.6840 H   0  0  0  0  0  0  0  0  0  0  0  0
  151.7103  141.1691  155.6389 H   0  0  0  0  0  0  0  0  0  0  0  0
  145.1934  134.1567  153.5882 H   0  0  0  0  0  0  0  0  0  0  0  0
  145.8976  135.7468  153.4028 H   0  0  0  0  0  0  0  0  0  0  0  0
  143.9901  135.2404  151.8339 H   0  0  0  0  0  0  0  0  0  0  0  0
  145.5120  137.0537  151.2210 H   0  0  0  0  0  0  0  0  0  0  0  0
  145.0106  136.1822  149.7782 H   0  0  0  0  0  0  0  0  0  0  0  0
  146.6234  135.9391  150.4458 H   0  0  0  0  0  0  0  0  0  0  0  0
  147.6258  134.7457  152.0749 H   0  0  0  0  0  0  0  0  0  0  0  0
  1  2  1  0  0  0  0
  1 20  1  0  0  0  0
  1 21  1  0  0  0  0
  1 22  1  0  0  0  0
  2 19  1  0  0  0  0
  2  3  1  0  0  0  0
  2 23  1  0  0  0  0
  3  4  1  0  0  0  0
  3 24  1  0  0  0  0
  3 25  1  0  0  0  0
  4  5  1  0  0  0  0
  4 16  1  0  0  0  0
  4 39  1  0  0  0  0
  5  6  1  0  0  0  0
  5 26  1  0  0  0  0
  5 27  1  0  0  0  0
  6  7  1  0  0  0  0
  6 28  1  0  0  0  0
  6 29  1  0  0  0  0
  7  8  1  0  0  0  0
  7 30  1  0  0  0  0
  8  9  2  0  0  0  0
  8 10  1  0  0  0  0
 10 11  1  0  0  0  0
 11 15  1  0  0  0  0
 11 12  2  0  0  0  0
 12 13  1  0  0  0  0
 13 14  2  0  0  0  0
 13 31  1  0  0  0  0
 14 15  1  0  0  0  0
 14 32  1  0  0  0  0
 16 17  1  0  0  0  0
 16 33  1  0  0  0  0
 16 34  1  0  0  0  0
 17 18  1  0  0  0  0
 17 19  1  0  0  0  0
 17 35  1  0  0  0  0
 18 36  1  0  0  0  0
 18 37  1  0  0  0  0
 18 38  1  0  0  0  0
M  CHG  1   4   1
M  CHG  1  10  -1
M  END
> <s_m_source_file>
AV-unprocessed.smi

> <i_m_source_file_index>
1815

> <i_lp_mmshare_version>
43012

> <i_f3d_flags>
0

> <s_epik_input>
W0NIM11bQ0BASF0xW0NIMl1OKFtDSDJdW0NASF0oTzEpW0NIM10pW0NIMl1bQ0gyXVtOSF1DKD1PKVtOSF1jMm5bY0hdW2NIXXMy

> <s_epik_cmdline>
J2VwaWtfcHl0aG9uJywgJy1waCcsICc3LjAnLCAnLXRuJywgJzgnLCAnLW1hJywgJzIwMCcsICctbWV0YWxfYmluZGluZycsICctaW1hZScsICc8aW5maWxlLm1hZT4nLCAnLW9tYWUnLCAnPG91dGZpbGUubWFlPic=

> <r_lp_tautomer_probability>
0.999

> <r_epik_Ionization_Penalty>
6.71699

> <r_epik_Ionization_Penalty_Charging>
5.88592

> <r_epik_Ionization_Penalty_Neutral>
0.831074

> <r_epik_State_Penalty>
6.08365

> <r_epik_Charging_Adjusted_Penalty>
11.9696

> <i_epik_Tot_Q>
0

> <i_epik_Tot_abs_Q>
2

> <r_epik_Metal_State_Penalty>
2.0947

> <b_epik_Metal_Only>
1

> <s_lp_Force_Field>
OPLS_2005

> <r_lp_Energy>
8.1919

> <b_lp_Chiralities_Consistent>
1

> <s_lp_Variant>
AV-unprocessed.smi:1815-11

> <Gold.Version>
5.8.1

> <Gold.Id.Protein>
6NUR|6NUR_protein|mol2

> <Gold.PLP.Fitness>
42.3044

> <Gold.PLP.PLP>
-31.8739

> <Gold.PLP.part.hbond>
-3.0000

> <Gold.PLP.part.metal>
0.0000

> <Gold.PLP.part.buried>
-2.5947

> <Gold.PLP.part.nonpolar>
-26.8342

> <Gold.PLP.part.repulsive>
0.3873

> <Gold.PLP.ligand.clash>
0.0000

> <Gold.PLP.ligand.torsion>
0.8622

> <Gold.PLP.Chemscore.Hbond>
4.0086

> <Gold.PLP.Chemscore.CHOScore>
0.0000

> <Gold.PLP.Chemscore.Metal>
0.0000

> <Gold.Chemscore.Hbonds>
donor molecule, donor type, donor heavy atom, donor atom, acceptor molecule, acceptor atom, score
      L1  H     4    39       P1  7948  2.00
      P1  H 10752 10764       L1    10  2.00

> <Gold.PLP.Chemscore.Internal.Correction>
0.1292

> <Gold.Rescore>
     Score         DG    S(hbond)    S(metal)    S(lipo)     H(rot)  DE(clash)    DE(int)     intcor
     13.88     -15.21       1.79        0.00      67.08       1.61       0.05       1.28       ----

> <Gold.Chemscore.Fitness>
13.8780

> <Gold.Chemscore.DG>
-15.2076

> <Gold.Chemscore.ZeroCoef>
-5.4800

> <Gold.Chemscore.Hbond>
1.7934

> <Gold.Chemscore.Metal>
0.0000

> <Gold.Chemscore.Lipo>
67.0843

> <Gold.Chemscore.Internal_Hbond>
0.0000

> <Gold.Chemscore.DEClash>
0.0455

> <Gold.Chemscore.DEInternal>
1.2840

> <Gold.Chemscore.Rot>
1.6060

> <Gold.Chemscore.Internal.Correction>
   9.000000E+99

> <Gold.Chemscore.Hbonds>
donor molecule, donor type, donor heavy atom, donor atom, acceptor molecule, acceptor atom, score
      L1  H     4    39       P1  7948  0.65
      L1  H     7    30       P1  7948  0.01
      P1  H 10752 10764       L1    10  0.88

> <Gold.Chemscore.Hbond.Weighted>
-5.9899

> <Gold.Chemscore.Metal.Weighted>
-0.0000

> <Gold.Chemscore.Lipo.Weighted>
-7.8489

> <Gold.Chemscore.Internal_Hbond.Weighted>
0.0000

> <Gold.Chemscore.DEClash.Weighted>
0.0455

> <Gold.Chemscore.DEInternal.Weighted>
1.2840

> <Gold.Chemscore.Rot.Weighted>
4.1112

> <Gold.Chemscore.Internal.Correction.Weighted>
   9.000000E+99

> <Gold.Protein.RotatedTorsions>
[ 6907 6896 6895 6894 ] final  -51.63 input  -60.11 | X-H torsion
[ 7974 7965 7964 7962 ] final  -52.98 input  175.53 | X-H torsion
[ 8008 7997 7996 7995 ] final  -43.67 input   59.86 | X-H torsion
[ 10167 10162 10161 10158 ] final   76.55 input  -65.29 | X-H torsion
[ 10718 10713 10712 10709 ] final  123.20 input   66.30 | X-H torsion
[ 10763 10752 10751 10750 ] final  -73.53 input  -60.55 | X-H torsion
[ 11005 11000 10999 10996 ] final -157.27 input  -57.11 | X-H torsion

> <Gold.Protein.ActiveResidues>
 VAL166  LYS551  ARG553  GLY616  TRP617  ASP618  TYR619  PRO620  LYS621  CYS622 
 ASP623  PHE694  ASN695  SER759  ASP760  ASP761  ALA762  ILE779  LEU786  VAL792 
 PHE793  MET794  SER795  GLU796  ALA797  LYS798  CYS799  TRP800  GLU811  SER814 

> <Gold.Protein.RotatedAtoms>
  150.8593  134.7940  159.7069 H   0  0  0  0  0  0  0  0  0  0  0  0  # atno 6907 bound_to 6896
  152.4635  134.5126  159.9768 H   0  0  0  0  0  0  0  0  0  0  0  0  # atno 6908 bound_to 6896
  151.5233  133.3424  159.2941 H   0  0  0  0  0  0  0  0  0  0  0  0  # atno 6909 bound_to 6896
  145.9019  140.7987  142.9739 H   0  0  0  0  0  0  0  0  0  0  0  0  # atno 7974 bound_to 7965
  154.3997  140.1442  156.3556 H   0  0  0  0  0  0  0  0  0  0  0  0  # atno 8008 bound_to 7997
  155.8228  140.3469  155.5504 H   0  0  0  0  0  0  0  0  0  0  0  0  # atno 8009 bound_to 7997
  155.8270  140.0906  157.1806 H   0  0  0  0  0  0  0  0  0  0  0  0  # atno 8010 bound_to 7997
  139.9911  144.5756  150.7817 H   0  0  0  0  0  0  0  0  0  0  0  0  # atno 10167 bound_to 10162
  157.5683  131.1085  150.8413 H   0  0  0  0  0  0  0  0  0  0  0  0  # atno 10718 bound_to 10713
  154.4607  135.5894  153.6254 H   0  0  0  0  0  0  0  0  0  0  0  0  # atno 10763 bound_to 10752
  152.9823  135.6043  154.3489 H   0  0  0  0  0  0  0  0  0  0  0  0  # atno 10764 bound_to 10752
  154.3361  135.2842  155.2426 H   0  0  0  0  0  0  0  0  0  0  0  0  # atno 10765 bound_to 10752
  140.6664  134.4294  157.5233 H   0  0  0  0  0  0  0  0  0  0  0  0  # atno 11005 bound_to 11000
  144.6736  140.1691  143.7416 LP  0  0  0  0  0  0  0  0  0  0  0  0  # atno 17320 bound_to 7965
  145.8780  139.2307  143.1622 LP  0  0  0  0  0  0  0  0  0  0  0  0  # atno 17321 bound_to 7965
  140.7454  143.2875  151.3421 LP  0  0  0  0  0  0  0  0  0  0  0  0  # atno 17342 bound_to 10162
  139.6339  144.0667  152.2500 LP  0  0  0  0  0  0  0  0  0  0  0  0  # atno 17343 bound_to 10162
  156.8892  130.5206  149.5287 LP  0  0  0  0  0  0  0  0  0  0  0  0  # atno 17370 bound_to 10713
  156.0730  130.5759  150.9420 LP  0  0  0  0  0  0  0  0  0  0  0  0  # atno 17371 bound_to 10713
  139.8996  134.8588  156.1954 LP  0  0  0  0  0  0  0  0  0  0  0  0  # atno 17394 bound_to 11000
  141.0426  133.6930  156.1625 LP  0  0  0  0  0  0  0  0  0  0  0  0  # atno 17395 bound_to 11000

$$$$
