#       Name:                AV-unprocessed.smi:294
#       Creating user name   scv26
#       Creation time:       Thu Mar 26 22:13:58 2020


#       File generated by GOLD software.
#

@<TRIPOS>MOLECULE
AV-unprocessed.smi:294
    34    35     1
SMALL
NO_CHARGES


@<TRIPOS>ATOM
      1 ****        -5.6205   0.4063   2.4002 N.1            1 S1                 0.0000
      2 ****        -4.6294  -0.1874   2.3326 C.1            1 S1                 0.0000
      3 ****        -3.3849  -0.9326   2.2477 C.2            1 S1                 0.0000
      4 ****        -3.3695  -2.2628   1.9429 N.2            1 S1                 0.0000
      5 ****        -2.0591  -2.4695   1.9871 C.2            1 S1                 0.0000
      6 ****        -1.3466  -1.3774   2.2844 N.pl3          1 S1                 0.0000
      7 ****         0.0877  -1.1940   2.4145 C.3            1 S1                 0.0000
      8 ****         0.7620  -1.1242   1.0435 C.2            1 S1                 0.0000
      9 ****         1.5144  -2.0280   0.6810 O.2            1 S1                 0.0000
     10 ****         0.4845  -0.0463   0.2935 N.am           1 S1                 0.0000
     11 ****         1.0037   0.2004  -1.0471 C.3            1 S1                 0.0000
     12 ****         0.1170   1.2024  -1.8090 C.3            1 S1                 0.0000
     13 ****         0.8820   1.6928  -3.0443 C.3            1 S1                 0.0000
     14 ****         2.6563   1.6695  -2.5841 S.o2           1 S1                 0.0000
     15 ****         3.3853   0.8203  -3.5383 O.2            1 S1                 0.0000
     16 ****         3.1068   3.0383  -2.2901 O.2            1 S1                 0.0000
     17 ****         2.4327   0.7642  -1.0071 C.3            1 S1                 0.0000
     18 ****        -2.2086  -0.3460   2.4607 N.2            1 S1                 0.0000
     19 ****        -1.6090  -3.4327   1.7944 H              1 S1                 0.0000
     20 ****         0.2923  -0.2813   2.9767 H              1 S1                 0.0000
     21 ****         0.4948  -2.0259   2.9907 H              1 S1                 0.0000
     22 ****        -0.1455   0.6454   0.6743 H              1 S1                 0.0000
     23 ****         1.0124  -0.7323  -1.6146 H              1 S1                 0.0000
     24 ****        -0.8455   0.7680  -2.0812 H              1 S1                 0.0000
     25 ****        -0.0908   2.0592  -1.1664 H              1 S1                 0.0000
     26 ****         0.7437   1.0081  -3.8814 H              1 S1                 0.0000
     27 ****         0.5861   2.6935  -3.3597 H              1 S1                 0.0000
     28 ****         2.5540   1.4804  -0.1936 H              1 S1                 0.0000
     29 ****         3.1940  -0.0098  -0.9061 H              1 S1                 0.0000
     30 ****        -6.4769   0.9194   2.4586 LP             1 S1                 0.0000
     31 ****        -4.1205  -2.8929   1.7454 LP             1 S1                 0.0000
     32 ****         1.6850  -2.8081   1.2828 LP             1 S1                 0.0000
     33 ****         1.9552  -1.9822  -0.2155 LP             1 S1                 0.0000
     34 ****        -2.0122   0.6072   2.6908 LP             1 S1                 0.0000
@<TRIPOS>BOND
    1    1    2 3     
    2    2    3 1     
    3    3   18 2     
    4    3    4 1     
    5    4    5 2     
    6    5    6 1     
    7    5   19 1     
    8    6    7 1     
    9    6   18 1     
   10    7    8 1     
   11    7   20 1     
   12    7   21 1     
   13    8    9 2     
   14    8   10 am    
   15   10   11 1     
   16   10   22 1     
   17   11   17 1     
   18   11   12 1     
   19   11   23 1     
   20   12   13 1     
   21   12   24 1     
   22   12   25 1     
   23   13   14 1     
   24   13   26 1     
   25   13   27 1     
   26   14   15 2     
   27   14   16 2     
   28   14   17 1     
   29   17   28 1     
   30   17   29 1     
   31    1   30 1     
   32    4   31 1     
   33    9   32 1     
   34    9   33 1     
   35   18   34 1     
@<TRIPOS>SUBSTRUCTURE
      1 S1             1
@<TRIPOS>SET
LONE_PAIRS      STATIC     ATOMS    <user>   **** ""
7 30 31 32 33 15 16 34
DONOR_HYDROGENS      STATIC     ATOMS    <user>   **** ""
1 22
ATOM$BLUE        STATIC     ATOMS    COLORGROUP SYSTEM
7 30 31 32 33 15 16 34
ATOM$RED        STATIC     ATOMS    COLORGROUP SYSTEM
1 22
