AV-unprocessed.smi:1|AV-procd|sdf|22|dock3
  -GOLD-   2262015123D 1   1.00000     0.00000
 Structure written by MMmdl.
 56 61  0  0  0  0  0  0  0  0  2 V2000
  150.4510  141.5084  157.0590 O   0  0  0  0  0  0  0  0  0  0  0  0
  151.6301  141.1981  157.2420 C   0  0  0  0  0  0  0  0  0  0  0  0
  152.3579  140.2623  156.5814 N   0  5  0  0  0  0  0  0  0  0  0  0
  151.7424  139.3341  155.8333 C   0  0  0  0  0  0  0  0  0  0  0  0
  151.1552  139.6797  154.6594 N   0  0  0  0  0  0  0  0  0  0  0  0
  150.5205  138.7593  153.9244 C   0  0  0  0  0  0  0  0  0  0  0  0
  150.3474  137.4579  154.1740 N   0  0  0  0  0  0  0  0  0  0  0  0
  150.9331  137.0965  155.3532 C   0  0  0  0  0  0  0  0  0  0  0  0
  151.6394  137.9720  156.2289 C   0  0  0  0  0  0  0  0  0  0  0  0
  152.1035  137.2868  157.3421 N   0  0  0  0  0  0  0  0  0  0  0  0
  151.6724  136.0520  157.0964 C   0  0  0  0  0  0  0  0  0  0  0  0
  150.9789  135.8499  155.9588 N   0  0  0  0  0  0  0  0  0  0  0  0
  150.3994  134.5602  155.4731 C   0  0  1  0  0  0  0  0  0  0  0  0
  150.8616  133.5279  156.2859 O   0  0  0  0  0  0  0  0  0  0  0  0
  149.8822  132.5027  156.3148 C   0  0  1  0  0  0  0  0  0  0  0  0
  150.1112  131.5574  157.5013 C   0  0  0  0  0  0  0  0  0  0  0  0
  151.2383  130.7363  157.2270 O   0  0  0  0  0  0  0  0  0  0  0  0
  152.4954  131.1890  157.4195 C   0  0  0  0  0  0  0  0  0  0  0  0
  152.8035  132.0221  158.2739 O   0  0  0  0  0  0  0  0  0  0  0  0
  153.4793  130.5745  156.4816 C   0  0  0  0  0  0  0  0  0  0  0  0
  154.8076  131.0601  156.4545 C   0  0  0  0  0  0  0  0  0  0  0  0
  155.7596  130.4984  155.5816 C   0  0  0  0  0  0  0  0  0  0  0  0
  155.3955  129.4424  154.7262 C   0  0  0  0  0  0  0  0  0  0  0  0
  154.0778  128.9495  154.7439 C   0  0  0  0  0  0  0  0  0  0  0  0
  153.1239  129.5111  155.6152 C   0  0  0  0  0  0  0  0  0  0  0  0
  148.5568  133.2677  156.3322 C   0  0  1  0  0  0  0  0  0  0  0  0
  148.1854  133.6380  157.6485 O   0  0  0  0  0  0  0  0  0  0  0  0
  147.5913  135.1954  157.6022 S   0  0  0  0  0  0  0  0  0  0  0  0
  146.1394  135.1213  157.3774 O   0  0  0  0  0  0  0  0  0  0  0  0
  148.1792  135.9589  158.7127 O   0  0  0  0  0  0  0  0  0  0  0  0
  148.3093  135.6812  156.1749 O   0  0  0  0  0  0  0  0  0  0  0  0
  148.8587  134.5423  155.5255 C   0  0  1  0  0  0  0  0  0  0  0  0
  152.3902  141.8596  158.3610 C   0  0  0  0  0  0  0  0  0  0  0  0
  152.9059  141.0751  159.4180 C   0  0  0  0  0  0  0  0  0  0  0  0
  153.5982  141.6779  160.4864 C   0  0  0  0  0  0  0  0  0  0  0  0
  153.7751  143.0738  160.5143 C   0  0  0  0  0  0  0  0  0  0  0  0
  153.2541  143.8672  159.4752 C   0  0  0  0  0  0  0  0  0  0  0  0
  152.5615  143.2652  158.4066 C   0  0  0  0  0  0  0  0  0  0  0  0
  150.0840  139.1188  153.0045 H   0  0  0  0  0  0  0  0  0  0  0  0
  151.8737  135.2444  157.7849 H   0  0  0  0  0  0  0  0  0  0  0  0
  150.7887  134.4395  154.4612 H   0  0  0  0  0  0  0  0  0  0  0  0
  149.9638  131.9461  155.3793 H   0  0  0  0  0  0  0  0  0  0  0  0
  150.3145  132.1336  158.4042 H   0  0  0  0  0  0  0  0  0  0  0  0
  149.2058  130.9801  157.6931 H   0  0  0  0  0  0  0  0  0  0  0  0
  155.1110  131.8701  157.1022 H   0  0  0  0  0  0  0  0  0  0  0  0
  156.7705  130.8788  155.5689 H   0  0  0  0  0  0  0  0  0  0  0  0
  156.1258  129.0112  154.0575 H   0  0  0  0  0  0  0  0  0  0  0  0
  153.7972  128.1386  154.0879 H   0  0  0  0  0  0  0  0  0  0  0  0
  152.1222  129.1072  155.6045 H   0  0  0  0  0  0  0  0  0  0  0  0
  147.7460  132.6852  155.8936 H   0  0  0  0  0  0  0  0  0  0  0  0
  148.4759  134.4691  154.5072 H   0  0  0  0  0  0  0  0  0  0  0  0
  152.7778  140.0022  159.4128 H   0  0  0  0  0  0  0  0  0  0  0  0
  153.9934  141.0680  161.2852 H   0  0  0  0  0  0  0  0  0  0  0  0
  154.3059  143.5360  161.3333 H   0  0  0  0  0  0  0  0  0  0  0  0
  153.3828  144.9392  159.4979 H   0  0  0  0  0  0  0  0  0  0  0  0
  152.1608  143.8938  157.6245 H   0  0  0  0  0  0  0  0  0  0  0  0
  1  2  2  0  0  0  0
  2  3  1  0  0  0  0
  2 33  1  0  0  0  0
  3  4  1  0  0  0  0
  4  9  1  0  0  0  0
  4  5  2  0  0  0  0
  5  6  1  0  0  0  0
  6  7  2  0  0  0  0
  6 39  1  0  0  0  0
  7  8  1  0  0  0  0
  8 12  1  0  0  0  0
  8  9  2  0  0  0  0
  9 10  1  0  0  0  0
 10 11  2  0  0  0  0
 11 12  1  0  0  0  0
 11 40  1  0  0  0  0
 12 13  1  0  0  0  0
 13 32  1  0  0  0  0
 13 14  1  0  0  0  0
 13 41  1  0  0  0  0
 14 15  1  0  0  0  0
 15 16  1  0  0  0  0
 15 26  1  0  0  0  0
 15 42  1  0  0  0  0
 16 17  1  0  0  0  0
 16 43  1  0  0  0  0
 16 44  1  0  0  0  0
 17 18  1  0  0  0  0
 18 19  2  0  0  0  0
 18 20  1  0  0  0  0
 20 25  1  0  0  0  0
 20 21  2  0  0  0  0
 21 22  1  0  0  0  0
 21 45  1  0  0  0  0
 22 23  2  0  0  0  0
 22 46  1  0  0  0  0
 23 24  1  0  0  0  0
 23 47  1  0  0  0  0
 24 25  2  0  0  0  0
 24 48  1  0  0  0  0
 25 49  1  0  0  0  0
 26 32  1  0  0  0  0
 26 27  1  0  0  0  0
 26 50  1  0  0  0  0
 27 28  1  0  0  0  0
 28 29  2  0  0  0  0
 28 30  2  0  0  0  0
 28 31  1  0  0  0  0
 31 32  1  0  0  0  0
 32 51  1  0  0  0  0
 33 38  1  0  0  0  0
 33 34  2  0  0  0  0
 34 35  1  0  0  0  0
 34 52  1  0  0  0  0
 35 36  2  0  0  0  0
 35 53  1  0  0  0  0
 36 37  1  0  0  0  0
 36 54  1  0  0  0  0
 37 38  2  0  0  0  0
 37 55  1  0  0  0  0
 38 56  1  0  0  0  0
M  CHG  1   3  -1
M  END
> <s_m_source_file>
AV-unprocessed.smi

> <i_m_source_file_index>
1

> <i_lp_mmshare_version>
43012

> <i_f3d_flags>
0

> <s_epik_input>
W2NIXTFbY0hdW2NIXVtjSF1bY0hdYzFDKD1PKVtOSF1jKG5bY0hdbjIpYyhjMjMpbltjSF1uM1tDQEBIXShbQ0BIXShbQ0BIXTQ1KU9TKE81KSg9Tyk9TylPW0NASF00W0NIMl1PQyg9TyljNltjSF1bY0hdW2NIXVtjSF1bY0hdNg==

> <s_epik_cmdline>
J2VwaWtfcHl0aG9uJywgJy1waCcsICc3LjAnLCAnLXRuJywgJzgnLCAnLW1hJywgJzIwMCcsICctbWV0YWxfYmluZGluZycsICctaW1hZScsICc8aW5maWxlLm1hZT4nLCAnLW9tYWUnLCAnPG91dGZpbGUubWFlPic=

> <r_lp_tautomer_probability>
1

> <r_epik_Ionization_Penalty>
4.39121

> <r_epik_Ionization_Penalty_Charging>
3.39398

> <r_epik_Ionization_Penalty_Neutral>
0.997232

> <r_epik_State_Penalty>
3.39839

> <r_epik_Charging_Adjusted_Penalty>
6.79237

> <i_epik_Tot_Q>
-1

> <i_epik_Tot_abs_Q>
1

> <r_epik_Metal_State_Penalty>
0.497663

> <b_epik_Metal_Only>
1

> <s_epik_Chemistry_Notes>
This compound has an ester and may undergo hydrolysis at high or low pH. This compound contains an acetal/aminal-like group ( X-CH(R)-Y where X, Y are N, S, or O) that may be acid/base labile, releasing an aldehyde.

> <s_lp_Force_Field>
OPLS_2005

> <r_lp_Energy>
46.5931

> <b_lp_Chiralities_Consistent>
1

> <s_lp_Variant>
AV-unprocessed.smi:1-22

> <Gold.Version>
5.8.1

> <Gold.Id.Protein>
6NUR|6NUR_protein|mol2

> <Gold.PLP.Fitness>
56.0841

> <Gold.PLP.PLP>
-46.5406

> <Gold.PLP.part.hbond>
-2.9869

> <Gold.PLP.part.metal>
0.0000

> <Gold.PLP.part.buried>
-6.1140

> <Gold.PLP.part.nonpolar>
-39.0327

> <Gold.PLP.part.repulsive>
1.8574

> <Gold.PLP.ligand.clash>
0.0000

> <Gold.PLP.ligand.torsion>
2.6027

> <Gold.PLP.Chemscore.Hbond>
3.5488

> <Gold.PLP.Chemscore.CHOScore>
1.0000

> <Gold.PLP.Chemscore.Metal>
0.0000

> <Gold.Chemscore.Hbonds>
donor molecule, donor type, donor heavy atom, donor atom, acceptor molecule, acceptor atom, score
      P1  H  6896  6907       L1    19  1.00
      P1  H  7989  7998       L1     5  1.00
      P1  H  7997  8009       L1     3  2.00
      L1  C     6    39       P1  7957  1.00

> <Gold.PLP.Chemscore.Internal.Correction>
1.1028

> <Gold.Rescore>
     Score         DG    S(hbond)    S(metal)    S(lipo)     H(rot)  DE(clash)    DE(int)     intcor
     14.86     -18.28       1.44        0.00     114.44       2.11       0.52       2.89       ----

> <Gold.Chemscore.Fitness>
14.8641

> <Gold.Chemscore.DG>
-18.2767

> <Gold.Chemscore.ZeroCoef>
-5.4800

> <Gold.Chemscore.Hbond>
1.4424

> <Gold.Chemscore.Metal>
0.0000

> <Gold.Chemscore.Lipo>
114.4441

> <Gold.Chemscore.Internal_Hbond>
0.0000

> <Gold.Chemscore.DEClash>
0.5201

> <Gold.Chemscore.DEInternal>
2.8925

> <Gold.Chemscore.Rot>
2.1136

> <Gold.Chemscore.Internal.Correction>
   9.000000E+99

> <Gold.Chemscore.Hbonds>
donor molecule, donor type, donor heavy atom, donor atom, acceptor molecule, acceptor atom, score
      P1  H  6896  6907       L1    19  1.00
      P1  H  7989  7998       L1     5  0.40
      P1  H  7997  8009       L1     3  0.80

> <Gold.Chemscore.Hbond.Weighted>
-4.8175

> <Gold.Chemscore.Metal.Weighted>
-0.0000

> <Gold.Chemscore.Lipo.Weighted>
-13.3900

> <Gold.Chemscore.Internal_Hbond.Weighted>
0.0000

> <Gold.Chemscore.DEClash.Weighted>
0.5201

> <Gold.Chemscore.DEInternal.Weighted>
2.8925

> <Gold.Chemscore.Rot.Weighted>
5.4107

> <Gold.Chemscore.Internal.Correction.Weighted>
   9.000000E+99

> <Gold.Protein.RotatedTorsions>
[ 6907 6896 6895 6894 ] final  156.48 input  -60.11 | X-H torsion
[ 7974 7965 7964 7962 ] final   82.69 input  175.53 | X-H torsion
[ 8008 7997 7996 7995 ] final -176.52 input   59.86 | X-H torsion
[ 10167 10162 10161 10158 ] final   19.71 input  -65.29 | X-H torsion
[ 10718 10713 10712 10709 ] final -169.25 input   66.30 | X-H torsion
[ 10763 10752 10751 10750 ] final -176.05 input  -60.55 | X-H torsion
[ 11005 11000 10999 10996 ] final -147.82 input  -57.11 | X-H torsion

> <Gold.Protein.ActiveResidues>
 VAL166  LYS551  ARG553  GLY616  TRP617  ASP618  TYR619  PRO620  LYS621  CYS622 
 ASP623  PHE694  ASN695  SER759  ASP760  ASP761  ALA762  ILE779  LEU786  VAL792 
 PHE793  MET794  SER795  GLU796  ALA797  LYS798  CYS799  TRP800  GLU811  SER814 

> <Gold.Protein.RotatedAtoms>
  152.0291  133.3930  159.4289 H   0  0  0  0  0  0  0  0  0  0  0  0  # atno 6907 bound_to 6896
  150.6884  134.3541  159.4931 H   0  0  0  0  0  0  0  0  0  0  0  0  # atno 6908 bound_to 6896
  152.1325  134.9124  160.0608 H   0  0  0  0  0  0  0  0  0  0  0  0  # atno 6909 bound_to 6896
  145.6218  139.2387  143.2134 H   0  0  0  0  0  0  0  0  0  0  0  0  # atno 7974 bound_to 7965
  155.9959  140.1210  157.0594 H   0  0  0  0  0  0  0  0  0  0  0  0  # atno 8008 bound_to 7997
  154.4226  140.1116  156.5698 H   0  0  0  0  0  0  0  0  0  0  0  0  # atno 8009 bound_to 7997
  155.6279  140.3472  155.4675 H   0  0  0  0  0  0  0  0  0  0  0  0  # atno 8010 bound_to 7997
  140.5559  143.9426  150.6609 H   0  0  0  0  0  0  0  0  0  0  0  0  # atno 10167 bound_to 10162
  156.7089  130.9225  151.3087 H   0  0  0  0  0  0  0  0  0  0  0  0  # atno 10718 bound_to 10713
  154.5770  135.2833  155.0771 H   0  0  0  0  0  0  0  0  0  0  0  0  # atno 10763 bound_to 10752
  154.2121  135.6406  153.5122 H   0  0  0  0  0  0  0  0  0  0  0  0  # atno 10764 bound_to 10752
  153.0076  135.5494  154.6412 H   0  0  0  0  0  0  0  0  0  0  0  0  # atno 10765 bound_to 10752
  140.7676  134.3226  157.5084 H   0  0  0  0  0  0  0  0  0  0  0  0  # atno 11005 bound_to 11000
  146.1425  140.7038  142.9360 LP  0  0  0  0  0  0  0  0  0  0  0  0  # atno 17320 bound_to 7965
  144.7228  140.4429  143.6995 LP  0  0  0  0  0  0  0  0  0  0  0  0  # atno 17321 bound_to 7965
  140.2864  143.3354  152.1103 LP  0  0  0  0  0  0  0  0  0  0  0  0  # atno 17342 bound_to 10162
  139.5047  144.6782  151.6076 LP  0  0  0  0  0  0  0  0  0  0  0  0  # atno 17343 bound_to 10162
  157.6944  130.9266  150.0603 LP  0  0  0  0  0  0  0  0  0  0  0  0  # atno 17370 bound_to 10713
  156.1675  130.3645  149.9211 LP  0  0  0  0  0  0  0  0  0  0  0  0  # atno 17371 bound_to 10713
  139.8761  134.9241  156.3341 LP  0  0  0  0  0  0  0  0  0  0  0  0  # atno 17394 bound_to 11000
  140.9604  133.7392  156.0393 LP  0  0  0  0  0  0  0  0  0  0  0  0  # atno 17395 bound_to 11000

$$$$
