AV-unprocessed.smi:1534|AV-procd|sdf|6167|dock7
  -GOLD-   22720 6313D 1   1.00000     0.00000
 Structure written by MMmdl.
 36 37  0  0  0  0  0  0  0  0  1 V2000
  149.0301  141.7689  158.8614 O   0  0  0  0  0  0  0  0  0  0  0  0
  148.9781  142.5514  157.9147 C   0  0  0  0  0  0  0  0  0  0  0  0
  150.0613  142.9640  157.2350 N   0  0  0  0  0  0  0  0  0  0  0  0
  151.4367  142.5972  157.5493 C   0  0  0  0  0  0  0  0  0  0  0  0
  152.1356  143.7001  158.3614 C   0  0  0  0  0  0  0  0  0  0  0  0
  152.4698  143.2551  159.7722 C   0  0  0  0  0  0  0  0  0  0  0  0
  153.1412  142.0353  160.0032 C   0  0  0  0  0  0  0  0  0  0  0  0
  153.4271  141.6683  161.3324 C   0  0  0  0  0  0  0  0  0  0  0  0
  153.0349  142.5312  162.3737 C   0  0  0  0  0  0  0  0  0  0  0  0
  152.3714  143.7283  162.0380 C   0  0  0  0  0  0  0  0  0  0  0  0
  152.0913  144.0893  160.7669 N   0  0  0  0  0  0  0  0  0  0  0  0
  147.8128  143.0664  157.4837 N   0  0  0  0  0  0  0  0  0  0  0  0
  146.4676  142.8202  158.0053 C   0  0  1  0  0  0  0  0  0  0  0  0
  146.1213  141.3207  157.9412 C   0  0  0  0  0  0  0  0  0  0  0  0
  144.8867  141.0591  158.8128 C   0  0  0  0  0  0  0  0  0  0  0  0
  144.9454  142.2943  160.1656 S   0  0  0  0  0  0  0  0  0  0  0  0
  143.7141  143.0977  160.1295 O   0  0  0  0  0  0  0  0  0  0  0  0
  145.3921  141.6473  161.4083 O   0  0  0  0  0  0  0  0  0  0  0  0
  146.3297  143.2706  159.4699 C   0  0  0  0  0  0  0  0  0  0  0  0
  149.9251  143.6006  156.4634 H   0  0  0  0  0  0  0  0  0  0  0  0
  151.4610  141.6493  158.0897 H   0  0  0  0  0  0  0  0  0  0  0  0
  151.9651  142.4335  156.6096 H   0  0  0  0  0  0  0  0  0  0  0  0
  153.0558  144.0058  157.8611 H   0  0  0  0  0  0  0  0  0  0  0  0
  151.5048  144.5889  158.4099 H   0  0  0  0  0  0  0  0  0  0  0  0
  153.4305  141.3950  159.1828 H   0  0  0  0  0  0  0  0  0  0  0  0
  153.9381  140.7418  161.5489 H   0  0  0  0  0  0  0  0  0  0  0  0
  153.2377  142.2823  163.4047 H   0  0  0  0  0  0  0  0  0  0  0  0
  152.0572  144.4140  162.8110 H   0  0  0  0  0  0  0  0  0  0  0  0
  147.8654  143.6837  156.6861 H   0  0  0  0  0  0  0  0  0  0  0  0
  145.7319  143.3529  157.3997 H   0  0  0  0  0  0  0  0  0  0  0  0
  145.9643  140.9840  156.9160 H   0  0  0  0  0  0  0  0  0  0  0  0
  146.9558  140.7423  158.3407 H   0  0  0  0  0  0  0  0  0  0  0  0
  143.9707  141.2255  158.2458 H   0  0  0  0  0  0  0  0  0  0  0  0
  144.8627  140.0499  159.2241 H   0  0  0  0  0  0  0  0  0  0  0  0
  147.2259  143.0289  160.0426 H   0  0  0  0  0  0  0  0  0  0  0  0
  146.1259  144.3362  159.5776 H   0  0  0  0  0  0  0  0  0  0  0  0
  1  2  2  0  0  0  0
  2  3  1  0  0  0  0
  2 12  1  0  0  0  0
  3  4  1  0  0  0  0
  3 20  1  0  0  0  0
  4  5  1  0  0  0  0
  4 21  1  0  0  0  0
  4 22  1  0  0  0  0
  5  6  1  0  0  0  0
  5 23  1  0  0  0  0
  5 24  1  0  0  0  0
  6 11  1  0  0  0  0
  6  7  2  0  0  0  0
  7  8  1  0  0  0  0
  7 25  1  0  0  0  0
  8  9  2  0  0  0  0
  8 26  1  0  0  0  0
  9 10  1  0  0  0  0
  9 27  1  0  0  0  0
 10 11  2  0  0  0  0
 10 28  1  0  0  0  0
 12 13  1  0  0  0  0
 12 29  1  0  0  0  0
 13 19  1  0  0  0  0
 13 14  1  0  0  0  0
 13 30  1  0  0  0  0
 14 15  1  0  0  0  0
 14 31  1  0  0  0  0
 14 32  1  0  0  0  0
 15 16  1  0  0  0  0
 15 33  1  0  0  0  0
 15 34  1  0  0  0  0
 16 17  2  0  0  0  0
 16 18  2  0  0  0  0
 16 19  1  0  0  0  0
 19 35  1  0  0  0  0
 19 36  1  0  0  0  0
M  END
> <s_m_source_file>
AV-unprocessed.smi

> <i_m_source_file_index>
1534

> <i_lp_mmshare_version>
43012

> <i_f3d_flags>
0

> <s_epik_input>
Tz1TMSg9TylbQ0gyXVtDSDJdW0NASF0oW0NIMl0xKVtOSF1DKD1PKVtOSF1bQ0gyXVtDSDJdYzJbY0hdW2NIXVtjSF1bY0hdbjI=

> <s_epik_cmdline>
J2VwaWtfcHl0aG9uJywgJy1waCcsICc3LjAnLCAnLXRuJywgJzgnLCAnLW1hJywgJzIwMCcsICctbWV0YWxfYmluZGluZycsICctaW1hZScsICc8aW5maWxlLm1hZT4nLCAnLW9tYWUnLCAnPG91dGZpbGUubWFlPic=

> <r_epik_Ionization_Penalty>
0.0423605

> <r_epik_Ionization_Penalty_Charging>
0

> <r_epik_Ionization_Penalty_Neutral>
0.0423605

> <r_epik_State_Penalty>
0.0357408

> <r_epik_Charging_Adjusted_Penalty>
0.0357408

> <i_epik_Tot_Q>
0

> <i_epik_Tot_abs_Q>
0

> <r_epik_Metal_State_Penalty>
0.033344

> <b_epik_Metal_Only>
0

> <s_lp_Force_Field>
OPLS_2005

> <r_lp_Energy>
9.82399

> <b_lp_Chiralities_Consistent>
1

> <s_lp_Variant>
AV-unprocessed.smi:1534-2

> <Gold.Version>
5.8.1

> <Gold.Id.Protein>
6NUR|6NUR_protein|mol2

> <Gold.PLP.Fitness>
40.8750

> <Gold.PLP.PLP>
-36.9536

> <Gold.PLP.part.hbond>
-6.3641

> <Gold.PLP.part.metal>
0.0000

> <Gold.PLP.part.buried>
-1.2170

> <Gold.PLP.part.nonpolar>
-27.8944

> <Gold.PLP.part.repulsive>
0.2013

> <Gold.PLP.ligand.clash>
0.0000

> <Gold.PLP.ligand.torsion>
0.6170

> <Gold.PLP.Chemscore.Hbond>
1.7128

> <Gold.PLP.Chemscore.CHOScore>
0.0000

> <Gold.PLP.Chemscore.Metal>
0.0000

> <Gold.Chemscore.Hbonds>
donor molecule, donor type, donor heavy atom, donor atom, acceptor molecule, acceptor atom, score
      L1  H     3    20       P1  8028  0.96
      L1  H    12    29       P1  8028  0.20
      P1  H  6934  6946       L1    18  0.60

> <Gold.PLP.Chemscore.Internal.Correction>
0.0170

> <Gold.Rescore>
     Score         DG    S(hbond)    S(metal)    S(lipo)     H(rot)  DE(clash)    DE(int)     intcor
     13.65     -14.47       1.01        0.00      85.99       1.73       0.25       0.56       ----

> <Gold.Chemscore.Fitness>
13.6530

> <Gold.Chemscore.DG>
-14.4668

> <Gold.Chemscore.ZeroCoef>
-5.4800

> <Gold.Chemscore.Hbond>
1.0081

> <Gold.Chemscore.Metal>
0.0000

> <Gold.Chemscore.Lipo>
85.9881

> <Gold.Chemscore.Internal_Hbond>
0.0000

> <Gold.Chemscore.DEClash>
0.2531

> <Gold.Chemscore.DEInternal>
0.5606

> <Gold.Chemscore.Rot>
1.7348

> <Gold.Chemscore.Internal.Correction>
   9.000000E+99

> <Gold.Chemscore.Hbonds>
donor molecule, donor type, donor heavy atom, donor atom, acceptor molecule, acceptor atom, score
      L1  H     3    20       P1  8028  0.92
      P1  H  6934  6946       L1    18  0.12

> <Gold.Chemscore.Hbond.Weighted>
-3.3671

> <Gold.Chemscore.Metal.Weighted>
-0.0000

> <Gold.Chemscore.Lipo.Weighted>
-10.0606

> <Gold.Chemscore.Internal_Hbond.Weighted>
0.0000

> <Gold.Chemscore.DEClash.Weighted>
0.2531

> <Gold.Chemscore.DEInternal.Weighted>
0.5606

> <Gold.Chemscore.Rot.Weighted>
4.4410

> <Gold.Chemscore.Internal.Correction.Weighted>
   9.000000E+99

> <Gold.Protein.RotatedTorsions>
[ 6907 6896 6895 6894 ] final    4.07 input  -60.11 | X-H torsion
[ 7974 7965 7964 7962 ] final  -68.57 input  175.53 | X-H torsion
[ 8008 7997 7996 7995 ] final   31.04 input   59.86 | X-H torsion
[ 10167 10162 10161 10158 ] final -177.79 input  -65.29 | X-H torsion
[ 10718 10713 10712 10709 ] final   64.63 input   66.30 | X-H torsion
[ 10763 10752 10751 10750 ] final  156.08 input  -60.55 | X-H torsion
[ 11005 11000 10999 10996 ] final   51.25 input  -57.11 | X-H torsion

> <Gold.Protein.ActiveResidues>
 VAL166  LYS551  ARG553  GLY616  TRP617  ASP618  TYR619  PRO620  LYS621  CYS622 
 ASP623  PHE694  ASN695  SER759  ASP760  ASP761  ALA762  ILE779  LEU786  VAL792 
 PHE793  MET794  SER795  GLU796  ALA797  LYS798  CYS799  TRP800  GLU811  SER814 

> <Gold.Protein.RotatedAtoms>
  151.6353  135.1018  160.0130 H   0  0  0  0  0  0  0  0  0  0  0  0  # atno 6907 bound_to 6896
  152.4084  133.6920  159.6384 H   0  0  0  0  0  0  0  0  0  0  0  0  # atno 6908 bound_to 6896
  150.7976  133.8585  159.3266 H   0  0  0  0  0  0  0  0  0  0  0  0  # atno 6909 bound_to 6896
  145.7149  140.9063  143.0661 H   0  0  0  0  0  0  0  0  0  0  0  0  # atno 7974 bound_to 7965
  155.1000  140.3228  155.4550 H   0  0  0  0  0  0  0  0  0  0  0  0  # atno 8008 bound_to 7997
  156.2719  140.2062  156.6073 H   0  0  0  0  0  0  0  0  0  0  0  0  # atno 8009 bound_to 7997
  154.6836  140.0523  157.0279 H   0  0  0  0  0  0  0  0  0  0  0  0  # atno 8010 bound_to 7997
  139.5463  144.2226  152.0994 H   0  0  0  0  0  0  0  0  0  0  0  0  # atno 10167 bound_to 10162
  157.6052  130.9170  149.9870 H   0  0  0  0  0  0  0  0  0  0  0  0  # atno 10718 bound_to 10713
  154.1787  135.2800  155.3059 H   0  0  0  0  0  0  0  0  0  0  0  0  # atno 10763 bound_to 10752
  154.6020  135.5526  153.7387 H   0  0  0  0  0  0  0  0  0  0  0  0  # atno 10764 bound_to 10752
  153.0144  135.6394  154.1926 H   0  0  0  0  0  0  0  0  0  0  0  0  # atno 10765 bound_to 10752
  140.0949  134.5159  155.8817 H   0  0  0  0  0  0  0  0  0  0  0  0  # atno 11005 bound_to 11000
  144.6932  139.9124  143.7464 LP  0  0  0  0  0  0  0  0  0  0  0  0  # atno 17320 bound_to 7965
  146.0679  139.3669  143.0541 LP  0  0  0  0  0  0  0  0  0  0  0  0  # atno 17321 bound_to 7965
  140.1713  144.4932  150.6578 LP  0  0  0  0  0  0  0  0  0  0  0  0  # atno 17342 bound_to 10162
  140.6712  143.2287  151.5619 LP  0  0  0  0  0  0  0  0  0  0  0  0  # atno 17343 bound_to 10162
  156.1136  130.3649  150.0006 LP  0  0  0  0  0  0  0  0  0  0  0  0  # atno 17370 bound_to 10713
  156.8099  130.9321  151.3644 LP  0  0  0  0  0  0  0  0  0  0  0  0  # atno 17371 bound_to 10713
  141.2089  133.6678  156.6402 LP  0  0  0  0  0  0  0  0  0  0  0  0  # atno 17394 bound_to 11000
  140.3301  134.7936  157.4319 LP  0  0  0  0  0  0  0  0  0  0  0  0  # atno 17395 bound_to 11000

$$$$
