AV-unprocessed.smi:135|AV-procd|sdf|1169|dock4
  -GOLD-   2262018313D 1   1.00000     0.00000
 Structure written by MMmdl.
 51 54  0  0  0  0  0  0  0  0  1 V2000
  150.2744  137.0310  159.3780 O   0  0  0  0  0  0  0  0  0  0  0  0
  149.3945  136.6051  158.6286 C   0  0  0  0  0  0  0  0  0  0  0  0
  149.5227  136.7591  157.1055 C   0  0  0  0  0  0  0  0  0  0  0  0
  150.2941  137.9532  156.6980 N   0  0  0  0  0  0  0  0  0  0  0  0
  151.3325  137.7939  155.7476 C   0  0  0  0  0  0  0  0  0  0  0  0
  151.5894  136.6918  155.2610 O   0  0  0  0  0  0  0  0  0  0  0  0
  152.0632  139.0084  155.4043 C   0  0  0  0  0  0  0  0  0  0  0  0
  153.0687  138.9501  154.5147 F   0  0  0  0  0  0  0  0  0  0  0  0
  151.7483  140.1929  155.9679 C   0  0  0  0  0  0  0  0  0  0  0  0
  150.7268  140.3357  156.8909 N   0  0  0  0  0  0  0  0  0  0  0  0
  150.4071  141.6679  157.5394 C   0  0  2  0  0  0  0  0  0  0  0  0
  151.1341  142.8201  156.8159 C   0  0  0  0  0  0  0  0  0  0  0  0
  151.8813  143.5105  157.9404 C   0  0  0  0  0  0  0  0  0  0  0  0
  152.0989  142.3711  158.9238 C   0  0  0  0  0  0  0  0  0  0  0  0
  150.8621  141.6744  158.8627 O   0  0  0  0  0  0  0  0  0  0  0  0
  149.9872  139.2010  157.2907 C   0  0  0  0  0  0  0  0  0  0  0  0
  149.0984  139.2994  158.1395 O   0  0  0  0  0  0  0  0  0  0  0  0
  148.2775  135.9864  159.0481 N   0  0  0  0  0  0  0  0  0  0  0  0
  147.9046  135.6715  160.3815 C   0  0  0  0  0  0  0  0  0  0  0  0
  148.1412  136.5585  161.4589 C   0  0  0  0  0  0  0  0  0  0  0  0
  147.7174  136.2256  162.7594 C   0  0  0  0  0  0  0  0  0  0  0  0
  147.0431  135.0129  162.9926 C   0  0  0  0  0  0  0  0  0  0  0  0
  146.7922  134.1327  161.9236 C   0  0  0  0  0  0  0  0  0  0  0  0
  147.2236  134.4533  160.6200 C   0  0  0  0  0  0  0  0  0  0  0  0
  146.9643  133.5737  159.5984 O   0  0  0  0  0  0  0  0  0  0  0  0
  148.0338  132.9011  159.0615 C   0  0  0  0  0  0  0  0  0  0  0  0
  148.4525  133.1327  157.7325 C   0  0  0  0  0  0  0  0  0  0  0  0
  149.5513  132.4281  157.2033 C   0  0  0  0  0  0  0  0  0  0  0  0
  150.2395  131.4935  158.0005 C   0  0  0  0  0  0  0  0  0  0  0  0
  149.8319  131.2675  159.3292 C   0  0  0  0  0  0  0  0  0  0  0  0
  148.7339  131.9726  159.8587 C   0  0  0  0  0  0  0  0  0  0  0  0
  149.9721  135.8545  156.6914 H   0  0  0  0  0  0  0  0  0  0  0  0
  148.5182  136.7714  156.6799 H   0  0  0  0  0  0  0  0  0  0  0  0
  152.3337  141.0505  155.6737 H   0  0  0  0  0  0  0  0  0  0  0  0
  149.3184  141.7437  157.5225 H   0  0  0  0  0  0  0  0  0  0  0  0
  151.8351  142.4262  156.0785 H   0  0  0  0  0  0  0  0  0  0  0  0
  150.4218  143.4745  156.3130 H   0  0  0  0  0  0  0  0  0  0  0  0
  152.8110  143.9766  157.6134 H   0  0  0  0  0  0  0  0  0  0  0  0
  151.2524  144.2784  158.3929 H   0  0  0  0  0  0  0  0  0  0  0  0
  152.9142  141.7244  158.5964 H   0  0  0  0  0  0  0  0  0  0  0  0
  152.3163  142.7187  159.9337 H   0  0  0  0  0  0  0  0  0  0  0  0
  147.6890  135.5946  158.3274 H   0  0  0  0  0  0  0  0  0  0  0  0
  148.6329  137.5066  161.3011 H   0  0  0  0  0  0  0  0  0  0  0  0
  147.9020  136.9065  163.5772 H   0  0  0  0  0  0  0  0  0  0  0  0
  146.7138  134.7604  163.9897 H   0  0  0  0  0  0  0  0  0  0  0  0
  146.2708  133.2043  162.1043 H   0  0  0  0  0  0  0  0  0  0  0  0
  147.9313  133.8487  157.1146 H   0  0  0  0  0  0  0  0  0  0  0  0
  149.8660  132.6046  156.1854 H   0  0  0  0  0  0  0  0  0  0  0  0
  151.0806  130.9517  157.5938 H   0  0  0  0  0  0  0  0  0  0  0  0
  150.3595  130.5514  159.9417 H   0  0  0  0  0  0  0  0  0  0  0  0
  148.4230  131.7937  160.8774 H   0  0  0  0  0  0  0  0  0  0  0  0
  1  2  2  0  0  0  0
  2  3  1  0  0  0  0
  2 18  1  0  0  0  0
  3  4  1  0  0  0  0
  3 32  1  0  0  0  0
  3 33  1  0  0  0  0
  4 16  1  0  0  0  0
  4  5  1  0  0  0  0
  5  6  2  0  0  0  0
  5  7  1  0  0  0  0
  7  8  1  0  0  0  0
  7  9  2  0  0  0  0
  9 10  1  0  0  0  0
  9 34  1  0  0  0  0
 10 11  1  0  0  0  0
 10 16  1  0  0  0  0
 11 15  1  0  0  0  0
 11 12  1  0  0  0  0
 11 35  1  0  0  0  0
 12 13  1  0  0  0  0
 12 36  1  0  0  0  0
 12 37  1  0  0  0  0
 13 14  1  0  0  0  0
 13 38  1  0  0  0  0
 13 39  1  0  0  0  0
 14 15  1  0  0  0  0
 14 40  1  0  0  0  0
 14 41  1  0  0  0  0
 16 17  2  0  0  0  0
 18 19  1  0  0  0  0
 18 42  1  0  0  0  0
 19 24  1  0  0  0  0
 19 20  2  0  0  0  0
 20 21  1  0  0  0  0
 20 43  1  0  0  0  0
 21 22  2  0  0  0  0
 21 44  1  0  0  0  0
 22 23  1  0  0  0  0
 22 45  1  0  0  0  0
 23 24  2  0  0  0  0
 23 46  1  0  0  0  0
 24 25  1  0  0  0  0
 25 26  1  0  0  0  0
 26 31  1  0  0  0  0
 26 27  2  0  0  0  0
 27 28  1  0  0  0  0
 27 47  1  0  0  0  0
 28 29  2  0  0  0  0
 28 48  1  0  0  0  0
 29 30  1  0  0  0  0
 29 49  1  0  0  0  0
 30 31  2  0  0  0  0
 30 50  1  0  0  0  0
 31 51  1  0  0  0  0
M  END
> <s_m_source_file>
AV-unprocessed.smi

> <i_m_source_file_index>
135

> <i_lp_mmshare_version>
43012

> <i_f3d_flags>
0

> <s_epik_input>
TzFbQ0gyXVtDSDJdW0NIMl1bQ0BIXTFuKGMyPU8pW2NIXWMoRiljKD1PKW4yW0NIMl1DKD1PKVtOSF1jM1tjSF1bY0hdW2NIXVtjSF1jM09jNFtjSF1bY0hdW2NIXVtjSF1bY0hdNA==

> <s_epik_cmdline>
J2VwaWtfcHl0aG9uJywgJy1waCcsICc3LjAnLCAnLXRuJywgJzgnLCAnLW1hJywgJzIwMCcsICctbWV0YWxfYmluZGluZycsICctaW1hZScsICc8aW5maWxlLm1hZT4nLCAnLW9tYWUnLCAnPG91dGZpbGUubWFlPic=

> <r_lp_tautomer_probability>
1

> <r_epik_Ionization_Penalty>
1.89877e-06

> <r_epik_Ionization_Penalty_Charging>
3.88729e-08

> <r_epik_Ionization_Penalty_Neutral>
1.8599e-06

> <r_epik_State_Penalty>
-0

> <r_epik_Charging_Adjusted_Penalty>
3.88729e-08

> <i_epik_Tot_Q>
0

> <i_epik_Tot_abs_Q>
0

> <r_epik_Metal_State_Penalty>
-0

> <b_epik_Metal_Only>
0

> <s_epik_Chemistry_Notes>
This compound contains an acetal/aminal-like group ( X-CH(R)-Y where X, Y are N, S, or O) that may be acid/base labile, releasing an aldehyde.

> <s_lp_Force_Field>
OPLS_2005

> <r_lp_Energy>
40.0565

> <b_lp_Chiralities_Consistent>
1

> <s_lp_Variant>
AV-unprocessed.smi:135-1

> <Gold.Version>
5.8.1

> <Gold.Id.Protein>
6NUR|6NUR_protein|mol2

> <Gold.PLP.Fitness>
51.6336

> <Gold.PLP.PLP>
-47.9680

> <Gold.PLP.part.hbond>
-2.7591

> <Gold.PLP.part.metal>
0.0000

> <Gold.PLP.part.buried>
-5.3000

> <Gold.PLP.part.nonpolar>
-40.4165

> <Gold.PLP.part.repulsive>
0.1949

> <Gold.PLP.ligand.clash>
0.0000

> <Gold.PLP.ligand.torsion>
1.1782

> <Gold.PLP.Chemscore.Hbond>
1.9913

> <Gold.PLP.Chemscore.CHOScore>
0.0000

> <Gold.PLP.Chemscore.Metal>
0.0000

> <Gold.Chemscore.Hbonds>
donor molecule, donor type, donor heavy atom, donor atom, acceptor molecule, acceptor atom, score
      P1  H  6896  6907       L1     1  0.48
      P1  H 10752 10763       L1     6  1.00

> <Gold.PLP.Chemscore.Internal.Correction>
0.0483

> <Gold.Rescore>
     Score         DG    S(hbond)    S(metal)    S(lipo)     H(rot)  DE(clash)    DE(int)     intcor
     15.49     -19.24       1.96        0.00     106.23       2.04       0.03       3.72       ----

> <Gold.Chemscore.Fitness>
15.4926

> <Gold.Chemscore.DG>
-19.2403

> <Gold.Chemscore.ZeroCoef>
-5.4800

> <Gold.Chemscore.Hbond>
1.9604

> <Gold.Chemscore.Metal>
0.0000

> <Gold.Chemscore.Lipo>
106.2317

> <Gold.Chemscore.Internal_Hbond>
0.0000

> <Gold.Chemscore.DEClash>
0.0277

> <Gold.Chemscore.DEInternal>
3.7199

> <Gold.Chemscore.Rot>
2.0377

> <Gold.Chemscore.Internal.Correction>
   9.000000E+99

> <Gold.Chemscore.Hbonds>
donor molecule, donor type, donor heavy atom, donor atom, acceptor molecule, acceptor atom, score
      P1  H  6896  6907       L1     1  0.06
      P1  H 10752 10763       L1     6  1.00

> <Gold.Chemscore.Hbond.Weighted>
-6.5477

> <Gold.Chemscore.Metal.Weighted>
-0.0000

> <Gold.Chemscore.Lipo.Weighted>
-12.4291

> <Gold.Chemscore.Internal_Hbond.Weighted>
0.0000

> <Gold.Chemscore.DEClash.Weighted>
0.0277

> <Gold.Chemscore.DEInternal.Weighted>
3.7199

> <Gold.Chemscore.Rot.Weighted>
5.2165

> <Gold.Chemscore.Internal.Correction.Weighted>
   9.000000E+99

> <Gold.Protein.RotatedTorsions>
[ 6907 6896 6895 6894 ] final  -28.89 input  -60.11 | X-H torsion
[ 7974 7965 7964 7962 ] final   47.59 input  175.53 | X-H torsion
[ 8008 7997 7996 7995 ] final  -31.92 input   59.86 | X-H torsion
[ 10167 10162 10161 10158 ] final   91.46 input  -65.29 | X-H torsion
[ 10718 10713 10712 10709 ] final -164.34 input   66.30 | X-H torsion
[ 10763 10752 10751 10750 ] final   68.29 input  -60.55 | X-H torsion
[ 11005 11000 10999 10996 ] final -176.44 input  -57.11 | X-H torsion

> <Gold.Protein.ActiveResidues>
 VAL166  LYS551  ARG553  GLY616  TRP617  ASP618  TYR619  PRO620  LYS621  CYS622 
 ASP623  PHE694  ASN695  SER759  ASP760  ASP761  ALA762  ILE779  LEU786  VAL792 
 PHE793  MET794  SER795  GLU796  ALA797  LYS798  CYS799  TRP800  GLU811  SER814 

> <Gold.Protein.RotatedAtoms>
  151.1267  135.0108  159.8563 H   0  0  0  0  0  0  0  0  0  0  0  0  # atno 6907 bound_to 6896
  152.5450  134.1658  159.8587 H   0  0  0  0  0  0  0  0  0  0  0  0  # atno 6908 bound_to 6896
  151.1721  133.4732  159.2627 H   0  0  0  0  0  0  0  0  0  0  0  0  # atno 6909 bound_to 6896
  146.0283  139.4733  142.9853 H   0  0  0  0  0  0  0  0  0  0  0  0  # atno 7974 bound_to 7965
  154.4197  140.1751  156.1644 H   0  0  0  0  0  0  0  0  0  0  0  0  # atno 8008 bound_to 7997
  155.9811  140.3377  155.6640 H   0  0  0  0  0  0  0  0  0  0  0  0  # atno 8009 bound_to 7997
  155.6498  140.0689  157.2581 H   0  0  0  0  0  0  0  0  0  0  0  0  # atno 8010 bound_to 7997
  139.8372  144.6659  150.9327 H   0  0  0  0  0  0  0  0  0  0  0  0  # atno 10167 bound_to 10162
  156.6376  130.8955  151.2990 H   0  0  0  0  0  0  0  0  0  0  0  0  # atno 10718 bound_to 10713
  153.0228  135.5252  154.7112 H   0  0  0  0  0  0  0  0  0  0  0  0  # atno 10763 bound_to 10752
  154.6194  135.2887  155.0345 H   0  0  0  0  0  0  0  0  0  0  0  0  # atno 10764 bound_to 10752
  154.1338  135.6589  153.4980 H   0  0  0  0  0  0  0  0  0  0  0  0  # atno 10765 bound_to 10752
  140.4521  134.6334  157.4806 H   0  0  0  0  0  0  0  0  0  0  0  0  # atno 11005 bound_to 11000
  145.7082  141.0115  143.1468 LP  0  0  0  0  0  0  0  0  0  0  0  0  # atno 17320 bound_to 7965
  144.7019  139.8725  143.7441 LP  0  0  0  0  0  0  0  0  0  0  0  0  # atno 17321 bound_to 7965
  140.7801  143.3946  151.1252 LP  0  0  0  0  0  0  0  0  0  0  0  0  # atno 17342 bound_to 10162
  139.7595  143.8657  152.3097 LP  0  0  0  0  0  0  0  0  0  0  0  0  # atno 17343 bound_to 10162
  157.7181  130.9523  150.1331 LP  0  0  0  0  0  0  0  0  0  0  0  0  # atno 17370 bound_to 10713
  156.2185  130.3672  149.8585 LP  0  0  0  0  0  0  0  0  0  0  0  0  # atno 17371 bound_to 10713
  140.0000  134.6851  155.9546 LP  0  0  0  0  0  0  0  0  0  0  0  0  # atno 17394 bound_to 11000
  141.1659  133.6537  156.4479 LP  0  0  0  0  0  0  0  0  0  0  0  0  # atno 17395 bound_to 11000

$$$$
