AV-unprocessed.smi:1366|AV-procd|sdf|5571|dock4
  -GOLD-   22720 5163D 1   1.00000     0.00000
 Structure written by MMmdl.
 31 32  0  0  0  0  0  0  0  0  1 V2000
  146.0343  138.1960  152.3399 N   0  0  0  0  0  0  0  0  0  0  0  0
  146.7635  138.8914  152.9088 C   0  0  0  0  0  0  0  0  0  0  0  0
  147.6814  139.7665  153.6249 C   0  0  0  0  0  0  0  0  0  0  0  0
  149.0429  139.4174  153.7598 C   0  0  0  0  0  0  0  0  0  0  0  0
  149.9205  140.2042  154.4190 N   0  0  0  0  0  0  0  0  0  0  0  0
  149.4302  141.3312  154.9405 C   0  0  0  0  0  0  0  0  0  0  0  0
  150.5692  142.3823  155.8167 S   0  0  0  0  0  0  0  0  0  0  0  0
  150.7061  141.5324  157.4203 C   0  0  0  0  0  0  0  0  0  0  0  0
  151.7233  142.2021  158.3598 C   0  0  1  0  0  0  0  0  0  0  0  0
  151.5033  143.7238  158.4569 C   0  0  0  0  0  0  0  0  0  0  0  0
  152.4877  144.3462  159.4538 C   0  0  0  0  0  0  0  0  0  0  0  0
  152.4006  143.6100  160.7951 C   0  0  0  0  0  0  0  0  0  0  0  0
  152.5633  142.0960  160.5865 C   0  0  0  0  0  0  0  0  0  0  0  0
  151.5897  141.6277  159.6584 O   0  0  0  0  0  0  0  0  0  0  0  0
  148.1728  141.7728  154.8746 N   0  0  0  0  0  0  0  0  0  0  0  0
  147.2867  140.9928  154.2180 C   0  0  0  0  0  0  0  0  0  0  0  0
  145.9741  141.4650  154.1623 N   0  0  0  0  0  0  0  0  0  0  0  0
  149.4348  138.5025  153.3394 H   0  0  0  0  0  0  0  0  0  0  0  0
  149.7224  141.4912  157.8886 H   0  0  0  0  0  0  0  0  0  0  0  0
  151.0018  140.5004  157.2303 H   0  0  0  0  0  0  0  0  0  0  0  0
  152.7327  142.0146  157.9903 H   0  0  0  0  0  0  0  0  0  0  0  0
  151.6232  144.1869  157.4771 H   0  0  0  0  0  0  0  0  0  0  0  0
  150.4809  143.9289  158.7774 H   0  0  0  0  0  0  0  0  0  0  0  0
  153.5027  144.2747  159.0610 H   0  0  0  0  0  0  0  0  0  0  0  0
  152.2760  145.4074  159.5873 H   0  0  0  0  0  0  0  0  0  0  0  0
  153.1627  143.9817  161.4804 H   0  0  0  0  0  0  0  0  0  0  0  0
  151.4350  143.8105  161.2611 H   0  0  0  0  0  0  0  0  0  0  0  0
  153.5662  141.8566  160.2293 H   0  0  0  0  0  0  0  0  0  0  0  0
  152.4293  141.5711  161.5325 H   0  0  0  0  0  0  0  0  0  0  0  0
  145.2446  140.9479  153.6929 H   0  0  0  0  0  0  0  0  0  0  0  0
  145.7160  142.3485  154.5776 H   0  0  0  0  0  0  0  0  0  0  0  0
  1  2  3  0  0  0  0
  2  3  1  0  0  0  0
  3 16  1  0  0  0  0
  3  4  2  0  0  0  0
  4  5  1  0  0  0  0
  4 18  1  0  0  0  0
  5  6  2  0  0  0  0
  6  7  1  0  0  0  0
  6 15  1  0  0  0  0
  7  8  1  0  0  0  0
  8  9  1  0  0  0  0
  8 19  1  0  0  0  0
  8 20  1  0  0  0  0
  9 14  1  0  0  0  0
  9 10  1  0  0  0  0
  9 21  1  0  0  0  0
 10 11  1  0  0  0  0
 10 22  1  0  0  0  0
 10 23  1  0  0  0  0
 11 12  1  0  0  0  0
 11 24  1  0  0  0  0
 11 25  1  0  0  0  0
 12 13  1  0  0  0  0
 12 26  1  0  0  0  0
 12 27  1  0  0  0  0
 13 14  1  0  0  0  0
 13 28  1  0  0  0  0
 13 29  1  0  0  0  0
 15 16  2  0  0  0  0
 16 17  1  0  0  0  0
 17 30  1  0  0  0  0
 17 31  1  0  0  0  0
M  END
> <s_m_source_file>
AV-unprocessed.smi

> <i_m_source_file_index>
1366

> <i_lp_mmshare_version>
43012

> <i_f3d_flags>
0

> <s_epik_input>
TiNDYzFbY0hdbmMobmMxW05IMl0pU1tDSDJdW0NAQEhdMltDSDJdW0NIMl1bQ0gyXVtDSDJdTzI=

> <s_epik_cmdline>
J2VwaWtfcHl0aG9uJywgJy1waCcsICc3LjAnLCAnLXRuJywgJzgnLCAnLW1hJywgJzIwMCcsICctbWV0YWxfYmluZGluZycsICctaW1hZScsICc8aW5maWxlLm1hZT4nLCAnLW9tYWUnLCAnPG91dGZpbGUubWFlPic=

> <r_lp_tautomer_probability>
1

> <r_epik_Ionization_Penalty>
5.69531e-05

> <r_epik_Ionization_Penalty_Charging>
0

> <r_epik_Ionization_Penalty_Neutral>
5.69531e-05

> <r_epik_State_Penalty>
-0

> <r_epik_Charging_Adjusted_Penalty>
0

> <i_epik_Tot_Q>
0

> <i_epik_Tot_abs_Q>
0

> <r_epik_Metal_State_Penalty>
-0

> <b_epik_Metal_Only>
0

> <s_lp_Force_Field>
OPLS_2005

> <r_lp_Energy>
5.10679

> <b_lp_Chiralities_Consistent>
1

> <s_lp_Variant>
AV-unprocessed.smi:1366-2

> <Gold.Version>
5.8.1

> <Gold.Id.Protein>
6NUR|6NUR_protein|mol2

> <Gold.PLP.Fitness>
38.5248

> <Gold.PLP.PLP>
-31.3590

> <Gold.PLP.part.hbond>
-2.3993

> <Gold.PLP.part.metal>
0.0000

> <Gold.PLP.part.buried>
-0.1693

> <Gold.PLP.part.nonpolar>
-29.3955

> <Gold.PLP.part.repulsive>
0.5510

> <Gold.PLP.ligand.clash>
0.0000

> <Gold.PLP.ligand.torsion>
0.3121

> <Gold.PLP.Chemscore.Hbond>
1.9500

> <Gold.PLP.Chemscore.CHOScore>
0.6464

> <Gold.PLP.Chemscore.Metal>
0.0000

> <Gold.Chemscore.Hbonds>
donor molecule, donor type, donor heavy atom, donor atom, acceptor molecule, acceptor atom, score
      L1  H    17    30       P1 10175  1.00
      P1  H  7989  7998       L1     5  0.92
      L1  C     4    18       P1  7948  0.53
      L1  C     4    18       P1  7957  0.03

> <Gold.PLP.Chemscore.Internal.Correction>
0.0010

> <Gold.Rescore>
     Score         DG    S(hbond)    S(metal)    S(lipo)     H(rot)  DE(clash)    DE(int)     intcor
     13.11     -13.62       0.92        0.00      81.02       1.73       0.24       0.26       ----

> <Gold.Chemscore.Fitness>
13.1129

> <Gold.Chemscore.DG>
-13.6199

> <Gold.Chemscore.ZeroCoef>
-5.4800

> <Gold.Chemscore.Hbond>
0.9223

> <Gold.Chemscore.Metal>
0.0000

> <Gold.Chemscore.Lipo>
81.0192

> <Gold.Chemscore.Internal_Hbond>
0.0000

> <Gold.Chemscore.DEClash>
0.2428

> <Gold.Chemscore.DEInternal>
0.2642

> <Gold.Chemscore.Rot>
1.7266

> <Gold.Chemscore.Internal.Correction>
   9.000000E+99

> <Gold.Chemscore.Hbonds>
donor molecule, donor type, donor heavy atom, donor atom, acceptor molecule, acceptor atom, score
      L1  H    17    30       P1 10175  0.73
      P1  H  7989  7998       L1     5  0.29

> <Gold.Chemscore.Hbond.Weighted>
-3.0806

> <Gold.Chemscore.Metal.Weighted>
-0.0000

> <Gold.Chemscore.Lipo.Weighted>
-9.4792

> <Gold.Chemscore.Internal_Hbond.Weighted>
0.0000

> <Gold.Chemscore.DEClash.Weighted>
0.2428

> <Gold.Chemscore.DEInternal.Weighted>
0.2642

> <Gold.Chemscore.Rot.Weighted>
4.4200

> <Gold.Chemscore.Internal.Correction.Weighted>
   9.000000E+99

> <Gold.Protein.RotatedTorsions>
[ 6907 6896 6895 6894 ] final   66.89 input  -60.11 | X-H torsion
[ 7974 7965 7964 7962 ] final -131.74 input  175.53 | X-H torsion
[ 8008 7997 7996 7995 ] final   70.65 input   59.86 | X-H torsion
[ 10167 10162 10161 10158 ] final -140.79 input  -65.29 | X-H torsion
[ 10718 10713 10712 10709 ] final -153.77 input   66.30 | X-H torsion
[ 10763 10752 10751 10750 ] final   -3.50 input  -60.55 | X-H torsion
[ 11005 11000 10999 10996 ] final -160.55 input  -57.11 | X-H torsion

> <Gold.Protein.ActiveResidues>
 VAL166  LYS551  ARG553  GLY616  TRP617  ASP618  TYR619  PRO620  LYS621  CYS622 
 ASP623  PHE694  ASN695  SER759  ASP760  ASP761  ALA762  ILE779  LEU786  VAL792 
 PHE793  MET794  SER795  GLU796  ALA797  LYS798  CYS799  TRP800  GLU811  SER814 

> <Gold.Protein.RotatedAtoms>
  152.4513  134.5387  159.9832 H   0  0  0  0  0  0  0  0  0  0  0  0  # atno 6907 bound_to 6896
  151.5459  133.3419  159.2952 H   0  0  0  0  0  0  0  0  0  0  0  0  # atno 6908 bound_to 6896
  150.8443  134.7778  159.7021 H   0  0  0  0  0  0  0  0  0  0  0  0  # atno 6909 bound_to 6896
  144.9350  140.7173  143.4882 H   0  0  0  0  0  0  0  0  0  0  0  0  # atno 7974 bound_to 7965
  155.7420  140.3490  155.5108 H   0  0  0  0  0  0  0  0  0  0  0  0  # atno 8008 bound_to 7997
  155.9085  140.1046  157.1318 H   0  0  0  0  0  0  0  0  0  0  0  0  # atno 8009 bound_to 7997
  154.4053  140.1272  156.4514 H   0  0  0  0  0  0  0  0  0  0  0  0  # atno 8010 bound_to 7997
  139.8248  143.7526  152.2666 H   0  0  0  0  0  0  0  0  0  0  0  0  # atno 10167 bound_to 10162
  156.4902  130.8344  151.2567 H   0  0  0  0  0  0  0  0  0  0  0  0  # atno 10718 bound_to 10713
  153.3721  135.6995  153.6629 H   0  0  0  0  0  0  0  0  0  0  0  0  # atno 10763 bound_to 10752
  153.5275  135.3599  155.2661 H   0  0  0  0  0  0  0  0  0  0  0  0  # atno 10764 bound_to 10752
  154.8682  135.4172  154.3002 H   0  0  0  0  0  0  0  0  0  0  0  0  # atno 10765 bound_to 10752
  140.6303  134.4658  157.5229 H   0  0  0  0  0  0  0  0  0  0  0  0  # atno 11005 bound_to 11000
  145.3080  139.1828  143.4654 LP  0  0  0  0  0  0  0  0  0  0  0  0  # atno 17320 bound_to 7965
  146.3263  140.3081  142.8625 LP  0  0  0  0  0  0  0  0  0  0  0  0  # atno 17321 bound_to 7965
  139.7715  144.7475  151.0217 LP  0  0  0  0  0  0  0  0  0  0  0  0  # atno 17342 bound_to 10162
  140.7811  143.4640  151.0238 LP  0  0  0  0  0  0  0  0  0  0  0  0  # atno 17343 bound_to 10162
  157.7474  131.0016  150.2969 LP  0  0  0  0  0  0  0  0  0  0  0  0  # atno 17370 bound_to 10713
  156.3434  130.3819  149.7390 LP  0  0  0  0  0  0  0  0  0  0  0  0  # atno 17371 bound_to 10713
  139.9119  134.8328  156.1500 LP  0  0  0  0  0  0  0  0  0  0  0  0  # atno 17394 bound_to 11000
  141.0680  133.6810  156.2083 LP  0  0  0  0  0  0  0  0  0  0  0  0  # atno 17395 bound_to 11000

$$$$
