#       Name:                AV-unprocessed.smi:2482
#       Creating user name   scv26
#       Creation time:       Fri Mar 27 13:42:15 2020


#       File generated by GOLD software.
#

@<TRIPOS>MOLECULE
AV-unprocessed.smi:2482
    40    41     1
SMALL
NO_CHARGES


@<TRIPOS>ATOM
      1 ****        -5.1556  -2.7778  -0.2924 C.3            1 S1                 0.0000
      2 ****        -4.4064  -1.5003  -0.6224 C.ar           1 S1                 0.0000
      3 ****        -5.1789  -0.4289  -0.9035 N.ar           1 S1                 0.0000
      4 ****        -4.5597   0.7288  -1.2075 C.ar           1 S1                 0.0000
      5 ****        -3.1597   0.8701  -1.2429 C.ar           1 S1                 0.0000
      6 ****        -2.3388  -0.2398  -0.9433 C.ar           1 S1                 0.0000
      7 ****        -1.0009  -0.1226  -0.9786 N.pl3          1 S1                -1.0000
      8 ****        -0.3248   0.2417   0.1382 C.2            1 S1                 0.0000
      9 ****        -0.7729   0.5129   1.2540 O.2            1 S1                 0.0000
     10 ****         1.1892   0.2907  -0.1177 C.3            1 S1                 0.0000
     11 ****         2.0243   0.2248   1.1811 C.3            1 S1                 0.0000
     12 ****         3.4664   0.3370   0.8670 N.4            1 S1                 1.0000
     13 ****         4.3220   0.2248   2.0670 C.3            1 S1                 0.0000
     14 ****         3.7404   1.5615   0.0810 C.3            1 S1                 0.0000
     15 ****         2.8523   1.5988  -1.1737 C.3            1 S1                 0.0000
     16 ****         1.4851   1.5102  -0.7940 O.3            1 S1                 0.0000
     17 ****        -2.9915  -1.4608  -0.6307 C.ar           1 S1                 0.0000
     18 ****        -2.0784  -2.8885  -0.2635 Cl             1 S1                 0.0000
     19 ****        -4.8924  -3.1244   0.7072 H              1 S1                 0.0000
     20 ****        -4.9026  -3.5606  -1.0079 H              1 S1                 0.0000
     21 ****        -6.2359  -2.6293  -0.3235 H              1 S1                 0.0000
     22 ****        -5.1994   1.5697  -1.4312 H              1 S1                 0.0000
     23 ****        -2.7219   1.8251  -1.4948 H              1 S1                 0.0000
     24 ****         1.4640  -0.5523  -0.7567 H              1 S1                 0.0000
     25 ****         1.7441   1.0297   1.8635 H              1 S1                 0.0000
     26 ****         1.8377  -0.7175   1.6986 H              1 S1                 0.0000
     27 ****         4.1290   1.0419   2.7634 H              1 S1                 0.0000
     28 ****         5.3765   0.2515   1.7907 H              1 S1                 0.0000
     29 ****         4.1364  -0.7172   2.5840 H              1 S1                 0.0000
     30 ****         3.5524   2.4424   0.6969 H              1 S1                 0.0000
     31 ****         4.7921   1.5886  -0.2065 H              1 S1                 0.0000
     32 ****         3.0079   2.5313  -1.7166 H              1 S1                 0.0000
     33 ****         3.1064   0.7867  -1.8567 H              1 S1                 0.0000
     34 ****         3.6930  -0.4474   0.2722 H              1 S1                 0.0000
     35 ****        -6.1767  -0.4925  -0.8867 LP             1 S1                 0.0000
     36 ****        -0.5046  -0.3039  -1.8276 LP             1 S1                 0.0000
     37 ****        -1.7585   0.4771   1.4192 LP             1 S1                 0.0000
     38 ****        -0.1508   0.7686   1.9940 LP             1 S1                 0.0000
     39 ****         1.2698   2.2750  -0.1869 LP             1 S1                 0.0000
     40 ****         0.9187   1.5676  -1.6161 LP             1 S1                 0.0000
@<TRIPOS>BOND
    1    1    2 1     
    2    1   19 1     
    3    1   20 1     
    4    1   21 1     
    5    2   17 ar    
    6    2    3 ar    
    7    3    4 ar    
    8    4    5 ar    
    9    4   22 1     
   10    5    6 ar    
   11    5   23 1     
   12    6    7 1     
   13    6   17 ar    
   14    7    8 1     
   15    8    9 2     
   16    8   10 1     
   17   10   16 1     
   18   10   11 1     
   19   10   24 1     
   20   11   12 1     
   21   11   25 1     
   22   11   26 1     
   23   12   13 1     
   24   12   14 1     
   25   12   34 1     
   26   13   27 1     
   27   13   28 1     
   28   13   29 1     
   29   14   15 1     
   30   14   30 1     
   31   14   31 1     
   32   15   16 1     
   33   15   32 1     
   34   15   33 1     
   35   17   18 1     
   36    3   35 1     
   37    7   36 1     
   38    9   37 1     
   39    9   38 1     
   40   16   39 1     
   41   16   40 1     
@<TRIPOS>SUBSTRUCTURE
      1 S1             1
@<TRIPOS>SET
LONE_PAIRS      STATIC     ATOMS    <user>   **** ""
6 35 36 37 38 39 40
DONOR_HYDROGENS      STATIC     ATOMS    <user>   **** ""
1 34
ATOM$BLUE        STATIC     ATOMS    COLORGROUP SYSTEM
6 35 36 37 38 39 40
ATOM$RED        STATIC     ATOMS    COLORGROUP SYSTEM
1 34
