AV-unprocessed.smi:227|AV-procd|sdf|1739|dock9
  -GOLD-   2262020243D 1   1.00000     0.00000
 Structure written by MMmdl.
 54 58  0  0  0  0  0  0  0  0  1 V2000
  150.2651  134.9665  154.1863 O   0  0  0  0  0  0  0  0  0  0  0  0
  150.8673  135.6794  155.2473 C   0  0  0  0  0  0  0  0  0  0  0  0
  150.1712  137.0439  155.4861 C   0  0  2  0  0  0  0  0  0  0  0  0
  148.6530  136.8568  155.7794 C   0  0  0  0  0  0  0  0  0  0  0  0
  148.3676  136.1357  157.0115 N   0  0  0  0  0  0  0  0  0  0  0  0
  149.2888  135.6198  157.8941 C   0  0  0  0  0  0  0  0  0  0  0  0
  148.7850  135.0021  158.9264 N   0  0  0  0  0  0  0  0  0  0  0  0
  147.4098  135.1106  158.7553 C   0  0  0  0  0  0  0  0  0  0  0  0
  146.2743  134.6616  159.4909 C   0  0  0  0  0  0  0  0  0  0  0  0
  146.3563  133.9276  160.6334 N   0  0  0  0  0  0  0  0  0  0  0  0
  147.6093  133.8011  161.3618 C   0  0  2  0  0  0  0  0  0  0  0  0
  147.2688  132.7246  162.4068 C   0  0  0  0  0  0  0  0  0  0  0  0
  145.7960  133.0511  162.7059 C   0  0  0  0  0  0  0  0  0  0  0  0
  145.5691  134.2801  161.8066 C   0  0  1  0  0  0  0  0  0  0  0  0
  146.3026  135.4904  162.4387 C   0  0  2  0  0  0  0  0  0  0  0  0
  145.8132  136.8613  161.9314 C   0  0  0  0  0  0  0  0  0  0  0  0
  146.8674  137.7992  161.9713 O   0  0  0  0  0  0  0  0  0  0  0  0
  147.7642  135.1636  162.0694 C   0  0  0  0  0  0  0  0  0  0  0  0
  145.0487  135.0066  159.0141 N   0  0  0  0  0  0  0  0  0  0  0  0
  144.9333  135.7095  157.8848 C   0  0  0  0  0  0  0  0  0  0  0  0
  145.8982  136.1681  157.0875 N   0  0  0  0  0  0  0  0  0  0  0  0
  147.1327  135.8431  157.5654 C   0  0  0  0  0  0  0  0  0  0  0  0
  150.4383  138.0429  154.3156 C   0  0  1  0  0  0  0  0  0  0  0  0
  150.1726  139.5027  154.6728 C   0  0  0  0  0  0  0  0  0  0  0  0
  151.4814  139.9680  155.3120 C   0  0  0  0  0  0  0  0  0  0  0  0
  152.4833  139.0693  154.8496 O   0  0  0  0  0  0  0  0  0  0  0  0
  151.9096  138.1849  153.8984 C   0  0  0  0  0  0  0  0  0  0  0  0
  150.5016  135.3835  153.3716 H   0  0  0  0  0  0  0  0  0  0  0  0
  150.7888  135.0340  156.1190 H   0  0  0  0  0  0  0  0  0  0  0  0
  151.9305  135.8066  155.0439 H   0  0  0  0  0  0  0  0  0  0  0  0
  150.6148  137.4684  156.3878 H   0  0  0  0  0  0  0  0  0  0  0  0
  148.1561  137.8254  155.8372 H   0  0  0  0  0  0  0  0  0  0  0  0
  148.1528  136.3454  154.9588 H   0  0  0  0  0  0  0  0  0  0  0  0
  150.3546  135.7085  157.7419 H   0  0  0  0  0  0  0  0  0  0  0  0
  148.4705  133.5295  160.7501 H   0  0  0  0  0  0  0  0  0  0  0  0
  147.3603  131.7240  161.9824 H   0  0  0  0  0  0  0  0  0  0  0  0
  147.9054  132.7801  163.2905 H   0  0  0  0  0  0  0  0  0  0  0  0
  145.1528  132.2248  162.4004 H   0  0  0  0  0  0  0  0  0  0  0  0
  145.6088  133.2508  163.7616 H   0  0  0  0  0  0  0  0  0  0  0  0
  144.5096  134.4595  161.6321 H   0  0  0  0  0  0  0  0  0  0  0  0
  146.1710  135.4686  163.5217 H   0  0  0  0  0  0  0  0  0  0  0  0
  145.4330  136.8065  160.9119 H   0  0  0  0  0  0  0  0  0  0  0  0
  145.0005  137.2284  162.5586 H   0  0  0  0  0  0  0  0  0  0  0  0
  146.7230  138.3834  162.7000 H   0  0  0  0  0  0  0  0  0  0  0  0
  148.4174  135.1126  162.9410 H   0  0  0  0  0  0  0  0  0  0  0  0
  148.1789  135.9080  161.3884 H   0  0  0  0  0  0  0  0  0  0  0  0
  143.9235  135.9328  157.5738 H   0  0  0  0  0  0  0  0  0  0  0  0
  149.8438  137.7445  153.4514 H   0  0  0  0  0  0  0  0  0  0  0  0
  149.9993  140.0682  153.7559 H   0  0  0  0  0  0  0  0  0  0  0  0
  149.3132  139.6783  155.3159 H   0  0  0  0  0  0  0  0  0  0  0  0
  151.7201  140.9970  155.0424 H   0  0  0  0  0  0  0  0  0  0  0  0
  151.4299  139.9046  156.3993 H   0  0  0  0  0  0  0  0  0  0  0  0
  152.4696  137.2558  153.8238 H   0  0  0  0  0  0  0  0  0  0  0  0
  151.9680  138.6606  152.9180 H   0  0  0  0  0  0  0  0  0  0  0  0
  1  2  1  0  0  0  0
  1 28  1  0  0  0  0
  2  3  1  0  0  0  0
  2 29  1  0  0  0  0
  2 30  1  0  0  0  0
  3  4  1  0  0  0  0
  3 23  1  0  0  0  0
  3 31  1  0  0  0  0
  4  5  1  0  0  0  0
  4 32  1  0  0  0  0
  4 33  1  0  0  0  0
  5 22  1  0  0  0  0
  5  6  1  0  0  0  0
  6  7  2  0  0  0  0
  6 34  1  0  0  0  0
  7  8  1  0  0  0  0
  8 22  2  0  0  0  0
  8  9  1  0  0  0  0
  9 10  1  0  0  0  0
  9 19  2  0  0  0  0
 10 14  1  0  0  0  0
 10 11  1  0  0  0  0
 11 18  1  0  0  0  0
 11 12  1  0  0  0  0
 11 35  1  0  0  0  0
 12 13  1  0  0  0  0
 12 36  1  0  0  0  0
 12 37  1  0  0  0  0
 13 14  1  0  0  0  0
 13 38  1  0  0  0  0
 13 39  1  0  0  0  0
 14 15  1  0  0  0  0
 14 40  1  0  0  0  0
 15 16  1  0  0  0  0
 15 18  1  0  0  0  0
 15 41  1  0  0  0  0
 16 17  1  0  0  0  0
 16 42  1  0  0  0  0
 16 43  1  0  0  0  0
 17 44  1  0  0  0  0
 18 45  1  0  0  0  0
 18 46  1  0  0  0  0
 19 20  1  0  0  0  0
 20 21  2  0  0  0  0
 20 47  1  0  0  0  0
 21 22  1  0  0  0  0
 23 27  1  0  0  0  0
 23 24  1  0  0  0  0
 23 48  1  0  0  0  0
 24 25  1  0  0  0  0
 24 49  1  0  0  0  0
 24 50  1  0  0  0  0
 25 26  1  0  0  0  0
 25 51  1  0  0  0  0
 25 52  1  0  0  0  0
 26 27  1  0  0  0  0
 27 53  1  0  0  0  0
 27 54  1  0  0  0  0
M  END
> <s_m_source_file>
AV-unprocessed.smi

> <i_m_source_file_index>
227

> <i_lp_mmshare_version>
43012

> <i_f3d_flags>
0

> <s_epik_input>
W0NIMl0xT1tDSDJdW0NIMl1bQ0BIXTFbQ0BIXShbQ0gyXVtPSF0pW0NIMl1uKFtjSF1uMiljKGMyMyluW2NIXW5jM04oW0NASF00NSlbQ0BASF0oW0NIMl1bQ0gyXTQpW0NASF0oW0NIMl01KVtDSDJdW09IXQ==

> <s_epik_cmdline>
J2VwaWtfcHl0aG9uJywgJy1waCcsICc3LjAnLCAnLXRuJywgJzgnLCAnLW1hJywgJzIwMCcsICctbWV0YWxfYmluZGluZycsICctaW1hZScsICc8aW5maWxlLm1hZT4nLCAnLW9tYWUnLCAnPG91dGZpbGUubWFlPic=

> <r_lp_tautomer_probability>
1

> <r_epik_Ionization_Penalty>
0.0055791

> <r_epik_Ionization_Penalty_Charging>
0

> <r_epik_Ionization_Penalty_Neutral>
0.0055791

> <r_epik_State_Penalty>
0.00401299

> <r_epik_Charging_Adjusted_Penalty>
0.00401299

> <i_epik_Tot_Q>
0

> <i_epik_Tot_abs_Q>
0

> <r_epik_Metal_State_Penalty>
-0

> <b_epik_Metal_Only>
0

> <s_lp_Force_Field>
OPLS_2005

> <r_lp_Energy>
89.9209

> <b_lp_Chiralities_Consistent>
1

> <s_lp_Variant>
AV-unprocessed.smi:227-13

> <Gold.Version>
5.8.1

> <Gold.Id.Protein>
6NUR|6NUR_protein|mol2

> <Gold.PLP.Fitness>
41.4911

> <Gold.PLP.PLP>
-34.4069

> <Gold.PLP.part.hbond>
-6.0399

> <Gold.PLP.part.metal>
0.0000

> <Gold.PLP.part.buried>
-0.8108

> <Gold.PLP.part.nonpolar>
-25.2399

> <Gold.PLP.part.repulsive>
0.0000

> <Gold.PLP.ligand.clash>
0.0000

> <Gold.PLP.ligand.torsion>
0.8683

> <Gold.PLP.Chemscore.Hbond>
2.8801

> <Gold.PLP.Chemscore.CHOScore>
0.0000

> <Gold.PLP.Chemscore.Metal>
0.0000

> <Gold.Chemscore.Hbonds>
donor molecule, donor type, donor heavy atom, donor atom, acceptor molecule, acceptor atom, score
      L1  H     1    28       P1  7949  0.09
      P1  H  6896  6909       L1     7  0.55
      P1  H  6931  6943       L1    17  0.17
      P1  H  6934  6947       L1    17  0.40

> <Gold.PLP.Chemscore.Internal.Correction>
0.1805

> <Gold.Rescore>
     Score         DG    S(hbond)    S(metal)    S(lipo)     H(rot)  DE(clash)    DE(int)     intcor
     10.05     -12.47       1.64        0.00      91.84       3.61       0.37       2.05       ----

> <Gold.Chemscore.Fitness>
10.0543

> <Gold.Chemscore.DG>
-12.4694

> <Gold.Chemscore.ZeroCoef>
-5.4800

> <Gold.Chemscore.Hbond>
1.6402

> <Gold.Chemscore.Metal>
0.0000

> <Gold.Chemscore.Lipo>
91.8409

> <Gold.Chemscore.Internal_Hbond>
0.0000

> <Gold.Chemscore.DEClash>
0.3668

> <Gold.Chemscore.DEInternal>
2.0483

> <Gold.Chemscore.Rot>
3.6071

> <Gold.Chemscore.Internal.Correction>
   9.000000E+99

> <Gold.Chemscore.Hbonds>
donor molecule, donor type, donor heavy atom, donor atom, acceptor molecule, acceptor atom, score
      P1  H  6896  6909       L1     7  0.03
      P1  H  6931  6943       L1    17  0.01
      P1  H  6934  6947       L1    17  0.03

> <Gold.Chemscore.Hbond.Weighted>
-5.4782

> <Gold.Chemscore.Metal.Weighted>
-0.0000

> <Gold.Chemscore.Lipo.Weighted>
-10.7454

> <Gold.Chemscore.Internal_Hbond.Weighted>
0.0000

> <Gold.Chemscore.DEClash.Weighted>
0.3668

> <Gold.Chemscore.DEInternal.Weighted>
2.0483

> <Gold.Chemscore.Rot.Weighted>
9.2342

> <Gold.Chemscore.Internal.Correction.Weighted>
   9.000000E+99

> <Gold.Protein.RotatedTorsions>
[ 6907 6896 6895 6894 ] final   33.81 input  -60.11 | X-H torsion
[ 7974 7965 7964 7962 ] final -110.08 input  175.53 | X-H torsion
[ 8008 7997 7996 7995 ] final -158.22 input   59.86 | X-H torsion
[ 10167 10162 10161 10158 ] final  111.12 input  -65.29 | X-H torsion
[ 10718 10713 10712 10709 ] final -145.80 input   66.30 | X-H torsion
[ 10763 10752 10751 10750 ] final   42.01 input  -60.55 | X-H torsion
[ 11005 11000 10999 10996 ] final  147.30 input  -57.11 | X-H torsion

> <Gold.Protein.ActiveResidues>
 VAL166  LYS551  ARG553  GLY616  TRP617  ASP618  TYR619  PRO620  LYS621  CYS622 
 ASP623  PHE694  ASN695  SER759  ASP760  ASP761  ALA762  ILE779  LEU786  VAL792 
 PHE793  MET794  SER795  GLU796  ALA797  LYS798  CYS799  TRP800  GLU811  SER814 

> <Gold.Protein.RotatedAtoms>
  152.0937  134.9389  160.0571 H   0  0  0  0  0  0  0  0  0  0  0  0  # atno 6907 bound_to 6896
  152.0631  133.4066  159.4434 H   0  0  0  0  0  0  0  0  0  0  0  0  # atno 6908 bound_to 6896
  150.6837  134.3098  159.4785 H   0  0  0  0  0  0  0  0  0  0  0  0  # atno 6909 bound_to 6896
  145.1727  140.8933  143.3526 H   0  0  0  0  0  0  0  0  0  0  0  0  # atno 7974 bound_to 7965
  155.7442  140.0818  157.2231 H   0  0  0  0  0  0  0  0  0  0  0  0  # atno 8008 bound_to 7997
  154.4018  140.1572  156.2706 H   0  0  0  0  0  0  0  0  0  0  0  0  # atno 8009 bound_to 7997
  155.8991  140.3411  155.6016 H   0  0  0  0  0  0  0  0  0  0  0  0  # atno 8010 bound_to 7997
  139.6635  144.7128  151.1820 H   0  0  0  0  0  0  0  0  0  0  0  0  # atno 10167 bound_to 10162
  156.3870  130.7866  151.2064 H   0  0  0  0  0  0  0  0  0  0  0  0  # atno 10718 bound_to 10713
  152.9893  135.6144  154.2880 H   0  0  0  0  0  0  0  0  0  0  0  0  # atno 10763 bound_to 10752
  154.2607  135.2782  155.2781 H   0  0  0  0  0  0  0  0  0  0  0  0  # atno 10764 bound_to 10752
  154.5208  135.5815  153.6737 H   0  0  0  0  0  0  0  0  0  0  0  0  # atno 10765 bound_to 10752
  140.0864  134.9067  157.1582 H   0  0  0  0  0  0  0  0  0  0  0  0  # atno 11005 bound_to 11000
  145.0217  139.3418  143.6069 LP  0  0  0  0  0  0  0  0  0  0  0  0  # atno 17320 bound_to 7965
  146.3466  139.9520  142.8728 LP  0  0  0  0  0  0  0  0  0  0  0  0  # atno 17321 bound_to 7965
  140.7590  143.5956  150.8752 LP  0  0  0  0  0  0  0  0  0  0  0  0  # atno 17342 bound_to 10162
  139.9615  143.6158  152.3001 LP  0  0  0  0  0  0  0  0  0  0  0  0  # atno 17343 bound_to 10162
  157.7496  131.0327  150.4238 LP  0  0  0  0  0  0  0  0  0  0  0  0  # atno 17370 bound_to 10713
  156.4492  130.4008  149.6646 LP  0  0  0  0  0  0  0  0  0  0  0  0  # atno 17371 bound_to 10713
  140.3414  134.2700  155.7211 LP  0  0  0  0  0  0  0  0  0  0  0  0  # atno 17394 bound_to 11000
  141.2064  133.7834  157.0179 LP  0  0  0  0  0  0  0  0  0  0  0  0  # atno 17395 bound_to 11000

$$$$
