AV-unprocessed.smi:527|AV-procd|sdf|2818|dock6
  -GOLD-   2262023303D 1   1.00000     0.00000
 Structure written by MMmdl.
 42 43  0  0  0  0  0  0  0  0  1 V2000
  146.6248  141.9415  154.2244 C   0  0  0  0  0  0  0  0  0  0  0  0
  147.8839  141.3609  153.5481 C   0  0  1  0  0  0  0  0  0  0  0  0
  149.0975  141.3784  154.4997 C   0  0  0  0  0  0  0  0  0  0  0  0
  148.9863  140.3146  155.6031 C   0  0  0  0  0  0  0  0  0  0  0  0
  148.7885  138.9146  155.0061 C   0  0  0  0  0  0  0  0  0  0  0  0
  147.5767  138.8608  154.0525 C   0  0  2  0  0  0  0  0  0  0  0  0
  147.4830  137.5290  153.4571 N   0  0  0  0  0  0  0  0  0  0  0  0
  146.4866  136.6547  153.6631 C   0  0  0  0  0  0  0  0  0  0  0  0
  145.5213  136.8880  154.3938 O   0  0  0  0  0  0  0  0  0  0  0  0
  146.6922  135.5166  152.9719 N   0  0  0  0  0  0  0  0  0  0  0  0
  145.9044  134.4223  152.9365 C   0  0  0  0  0  0  0  0  0  0  0  0
  144.8426  134.2981  153.5528 O   0  0  0  0  0  0  0  0  0  0  0  0
  146.4229  133.2881  152.0422 C   0  0  0  0  0  0  0  0  0  0  0  0
  145.4266  132.8020  151.1024 N   0  0  0  0  0  0  0  0  0  0  0  0
  144.0626  133.0651  151.1150 C   0  0  0  0  0  0  0  0  0  0  0  0
  143.5240  132.4008  150.0363 C   0  0  0  0  0  0  0  0  0  0  0  0
  144.5310  131.7253  149.3508 N   0  0  0  0  0  0  0  0  0  0  0  0
  145.6288  132.0106  150.0392 C   0  0  0  0  0  0  0  0  0  0  0  0
  147.6873  139.9431  152.9473 C   0  0  1  0  0  0  0  0  0  0  0  0
  146.5259  139.8903  151.9347 C   0  0  0  0  0  0  0  0  0  0  0  0
  146.2650  141.3113  155.0370 H   0  0  0  0  0  0  0  0  0  0  0  0
  145.8078  142.0627  153.5134 H   0  0  0  0  0  0  0  0  0  0  0  0
  146.8290  142.9276  154.6419 H   0  0  0  0  0  0  0  0  0  0  0  0
  148.1231  142.0336  152.7232 H   0  0  0  0  0  0  0  0  0  0  0  0
  150.0068  141.1986  153.9247 H   0  0  0  0  0  0  0  0  0  0  0  0
  149.2146  142.3669  154.9455 H   0  0  0  0  0  0  0  0  0  0  0  0
  149.8848  140.3278  156.2207 H   0  0  0  0  0  0  0  0  0  0  0  0
  148.1563  140.5510  156.2691 H   0  0  0  0  0  0  0  0  0  0  0  0
  149.6926  138.6243  154.4687 H   0  0  0  0  0  0  0  0  0  0  0  0
  148.6651  138.1906  155.8125 H   0  0  0  0  0  0  0  0  0  0  0  0
  146.6692  139.0518  154.6277 H   0  0  0  0  0  0  0  0  0  0  0  0
  148.2321  137.2598  152.8364 H   0  0  0  0  0  0  0  0  0  0  0  0
  147.5327  135.4778  152.4148 H   0  0  0  0  0  0  0  0  0  0  0  0
  147.2920  133.6362  151.4824 H   0  0  0  0  0  0  0  0  0  0  0  0
  146.7511  132.4541  152.6639 H   0  0  0  0  0  0  0  0  0  0  0  0
  143.6010  133.6874  151.8676 H   0  0  0  0  0  0  0  0  0  0  0  0
  142.4976  132.3579  149.7030 H   0  0  0  0  0  0  0  0  0  0  0  0
  146.6037  131.6369  149.7623 H   0  0  0  0  0  0  0  0  0  0  0  0
  148.5928  139.7244  152.3786 H   0  0  0  0  0  0  0  0  0  0  0  0
  145.5578  139.9721  152.4289 H   0  0  0  0  0  0  0  0  0  0  0  0
  146.5269  138.9559  151.3733 H   0  0  0  0  0  0  0  0  0  0  0  0
  146.6011  140.6999  151.2083 H   0  0  0  0  0  0  0  0  0  0  0  0
  1  2  1  0  0  0  0
  1 21  1  0  0  0  0
  1 22  1  0  0  0  0
  1 23  1  0  0  0  0
  2 19  1  0  0  0  0
  2  3  1  0  0  0  0
  2 24  1  0  0  0  0
  3  4  1  0  0  0  0
  3 25  1  0  0  0  0
  3 26  1  0  0  0  0
  4  5  1  0  0  0  0
  4 27  1  0  0  0  0
  4 28  1  0  0  0  0
  5  6  1  0  0  0  0
  5 29  1  0  0  0  0
  5 30  1  0  0  0  0
  6  7  1  0  0  0  0
  6 19  1  0  0  0  0
  6 31  1  0  0  0  0
  7  8  1  0  0  0  0
  7 32  1  0  0  0  0
  8  9  2  0  0  0  0
  8 10  1  0  0  0  0
 10 11  1  0  0  0  0
 10 33  1  0  0  0  0
 11 12  2  0  0  0  0
 11 13  1  0  0  0  0
 13 14  1  0  0  0  0
 13 34  1  0  0  0  0
 13 35  1  0  0  0  0
 14 18  1  0  0  0  0
 14 15  1  0  0  0  0
 15 16  2  0  0  0  0
 15 36  1  0  0  0  0
 16 17  1  0  0  0  0
 16 37  1  0  0  0  0
 17 18  2  0  0  0  0
 18 38  1  0  0  0  0
 19 20  1  0  0  0  0
 19 39  1  0  0  0  0
 20 40  1  0  0  0  0
 20 41  1  0  0  0  0
 20 42  1  0  0  0  0
M  END
> <s_m_source_file>
AV-unprocessed.smi

> <i_m_source_file_index>
527

> <i_lp_mmshare_version>
43012

> <i_f3d_flags>
0

> <s_epik_input>
W0NIM11bQ0BASF0xW0NIMl1bQ0gyXVtDSDJdW0NASF0oW0NASF0xW0NIM10pW05IXUMoPU8pW05IXUMoPU8pW0NIMl1uMltjSF1bY0hdbltjSF0y

> <s_epik_cmdline>
J2VwaWtfcHl0aG9uJywgJy1waCcsICc3LjAnLCAnLXRuJywgJzgnLCAnLW1hJywgJzIwMCcsICctbWV0YWxfYmluZGluZycsICctaW1hZScsICc8aW5maWxlLm1hZT4nLCAnLW9tYWUnLCAnPG91dGZpbGUubWFlPic=

> <r_lp_tautomer_probability>
1

> <r_epik_Ionization_Penalty>
0.172132

> <r_epik_Ionization_Penalty_Charging>
0.172105

> <r_epik_Ionization_Penalty_Neutral>
2.71747e-05

> <r_epik_State_Penalty>
0.161503

> <r_epik_Charging_Adjusted_Penalty>
0.333607

> <i_epik_Tot_Q>
0

> <i_epik_Tot_abs_Q>
0

> <r_epik_Metal_State_Penalty>
0.124763

> <b_epik_Metal_Only>
0

> <s_lp_Force_Field>
OPLS_2005

> <r_lp_Energy>
17.6389

> <b_lp_Chiralities_Consistent>
1

> <s_lp_Variant>
AV-unprocessed.smi:527-4

> <Gold.Version>
5.8.1

> <Gold.Id.Protein>
6NUR|6NUR_protein|mol2

> <Gold.PLP.Fitness>
44.0896

> <Gold.PLP.PLP>
-29.8860

> <Gold.PLP.part.hbond>
-2.9987

> <Gold.PLP.part.metal>
0.0000

> <Gold.PLP.part.buried>
4.7749

> <Gold.PLP.part.nonpolar>
-31.4390

> <Gold.PLP.part.repulsive>
0.3244

> <Gold.PLP.ligand.clash>
0.0000

> <Gold.PLP.ligand.torsion>
0.2512

> <Gold.PLP.Chemscore.Hbond>
2.2566

> <Gold.PLP.Chemscore.CHOScore>
2.6406

> <Gold.PLP.Chemscore.Metal>
0.0000

> <Gold.Chemscore.Hbonds>
donor molecule, donor type, donor heavy atom, donor atom, acceptor molecule, acceptor atom, score
      L1  H     7    32       P1  7948  1.00
      L1  H    10    33       P1  7948  1.00
      P1  H 10785 10796       L1    17  0.22
      L1  C    16    37       P1 10186  0.85
      L1  C    16    37       P1 10952  0.79
      L1  C    18    38       P1 10747  0.99

> <Gold.PLP.Chemscore.Internal.Correction>
0.0142

> <Gold.Rescore>
     Score         DG    S(hbond)    S(metal)    S(lipo)     H(rot)  DE(clash)    DE(int)     intcor
     11.66     -15.14       1.92        0.00      64.13       1.66       0.83       2.65       ----

> <Gold.Chemscore.Fitness>
11.6594

> <Gold.Chemscore.DG>
-15.1399

> <Gold.Chemscore.ZeroCoef>
-5.4800

> <Gold.Chemscore.Hbond>
1.9204

> <Gold.Chemscore.Metal>
0.0000

> <Gold.Chemscore.Lipo>
64.1263

> <Gold.Chemscore.Internal_Hbond>
0.0000

> <Gold.Chemscore.DEClash>
0.8334

> <Gold.Chemscore.DEInternal>
2.6471

> <Gold.Chemscore.Rot>
1.6629

> <Gold.Chemscore.Internal.Correction>
   9.000000E+99

> <Gold.Chemscore.Hbonds>
donor molecule, donor type, donor heavy atom, donor atom, acceptor molecule, acceptor atom, score
      L1  H     7    32       P1  7948  0.95
      L1  H    10    33       P1  7948  0.95
      P1  H 10785 10796       L1    17  0.02

> <Gold.Chemscore.Hbond.Weighted>
-6.4140

> <Gold.Chemscore.Metal.Weighted>
-0.0000

> <Gold.Chemscore.Lipo.Weighted>
-7.5028

> <Gold.Chemscore.Internal_Hbond.Weighted>
0.0000

> <Gold.Chemscore.DEClash.Weighted>
0.8334

> <Gold.Chemscore.DEInternal.Weighted>
2.6471

> <Gold.Chemscore.Rot.Weighted>
4.2569

> <Gold.Chemscore.Internal.Correction.Weighted>
   9.000000E+99

> <Gold.Protein.RotatedTorsions>
[ 6907 6896 6895 6894 ] final   73.88 input  -60.11 | X-H torsion
[ 7974 7965 7964 7962 ] final   28.93 input  175.53 | X-H torsion
[ 8008 7997 7996 7995 ] final  155.40 input   59.86 | X-H torsion
[ 10167 10162 10161 10158 ] final   98.49 input  -65.29 | X-H torsion
[ 10718 10713 10712 10709 ] final  139.89 input   66.30 | X-H torsion
[ 10763 10752 10751 10750 ] final  -15.98 input  -60.55 | X-H torsion
[ 11005 11000 10999 10996 ] final   79.41 input  -57.11 | X-H torsion

> <Gold.Protein.ActiveResidues>
 VAL166  LYS551  ARG553  GLY616  TRP617  ASP618  TYR619  PRO620  LYS621  CYS622 
 ASP623  PHE694  ASN695  SER759  ASP760  ASP761  ALA762  ILE779  LEU786  VAL792 
 PHE793  MET794  SER795  GLU796  ALA797  LYS798  CYS799  TRP800  GLU811  SER814 

> <Gold.Protein.RotatedAtoms>
  152.4946  134.4355  159.9526 H   0  0  0  0  0  0  0  0  0  0  0  0  # atno 6907 bound_to 6896
  151.4336  133.3657  159.2780 H   0  0  0  0  0  0  0  0  0  0  0  0  # atno 6908 bound_to 6896
  150.9137  134.8577  159.7502 H   0  0  0  0  0  0  0  0  0  0  0  0  # atno 6909 bound_to 6896
  146.1701  139.6990  142.8973 H   0  0  0  0  0  0  0  0  0  0  0  0  # atno 7974 bound_to 7965
  156.2480  140.1940  156.6796 H   0  0  0  0  0  0  0  0  0  0  0  0  # atno 8008 bound_to 7997
  154.6332  140.0593  156.9783 H   0  0  0  0  0  0  0  0  0  0  0  0  # atno 8009 bound_to 7997
  155.1678  140.3265  155.4401 H   0  0  0  0  0  0  0  0  0  0  0  0  # atno 8010 bound_to 7997
  139.7704  144.6924  151.0164 H   0  0  0  0  0  0  0  0  0  0  0  0  # atno 10167 bound_to 10162
  157.4094  131.1026  151.0470 H   0  0  0  0  0  0  0  0  0  0  0  0  # atno 10718 bound_to 10713
  153.5515  135.7011  153.5589 H   0  0  0  0  0  0  0  0  0  0  0  0  # atno 10763 bound_to 10752
  153.3510  135.3995  155.1646 H   0  0  0  0  0  0  0  0  0  0  0  0  # atno 10764 bound_to 10752
  154.8660  135.3765  154.5027 H   0  0  0  0  0  0  0  0  0  0  0  0  # atno 10765 bound_to 10752
  139.9174  134.7840  156.1775 H   0  0  0  0  0  0  0  0  0  0  0  0  # atno 11005 bound_to 11000
  145.4363  141.0419  143.2882 LP  0  0  0  0  0  0  0  0  0  0  0  0  # atno 17320 bound_to 7965
  144.8150  139.5893  143.7012 LP  0  0  0  0  0  0  0  0  0  0  0  0  # atno 17321 bound_to 7965
  140.7813  143.4595  151.0298 LP  0  0  0  0  0  0  0  0  0  0  0  0  # atno 17342 bound_to 10162
  139.8279  143.7731  152.3179 LP  0  0  0  0  0  0  0  0  0  0  0  0  # atno 17343 bound_to 10162
  157.1440  130.6155  149.5563 LP  0  0  0  0  0  0  0  0  0  0  0  0  # atno 17370 bound_to 10713
  155.9846  130.4872  150.6991 LP  0  0  0  0  0  0  0  0  0  0  0  0  # atno 17371 bound_to 10713
  141.0662  133.6818  156.2050 LP  0  0  0  0  0  0  0  0  0  0  0  0  # atno 17394 bound_to 11000
  140.6580  134.4997  157.5582 LP  0  0  0  0  0  0  0  0  0  0  0  0  # atno 17395 bound_to 11000

$$$$
