AV-unprocessed.smi:1703|AV-procd|sdf|6868|dock9
  -GOLD-   22720 8 63D 1   1.00000     0.00000
 Structure written by MMmdl.
 49 51  0  0  0  0  0  0  0  0  2 V2000
  146.8478  132.9249  159.6377 C   0  0  0  0  0  0  0  0  0  0  0  0
  146.9230  134.4550  159.6682 C   0  0  2  0  0  0  0  0  0  0  0  0
  148.0341  135.0029  158.7517 C   0  0  0  0  0  0  0  0  0  0  0  0
  148.1461  136.4568  158.8312 N   0  0  0  0  0  0  0  0  0  0  0  0
  149.1992  136.9515  157.9394 C   0  0  0  0  0  0  0  0  0  0  0  0
  149.2467  138.4810  157.7238 C   0  0  2  0  0  0  0  0  0  0  0  0
  148.1273  138.8126  156.9252 O   0  0  0  0  0  0  0  0  0  0  0  0
  150.5210  139.0192  157.0352 C   0  0  0  0  0  0  0  0  0  0  0  0
  150.5041  140.4777  156.8377 N   0  0  0  0  0  0  0  0  0  0  0  0
  149.8805  141.2354  155.8899 C   0  0  0  0  0  0  0  0  0  0  0  0
  149.0177  140.7329  154.7759 C   0  0  0  0  0  0  0  0  0  0  0  0
  149.5522  140.9925  153.4948 O   0  0  0  0  0  0  0  0  0  0  0  0
  150.1904  142.5379  156.1516 N   0  3  0  0  0  0  0  0  0  0  0  0
  151.0187  142.6133  157.2719 C   0  0  0  0  0  0  0  0  0  0  0  0
  151.5888  143.7082  157.9140 C   0  0  0  0  0  0  0  0  0  0  0  0
  152.3911  143.4337  159.0413 C   0  0  0  0  0  0  0  0  0  0  0  0
  152.6017  142.1131  159.4889 C   0  0  0  0  0  0  0  0  0  0  0  0
  152.0189  141.0108  158.8294 C   0  0  0  0  0  0  0  0  0  0  0  0
  151.2261  141.2920  157.7169 C   0  0  0  0  0  0  0  0  0  0  0  0
  148.3798  136.8126  160.2305 C   0  0  0  0  0  0  0  0  0  0  0  0
  147.2709  136.2779  161.1569 C   0  0  2  0  0  0  0  0  0  0  0  0
  147.5481  136.5894  162.6314 C   0  0  0  0  0  0  0  0  0  0  0  0
  147.1817  134.8642  161.0078 O   0  0  0  0  0  0  0  0  0  0  0  0
  146.6411  132.5625  158.6306 H   0  0  0  0  0  0  0  0  0  0  0  0
  146.0547  132.5612  160.2914 H   0  0  0  0  0  0  0  0  0  0  0  0
  147.7850  132.4773  159.9698 H   0  0  0  0  0  0  0  0  0  0  0  0
  145.9586  134.8594  159.3552 H   0  0  0  0  0  0  0  0  0  0  0  0
  148.9875  134.5438  159.0192 H   0  0  0  0  0  0  0  0  0  0  0  0
  147.8236  134.7051  157.7236 H   0  0  0  0  0  0  0  0  0  0  0  0
  150.1738  136.5767  158.2558 H   0  0  0  0  0  0  0  0  0  0  0  0
  149.0362  136.5159  156.9520 H   0  0  0  0  0  0  0  0  0  0  0  0
  149.1106  138.9791  158.6841 H   0  0  0  0  0  0  0  0  0  0  0  0
  148.3380  138.6254  156.0233 H   0  0  0  0  0  0  0  0  0  0  0  0
  151.4117  138.7878  157.6162 H   0  0  0  0  0  0  0  0  0  0  0  0
  150.6500  138.5531  156.0579 H   0  0  0  0  0  0  0  0  0  0  0  0
  148.8784  139.6574  154.8892 H   0  0  0  0  0  0  0  0  0  0  0  0
  148.0340  141.1972  154.8475 H   0  0  0  0  0  0  0  0  0  0  0  0
  149.2681  140.3084  152.9072 H   0  0  0  0  0  0  0  0  0  0  0  0
  151.4298  144.7207  157.5725 H   0  0  0  0  0  0  0  0  0  0  0  0
  152.8547  144.2521  159.5729 H   0  0  0  0  0  0  0  0  0  0  0  0
  153.2231  141.9416  160.3561 H   0  0  0  0  0  0  0  0  0  0  0  0
  152.1859  140.0031  159.1800 H   0  0  0  0  0  0  0  0  0  0  0  0
  149.3423  136.4137  160.5547 H   0  0  0  0  0  0  0  0  0  0  0  0
  148.4409  137.8887  160.3556 H   0  0  0  0  0  0  0  0  0  0  0  0
  146.3151  136.7249  160.8778 H   0  0  0  0  0  0  0  0  0  0  0  0
  147.6204  137.6643  162.7987 H   0  0  0  0  0  0  0  0  0  0  0  0
  148.4825  136.1348  162.9618 H   0  0  0  0  0  0  0  0  0  0  0  0
  146.7489  136.2071  163.2667 H   0  0  0  0  0  0  0  0  0  0  0  0
  149.8546  143.3153  155.5972 H   0  0  0  0  0  0  0  0  0  0  0  0
  1  2  1  0  0  0  0
  1 24  1  0  0  0  0
  1 25  1  0  0  0  0
  1 26  1  0  0  0  0
  2 23  1  0  0  0  0
  2  3  1  0  0  0  0
  2 27  1  0  0  0  0
  3  4  1  0  0  0  0
  3 28  1  0  0  0  0
  3 29  1  0  0  0  0
  4  5  1  0  0  0  0
  4 20  1  0  0  0  0
  5  6  1  0  0  0  0
  5 30  1  0  0  0  0
  5 31  1  0  0  0  0
  6  7  1  0  0  0  0
  6  8  1  0  0  0  0
  6 32  1  0  0  0  0
  7 33  1  0  0  0  0
  8  9  1  0  0  0  0
  8 34  1  0  0  0  0
  8 35  1  0  0  0  0
  9 19  1  0  0  0  0
  9 10  1  0  0  0  0
 10 11  1  0  0  0  0
 10 13  2  0  0  0  0
 11 12  1  0  0  0  0
 11 36  1  0  0  0  0
 11 37  1  0  0  0  0
 12 38  1  0  0  0  0
 13 14  1  0  0  0  0
 13 49  1  0  0  0  0
 14 19  2  0  0  0  0
 14 15  1  0  0  0  0
 15 16  2  0  0  0  0
 15 39  1  0  0  0  0
 16 17  1  0  0  0  0
 16 40  1  0  0  0  0
 17 18  2  0  0  0  0
 17 41  1  0  0  0  0
 18 19  1  0  0  0  0
 18 42  1  0  0  0  0
 20 21  1  0  0  0  0
 20 43  1  0  0  0  0
 20 44  1  0  0  0  0
 21 22  1  0  0  0  0
 21 23  1  0  0  0  0
 21 45  1  0  0  0  0
 22 46  1  0  0  0  0
 22 47  1  0  0  0  0
 22 48  1  0  0  0  0
M  CHG  1  13   1
M  END
> <s_m_source_file>
AV-unprocessed.smi

> <i_m_source_file_index>
1703

> <i_lp_mmshare_version>
43012

> <i_f3d_flags>
0

> <s_epik_input>
W0NIM11bQ0BASF0xW0NIMl1OKFtDSDJdW0NASF0oTzEpW0NIM10pW0NIMl1bQ0BIXShbT0hdKVtDSDJdbihjKG4yKVtDSDJdW09IXSljKGMyMylbY0hdW2NIXVtjSF1bY0hdMw==

> <s_epik_cmdline>
J2VwaWtfcHl0aG9uJywgJy1waCcsICc3LjAnLCAnLXRuJywgJzgnLCAnLW1hJywgJzIwMCcsICctbWV0YWxfYmluZGluZycsICctaW1hZScsICc8aW5maWxlLm1hZT4nLCAnLW9tYWUnLCAnPG91dGZpbGUubWFlPic=

> <r_epik_Ionization_Penalty>
1.7682

> <r_epik_Ionization_Penalty_Charging>
1.55298

> <r_epik_Ionization_Penalty_Neutral>
0.215215

> <r_epik_State_Penalty>
1.83821

> <r_epik_Charging_Adjusted_Penalty>
3.39119

> <i_epik_Tot_Q>
1

> <i_epik_Tot_abs_Q>
1

> <r_epik_Metal_State_Penalty>
5.89206

> <b_epik_Metal_Only>
0

> <s_lp_Force_Field>
OPLS_2005

> <r_lp_Energy>
30.4523

> <b_lp_Chiralities_Consistent>
1

> <s_lp_Variant>
AV-unprocessed.smi:1703-16

> <Gold.Version>
5.8.1

> <Gold.Id.Protein>
6NUR|6NUR_protein|mol2

> <Gold.PLP.Fitness>
52.8953

> <Gold.PLP.PLP>
-42.1203

> <Gold.PLP.part.hbond>
-4.0000

> <Gold.PLP.part.metal>
0.0000

> <Gold.PLP.part.buried>
-5.2221

> <Gold.PLP.part.nonpolar>
-33.0175

> <Gold.PLP.part.repulsive>
0.1110

> <Gold.PLP.ligand.clash>
0.0000

> <Gold.PLP.ligand.torsion>
0.4074

> <Gold.PLP.Chemscore.Hbond>
3.8389

> <Gold.PLP.Chemscore.CHOScore>
0.0000

> <Gold.PLP.Chemscore.Metal>
0.0000

> <Gold.Chemscore.Hbonds>
donor molecule, donor type, donor heavy atom, donor atom, acceptor molecule, acceptor atom, score
      L1  H    12    38       P1  7957  0.61
      L1  H    13    49       P1  8028  1.76
      P1  H  7989  7998       L1    12  0.26
      P1  H  8011  8017       L1    12  1.00

> <Gold.PLP.Chemscore.Internal.Correction>
0.0731

> <Gold.Rescore>
     Score         DG    S(hbond)    S(metal)    S(lipo)     H(rot)  DE(clash)    DE(int)     intcor
     16.81     -17.37       2.22        0.00     103.03       2.96       0.01       0.55       ----

> <Gold.Chemscore.Fitness>
16.8141

> <Gold.Chemscore.DG>
-17.3726

> <Gold.Chemscore.ZeroCoef>
-5.4800

> <Gold.Chemscore.Hbond>
2.2168

> <Gold.Chemscore.Metal>
0.0000

> <Gold.Chemscore.Lipo>
103.0300

> <Gold.Chemscore.Internal_Hbond>
0.0000

> <Gold.Chemscore.DEClash>
0.0098

> <Gold.Chemscore.DEInternal>
0.5488

> <Gold.Chemscore.Rot>
2.9555

> <Gold.Chemscore.Internal.Correction>
   9.000000E+99

> <Gold.Chemscore.Hbonds>
donor molecule, donor type, donor heavy atom, donor atom, acceptor molecule, acceptor atom, score
      L1  H    12    38       P1  7957  0.62
      L1  H    13    49       P1  8028  0.86
      P1  H  7989  7998       L1    12  0.10
      P1  H  8011  8017       L1    12  0.34

> <Gold.Chemscore.Hbond.Weighted>
-7.4041

> <Gold.Chemscore.Metal.Weighted>
-0.0000

> <Gold.Chemscore.Lipo.Weighted>
-12.0545

> <Gold.Chemscore.Internal_Hbond.Weighted>
0.0000

> <Gold.Chemscore.DEClash.Weighted>
0.0098

> <Gold.Chemscore.DEInternal.Weighted>
0.5488

> <Gold.Chemscore.Rot.Weighted>
7.5660

> <Gold.Chemscore.Internal.Correction.Weighted>
   9.000000E+99

> <Gold.Protein.RotatedTorsions>
[ 6907 6896 6895 6894 ] final   55.50 input  -60.11 | X-H torsion
[ 7974 7965 7964 7962 ] final   26.01 input  175.53 | X-H torsion
[ 8008 7997 7996 7995 ] final   49.84 input   59.86 | X-H torsion
[ 10167 10162 10161 10158 ] final   91.19 input  -65.29 | X-H torsion
[ 10718 10713 10712 10709 ] final  117.87 input   66.30 | X-H torsion
[ 10763 10752 10751 10750 ] final   19.01 input  -60.55 | X-H torsion
[ 11005 11000 10999 10996 ] final  -50.43 input  -57.11 | X-H torsion

> <Gold.Protein.ActiveResidues>
 VAL166  LYS551  ARG553  GLY616  TRP617  ASP618  TYR619  PRO620  LYS621  CYS622 
 ASP623  PHE694  ASN695  SER759  ASP760  ASP761  ALA762  ILE779  LEU786  VAL792 
 PHE793  MET794  SER795  GLU796  ALA797  LYS798  CYS799  TRP800  GLU811  SER814 

> <Gold.Protein.RotatedAtoms>
  152.3545  134.6960  160.0226 H   0  0  0  0  0  0  0  0  0  0  0  0  # atno 6907 bound_to 6896
  151.7303  133.3312  159.3346 H   0  0  0  0  0  0  0  0  0  0  0  0  # atno 6908 bound_to 6896
  150.7562  134.6303  159.6227 H   0  0  0  0  0  0  0  0  0  0  0  0  # atno 6909 bound_to 6896
  146.1859  139.7387  142.8867 H   0  0  0  0  0  0  0  0  0  0  0  0  # atno 7974 bound_to 7965
  155.4089  140.3441  155.4262 H   0  0  0  0  0  0  0  0  0  0  0  0  # atno 8008 bound_to 7997
  156.1460  140.1556  156.8877 H   0  0  0  0  0  0  0  0  0  0  0  0  # atno 8009 bound_to 7997
  154.5011  140.0814  156.7781 H   0  0  0  0  0  0  0  0  0  0  0  0  # atno 8010 bound_to 7997
  139.8399  144.6646  150.9296 H   0  0  0  0  0  0  0  0  0  0  0  0  # atno 10167 bound_to 10162
  157.6068  131.1042  150.7676 H   0  0  0  0  0  0  0  0  0  0  0  0  # atno 10718 bound_to 10713
  153.1199  135.6717  153.9353 H   0  0  0  0  0  0  0  0  0  0  0  0  # atno 10763 bound_to 10752
  153.8871  135.3051  155.3448 H   0  0  0  0  0  0  0  0  0  0  0  0  # atno 10764 bound_to 10752
  154.7612  135.4987  153.9546 H   0  0  0  0  0  0  0  0  0  0  0  0  # atno 10765 bound_to 10752
  141.0815  133.6652  156.3730 H   0  0  0  0  0  0  0  0  0  0  0  0  # atno 11005 bound_to 11000
  145.3939  141.0376  143.3108 LP  0  0  0  0  0  0  0  0  0  0  0  0  # atno 17320 bound_to 7965
  144.8397  139.5492  143.6906 LP  0  0  0  0  0  0  0  0  0  0  0  0  # atno 17321 bound_to 7965
  140.7799  143.3922  151.1290 LP  0  0  0  0  0  0  0  0  0  0  0  0  # atno 17342 bound_to 10162
  139.7569  143.8693  152.3091 LP  0  0  0  0  0  0  0  0  0  0  0  0  # atno 17343 bound_to 10162
  156.8062  130.4937  149.5362 LP  0  0  0  0  0  0  0  0  0  0  0  0  # atno 17370 bound_to 10713
  156.1157  130.6073  151.0117 LP  0  0  0  0  0  0  0  0  0  0  0  0  # atno 17371 bound_to 10713
  140.5457  134.6076  157.5393 LP  0  0  0  0  0  0  0  0  0  0  0  0  # atno 17394 bound_to 11000
  139.9630  134.7421  156.0198 LP  0  0  0  0  0  0  0  0  0  0  0  0  # atno 17395 bound_to 11000

$$$$
