AV-unprocessed.smi:3233|AV-procd|sdf|12347|dock4
  -GOLD-   2272018213D 1   1.00000     0.00000
 Structure written by MMmdl.
 36 37  0  0  0  0  0  0  0  0  1 V2000
  151.8741  145.3831  159.5431 C   0  0  0  0  0  0  0  0  0  0  0  0
  152.1770  143.9500  159.5080 N   0  0  0  0  0  0  0  0  0  0  0  0
  152.8295  143.3961  160.6222 C   0  0  0  0  0  0  0  0  0  0  0  0
  153.1429  142.0944  160.6779 C   0  0  0  0  0  0  0  0  0  0  0  0
  152.7936  141.2553  159.5568 C   0  0  0  0  0  0  0  0  0  0  0  0
  152.1677  141.7700  158.4680 C   0  0  0  0  0  0  0  0  0  0  0  0
  151.7836  141.0308  157.3350 N   0  0  0  0  0  0  0  0  0  0  0  0
  152.1767  139.8092  156.9208 C   0  0  0  0  0  0  0  0  0  0  0  0
  152.9996  139.0925  157.4884 O   0  0  0  0  0  0  0  0  0  0  0  0
  151.5176  139.3067  155.6368 C   0  0  0  0  0  0  0  0  0  0  0  0
  150.7135  140.3424  155.0887 O   0  0  0  0  0  0  0  0  0  0  0  0
  149.3211  140.0669  155.1279 C   0  0  0  0  0  0  0  0  0  0  0  0
  148.9392  138.7683  154.4099 C   0  0  0  0  0  0  0  0  0  0  0  0
  147.4799  138.9605  153.9760 C   0  0  0  0  0  0  0  0  0  0  0  0
  147.2034  140.4712  154.0368 C   0  0  0  0  0  0  0  0  0  0  0  0
  148.5454  141.1338  154.3585 C   0  0  0  0  0  0  0  0  0  0  0  0
  151.8210  143.2043  158.4197 C   0  0  0  0  0  0  0  0  0  0  0  0
  151.2420  143.7164  157.4583 O   0  0  0  0  0  0  0  0  0  0  0  0
  152.2519  145.8724  160.4414 H   0  0  0  0  0  0  0  0  0  0  0  0
  150.7958  145.5454  159.5121 H   0  0  0  0  0  0  0  0  0  0  0  0
  152.3195  145.8923  158.6872 H   0  0  0  0  0  0  0  0  0  0  0  0
  153.0561  144.0880  161.4203 H   0  0  0  0  0  0  0  0  0  0  0  0
  153.6444  141.6824  161.5412 H   0  0  0  0  0  0  0  0  0  0  0  0
  153.0425  140.2102  159.6348 H   0  0  0  0  0  0  0  0  0  0  0  0
  151.1313  141.5081  156.7289 H   0  0  0  0  0  0  0  0  0  0  0  0
  152.2873  138.9995  154.9275 H   0  0  0  0  0  0  0  0  0  0  0  0
  150.9091  138.4320  155.8705 H   0  0  0  0  0  0  0  0  0  0  0  0
  148.9612  140.0461  156.1585 H   0  0  0  0  0  0  0  0  0  0  0  0
  149.5645  138.6430  153.5247 H   0  0  0  0  0  0  0  0  0  0  0  0
  149.0744  137.8859  155.0363 H   0  0  0  0  0  0  0  0  0  0  0  0
  147.3170  138.5623  152.9739 H   0  0  0  0  0  0  0  0  0  0  0  0
  146.8058  138.4305  154.6497 H   0  0  0  0  0  0  0  0  0  0  0  0
  146.7756  140.8512  153.1086 H   0  0  0  0  0  0  0  0  0  0  0  0
  146.4895  140.6794  154.8347 H   0  0  0  0  0  0  0  0  0  0  0  0
  148.4341  142.0612  154.9210 H   0  0  0  0  0  0  0  0  0  0  0  0
  149.0661  141.3700  153.4291 H   0  0  0  0  0  0  0  0  0  0  0  0
  1  2  1  0  0  0  0
  1 19  1  0  0  0  0
  1 20  1  0  0  0  0
  1 21  1  0  0  0  0
  2 17  1  0  0  0  0
  2  3  1  0  0  0  0
  3  4  2  0  0  0  0
  3 22  1  0  0  0  0
  4  5  1  0  0  0  0
  4 23  1  0  0  0  0
  5  6  2  0  0  0  0
  5 24  1  0  0  0  0
  6  7  1  0  0  0  0
  6 17  1  0  0  0  0
  7  8  1  0  0  0  0
  7 25  1  0  0  0  0
  8  9  2  0  0  0  0
  8 10  1  0  0  0  0
 10 11  1  0  0  0  0
 10 26  1  0  0  0  0
 10 27  1  0  0  0  0
 11 12  1  0  0  0  0
 12 16  1  0  0  0  0
 12 13  1  0  0  0  0
 12 28  1  0  0  0  0
 13 14  1  0  0  0  0
 13 29  1  0  0  0  0
 13 30  1  0  0  0  0
 14 15  1  0  0  0  0
 14 31  1  0  0  0  0
 14 32  1  0  0  0  0
 15 16  1  0  0  0  0
 15 33  1  0  0  0  0
 15 34  1  0  0  0  0
 16 35  1  0  0  0  0
 16 36  1  0  0  0  0
 17 18  2  0  0  0  0
M  END
> <s_m_source_file>
AV-unprocessed.smi

> <i_m_source_file_index>
3233

> <i_lp_mmshare_version>
43012

> <i_f3d_flags>
0

> <s_epik_input>
W0NIM11uMVtjSF1bY0hdW2NIXWMoYzE9TylbTkhdQyg9TylbQ0gyXU9bQ0hdMltDSDJdW0NIMl1bQ0gyXVtDSDJdMg==

> <s_epik_cmdline>
J2VwaWtfcHl0aG9uJywgJy1waCcsICc3LjAnLCAnLXRuJywgJzgnLCAnLW1hJywgJzIwMCcsICctbWV0YWxfYmluZGluZycsICctaW1hZScsICc8aW5maWxlLm1hZT4nLCAnLW9tYWUnLCAnPG91dGZpbGUubWFlPic=

> <r_lp_tautomer_probability>
1

> <r_epik_Ionization_Penalty>
8.96518e-07

> <r_epik_Ionization_Penalty_Charging>
8.5061e-07

> <r_epik_Ionization_Penalty_Neutral>
4.59088e-08

> <r_epik_State_Penalty>
-0

> <r_epik_Charging_Adjusted_Penalty>
8.5061e-07

> <i_epik_Tot_Q>
0

> <i_epik_Tot_abs_Q>
0

> <r_epik_Metal_State_Penalty>
-0

> <b_epik_Metal_Only>
0

> <s_lp_Force_Field>
OPLS_2005

> <r_lp_Energy>
37.0761

> <b_lp_Chiralities_Consistent>
1

> <s_lp_Variant>
AV-unprocessed.smi:3233-1

> <Gold.Version>
5.8.1

> <Gold.Id.Protein>
6NUR|6NUR_protein|mol2

> <Gold.PLP.Fitness>
47.2471

> <Gold.PLP.PLP>
-42.1603

> <Gold.PLP.part.hbond>
-2.0000

> <Gold.PLP.part.metal>
0.0000

> <Gold.PLP.part.buried>
-1.3584

> <Gold.PLP.part.nonpolar>
-37.6517

> <Gold.PLP.part.repulsive>
0.3730

> <Gold.PLP.ligand.clash>
0.0000

> <Gold.PLP.ligand.torsion>
0.4697

> <Gold.PLP.Chemscore.Hbond>
2.0000

> <Gold.PLP.Chemscore.CHOScore>
0.0000

> <Gold.PLP.Chemscore.Metal>
0.0000

> <Gold.Chemscore.Hbonds>
donor molecule, donor type, donor heavy atom, donor atom, acceptor molecule, acceptor atom, score
      P1  H  7989  7998       L1    11  1.00
      P1  H  7997  8010       L1     9  1.00

> <Gold.PLP.Chemscore.Internal.Correction>
0.0262

> <Gold.Rescore>
     Score         DG    S(hbond)    S(metal)    S(lipo)     H(rot)  DE(clash)    DE(int)     intcor
     14.56     -16.28       0.93        0.00      96.33       1.40       0.22       1.50       ----

> <Gold.Chemscore.Fitness>
14.5555

> <Gold.Chemscore.DG>
-16.2768

> <Gold.Chemscore.ZeroCoef>
-5.4800

> <Gold.Chemscore.Hbond>
0.9334

> <Gold.Chemscore.Metal>
0.0000

> <Gold.Chemscore.Lipo>
96.3263

> <Gold.Chemscore.Internal_Hbond>
0.0000

> <Gold.Chemscore.DEClash>
0.2229

> <Gold.Chemscore.DEInternal>
1.4984

> <Gold.Chemscore.Rot>
1.4027

> <Gold.Chemscore.Internal.Correction>
   9.000000E+99

> <Gold.Chemscore.Hbonds>
donor molecule, donor type, donor heavy atom, donor atom, acceptor molecule, acceptor atom, score
      P1  H  7989  7998       L1    11  0.49
      P1  H  7997  8010       L1     9  0.29

> <Gold.Chemscore.Hbond.Weighted>
-3.1175

> <Gold.Chemscore.Metal.Weighted>
-0.0000

> <Gold.Chemscore.Lipo.Weighted>
-11.2702

> <Gold.Chemscore.Internal_Hbond.Weighted>
0.0000

> <Gold.Chemscore.DEClash.Weighted>
0.2229

> <Gold.Chemscore.DEInternal.Weighted>
1.4984

> <Gold.Chemscore.Rot.Weighted>
3.5909

> <Gold.Chemscore.Internal.Correction.Weighted>
   9.000000E+99

> <Gold.Protein.RotatedTorsions>
[ 6907 6896 6895 6894 ] final  -97.96 input  -60.11 | X-H torsion
[ 7974 7965 7964 7962 ] final  -41.00 input  175.53 | X-H torsion
[ 8008 7997 7996 7995 ] final   29.98 input   59.86 | X-H torsion
[ 10167 10162 10161 10158 ] final -174.39 input  -65.29 | X-H torsion
[ 10718 10713 10712 10709 ] final  -48.38 input   66.30 | X-H torsion
[ 10763 10752 10751 10750 ] final -129.77 input  -60.55 | X-H torsion
[ 11005 11000 10999 10996 ] final -159.99 input  -57.11 | X-H torsion

> <Gold.Protein.ActiveResidues>
 VAL166  LYS551  ARG553  GLY616  TRP617  ASP618  TYR619  PRO620  LYS621  CYS622 
 ASP623  PHE694  ASN695  SER759  ASP760  ASP761  ALA762  ILE779  LEU786  VAL792 
 PHE793  MET794  SER795  GLU796  ALA797  LYS798  CYS799  TRP800  GLU811  SER814 

> <Gold.Protein.RotatedAtoms>
  150.7032  134.1268  159.4054 H   0  0  0  0  0  0  0  0  0  0  0  0  # atno 6907 bound_to 6896
  151.9254  135.0278  160.0534 H   0  0  0  0  0  0  0  0  0  0  0  0  # atno 6908 bound_to 6896
  152.2221  133.4956  159.5205 H   0  0  0  0  0  0  0  0  0  0  0  0  # atno 6909 bound_to 6896
  146.0252  140.6801  142.9159 H   0  0  0  0  0  0  0  0  0  0  0  0  # atno 7974 bound_to 7965
  155.0832  140.3212  155.4595 H   0  0  0  0  0  0  0  0  0  0  0  0  # atno 8008 bound_to 7997
  156.2762  140.2091  156.5905 H   0  0  0  0  0  0  0  0  0  0  0  0  # atno 8009 bound_to 7997
  154.6962  140.0511  157.0400 H   0  0  0  0  0  0  0  0  0  0  0  0  # atno 8010 bound_to 7997
  139.5636  144.1809  152.1278 H   0  0  0  0  0  0  0  0  0  0  0  0  # atno 10167 bound_to 10162
  156.1993  130.4155  149.9263 H   0  0  0  0  0  0  0  0  0  0  0  0  # atno 10718 bound_to 10713
  154.8757  135.3884  154.3975 H   0  0  0  0  0  0  0  0  0  0  0  0  # atno 10763 bound_to 10752
  153.4703  135.7030  153.6002 H   0  0  0  0  0  0  0  0  0  0  0  0  # atno 10764 bound_to 10752
  153.4462  135.3844  155.2225 H   0  0  0  0  0  0  0  0  0  0  0  0  # atno 10765 bound_to 10752
  140.6365  134.4597  157.5232 H   0  0  0  0  0  0  0  0  0  0  0  0  # atno 11005 bound_to 11000
  144.7006  140.3636  143.7159 LP  0  0  0  0  0  0  0  0  0  0  0  0  # atno 17320 bound_to 7965
  145.7130  139.1689  143.2528 LP  0  0  0  0  0  0  0  0  0  0  0  0  # atno 17321 bound_to 7965
  140.1327  144.5273  150.6792 LP  0  0  0  0  0  0  0  0  0  0  0  0  # atno 17342 bound_to 10162
  140.6918  143.2380  151.5110 LP  0  0  0  0  0  0  0  0  0  0  0  0  # atno 17343 bound_to 10162
  156.6977  130.8921  151.3596 LP  0  0  0  0  0  0  0  0  0  0  0  0  # atno 17370 bound_to 10713
  157.6976  130.9299  150.0691 LP  0  0  0  0  0  0  0  0  0  0  0  0  # atno 17371 bound_to 10713
  139.9096  134.8373  156.1576 LP  0  0  0  0  0  0  0  0  0  0  0  0  # atno 17394 bound_to 11000
  141.0638  133.6829  156.2004 LP  0  0  0  0  0  0  0  0  0  0  0  0  # atno 17395 bound_to 11000

$$$$
