AV-unprocessed.smi:34|AV-procd|sdf|219|dock5
  -GOLD-   2262015533D 1   1.00000     0.00000
 Structure written by MMmdl.
 55 59  0  0  0  0  0  0  0  0  1 V2000
  153.0473  140.0325  157.6786 O   0  0  0  0  0  0  0  0  0  0  0  0
  152.1611  140.8445  157.4108 C   0  0  0  0  0  0  0  0  0  0  0  0
  151.2256  140.6356  156.3193 N   0  0  0  0  0  0  0  0  0  0  0  0
  151.2168  139.6346  155.4078 C   0  0  0  0  0  0  0  0  0  0  0  0
  151.3377  139.8633  154.0732 N   0  0  0  0  0  0  0  0  0  0  0  0
  151.3166  138.8436  153.2097 C   0  0  0  0  0  0  0  0  0  0  0  0
  151.1858  137.5393  153.4621 N   0  0  0  0  0  0  0  0  0  0  0  0
  151.0628  137.3035  154.8000 C   0  0  0  0  0  0  0  0  0  0  0  0
  151.0649  138.2871  155.8270 C   0  0  0  0  0  0  0  0  0  0  0  0
  150.9078  137.6730  157.0627 N   0  0  0  0  0  0  0  0  0  0  0  0
  150.8183  136.4011  156.7765 C   0  0  0  0  0  0  0  0  0  0  0  0
  150.9176  136.0900  155.4357 N   0  0  0  0  0  0  0  0  0  0  0  0
  150.8468  134.7580  154.7533 C   0  0  2  0  0  0  0  0  0  0  0  0
  151.3094  133.7813  155.6384 O   0  0  0  0  0  0  0  0  0  0  0  0
  152.6894  133.5505  155.3912 C   0  0  1  0  0  0  0  0  0  0  0  0
  153.1220  132.2089  155.9929 C   0  0  0  0  0  0  0  0  0  0  0  0
  152.4993  132.0384  157.2556 O   0  0  0  0  0  0  0  0  0  0  0  0
  153.1201  131.3409  158.2261 C   0  0  0  0  0  0  0  0  0  0  0  0
  154.1907  130.7517  158.0644 O   0  0  0  0  0  0  0  0  0  0  0  0
  152.3735  131.3533  159.5173 C   0  0  0  0  0  0  0  0  0  0  0  0
  152.5414  132.4419  160.4046 C   0  0  0  0  0  0  0  0  0  0  0  0
  151.8514  132.4802  161.6318 C   0  0  0  0  0  0  0  0  0  0  0  0
  150.9845  131.4306  161.9869 C   0  0  0  0  0  0  0  0  0  0  0  0
  150.8074  130.3428  161.1122 C   0  0  0  0  0  0  0  0  0  0  0  0
  151.4969  130.3024  159.8844 C   0  0  0  0  0  0  0  0  0  0  0  0
  152.7535  133.6119  153.8679 C   0  0  2  0  0  0  0  0  0  0  0  0
  153.9862  133.8745  153.4323 F   0  0  0  0  0  0  0  0  0  0  0  0
  151.7892  134.7410  153.5323 C   0  0  1  0  0  0  0  0  0  0  0  0
  151.1048  134.4673  152.3272 O   0  0  0  0  0  0  0  0  0  0  0  0
  151.9302  142.0650  158.2536 C   0  0  0  0  0  0  0  0  0  0  0  0
  152.7554  142.3169  159.3726 C   0  0  0  0  0  0  0  0  0  0  0  0
  152.5597  143.4694  160.1582 C   0  0  0  0  0  0  0  0  0  0  0  0
  151.5418  144.3836  159.8273 C   0  0  0  0  0  0  0  0  0  0  0  0
  150.7222  144.1465  158.7078 C   0  0  0  0  0  0  0  0  0  0  0  0
  150.9172  142.9943  157.9211 C   0  0  0  0  0  0  0  0  0  0  0  0
  150.4990  141.3296  156.2213 H   0  0  0  0  0  0  0  0  0  0  0  0
  151.4195  139.1121  152.1685 H   0  0  0  0  0  0  0  0  0  0  0  0
  150.6775  135.6563  157.5462 H   0  0  0  0  0  0  0  0  0  0  0  0
  149.7892  134.6224  154.5232 H   0  0  0  0  0  0  0  0  0  0  0  0
  153.2673  134.3663  155.8291 H   0  0  0  0  0  0  0  0  0  0  0  0
  152.8223  131.3947  155.3316 H   0  0  0  0  0  0  0  0  0  0  0  0
  154.2072  132.1664  156.0949 H   0  0  0  0  0  0  0  0  0  0  0  0
  153.2017  133.2597  160.1542 H   0  0  0  0  0  0  0  0  0  0  0  0
  151.9876  133.3169  162.3012 H   0  0  0  0  0  0  0  0  0  0  0  0
  150.4560  131.4597  162.9282 H   0  0  0  0  0  0  0  0  0  0  0  0
  150.1413  129.5371  161.3829 H   0  0  0  0  0  0  0  0  0  0  0  0
  151.3375  129.4532  159.2361 H   0  0  0  0  0  0  0  0  0  0  0  0
  152.4292  132.6656  153.4313 H   0  0  0  0  0  0  0  0  0  0  0  0
  152.3205  135.6908  153.4517 H   0  0  0  0  0  0  0  0  0  0  0  0
  150.3364  135.0168  152.2891 H   0  0  0  0  0  0  0  0  0  0  0  0
  153.5424  141.6257  159.6388 H   0  0  0  0  0  0  0  0  0  0  0  0
  153.1925  143.6526  161.0140 H   0  0  0  0  0  0  0  0  0  0  0  0
  151.3927  145.2679  160.4292 H   0  0  0  0  0  0  0  0  0  0  0  0
  149.9452  144.8510  158.4498 H   0  0  0  0  0  0  0  0  0  0  0  0
  150.2838  142.8373  157.0601 H   0  0  0  0  0  0  0  0  0  0  0  0
  1  2  2  0  0  0  0
  2  3  1  0  0  0  0
  2 30  1  0  0  0  0
  3  4  1  0  0  0  0
  3 36  1  0  0  0  0
  4  9  1  0  0  0  0
  4  5  2  0  0  0  0
  5  6  1  0  0  0  0
  6  7  2  0  0  0  0
  6 37  1  0  0  0  0
  7  8  1  0  0  0  0
  8 12  1  0  0  0  0
  8  9  2  0  0  0  0
  9 10  1  0  0  0  0
 10 11  2  0  0  0  0
 11 12  1  0  0  0  0
 11 38  1  0  0  0  0
 12 13  1  0  0  0  0
 13 28  1  0  0  0  0
 13 14  1  0  0  0  0
 13 39  1  0  0  0  0
 14 15  1  0  0  0  0
 15 16  1  0  0  0  0
 15 26  1  0  0  0  0
 15 40  1  0  0  0  0
 16 17  1  0  0  0  0
 16 41  1  0  0  0  0
 16 42  1  0  0  0  0
 17 18  1  0  0  0  0
 18 19  2  0  0  0  0
 18 20  1  0  0  0  0
 20 25  1  0  0  0  0
 20 21  2  0  0  0  0
 21 22  1  0  0  0  0
 21 43  1  0  0  0  0
 22 23  2  0  0  0  0
 22 44  1  0  0  0  0
 23 24  1  0  0  0  0
 23 45  1  0  0  0  0
 24 25  2  0  0  0  0
 24 46  1  0  0  0  0
 25 47  1  0  0  0  0
 26 27  1  0  0  0  0
 26 28  1  0  0  0  0
 26 48  1  0  0  0  0
 28 29  1  0  0  0  0
 28 49  1  0  0  0  0
 29 50  1  0  0  0  0
 30 35  1  0  0  0  0
 30 31  2  0  0  0  0
 31 32  1  0  0  0  0
 31 51  1  0  0  0  0
 32 33  2  0  0  0  0
 32 52  1  0  0  0  0
 33 34  1  0  0  0  0
 33 53  1  0  0  0  0
 34 35  2  0  0  0  0
 34 54  1  0  0  0  0
 35 55  1  0  0  0  0
M  END
> <s_m_source_file>
AV-unprocessed.smi

> <i_m_source_file_index>
34

> <i_lp_mmshare_version>
43012

> <i_f3d_flags>
0

> <s_epik_input>
W2NIXTFbY0hdW2NIXVtjSF1bY0hdYzFDKD1PKVtOSF1jKG5bY0hdbjIpYyhjMjMpbltjSF1uM1tDQEBIXTRPW0NASF0oW0NAQEhdKEYpW0NASF00W09IXSlbQ0gyXU9DKD1PKWM1W2NIXVtjSF1bY0hdW2NIXVtjSF01

> <s_epik_cmdline>
J2VwaWtfcHl0aG9uJywgJy1waCcsICc3LjAnLCAnLXRuJywgJzgnLCAnLW1hJywgJzIwMCcsICctbWV0YWxfYmluZGluZycsICctaW1hZScsICc8aW5maWxlLm1hZT4nLCAnLW9tYWUnLCAnPG91dGZpbGUubWFlPic=

> <r_lp_tautomer_probability>
1

> <r_epik_Ionization_Penalty>
0.00257489

> <r_epik_Ionization_Penalty_Charging>
0

> <r_epik_Ionization_Penalty_Neutral>
0.00257489

> <r_epik_State_Penalty>
0.00519398

> <r_epik_Charging_Adjusted_Penalty>
0.00519398

> <i_epik_Tot_Q>
0

> <i_epik_Tot_abs_Q>
0

> <r_epik_Metal_State_Penalty>
0.335891

> <b_epik_Metal_Only>
0

> <s_epik_Chemistry_Notes>
This compound has an ester and may undergo hydrolysis at high or low pH. This compound contains an acetal/aminal-like group ( X-CH(R)-Y where X, Y are N, S, or O) that may be acid/base labile, releasing an aldehyde.

> <s_lp_Force_Field>
OPLS_2005

> <r_lp_Energy>
42.7442

> <b_lp_Chiralities_Consistent>
1

> <s_lp_Variant>
AV-unprocessed.smi:34-5

> <Gold.Version>
5.8.1

> <Gold.Id.Protein>
6NUR|6NUR_protein|mol2

> <Gold.PLP.Fitness>
56.7036

> <Gold.PLP.PLP>
-55.2632

> <Gold.PLP.part.hbond>
-2.0000

> <Gold.PLP.part.metal>
0.0000

> <Gold.PLP.part.buried>
-9.1679

> <Gold.PLP.part.nonpolar>
-44.2979

> <Gold.PLP.part.repulsive>
0.4622

> <Gold.PLP.ligand.clash>
0.0000

> <Gold.PLP.ligand.torsion>
3.2305

> <Gold.PLP.Chemscore.Hbond>
2.0000

> <Gold.PLP.Chemscore.CHOScore>
0.5358

> <Gold.PLP.Chemscore.Metal>
0.0000

> <Gold.Chemscore.Hbonds>
donor molecule, donor type, donor heavy atom, donor atom, acceptor molecule, acceptor atom, score
      P1  H  7989  7998       L1     5  0.15
      P1  H  7997  8008       L1     1  0.46

> <Gold.PLP.Chemscore.Internal.Correction>
0.2939

> <Gold.Rescore>
     Score         DG    S(hbond)    S(metal)    S(lipo)     H(rot)  DE(clash)    DE(int)     intcor
     13.60     -18.67       1.31        0.00     134.94       2.72       0.58       4.48       ----

> <Gold.Chemscore.Fitness>
13.5991

> <Gold.Chemscore.DG>
-18.6658

> <Gold.Chemscore.ZeroCoef>
-5.4800

> <Gold.Chemscore.Hbond>
1.3068

> <Gold.Chemscore.Metal>
0.0000

> <Gold.Chemscore.Lipo>
134.9404

> <Gold.Chemscore.Internal_Hbond>
0.0000

> <Gold.Chemscore.DEClash>
0.5841

> <Gold.Chemscore.DEInternal>
4.4826

> <Gold.Chemscore.Rot>
2.7215

> <Gold.Chemscore.Internal.Correction>
   9.000000E+99

> <Gold.Chemscore.Hbonds>
donor molecule, donor type, donor heavy atom, donor atom, acceptor molecule, acceptor atom, score
      P1  H  7989  7998       L1     5  0.10
      P1  H  7997  8008       L1     1  0.28

> <Gold.Chemscore.Hbond.Weighted>
-4.3649

> <Gold.Chemscore.Metal.Weighted>
-0.0000

> <Gold.Chemscore.Lipo.Weighted>
-15.7880

> <Gold.Chemscore.Internal_Hbond.Weighted>
0.0000

> <Gold.Chemscore.DEClash.Weighted>
0.5841

> <Gold.Chemscore.DEInternal.Weighted>
4.4826

> <Gold.Chemscore.Rot.Weighted>
6.9670

> <Gold.Chemscore.Internal.Correction.Weighted>
   9.000000E+99

> <Gold.Protein.RotatedTorsions>
[ 6907 6896 6895 6894 ] final -134.79 input  -60.11 | X-H torsion
[ 7974 7965 7964 7962 ] final  -76.97 input  175.53 | X-H torsion
[ 8008 7997 7996 7995 ] final  -37.85 input   59.86 | X-H torsion
[ 10167 10162 10161 10158 ] final   50.97 input  -65.29 | X-H torsion
[ 10718 10713 10712 10709 ] final  108.12 input   66.30 | X-H torsion
[ 10763 10752 10751 10750 ] final  -78.56 input  -60.55 | X-H torsion
[ 11005 11000 10999 10996 ] final -172.35 input  -57.11 | X-H torsion

> <Gold.Protein.ActiveResidues>
 VAL166  LYS551  ARG553  GLY616  TRP617  ASP618  TYR619  PRO620  LYS621  CYS622 
 ASP623  PHE694  ASN695  SER759  ASP760  ASP761  ALA762  ILE779  LEU786  VAL792 
 PHE793  MET794  SER795  GLU796  ALA797  LYS798  CYS799  TRP800  GLU811  SER814 

> <Gold.Protein.RotatedAtoms>
  150.9900  133.6159  159.2709 H   0  0  0  0  0  0  0  0  0  0  0  0  # atno 6907 bound_to 6896
  151.3383  135.0856  159.9372 H   0  0  0  0  0  0  0  0  0  0  0  0  # atno 6908 bound_to 6896
  152.5243  133.9517  159.7729 H   0  0  0  0  0  0  0  0  0  0  0  0  # atno 6909 bound_to 6896
  145.6059  140.9398  143.1216 H   0  0  0  0  0  0  0  0  0  0  0  0  # atno 7974 bound_to 7965
  154.4046  140.1593  156.2605 H   0  0  0  0  0  0  0  0  0  0  0  0  # atno 8008 bound_to 7997
  155.9041  140.3431  155.6026 H   0  0  0  0  0  0  0  0  0  0  0  0  # atno 8009 bound_to 7997
  155.7413  140.0793  157.2235 H   0  0  0  0  0  0  0  0  0  0  0  0  # atno 8010 bound_to 7997
  140.2669  144.3310  150.6301 H   0  0  0  0  0  0  0  0  0  0  0  0  # atno 10167 bound_to 10162
  157.6600  131.0887  150.6258 H   0  0  0  0  0  0  0  0  0  0  0  0  # atno 10718 bound_to 10713
  154.5275  135.5725  153.6731 H   0  0  0  0  0  0  0  0  0  0  0  0  # atno 10763 bound_to 10752
  152.9931  135.6196  154.2673 H   0  0  0  0  0  0  0  0  0  0  0  0  # atno 10764 bound_to 10752
  154.2597  135.2856  155.2762 H   0  0  0  0  0  0  0  0  0  0  0  0  # atno 10765 bound_to 10752
  140.4979  134.5921  157.4978 H   0  0  0  0  0  0  0  0  0  0  0  0  # atno 11005 bound_to 11000
  144.7290  139.7784  143.7354 LP  0  0  0  0  0  0  0  0  0  0  0  0  # atno 17320 bound_to 7965
  146.1541  139.4634  143.0030 LP  0  0  0  0  0  0  0  0  0  0  0  0  # atno 17321 bound_to 7965
  140.5921  143.2168  151.7233 LP  0  0  0  0  0  0  0  0  0  0  0  0  # atno 17342 bound_to 10162
  139.5000  144.3923  152.0267 LP  0  0  0  0  0  0  0  0  0  0  0  0  # atno 17343 bound_to 10162
  156.6561  130.4499  149.5703 LP  0  0  0  0  0  0  0  0  0  0  0  0  # atno 17370 bound_to 10713
  156.2101  130.6674  151.1261 LP  0  0  0  0  0  0  0  0  0  0  0  0  # atno 17371 bound_to 10713
  139.9730  134.7261  156.0004 LP  0  0  0  0  0  0  0  0  0  0  0  0  # atno 17394 bound_to 11000
  141.1450  133.6557  156.3842 LP  0  0  0  0  0  0  0  0  0  0  0  0  # atno 17395 bound_to 11000

$$$$
