#       Name:                AV-unprocessed.smi:1681
#       Creating user name   scv26
#       Creation time:       Fri Mar 27 07:49:23 2020


#       File generated by GOLD software.
#

@<TRIPOS>MOLECULE
AV-unprocessed.smi:1681
    47    48     1
SMALL
NO_CHARGES


@<TRIPOS>ATOM
      1 ****        -5.6212   0.3776   1.7765 C.3            1 S1                 0.0000
      2 ****        -4.1369   0.7470   1.8296 C.2            1 S1                 0.0000
      3 ****        -3.5318   0.5583   2.8851 O.2            1 S1                 0.0000
      4 ****        -3.5415   1.2610   0.7264 N.am           1 S1                 0.0000
      5 ****        -4.1837   1.4320  -0.5833 C.3            1 S1                 0.0000
      6 ****        -3.5878   0.4051  -1.5626 C.3            1 S1                 0.0000
      7 ****        -2.0555   0.5458  -1.6428 C.3            1 S1                 0.0000
      8 ****        -1.4053   0.5409  -0.2390 C.3            1 S1                 0.0000
      9 ****         0.1022   0.8156  -0.3243 C.2            1 S1                 0.0000
     10 ****         0.5041   1.8871  -0.7783 O.2            1 S1                 0.0000
     11 ****         0.9042  -0.1678   0.1199 N.am           1 S1                 0.0000
     12 ****         2.3208  -0.1776   0.1497 C.2            1 S1                 0.0000
     13 ****         3.2404   0.8312  -0.2545 C.2            1 S1                 0.0000
     14 ****         4.4911   0.4347  -0.0718 N.2            1 S1                 0.0000
     15 ****         4.3939  -0.8159   0.4454 N.pl3          1 S1                 0.0000
     16 ****         5.6000  -1.5584   0.7660 C.3            1 S1                 0.0000
     17 ****         5.8966  -2.6198  -0.2950 C.2            1 S1                 0.0000
     18 ****         6.3705  -2.1937  -1.4689 N.am           1 S1                 0.0000
     19 ****         5.7020  -3.8097  -0.0567 O.2            1 S1                 0.0000
     20 ****         3.0806  -1.2167   0.5957 C.2            1 S1                 0.0000
     21 ****        -2.1075   1.5736   0.6719 C.3            1 S1                 0.0000
     22 ****        -5.8087  -0.3645   0.9997 H              1 S1                 0.0000
     23 ****        -6.2321   1.2594   1.5814 H              1 S1                 0.0000
     24 ****        -5.9456  -0.0474   2.7270 H              1 S1                 0.0000
     25 ****        -5.2679   1.3330  -0.5563 H              1 S1                 0.0000
     26 ****        -3.9940   2.4439  -0.9444 H              1 S1                 0.0000
     27 ****        -3.8466  -0.6029  -1.2355 H              1 S1                 0.0000
     28 ****        -4.0262   0.5314  -2.5528 H              1 S1                 0.0000
     29 ****        -1.6431  -0.2575  -2.2545 H              1 S1                 0.0000
     30 ****        -1.8180   1.4774  -2.1589 H              1 S1                 0.0000
     31 ****        -1.5512  -0.4485   0.1989 H              1 S1                 0.0000
     32 ****         0.4500  -0.9994   0.4690 H              1 S1                 0.0000
     33 ****         3.0586   1.8131  -0.6649 H              1 S1                 0.0000
     34 ****         6.4436  -0.8717   0.8552 H              1 S1                 0.0000
     35 ****         5.4683  -2.0322   1.7397 H              1 S1                 0.0000
     36 ****         6.5867  -2.8605  -2.1962 H              1 S1                 0.0000
     37 ****         6.5173  -1.2065  -1.6226 H              1 S1                 0.0000
     38 ****         2.8114  -2.1844   0.9929 H              1 S1                 0.0000
     39 ****        -1.9796   2.5839   0.2792 H              1 S1                 0.0000
     40 ****        -1.6448   1.5824   1.6603 H              1 S1                 0.0000
     41 ****        -4.0110   0.1744   3.6744 LP             1 S1                 0.0000
     42 ****        -2.5612   0.7890   2.9531 LP             1 S1                 0.0000
     43 ****        -0.1511   2.5752  -1.0901 LP             1 S1                 0.0000
     44 ****         1.4857   2.0693  -0.8353 LP             1 S1                 0.0000
     45 ****         5.3265   0.9466  -0.2719 LP             1 S1                 0.0000
     46 ****         5.3475  -4.0895   0.8355 LP             1 S1                 0.0000
     47 ****         5.8981  -4.4981  -0.7551 LP             1 S1                 0.0000
@<TRIPOS>BOND
    1    1    2 1     
    2    1   22 1     
    3    1   23 1     
    4    1   24 1     
    5    2    3 2     
    6    2    4 am    
    7    4   21 1     
    8    4    5 1     
    9    5    6 1     
   10    5   25 1     
   11    5   26 1     
   12    6    7 1     
   13    6   27 1     
   14    6   28 1     
   15    7    8 1     
   16    7   29 1     
   17    7   30 1     
   18    8    9 1     
   19    8   21 1     
   20    8   31 1     
   21    9   10 2     
   22    9   11 am    
   23   11   12 1     
   24   11   32 1     
   25   12   20 2     
   26   12   13 1     
   27   13   14 2     
   28   13   33 1     
   29   14   15 1     
   30   15   16 1     
   31   15   20 1     
   32   16   17 1     
   33   16   34 1     
   34   16   35 1     
   35   17   18 am    
   36   17   19 2     
   37   18   36 1     
   38   18   37 1     
   39   20   38 1     
   40   21   39 1     
   41   21   40 1     
   42    3   41 1     
   43    3   42 1     
   44   10   43 1     
   45   10   44 1     
   46   14   45 1     
   47   19   46 1     
   48   19   47 1     
@<TRIPOS>SUBSTRUCTURE
      1 S1             1
@<TRIPOS>SET
LONE_PAIRS      STATIC     ATOMS    <user>   **** ""
7 41 42 43 44 45 46 47
DONOR_HYDROGENS      STATIC     ATOMS    <user>   **** ""
3 32 36 37
ATOM$BLUE        STATIC     ATOMS    COLORGROUP SYSTEM
7 41 42 43 44 45 46 47
ATOM$RED        STATIC     ATOMS    COLORGROUP SYSTEM
3 32 36 37
