AV-unprocessed.smi:2963|AV-procd|sdf|11320|dock7
  -GOLD-   2272016223D 1   1.00000     0.00000
 Structure written by MMmdl.
 42 44  0  0  0  0  0  0  0  0  2 V2000
  151.6614  138.7810  154.7433 C   0  0  0  0  0  0  0  0  0  0  0  0
  150.9043  139.9798  154.7980 O   0  0  0  0  0  0  0  0  0  0  0  0
  151.2535  140.8368  155.8750 C   0  0  0  0  0  0  0  0  0  0  0  0
  150.8758  140.2263  157.2355 C   0  0  0  0  0  0  0  0  0  0  0  0
  151.6839  140.7874  158.3258 N   0  0  0  0  0  0  0  0  0  0  0  0
  152.4915  140.1756  159.2368 C   0  0  0  0  0  0  0  0  0  0  0  0
  152.8047  138.4437  159.3579 S   0  0  0  0  0  0  0  0  0  0  0  0
  153.6681  138.2081  160.9411 C   0  0  0  0  0  0  0  0  0  0  0  0
  153.9580  136.7400  161.2975 C   0  0  0  0  0  0  0  0  0  0  0  0
  153.9306  135.8973  160.3970 O   0  0  0  0  0  0  0  0  0  0  0  0
  154.2366  136.4489  162.5967 N   0  0  0  0  0  0  0  0  0  0  0  0
  154.2585  137.4529  163.6621 C   0  0  0  0  0  0  0  0  0  0  0  0
  154.6189  136.6646  164.9167 C   0  0  0  0  0  0  0  0  0  0  0  0
  154.7494  135.3240  164.4027 N   0  0  0  0  0  0  0  0  0  0  0  0
  154.5290  135.2215  163.0900 C   0  0  0  0  0  0  0  0  0  0  0  0
  154.5949  134.1586  162.4717 O   0  0  0  0  0  0  0  0  0  0  0  0
  153.0229  141.1444  160.0335 N   0  3  0  0  0  0  0  0  0  0  0  0
  152.5555  142.3941  159.6227 C   0  0  0  0  0  0  0  0  0  0  0  0
  152.8148  143.6707  160.1121 C   0  0  0  0  0  0  0  0  0  0  0  0
  152.1749  144.7424  159.4551 C   0  0  0  0  0  0  0  0  0  0  0  0
  151.3155  144.5242  158.3585 C   0  0  0  0  0  0  0  0  0  0  0  0
  151.0588  143.2255  157.8714 C   0  0  0  0  0  0  0  0  0  0  0  0
  151.6956  142.1719  158.5262 C   0  0  0  0  0  0  0  0  0  0  0  0
  151.2945  138.1585  153.9274 H   0  0  0  0  0  0  0  0  0  0  0  0
  151.5653  138.2101  155.6678 H   0  0  0  0  0  0  0  0  0  0  0  0
  152.7177  138.9762  154.5598 H   0  0  0  0  0  0  0  0  0  0  0  0
  152.3342  140.9783  155.8375 H   0  0  0  0  0  0  0  0  0  0  0  0
  150.8084  141.8243  155.7436 H   0  0  0  0  0  0  0  0  0  0  0  0
  149.8228  140.3770  157.4730 H   0  0  0  0  0  0  0  0  0  0  0  0
  151.0383  139.1483  157.2195 H   0  0  0  0  0  0  0  0  0  0  0  0
  154.6103  138.7550  160.8968 H   0  0  0  0  0  0  0  0  0  0  0  0
  153.0587  138.6601  161.7237 H   0  0  0  0  0  0  0  0  0  0  0  0
  155.0030  138.2250  163.4622 H   0  0  0  0  0  0  0  0  0  0  0  0
  153.2830  137.9291  163.7731 H   0  0  0  0  0  0  0  0  0  0  0  0
  155.5585  136.9997  165.3577 H   0  0  0  0  0  0  0  0  0  0  0  0
  153.8336  136.7112  165.6721 H   0  0  0  0  0  0  0  0  0  0  0  0
  154.9882  134.5404  164.9935 H   0  0  0  0  0  0  0  0  0  0  0  0
  153.4735  143.8423  160.9508 H   0  0  0  0  0  0  0  0  0  0  0  0
  152.3473  145.7522  159.7988 H   0  0  0  0  0  0  0  0  0  0  0  0
  150.8443  145.3705  157.8800 H   0  0  0  0  0  0  0  0  0  0  0  0
  150.4011  143.0687  157.0289 H   0  0  0  0  0  0  0  0  0  0  0  0
  153.6612  140.9617  160.7968 H   0  0  0  0  0  0  0  0  0  0  0  0
  1  2  1  0  0  0  0
  1 24  1  0  0  0  0
  1 25  1  0  0  0  0
  1 26  1  0  0  0  0
  2  3  1  0  0  0  0
  3  4  1  0  0  0  0
  3 27  1  0  0  0  0
  3 28  1  0  0  0  0
  4  5  1  0  0  0  0
  4 29  1  0  0  0  0
  4 30  1  0  0  0  0
  5 23  1  0  0  0  0
  5  6  1  0  0  0  0
  6  7  1  0  0  0  0
  6 17  2  0  0  0  0
  7  8  1  0  0  0  0
  8  9  1  0  0  0  0
  8 31  1  0  0  0  0
  8 32  1  0  0  0  0
  9 10  2  0  0  0  0
  9 11  1  0  0  0  0
 11 15  1  0  0  0  0
 11 12  1  0  0  0  0
 12 13  1  0  0  0  0
 12 33  1  0  0  0  0
 12 34  1  0  0  0  0
 13 14  1  0  0  0  0
 13 35  1  0  0  0  0
 13 36  1  0  0  0  0
 14 15  1  0  0  0  0
 14 37  1  0  0  0  0
 15 16  2  0  0  0  0
 17 18  1  0  0  0  0
 17 42  1  0  0  0  0
 18 23  2  0  0  0  0
 18 19  1  0  0  0  0
 19 20  2  0  0  0  0
 19 38  1  0  0  0  0
 20 21  1  0  0  0  0
 20 39  1  0  0  0  0
 21 22  2  0  0  0  0
 21 40  1  0  0  0  0
 22 23  1  0  0  0  0
 22 41  1  0  0  0  0
M  CHG  1  17   1
M  END
> <s_m_source_file>
AV-unprocessed.smi

> <i_m_source_file_index>
2963

> <i_lp_mmshare_version>
43012

> <i_f3d_flags>
0

> <s_epik_input>
W2NIXTFbY0hdW2NIXVtjSF1jKGMxMiluKFtDSDJdW0NIMl1PW0NIM10pYyhuMilTW0NIMl1DKD1PKU4zW0NIMl1bQ0gyXVtOSF1DMz1P

> <s_epik_cmdline>
J2VwaWtfcHl0aG9uJywgJy1waCcsICc3LjAnLCAnLXRuJywgJzgnLCAnLW1hJywgJzIwMCcsICctbWV0YWxfYmluZGluZycsICctaW1hZScsICc8aW5maWxlLm1hZT4nLCAnLW9tYWUnLCAnPG91dGZpbGUubWFlPic=

> <r_lp_tautomer_probability>
0.9999

> <r_epik_Ionization_Penalty>
1.70838

> <r_epik_Ionization_Penalty_Charging>
1.70836

> <r_epik_Ionization_Penalty_Neutral>
2.53969e-05

> <r_epik_State_Penalty>
1.81492

> <r_epik_Charging_Adjusted_Penalty>
3.52327

> <i_epik_Tot_Q>
1

> <i_epik_Tot_abs_Q>
1

> <r_epik_Metal_State_Penalty>
1.84772

> <b_epik_Metal_Only>
0

> <s_lp_Force_Field>
OPLS_2005

> <r_lp_Energy>
48.5569

> <b_lp_Chiralities_Consistent>
1

> <s_lp_Variant>
AV-unprocessed.smi:2963-2

> <Gold.Version>
5.8.1

> <Gold.Id.Protein>
6NUR|6NUR_protein|mol2

> <Gold.PLP.Fitness>
54.8703

> <Gold.PLP.PLP>
-49.8831

> <Gold.PLP.part.hbond>
-2.0000

> <Gold.PLP.part.metal>
0.0000

> <Gold.PLP.part.buried>
-5.0473

> <Gold.PLP.part.nonpolar>
-42.6420

> <Gold.PLP.part.repulsive>
0.1791

> <Gold.PLP.ligand.clash>
0.0000

> <Gold.PLP.ligand.torsion>
0.5296

> <Gold.PLP.Chemscore.Hbond>
2.0000

> <Gold.PLP.Chemscore.CHOScore>
0.0000

> <Gold.PLP.Chemscore.Metal>
0.0000

> <Gold.Chemscore.Hbonds>
donor molecule, donor type, donor heavy atom, donor atom, acceptor molecule, acceptor atom, score
      P1  H  6896  6908       L1    10  1.00
      P1  H  7989  7998       L1     2  0.95

> <Gold.PLP.Chemscore.Internal.Correction>
0.0465

> <Gold.Rescore>
     Score         DG    S(hbond)    S(metal)    S(lipo)     H(rot)  DE(clash)    DE(int)     intcor
     15.73     -17.97       1.50        0.00     116.26       2.39       0.41       1.83       ----

> <Gold.Chemscore.Fitness>
15.7321

> <Gold.Chemscore.DG>
-17.9701

> <Gold.Chemscore.ZeroCoef>
-5.4800

> <Gold.Chemscore.Hbond>
1.5015

> <Gold.Chemscore.Metal>
0.0000

> <Gold.Chemscore.Lipo>
116.2558

> <Gold.Chemscore.Internal_Hbond>
0.0000

> <Gold.Chemscore.DEClash>
0.4052

> <Gold.Chemscore.DEInternal>
1.8328

> <Gold.Chemscore.Rot>
2.3933

> <Gold.Chemscore.Internal.Correction>
   9.000000E+99

> <Gold.Chemscore.Hbonds>
donor molecule, donor type, donor heavy atom, donor atom, acceptor molecule, acceptor atom, score
      P1  H  6896  6908       L1    10  0.98
      P1  H  7989  7998       L1     2  0.06

> <Gold.Chemscore.Hbond.Weighted>
-5.0151

> <Gold.Chemscore.Metal.Weighted>
-0.0000

> <Gold.Chemscore.Lipo.Weighted>
-13.6019

> <Gold.Chemscore.Internal_Hbond.Weighted>
0.0000

> <Gold.Chemscore.DEClash.Weighted>
0.4052

> <Gold.Chemscore.DEInternal.Weighted>
1.8328

> <Gold.Chemscore.Rot.Weighted>
6.1270

> <Gold.Chemscore.Internal.Correction.Weighted>
   9.000000E+99

> <Gold.Protein.RotatedTorsions>
[ 6907 6896 6895 6894 ] final  -64.78 input  -60.11 | X-H torsion
[ 7974 7965 7964 7962 ] final -165.15 input  175.53 | X-H torsion
[ 8008 7997 7996 7995 ] final -160.83 input   59.86 | X-H torsion
[ 10167 10162 10161 10158 ] final   87.09 input  -65.29 | X-H torsion
[ 10718 10713 10712 10709 ] final  165.20 input   66.30 | X-H torsion
[ 10763 10752 10751 10750 ] final -111.42 input  -60.55 | X-H torsion
[ 11005 11000 10999 10996 ] final -160.66 input  -57.11 | X-H torsion

> <Gold.Protein.ActiveResidues>
 VAL166  LYS551  ARG553  GLY616  TRP617  ASP618  TYR619  PRO620  LYS621  CYS622 
 ASP623  PHE694  ASN695  SER759  ASP760  ASP761  ALA762  ILE779  LEU786  VAL792 
 PHE793  MET794  SER795  GLU796  ALA797  LYS798  CYS799  TRP800  GLU811  SER814 

> <Gold.Protein.RotatedAtoms>
  150.7564  134.6252  159.6156 H   0  0  0  0  0  0  0  0  0  0  0  0  # atno 6907 bound_to 6896
  152.3546  134.6955  160.0235 H   0  0  0  0  0  0  0  0  0  0  0  0  # atno 6908 bound_to 6896
  151.7365  133.3284  159.3390 H   0  0  0  0  0  0  0  0  0  0  0  0  # atno 6909 bound_to 6896
  144.7277  140.2857  143.6229 H   0  0  0  0  0  0  0  0  0  0  0  0  # atno 7974 bound_to 7965
  155.7833  140.0868  157.2048 H   0  0  0  0  0  0  0  0  0  0  0  0  # atno 8008 bound_to 7997
  154.3989  140.1503  156.3135 H   0  0  0  0  0  0  0  0  0  0  0  0  # atno 8009 bound_to 7997
  155.8632  140.3429  155.5773 H   0  0  0  0  0  0  0  0  0  0  0  0  # atno 8010 bound_to 7997
  139.8809  144.6440  150.8844 H   0  0  0  0  0  0  0  0  0  0  0  0  # atno 10167 bound_to 10162
  157.0835  131.0398  151.2566 H   0  0  0  0  0  0  0  0  0  0  0  0  # atno 10718 bound_to 10713
  154.8299  135.4528  154.1037 H   0  0  0  0  0  0  0  0  0  0  0  0  # atno 10763 bound_to 10752
  153.2319  135.6906  153.7887 H   0  0  0  0  0  0  0  0  0  0  0  0  # atno 10764 bound_to 10752
  153.7266  135.3333  155.3254 H   0  0  0  0  0  0  0  0  0  0  0  0  # atno 10765 bound_to 10752
  140.6290  134.4671  157.5228 H   0  0  0  0  0  0  0  0  0  0  0  0  # atno 11005 bound_to 11000
  145.7905  139.1925  143.2105 LP  0  0  0  0  0  0  0  0  0  0  0  0  # atno 17320 bound_to 7965
  146.0759  140.7817  142.9665 LP  0  0  0  0  0  0  0  0  0  0  0  0  # atno 17321 bound_to 7965
  140.7744  143.3586  151.1872 LP  0  0  0  0  0  0  0  0  0  0  0  0  # atno 17342 bound_to 10162
  139.7197  143.9244  152.2980 LP  0  0  0  0  0  0  0  0  0  0  0  0  # atno 17343 bound_to 10162
  157.4781  130.7748  149.7387 LP  0  0  0  0  0  0  0  0  0  0  0  0  # atno 17370 bound_to 10713
  155.9917  130.3936  150.2973 LP  0  0  0  0  0  0  0  0  0  0  0  0  # atno 17371 bound_to 10713
  139.9123  134.8318  156.1484 LP  0  0  0  0  0  0  0  0  0  0  0  0  # atno 17394 bound_to 11000
  141.0689  133.6806  156.2100 LP  0  0  0  0  0  0  0  0  0  0  0  0  # atno 17395 bound_to 11000

$$$$
