#       Name:                AV-unprocessed.smi:243
#       Creating user name   scv26
#       Creation time:       Thu Mar 26 20:48:17 2020


#       File generated by GOLD software.
#

@<TRIPOS>MOLECULE
AV-unprocessed.smi:243
    66    69     1
SMALL
NO_CHARGES


@<TRIPOS>ATOM
      1 ****        -6.0862  -0.5933   0.6246 C.3            1 S1                 0.0000
      2 ****        -5.5372   0.5184   1.5308 C.3            1 S1                 0.0000
      3 ****        -4.0706   0.7012   1.3864 N.4            1 S1                 1.0000
      4 ****        -3.6869   1.3725   0.1191 C.3            1 S1                 0.0000
      5 ****        -2.1622   1.3909  -0.0438 C.3            1 S1                 0.0000
      6 ****        -1.4712   2.0865   1.1498 C.3            1 S1                 0.0000
      7 ****        -0.0104   2.1570   0.9862 N.3            1 S1                 0.0000
      8 ****         0.5027   3.1816   0.0839 C.3            1 S1                 0.0000
      9 ****         0.6729   0.9858   0.9379 C.ar           1 S1                 0.0000
     10 ****         1.0781   0.4448   2.1139 N.ar           1 S1                 0.0000
     11 ****         1.7534  -0.7079   2.1284 C.ar           1 S1                 0.0000
     12 ****         2.1226  -1.4712   1.0984 N.ar           1 S1                 0.0000
     13 ****         1.7277  -0.9277  -0.0882 C.ar           1 S1                 0.0000
     14 ****         1.0066   0.2879  -0.2597 C.ar           1 S1                 0.0000
     15 ****         0.7734   0.5099  -1.6122 N.2            1 S1                 0.0000
     16 ****         1.3280  -0.5117  -2.2049 C.2            1 S1                 0.0000
     17 ****         1.9280  -1.4223  -1.3652 N.pl3          1 S1                 0.0000
     18 ****         2.6122  -2.6462  -1.7523 C.3            1 S1                 0.0000
     19 ****         4.1232  -2.4509  -2.0182 C.3            1 S1                 0.0000
     20 ****         4.7531  -2.0211  -0.8240 O.3            1 S1                 0.0000
     21 ****         4.4383  -1.4428  -3.1206 C.3            1 S1                 0.0000
     22 ****         5.7077  -2.0054  -3.7446 C.3            1 S1                 0.0000
     23 ****         5.4608  -3.4005  -3.7347 O.3            1 S1                 0.0000
     24 ****         4.8249  -3.7344  -2.5055 C.3            1 S1                 0.0000
     25 ****        -1.9326   1.4377   2.4817 C.3            1 S1                 0.0000
     26 ****        -1.3834   2.1860   3.7102 C.3            1 S1                 0.0000
     27 ****        -3.4742   1.3923   2.5573 C.3            1 S1                 0.0000
     28 ****        -7.1448  -0.7612   0.8244 H              1 S1                 0.0000
     29 ****        -5.5655  -1.5356   0.7974 H              1 S1                 0.0000
     30 ****        -5.9953  -0.3457  -0.4325 H              1 S1                 0.0000
     31 ****        -6.0529   1.4608   1.3408 H              1 S1                 0.0000
     32 ****        -5.7651   0.2448   2.5618 H              1 S1                 0.0000
     33 ****        -4.1226   0.8546  -0.7345 H              1 S1                 0.0000
     34 ****        -4.0810   2.3900   0.1062 H              1 S1                 0.0000
     35 ****        -1.8116   0.3627  -0.1390 H              1 S1                 0.0000
     36 ****        -1.9071   1.8929  -0.9772 H              1 S1                 0.0000
     37 ****        -1.8223   3.1195   1.1634 H              1 S1                 0.0000
     38 ****         1.5928   3.1613   0.0439 H              1 S1                 0.0000
     39 ****         0.2045   4.1697   0.4348 H              1 S1                 0.0000
     40 ****         0.1183   3.0546  -0.9279 H              1 S1                 0.0000
     41 ****         2.0392  -1.0705   3.1047 H              1 S1                 0.0000
     42 ****         1.3145  -0.6294  -3.2787 H              1 S1                 0.0000
     43 ****         2.4587  -3.3908  -0.9701 H              1 S1                 0.0000
     44 ****         2.1229  -3.0378  -2.6452 H              1 S1                 0.0000
     45 ****         5.6794  -1.9322  -0.9884 H              1 S1                 0.0000
     46 ****         3.6488  -1.4470  -3.8731 H              1 S1                 0.0000
     47 ****         4.5510  -0.4182  -2.7636 H              1 S1                 0.0000
     48 ****         5.8845  -1.6340  -4.7542 H              1 S1                 0.0000
     49 ****         6.5822  -1.7798  -3.1322 H              1 S1                 0.0000
     50 ****         5.5730  -4.0890  -1.7944 H              1 S1                 0.0000
     51 ****         4.1250  -4.5529  -2.6758 H              1 S1                 0.0000
     52 ****        -1.5777   0.4074   2.5205 H              1 S1                 0.0000
     53 ****        -1.7246   3.2215   3.7266 H              1 S1                 0.0000
     54 ****        -0.2941   2.2002   3.7270 H              1 S1                 0.0000
     55 ****        -1.7128   1.7140   4.6361 H              1 S1                 0.0000
     56 ****        -3.8816   2.4027   2.6234 H              1 S1                 0.0000
     57 ****        -3.7691   0.8740   3.4708 H              1 S1                 0.0000
     58 ****        -3.6664  -0.2246   1.3678 H              1 S1                 0.0000
     59 ****         0.2192   2.5060   1.8948 LP             1 S1                 0.0000
     60 ****         0.8705   0.9109   2.9740 LP             1 S1                 0.0000
     61 ****         2.6246  -2.3317   1.1854 LP             1 S1                 0.0000
     62 ****         0.2908   1.2773  -2.0343 LP             1 S1                 0.0000
     63 ****         4.6021  -2.6957  -0.1014 LP             1 S1                 0.0000
     64 ****         4.3746  -1.1396  -0.5414 LP             1 S1                 0.0000
     65 ****         6.3251  -3.8972  -3.8139 LP             1 S1                 0.0000
     66 ****         4.8652  -3.6437  -4.5002 LP             1 S1                 0.0000
@<TRIPOS>BOND
    1    1    2 1     
    2    1   28 1     
    3    1   29 1     
    4    1   30 1     
    5    2    3 1     
    6    2   31 1     
    7    2   32 1     
    8    3   27 1     
    9    3    4 1     
   10    3   58 1     
   11    4    5 1     
   12    4   33 1     
   13    4   34 1     
   14    5    6 1     
   15    5   35 1     
   16    5   36 1     
   17    6    7 1     
   18    6   25 1     
   19    6   37 1     
   20    7    8 1     
   21    7    9 1     
   22    8   38 1     
   23    8   39 1     
   24    8   40 1     
   25    9   14 ar    
   26    9   10 ar    
   27   10   11 ar    
   28   11   12 ar    
   29   11   41 1     
   30   12   13 ar    
   31   13   17 1     
   32   13   14 ar    
   33   14   15 1     
   34   15   16 2     
   35   16   17 1     
   36   16   42 1     
   37   17   18 1     
   38   18   19 1     
   39   18   43 1     
   40   18   44 1     
   41   19   24 1     
   42   19   20 1     
   43   19   21 1     
   44   20   45 1     
   45   21   22 1     
   46   21   46 1     
   47   21   47 1     
   48   22   23 1     
   49   22   48 1     
   50   22   49 1     
   51   23   24 1     
   52   24   50 1     
   53   24   51 1     
   54   25   26 1     
   55   25   27 1     
   56   25   52 1     
   57   26   53 1     
   58   26   54 1     
   59   26   55 1     
   60   27   56 1     
   61   27   57 1     
   62    7   59 1     
   63   10   60 1     
   64   12   61 1     
   65   15   62 1     
   66   20   63 1     
   67   20   64 1     
   68   23   65 1     
   69   23   66 1     
@<TRIPOS>SUBSTRUCTURE
      1 S1             1
@<TRIPOS>SET
LONE_PAIRS      STATIC     ATOMS    <user>   **** ""
8 59 60 61 62 63 64 65 66
DONOR_HYDROGENS      STATIC     ATOMS    <user>   **** ""
2 58 45
ATOM$BLUE        STATIC     ATOMS    COLORGROUP SYSTEM
8 59 60 61 62 63 64 65 66
ATOM$RED        STATIC     ATOMS    COLORGROUP SYSTEM
2 58 45
