AV-unprocessed.smi:3160|AV-procd|sdf|12054|dock1
  -GOLD-   2272017483D 1   1.00000     0.00000
 Structure written by MMmdl.
 40 41  0  0  0  0  0  0  0  0  2 V2000
  149.1567  136.1251  155.6903 C   0  0  0  0  0  0  0  0  0  0  0  0
  149.6627  137.5011  155.3659 C   0  0  0  0  0  0  0  0  0  0  0  0
  150.6457  137.8681  154.4038 C   0  0  0  0  0  0  0  0  0  0  0  0
  150.8663  139.1720  154.3661 N   0  0  0  0  0  0  0  0  0  0  0  0
  150.0329  139.6852  155.2961 N   0  0  0  0  0  0  0  0  0  0  0  0
  150.0118  141.1231  155.5331 C   0  0  1  0  0  0  0  0  0  0  0  0
  148.6254  141.6895  155.1755 C   0  0  0  0  0  0  0  0  0  0  0  0
  150.4475  141.4770  156.9783 C   0  0  1  0  0  0  0  0  0  0  0  0
  151.5940  140.5943  157.5051 C   0  0  0  0  0  0  0  0  0  0  0  0
  150.8613  142.8973  157.0511 N   0  3  0  0  0  0  0  0  0  0  0  0
  150.8530  143.4899  158.4059 C   0  0  0  0  0  0  0  0  0  0  0  0
  151.1062  144.9967  158.3800 C   0  0  0  0  0  0  0  0  0  0  0  0
  151.5585  145.3344  159.8046 C   0  0  0  0  0  0  0  0  0  0  0  0
  152.1373  144.0356  160.3904 C   0  0  0  0  0  0  0  0  0  0  0  0
  151.9743  142.9637  159.3061 C   0  0  0  0  0  0  0  0  0  0  0  0
  149.2951  138.6963  155.9155 C   0  0  0  0  0  0  0  0  0  0  0  0
  149.7028  135.3535  155.1472 H   0  0  0  0  0  0  0  0  0  0  0  0
  148.1031  136.0137  155.4338 H   0  0  0  0  0  0  0  0  0  0  0  0
  149.2555  135.9001  156.7523 H   0  0  0  0  0  0  0  0  0  0  0  0
  151.2038  137.2283  153.7361 H   0  0  0  0  0  0  0  0  0  0  0  0
  150.7331  141.5738  154.8482 H   0  0  0  0  0  0  0  0  0  0  0  0
  148.6123  142.7782  155.2251 H   0  0  0  0  0  0  0  0  0  0  0  0
  147.8547  141.3181  155.8516 H   0  0  0  0  0  0  0  0  0  0  0  0
  148.3393  141.4096  154.1609 H   0  0  0  0  0  0  0  0  0  0  0  0
  149.5915  141.3160  157.6358 H   0  0  0  0  0  0  0  0  0  0  0  0
  151.2991  139.5472  157.5789 H   0  0  0  0  0  0  0  0  0  0  0  0
  151.9039  140.9078  158.5025 H   0  0  0  0  0  0  0  0  0  0  0  0
  152.4671  140.6487  156.8540 H   0  0  0  0  0  0  0  0  0  0  0  0
  151.7889  142.9878  156.6618 H   0  0  0  0  0  0  0  0  0  0  0  0
  149.8858  143.3073  158.8779 H   0  0  0  0  0  0  0  0  0  0  0  0
  151.9113  145.2294  157.6810 H   0  0  0  0  0  0  0  0  0  0  0  0
  150.2275  145.5657  158.0748 H   0  0  0  0  0  0  0  0  0  0  0  0
  152.2859  146.1468  159.8110 H   0  0  0  0  0  0  0  0  0  0  0  0
  150.7042  145.6573  160.4013 H   0  0  0  0  0  0  0  0  0  0  0  0
  153.1827  144.1498  160.6798 H   0  0  0  0  0  0  0  0  0  0  0  0
  151.5807  143.7548  161.2856 H   0  0  0  0  0  0  0  0  0  0  0  0
  151.7550  141.9807  159.7246 H   0  0  0  0  0  0  0  0  0  0  0  0
  152.9022  142.8807  158.7376 H   0  0  0  0  0  0  0  0  0  0  0  0
  148.5768  138.9220  156.6901 H   0  0  0  0  0  0  0  0  0  0  0  0
  150.2232  143.4296  156.4767 H   0  0  0  0  0  0  0  0  0  0  0  0
  1  2  1  0  0  0  0
  1 17  1  0  0  0  0
  1 18  1  0  0  0  0
  1 19  1  0  0  0  0
  2 16  2  0  0  0  0
  2  3  1  0  0  0  0
  3  4  2  0  0  0  0
  3 20  1  0  0  0  0
  4  5  1  0  0  0  0
  5  6  1  0  0  0  0
  5 16  1  0  0  0  0
  6  7  1  0  0  0  0
  6  8  1  0  0  0  0
  6 21  1  0  0  0  0
  7 22  1  0  0  0  0
  7 23  1  0  0  0  0
  7 24  1  0  0  0  0
  8  9  1  0  0  0  0
  8 10  1  0  0  0  0
  8 25  1  0  0  0  0
  9 26  1  0  0  0  0
  9 27  1  0  0  0  0
  9 28  1  0  0  0  0
 10 11  1  0  0  0  0
 10 29  1  0  0  0  0
 10 40  1  0  0  0  0
 11 15  1  0  0  0  0
 11 12  1  0  0  0  0
 11 30  1  0  0  0  0
 12 13  1  0  0  0  0
 12 31  1  0  0  0  0
 12 32  1  0  0  0  0
 13 14  1  0  0  0  0
 13 33  1  0  0  0  0
 13 34  1  0  0  0  0
 14 15  1  0  0  0  0
 14 35  1  0  0  0  0
 14 36  1  0  0  0  0
 15 37  1  0  0  0  0
 15 38  1  0  0  0  0
 16 39  1  0  0  0  0
M  CHG  1  10   1
M  END
> <s_m_source_file>
AV-unprocessed.smi

> <i_m_source_file_index>
3160

> <i_lp_mmshare_version>
43012

> <i_f3d_flags>
0

> <s_epik_input>
W0NIM11jMVtjSF1ubihbY0hdMSlbQ0BIXShbQ0gzXSlbQ0BIXShbQ0gzXSlbTkhdW0NIXTJbQ0gyXVtDSDJdW0NIMl1bQ0gyXTI=

> <s_epik_cmdline>
J2VwaWtfcHl0aG9uJywgJy1waCcsICc3LjAnLCAnLXRuJywgJzgnLCAnLW1hJywgJzIwMCcsICctbWV0YWxfYmluZGluZycsICctaW1hZScsICc8aW5maWxlLm1hZT4nLCAnLW9tYWUnLCAnPG91dGZpbGUubWFlPic=

> <r_lp_tautomer_probability>
1

> <r_epik_Ionization_Penalty>
0.00117636

> <r_epik_Ionization_Penalty_Charging>
0.00115264

> <r_epik_Ionization_Penalty_Neutral>
2.37123e-05

> <r_epik_State_Penalty>
-0

> <r_epik_Charging_Adjusted_Penalty>
0.00115264

> <i_epik_Tot_Q>
1

> <i_epik_Tot_abs_Q>
1

> <r_epik_Metal_State_Penalty>
-0

> <b_epik_Metal_Only>
0

> <s_lp_Force_Field>
OPLS_2005

> <r_lp_Energy>
32.0781

> <b_lp_Chiralities_Consistent>
1

> <s_lp_Variant>
AV-unprocessed.smi:3160-4

> <Gold.Version>
5.8.1

> <Gold.Id.Protein>
6NUR|6NUR_protein|mol2

> <Gold.PLP.Fitness>
45.7568

> <Gold.PLP.PLP>
-34.6995

> <Gold.PLP.part.hbond>
-2.0000

> <Gold.PLP.part.metal>
0.0000

> <Gold.PLP.part.buried>
-2.8337

> <Gold.PLP.part.nonpolar>
-29.9938

> <Gold.PLP.part.repulsive>
0.1918

> <Gold.PLP.ligand.clash>
0.0000

> <Gold.PLP.ligand.torsion>
0.5415

> <Gold.PLP.Chemscore.Hbond>
3.0000

> <Gold.PLP.Chemscore.CHOScore>
1.0000

> <Gold.PLP.Chemscore.Metal>
0.0000

> <Gold.Chemscore.Hbonds>
donor molecule, donor type, donor heavy atom, donor atom, acceptor molecule, acceptor atom, score
      L1  H    10    40       P1  8028  2.00
      P1  H  7989  7998       L1     4  0.96
      L1  C     3    20       P1  7949  0.91

> <Gold.PLP.Chemscore.Internal.Correction>
0.1404

> <Gold.Rescore>
     Score         DG    S(hbond)    S(metal)    S(lipo)     H(rot)  DE(clash)    DE(int)     intcor
     18.12     -19.68       1.88        0.00      97.61       1.37       0.06       1.49       ----

> <Gold.Chemscore.Fitness>
18.1244

> <Gold.Chemscore.DG>
-19.6768

> <Gold.Chemscore.ZeroCoef>
-5.4800

> <Gold.Chemscore.Hbond>
1.8821

> <Gold.Chemscore.Metal>
0.0000

> <Gold.Chemscore.Lipo>
97.6065

> <Gold.Chemscore.Internal_Hbond>
0.0000

> <Gold.Chemscore.DEClash>
0.0649

> <Gold.Chemscore.DEInternal>
1.4875

> <Gold.Chemscore.Rot>
1.3709

> <Gold.Chemscore.Internal.Correction>
   9.000000E+99

> <Gold.Chemscore.Hbonds>
donor molecule, donor type, donor heavy atom, donor atom, acceptor molecule, acceptor atom, score
      L1  H    10    40       P1  8028  0.93
      P1  H  7989  7998       L1     4  0.36

> <Gold.Chemscore.Hbond.Weighted>
-6.2864

> <Gold.Chemscore.Metal.Weighted>
-0.0000

> <Gold.Chemscore.Lipo.Weighted>
-11.4200

> <Gold.Chemscore.Internal_Hbond.Weighted>
0.0000

> <Gold.Chemscore.DEClash.Weighted>
0.0649

> <Gold.Chemscore.DEInternal.Weighted>
1.4875

> <Gold.Chemscore.Rot.Weighted>
3.5095

> <Gold.Chemscore.Internal.Correction.Weighted>
   9.000000E+99

> <Gold.Protein.RotatedTorsions>
[ 6907 6896 6895 6894 ] final -120.10 input  -60.11 | X-H torsion
[ 7974 7965 7964 7962 ] final -163.52 input  175.53 | X-H torsion
[ 8008 7997 7996 7995 ] final   72.75 input   59.86 | X-H torsion
[ 10167 10162 10161 10158 ] final  150.23 input  -65.29 | X-H torsion
[ 10718 10713 10712 10709 ] final -107.10 input   66.30 | X-H torsion
[ 10763 10752 10751 10750 ] final  164.62 input  -60.55 | X-H torsion
[ 11005 11000 10999 10996 ] final  171.10 input  -57.11 | X-H torsion

> <Gold.Protein.ActiveResidues>
 VAL166  LYS551  ARG553  GLY616  TRP617  ASP618  TYR619  PRO620  LYS621  CYS622 
 ASP623  PHE694  ASN695  SER759  ASP760  ASP761  ALA762  ILE779  LEU786  VAL792 
 PHE793  MET794  SER795  GLU796  ALA797  LYS798  CYS799  TRP800  GLU811  SER814 

> <Gold.Protein.RotatedAtoms>
  150.8363  133.8008  159.3078 H   0  0  0  0  0  0  0  0  0  0  0  0  # atno 6907 bound_to 6896
  151.5723  135.1060  160.0007 H   0  0  0  0  0  0  0  0  0  0  0  0  # atno 6908 bound_to 6896
  152.4435  133.7450  159.6718 H   0  0  0  0  0  0  0  0  0  0  0  0  # atno 6909 bound_to 6896
  144.7323  140.3095  143.6190 H   0  0  0  0  0  0  0  0  0  0  0  0  # atno 7974 bound_to 7965
  155.7735  140.3484  155.5259 H   0  0  0  0  0  0  0  0  0  0  0  0  # atno 8008 bound_to 7997
  155.8799  140.1000  157.1513 H   0  0  0  0  0  0  0  0  0  0  0  0  # atno 8009 bound_to 7997
  154.4024  140.1324  156.4170 H   0  0  0  0  0  0  0  0  0  0  0  0  # atno 8010 bound_to 7997
  139.4852  144.5539  151.7352 H   0  0  0  0  0  0  0  0  0  0  0  0  # atno 10167 bound_to 10162
  156.0420  130.5645  150.7773 H   0  0  0  0  0  0  0  0  0  0  0  0  # atno 10718 bound_to 10713
  154.3117  135.2757  155.2563 H   0  0  0  0  0  0  0  0  0  0  0  0  # atno 10763 bound_to 10752
  154.4955  135.5822  153.6495 H   0  0  0  0  0  0  0  0  0  0  0  0  # atno 10764 bound_to 10752
  152.9887  135.6145  154.3294 H   0  0  0  0  0  0  0  0  0  0  0  0  # atno 10765 bound_to 10752
  140.3154  134.7482  157.4023 H   0  0  0  0  0  0  0  0  0  0  0  0  # atno 11005 bound_to 11000
  145.7679  139.1847  143.2229 LP  0  0  0  0  0  0  0  0  0  0  0  0  # atno 17320 bound_to 7965
  146.0934  140.7629  142.9584 LP  0  0  0  0  0  0  0  0  0  0  0  0  # atno 17321 bound_to 7965
  140.5097  144.1043  150.5992 LP  0  0  0  0  0  0  0  0  0  0  0  0  # atno 17342 bound_to 10162
  140.3965  143.2725  151.9999 LP  0  0  0  0  0  0  0  0  0  0  0  0  # atno 17343 bound_to 10162
  157.5251  131.0933  151.0029 LP  0  0  0  0  0  0  0  0  0  0  0  0  # atno 17370 bound_to 10713
  157.0349  130.5726  149.5348 LP  0  0  0  0  0  0  0  0  0  0  0  0  # atno 17371 bound_to 10713
  140.0988  134.5500  155.8372 LP  0  0  0  0  0  0  0  0  0  0  0  0  # atno 17394 bound_to 11000
  141.2099  133.6688  156.6470 LP  0  0  0  0  0  0  0  0  0  0  0  0  # atno 17395 bound_to 11000

$$$$
