AV-unprocessed.smi:3116|AV-procd|sdf|11868|dock2
  -GOLD-   2272017253D 1   1.00000     0.00000
 Structure written by MMmdl.
 34 34  0  0  0  0  0  0  0  0  2 V2000
  146.5283  138.7455  151.7546 C   0  0  0  0  0  0  0  0  0  0  0  0
  147.1480  138.8376  153.1615 C   0  0  2  0  0  0  0  0  0  0  0  0
  148.6232  138.7275  153.1019 N   0  3  0  0  0  0  0  0  0  0  0  0
  149.3518  138.9939  154.3640 C   0  0  1  0  0  0  0  0  0  0  0  0
  150.6034  138.0998  154.4182 C   0  0  0  0  0  0  0  0  0  0  0  0
  149.6288  140.5145  154.5077 C   0  0  1  0  0  0  0  0  0  0  0  0
  148.3733  141.3731  154.2574 C   0  0  0  0  0  0  0  0  0  0  0  0
  150.2806  140.8574  155.7697 N   0  0  0  0  0  0  0  0  0  0  0  0
  149.8935  141.8126  156.6883 C   0  0  0  0  0  0  0  0  0  0  0  0
  150.8141  141.8123  157.6962 C   0  0  0  0  0  0  0  0  0  0  0  0
  151.7461  140.8134  157.3016 C   0  0  0  0  0  0  0  0  0  0  0  0
  151.4290  140.2499  156.1477 N   0  0  0  0  0  0  0  0  0  0  0  0
  146.5686  137.7412  154.0636 C   0  0  0  0  0  0  0  0  0  0  0  0
  146.8415  136.4758  153.7347 N   0  0  0  0  0  0  0  0  0  0  0  0
  145.8950  138.0278  155.0521 O   0  0  0  0  0  0  0  0  0  0  0  0
  145.4402  138.8106  151.7956 H   0  0  0  0  0  0  0  0  0  0  0  0
  146.7853  137.8042  151.2665 H   0  0  0  0  0  0  0  0  0  0  0  0
  146.8715  139.5544  151.1098 H   0  0  0  0  0  0  0  0  0  0  0  0
  146.8971  139.8012  153.6088 H   0  0  0  0  0  0  0  0  0  0  0  0
  148.8489  137.7851  152.8167 H   0  0  0  0  0  0  0  0  0  0  0  0
  148.7178  138.7011  155.2021 H   0  0  0  0  0  0  0  0  0  0  0  0
  151.1755  138.2633  155.3310 H   0  0  0  0  0  0  0  0  0  0  0  0
  151.2661  138.2754  153.5707 H   0  0  0  0  0  0  0  0  0  0  0  0
  150.3254  137.0457  154.3972 H   0  0  0  0  0  0  0  0  0  0  0  0
  150.3316  140.7876  153.7188 H   0  0  0  0  0  0  0  0  0  0  0  0
  147.9569  141.1777  153.2691 H   0  0  0  0  0  0  0  0  0  0  0  0
  148.6120  142.4362  154.3051 H   0  0  0  0  0  0  0  0  0  0  0  0
  147.5881  141.1806  154.9883 H   0  0  0  0  0  0  0  0  0  0  0  0
  149.0033  142.4087  156.5506 H   0  0  0  0  0  0  0  0  0  0  0  0
  150.8214  142.4320  158.5807 H   0  0  0  0  0  0  0  0  0  0  0  0
  152.6388  140.4858  157.8138 H   0  0  0  0  0  0  0  0  0  0  0  0
  146.4806  135.7152  154.2928 H   0  0  0  0  0  0  0  0  0  0  0  0
  147.4079  136.2814  152.9210 H   0  0  0  0  0  0  0  0  0  0  0  0
  148.9606  139.3567  152.3877 H   0  0  0  0  0  0  0  0  0  0  0  0
  1  2  1  0  0  0  0
  1 16  1  0  0  0  0
  1 17  1  0  0  0  0
  1 18  1  0  0  0  0
  2  3  1  0  0  0  0
  2 13  1  0  0  0  0
  2 19  1  0  0  0  0
  3  4  1  0  0  0  0
  3 20  1  0  0  0  0
  3 34  1  0  0  0  0
  4  5  1  0  0  0  0
  4  6  1  0  0  0  0
  4 21  1  0  0  0  0
  5 22  1  0  0  0  0
  5 23  1  0  0  0  0
  5 24  1  0  0  0  0
  6  7  1  0  0  0  0
  6  8  1  0  0  0  0
  6 25  1  0  0  0  0
  7 26  1  0  0  0  0
  7 27  1  0  0  0  0
  7 28  1  0  0  0  0
  8 12  1  0  0  0  0
  8  9  1  0  0  0  0
  9 10  2  0  0  0  0
  9 29  1  0  0  0  0
 10 11  1  0  0  0  0
 10 30  1  0  0  0  0
 11 12  2  0  0  0  0
 11 31  1  0  0  0  0
 13 14  1  0  0  0  0
 13 15  2  0  0  0  0
 14 32  1  0  0  0  0
 14 33  1  0  0  0  0
M  CHG  1   3   1
M  END
> <s_m_source_file>
AV-unprocessed.smi

> <i_m_source_file_index>
3116

> <i_lp_mmshare_version>
43012

> <i_f3d_flags>
0

> <s_epik_input>
W05IMl1DKD1PKVtDQEhdKFtDSDNdKVtOSF1bQ0BIXShbQ0gzXSlbQ0BIXShbQ0gzXSluMVtjSF1bY0hdW2NIXW4x

> <s_epik_cmdline>
J2VwaWtfcHl0aG9uJywgJy1waCcsICc3LjAnLCAnLXRuJywgJzgnLCAnLW1hJywgJzIwMCcsICctbWV0YWxfYmluZGluZycsICctaW1hZScsICc8aW5maWxlLm1hZT4nLCAnLW9tYWUnLCAnPG91dGZpbGUubWFlPic=

> <r_lp_tautomer_probability>
1

> <r_epik_Ionization_Penalty>
0.15658

> <r_epik_Ionization_Penalty_Charging>
0.156568

> <r_epik_Ionization_Penalty_Neutral>
1.19778e-05

> <r_epik_State_Penalty>
0.145866

> <r_epik_Charging_Adjusted_Penalty>
0.302434

> <i_epik_Tot_Q>
1

> <i_epik_Tot_abs_Q>
1

> <r_epik_Metal_State_Penalty>
0.146064

> <b_epik_Metal_Only>
0

> <s_lp_Force_Field>
OPLS_2005

> <r_lp_Energy>
10.9082

> <b_lp_Chiralities_Consistent>
1

> <s_lp_Variant>
AV-unprocessed.smi:3116-7

> <Gold.Version>
5.8.1

> <Gold.Id.Protein>
6NUR|6NUR_protein|mol2

> <Gold.PLP.Fitness>
43.5898

> <Gold.PLP.PLP>
-29.3602

> <Gold.PLP.part.hbond>
-2.9811

> <Gold.PLP.part.metal>
0.0000

> <Gold.PLP.part.buried>
-3.3713

> <Gold.PLP.part.nonpolar>
-24.9195

> <Gold.PLP.part.repulsive>
0.1245

> <Gold.PLP.ligand.clash>
0.0000

> <Gold.PLP.ligand.torsion>
0.5258

> <Gold.PLP.Chemscore.Hbond>
4.0000

> <Gold.PLP.Chemscore.CHOScore>
1.0000

> <Gold.PLP.Chemscore.Metal>
0.0000

> <Gold.Chemscore.Hbonds>
donor molecule, donor type, donor heavy atom, donor atom, acceptor molecule, acceptor atom, score
      L1  H     3    20       P1  7948  2.00
      L1  H     3    34       P1  7957  1.00
      L1  H    14    33       P1  7948  1.00
      L1  C     9    29       P1  8028  0.95

> <Gold.PLP.Chemscore.Internal.Correction>
0.2811

> <Gold.Rescore>
     Score         DG    S(hbond)    S(metal)    S(lipo)     H(rot)  DE(clash)    DE(int)     intcor
     14.78     -16.72       2.98        0.00      64.44       2.45       0.08       1.86       ----

> <Gold.Chemscore.Fitness>
14.7769

> <Gold.Chemscore.DG>
-16.7188

> <Gold.Chemscore.ZeroCoef>
-5.4800

> <Gold.Chemscore.Hbond>
2.9828

> <Gold.Chemscore.Metal>
0.0000

> <Gold.Chemscore.Lipo>
64.4386

> <Gold.Chemscore.Internal_Hbond>
0.0000

> <Gold.Chemscore.DEClash>
0.0811

> <Gold.Chemscore.DEInternal>
1.8608

> <Gold.Chemscore.Rot>
2.4465

> <Gold.Chemscore.Internal.Correction>
   9.000000E+99

> <Gold.Chemscore.Hbonds>
donor molecule, donor type, donor heavy atom, donor atom, acceptor molecule, acceptor atom, score
      L1  H     3    20       P1  7948  1.00
      L1  H     3    34       P1  7957  0.94
      L1  H    14    33       P1  7948  0.99

> <Gold.Chemscore.Hbond.Weighted>
-9.9626

> <Gold.Chemscore.Metal.Weighted>
-0.0000

> <Gold.Chemscore.Lipo.Weighted>
-7.5393

> <Gold.Chemscore.Internal_Hbond.Weighted>
0.0000

> <Gold.Chemscore.DEClash.Weighted>
0.0811

> <Gold.Chemscore.DEInternal.Weighted>
1.8608

> <Gold.Chemscore.Rot.Weighted>
6.2631

> <Gold.Chemscore.Internal.Correction.Weighted>
   9.000000E+99

> <Gold.Protein.RotatedTorsions>
[ 6907 6896 6895 6894 ] final  -80.35 input  -60.11 | X-H torsion
[ 7974 7965 7964 7962 ] final   18.05 input  175.53 | X-H torsion
[ 8008 7997 7996 7995 ] final -158.22 input   59.86 | X-H torsion
[ 10167 10162 10161 10158 ] final  -71.50 input  -65.29 | X-H torsion
[ 10718 10713 10712 10709 ] final  169.18 input   66.30 | X-H torsion
[ 10763 10752 10751 10750 ] final   81.47 input  -60.55 | X-H torsion
[ 11005 11000 10999 10996 ] final  125.02 input  -57.11 | X-H torsion

> <Gold.Protein.ActiveResidues>
 VAL166  LYS551  ARG553  GLY616  TRP617  ASP618  TYR619  PRO620  LYS621  CYS622 
 ASP623  PHE694  ASN695  SER759  ASP760  ASP761  ALA762  ILE779  LEU786  VAL792 
 PHE793  MET794  SER795  GLU796  ALA797  LYS798  CYS799  TRP800  GLU811  SER814 

> <Gold.Protein.RotatedAtoms>
  150.6931  134.3982  159.5106 H   0  0  0  0  0  0  0  0  0  0  0  0  # atno 6907 bound_to 6896
  152.1760  134.8791  160.0539 H   0  0  0  0  0  0  0  0  0  0  0  0  # atno 6908 bound_to 6896
  151.9800  133.3719  159.4140 H   0  0  0  0  0  0  0  0  0  0  0  0  # atno 6909 bound_to 6896
  146.2198  139.8513  142.8622 H   0  0  0  0  0  0  0  0  0  0  0  0  # atno 7974 bound_to 7965
  155.7442  140.0818  157.2231 H   0  0  0  0  0  0  0  0  0  0  0  0  # atno 8008 bound_to 7997
  154.4018  140.1572  156.2706 H   0  0  0  0  0  0  0  0  0  0  0  0  # atno 8009 bound_to 7997
  155.8991  140.3411  155.6016 H   0  0  0  0  0  0  0  0  0  0  0  0  # atno 8010 bound_to 7997
  140.5268  143.2325  151.7333 H   0  0  0  0  0  0  0  0  0  0  0  0  # atno 10167 bound_to 10162
  157.0263  131.0246  151.2759 H   0  0  0  0  0  0  0  0  0  0  0  0  # atno 10718 bound_to 10713
  153.1119  135.4764  154.9050 H   0  0  0  0  0  0  0  0  0  0  0  0  # atno 10763 bound_to 10752
  154.7490  135.3101  154.8595 H   0  0  0  0  0  0  0  0  0  0  0  0  # atno 10764 bound_to 10752
  153.9182  135.6858  153.4802 H   0  0  0  0  0  0  0  0  0  0  0  0  # atno 10765 bound_to 10752
  139.9386  134.9637  156.8496 H   0  0  0  0  0  0  0  0  0  0  0  0  # atno 11005 bound_to 11000
  145.2798  141.0135  143.3724 LP  0  0  0  0  0  0  0  0  0  0  0  0  # atno 17320 bound_to 7965
  144.9158  139.4472  143.6565 LP  0  0  0  0  0  0  0  0  0  0  0  0  # atno 17321 bound_to 7965
  139.4941  144.4174  152.0015 LP  0  0  0  0  0  0  0  0  0  0  0  0  # atno 17342 bound_to 10162
  140.3273  144.3357  150.5995 LP  0  0  0  0  0  0  0  0  0  0  0  0  # atno 17343 bound_to 10162
  157.5211  130.7999  149.7810 LP  0  0  0  0  0  0  0  0  0  0  0  0  # atno 17370 bound_to 10713
  156.0085  130.3844  150.2347 LP  0  0  0  0  0  0  0  0  0  0  0  0  # atno 17371 bound_to 10713
  140.6010  134.0172  155.7537 LP  0  0  0  0  0  0  0  0  0  0  0  0  # atno 17394 bound_to 11000
  141.1011  133.9766  157.3077 LP  0  0  0  0  0  0  0  0  0  0  0  0  # atno 17395 bound_to 11000

$$$$
