AV-unprocessed.smi:2855|AV-procd|sdf|10984|dock9
  -GOLD-   2272015433D 1   1.00000     0.00000
 Structure written by MMmdl.
 47 48  0  0  0  0  0  0  0  0  1 V2000
  154.9006  140.5600  162.5478 C   0  0  0  0  0  0  0  0  0  0  0  0
  153.8323  141.1782  161.6348 C   0  0  1  0  0  0  0  0  0  0  0  0
  153.2735  142.4827  162.2234 C   0  0  0  0  0  0  0  0  0  0  0  0
  152.2074  143.1084  161.3107 C   0  0  0  0  0  0  0  0  0  0  0  0
  152.7322  143.3786  159.8772 C   0  0  2  0  0  0  0  0  0  0  0  0
  151.6460  144.0381  158.9701 C   0  0  0  0  0  0  0  0  0  0  0  0
  152.1612  144.3620  157.5544 C   0  0  0  0  0  0  0  0  0  0  0  0
  151.0581  145.3203  159.5897 C   0  0  0  0  0  0  0  0  0  0  0  0
  153.3369  142.0738  159.2831 C   0  0  2  0  0  0  0  0  0  0  0  0
  152.2746  141.1281  158.9507 N   0  0  0  0  0  0  0  0  0  0  0  0
  152.4193  139.9434  158.3358 C   0  0  0  0  0  0  0  0  0  0  0  0
  153.5158  139.4728  158.0360 O   0  0  0  0  0  0  0  0  0  0  0  0
  151.1388  139.1699  157.9783 C   0  0  0  0  0  0  0  0  0  0  0  0
  150.2510  139.8793  157.0406 N   0  0  0  0  0  0  0  0  0  0  0  0
  149.0112  140.3405  157.4603 C   0  0  0  0  0  0  0  0  0  0  0  0
  148.1655  141.0350  156.6629 C   0  0  0  0  0  0  0  0  0  0  0  0
  148.5318  141.3387  155.2835 C   0  0  0  0  0  0  0  0  0  0  0  0
  147.8365  141.9636  154.4860 O   0  0  0  0  0  0  0  0  0  0  0  0
  149.7851  140.8558  154.8981 N   0  0  0  0  0  0  0  0  0  0  0  0
  150.6616  140.1400  155.7143 C   0  0  0  0  0  0  0  0  0  0  0  0
  151.7514  139.7726  155.2775 O   0  0  0  0  0  0  0  0  0  0  0  0
  154.3842  141.4385  160.2227 C   0  0  0  0  0  0  0  0  0  0  0  0
  150.0827  141.0426  153.9516 H   0  0  0  0  0  0  0  0  0  0  0  0
  155.7555  141.2264  162.6654 H   0  0  0  0  0  0  0  0  0  0  0  0
  155.2669  139.6176  162.1395 H   0  0  0  0  0  0  0  0  0  0  0  0
  154.4984  140.3544  163.5401 H   0  0  0  0  0  0  0  0  0  0  0  0
  153.0134  140.4613  161.5581 H   0  0  0  0  0  0  0  0  0  0  0  0
  152.8425  142.2915  163.2067 H   0  0  0  0  0  0  0  0  0  0  0  0
  154.0838  143.1967  162.3769 H   0  0  0  0  0  0  0  0  0  0  0  0
  151.3348  142.4552  161.2691 H   0  0  0  0  0  0  0  0  0  0  0  0
  151.8737  144.0324  161.7799 H   0  0  0  0  0  0  0  0  0  0  0  0
  153.5532  144.0918  159.9658 H   0  0  0  0  0  0  0  0  0  0  0  0
  150.8193  143.3360  158.8554 H   0  0  0  0  0  0  0  0  0  0  0  0
  153.0474  144.9961  157.5895 H   0  0  0  0  0  0  0  0  0  0  0  0
  151.4031  144.8842  156.9702 H   0  0  0  0  0  0  0  0  0  0  0  0
  152.4117  143.4607  156.9955 H   0  0  0  0  0  0  0  0  0  0  0  0
  151.8405  146.0428  159.8242 H   0  0  0  0  0  0  0  0  0  0  0  0
  150.5010  145.1163  160.5031 H   0  0  0  0  0  0  0  0  0  0  0  0
  150.3595  145.8023  158.9051 H   0  0  0  0  0  0  0  0  0  0  0  0
  153.8600  142.3272  158.3602 H   0  0  0  0  0  0  0  0  0  0  0  0
  151.3329  141.4269  159.1584 H   0  0  0  0  0  0  0  0  0  0  0  0
  151.4149  138.1945  157.5730 H   0  0  0  0  0  0  0  0  0  0  0  0
  150.6078  138.9535  158.9064 H   0  0  0  0  0  0  0  0  0  0  0  0
  148.7010  140.1449  158.4770 H   0  0  0  0  0  0  0  0  0  0  0  0
  147.2138  141.3705  157.0486 H   0  0  0  0  0  0  0  0  0  0  0  0
  155.2446  142.1058  160.2918 H   0  0  0  0  0  0  0  0  0  0  0  0
  154.7621  140.5101  159.7927 H   0  0  0  0  0  0  0  0  0  0  0  0
  1  2  1  0  0  0  0
  1 24  1  0  0  0  0
  1 25  1  0  0  0  0
  1 26  1  0  0  0  0
  2 22  1  0  0  0  0
  2  3  1  0  0  0  0
  2 27  1  0  0  0  0
  3  4  1  0  0  0  0
  3 28  1  0  0  0  0
  3 29  1  0  0  0  0
  4  5  1  0  0  0  0
  4 30  1  0  0  0  0
  4 31  1  0  0  0  0
  5  6  1  0  0  0  0
  5  9  1  0  0  0  0
  5 32  1  0  0  0  0
  6  7  1  0  0  0  0
  6  8  1  0  0  0  0
  6 33  1  0  0  0  0
  7 34  1  0  0  0  0
  7 35  1  0  0  0  0
  7 36  1  0  0  0  0
  8 37  1  0  0  0  0
  8 38  1  0  0  0  0
  8 39  1  0  0  0  0
  9 10  1  0  0  0  0
  9 22  1  0  0  0  0
  9 40  1  0  0  0  0
 10 11  1  0  0  0  0
 10 41  1  0  0  0  0
 11 12  2  0  0  0  0
 11 13  1  0  0  0  0
 13 14  1  0  0  0  0
 13 42  1  0  0  0  0
 13 43  1  0  0  0  0
 14 20  1  0  0  0  0
 14 15  1  0  0  0  0
 15 16  2  0  0  0  0
 15 44  1  0  0  0  0
 16 17  1  0  0  0  0
 16 45  1  0  0  0  0
 17 18  2  0  0  0  0
 17 19  1  0  0  0  0
 19 23  1  0  0  0  0
 19 20  1  0  0  0  0
 20 21  2  0  0  0  0
 22 46  1  0  0  0  0
 22 47  1  0  0  0  0
M  END
> <s_m_source_file>
AV-unprocessed.smi

> <i_m_source_file_index>
2855

> <i_lp_mmshare_version>
43012

> <i_f3d_flags>
0

> <s_epik_input>
W0NIM11bQ0BASF0xW0NIMl1bQ0gyXVtDQEBIXShbQ0hdKFtDSDNdKVtDSDNdKVtDQEhdKFtDSDJdMSlbTkhdQyg9TylbQ0gyXW4yW2NIXVtjSF1jKD1PKVtuSF1jMj1P

> <s_epik_cmdline>
J2VwaWtfcHl0aG9uJywgJy1waCcsICc3LjAnLCAnLXRuJywgJzgnLCAnLW1hJywgJzIwMCcsICctbWV0YWxfYmluZGluZycsICctaW1hZScsICc8aW5maWxlLm1hZT4nLCAnLW9tYWUnLCAnPG91dGZpbGUubWFlPic=

> <r_lp_tautomer_probability>
0.999537

> <r_epik_Ionization_Penalty>
0.00306256

> <r_epik_Ionization_Penalty_Charging>
0.00306254

> <r_epik_Ionization_Penalty_Neutral>
2.0223e-08

> <r_epik_State_Penalty>
0.0021533

> <r_epik_Charging_Adjusted_Penalty>
0.00521583

> <i_epik_Tot_Q>
0

> <i_epik_Tot_abs_Q>
0

> <r_epik_Metal_State_Penalty>
0.362116

> <b_epik_Metal_Only>
0

> <s_lp_Force_Field>
OPLS_2005

> <r_lp_Energy>
12.2647

> <b_lp_Chiralities_Consistent>
1

> <s_lp_Variant>
AV-unprocessed.smi:2855-8

> <Gold.Version>
5.8.1

> <Gold.Id.Protein>
6NUR|6NUR_protein|mol2

> <Gold.PLP.Fitness>
54.4595

> <Gold.PLP.PLP>
-48.8652

> <Gold.PLP.part.hbond>
-2.0000

> <Gold.PLP.part.metal>
0.0000

> <Gold.PLP.part.buried>
-7.2162

> <Gold.PLP.part.nonpolar>
-40.5430

> <Gold.PLP.part.repulsive>
0.8729

> <Gold.PLP.ligand.clash>
0.0000

> <Gold.PLP.ligand.torsion>
0.0723

> <Gold.PLP.Chemscore.Hbond>
1.9000

> <Gold.PLP.Chemscore.CHOScore>
0.0000

> <Gold.PLP.Chemscore.Metal>
0.0000

> <Gold.Chemscore.Hbonds>
donor molecule, donor type, donor heavy atom, donor atom, acceptor molecule, acceptor atom, score
      P1  H  7989  7998       L1    21  0.69
      P1  H  7997  8009       L1    12  1.00

> <Gold.PLP.Chemscore.Internal.Correction>
0.0390

> <Gold.Rescore>
     Score         DG    S(hbond)    S(metal)    S(lipo)     H(rot)  DE(clash)    DE(int)     intcor
     20.93     -21.08       1.99        0.00     117.13       1.85       0.08       0.08       ----

> <Gold.Chemscore.Fitness>
20.9277

> <Gold.Chemscore.DG>
-21.0849

> <Gold.Chemscore.ZeroCoef>
-5.4800

> <Gold.Chemscore.Hbond>
1.9902

> <Gold.Chemscore.Metal>
0.0000

> <Gold.Chemscore.Lipo>
117.1251

> <Gold.Chemscore.Internal_Hbond>
0.0000

> <Gold.Chemscore.DEClash>
0.0791

> <Gold.Chemscore.DEInternal>
0.0781

> <Gold.Chemscore.Rot>
1.8539

> <Gold.Chemscore.Internal.Correction>
   9.000000E+99

> <Gold.Chemscore.Hbonds>
donor molecule, donor type, donor heavy atom, donor atom, acceptor molecule, acceptor atom, score
      P1  H  7989  7998       L1    21  0.09
      P1  H  7997  8009       L1    12  0.97

> <Gold.Chemscore.Hbond.Weighted>
-6.6473

> <Gold.Chemscore.Metal.Weighted>
-0.0000

> <Gold.Chemscore.Lipo.Weighted>
-13.7036

> <Gold.Chemscore.Internal_Hbond.Weighted>
0.0000

> <Gold.Chemscore.DEClash.Weighted>
0.0791

> <Gold.Chemscore.DEInternal.Weighted>
0.0781

> <Gold.Chemscore.Rot.Weighted>
4.7460

> <Gold.Chemscore.Internal.Correction.Weighted>
   9.000000E+99

> <Gold.Protein.RotatedTorsions>
[ 6907 6896 6895 6894 ] final  162.24 input  -60.11 | X-H torsion
[ 7974 7965 7964 7962 ] final  -71.36 input  175.53 | X-H torsion
[ 8008 7997 7996 7995 ] final  157.38 input   59.86 | X-H torsion
[ 10167 10162 10161 10158 ] final   84.72 input  -65.29 | X-H torsion
[ 10718 10713 10712 10709 ] final  162.87 input   66.30 | X-H torsion
[ 10763 10752 10751 10750 ] final   -5.10 input  -60.55 | X-H torsion
[ 11005 11000 10999 10996 ] final  -58.70 input  -57.11 | X-H torsion

> <Gold.Protein.ActiveResidues>
 VAL166  LYS551  ARG553  GLY616  TRP617  ASP618  TYR619  PRO620  LYS621  CYS622 
 ASP623  PHE694  ASN695  SER759  ASP760  ASP761  ALA762  ILE779  LEU786  VAL792 
 PHE793  MET794  SER795  GLU796  ALA797  LYS798  CYS799  TRP800  GLU811  SER814 

> <Gold.Protein.RotatedAtoms>
  151.9434  133.3644  159.3973 H   0  0  0  0  0  0  0  0  0  0  0  0  # atno 6907 bound_to 6896
  150.6994  134.4415  159.5303 H   0  0  0  0  0  0  0  0  0  0  0  0  # atno 6908 bound_to 6896
  152.2076  134.8531  160.0552 H   0  0  0  0  0  0  0  0  0  0  0  0  # atno 6909 bound_to 6896
  145.6790  140.9194  143.0842 H   0  0  0  0  0  0  0  0  0  0  0  0  # atno 7974 bound_to 7965
  156.2367  140.1887  156.7100 H   0  0  0  0  0  0  0  0  0  0  0  0  # atno 8008 bound_to 7997
  154.6120  140.0620  156.9533 H   0  0  0  0  0  0  0  0  0  0  0  0  # atno 8009 bound_to 7997
  155.2001  140.3291  155.4347 H   0  0  0  0  0  0  0  0  0  0  0  0  # atno 8010 bound_to 7997
  139.9051  144.6306  150.8596 H   0  0  0  0  0  0  0  0  0  0  0  0  # atno 10167 bound_to 10162
  157.1165  131.0481  151.2434 H   0  0  0  0  0  0  0  0  0  0  0  0  # atno 10718 bound_to 10713
  153.3939  135.7003  153.6475 H   0  0  0  0  0  0  0  0  0  0  0  0  # atno 10763 bound_to 10752
  153.5036  135.3647  155.2552 H   0  0  0  0  0  0  0  0  0  0  0  0  # atno 10764 bound_to 10752
  154.8705  135.4118  154.3261 H   0  0  0  0  0  0  0  0  0  0  0  0  # atno 10765 bound_to 10752
  141.1218  133.6613  156.4960 H   0  0  0  0  0  0  0  0  0  0  0  0  # atno 11005 bound_to 11000
  144.7032  139.8672  143.7438 LP  0  0  0  0  0  0  0  0  0  0  0  0  # atno 17320 bound_to 7965
  146.0980  139.3974  143.0364 LP  0  0  0  0  0  0  0  0  0  0  0  0  # atno 17321 bound_to 7965
  140.7698  143.3407  151.2213 LP  0  0  0  0  0  0  0  0  0  0  0  0  # atno 17342 bound_to 10162
  139.6991  143.9563  152.2897 LP  0  0  0  0  0  0  0  0  0  0  0  0  # atno 17343 bound_to 10162
  157.4514  130.7600  149.7154 LP  0  0  0  0  0  0  0  0  0  0  0  0  # atno 17370 bound_to 10713
  155.9838  130.3997  150.3344 LP  0  0  0  0  0  0  0  0  0  0  0  0  # atno 17371 bound_to 10713
  140.4485  134.6951  157.5027 LP  0  0  0  0  0  0  0  0  0  0  0  0  # atno 17394 bound_to 11000
  140.0182  134.6588  155.9279 LP  0  0  0  0  0  0  0  0  0  0  0  0  # atno 17395 bound_to 11000

$$$$
