AV-unprocessed.smi:3125|AV-procd|sdf|11907|dock3
  -GOLD-   2272017293D 1   1.00000     0.00000
 Structure written by MMmdl.
 29 30  0  0  0  0  0  0  0  0  3 V2000
  152.3631  142.0608  160.2414 C   0  0  0  0  0  0  0  0  0  0  0  0
  151.9373  143.1346  159.3414 N   0  0  0  0  0  0  0  0  0  0  0  0
  152.0915  144.4799  159.5587 C   0  0  0  0  0  0  0  0  0  0  0  0
  151.5525  145.1182  158.4732 C   0  0  0  0  0  0  0  0  0  0  0  0
  151.0934  144.1371  157.6378 N   0  3  0  0  0  0  0  0  0  0  0  0
  151.3263  142.9261  158.1612 C   0  0  0  0  0  0  0  0  0  0  0  0
  150.9597  141.6159  157.5190 C   0  0  1  0  0  0  0  0  0  0  0  0
  150.4625  141.8066  156.0735 C   0  0  0  0  0  0  0  0  0  0  0  0
  150.1092  140.4499  155.4442 C   0  0  0  0  0  0  0  0  0  0  0  0
  151.2962  139.4763  155.5315 C   0  0  0  0  0  0  0  0  0  0  0  0
  151.7449  139.3236  156.9327 N   0  3  0  0  0  0  0  0  0  0  0  0
  152.1276  140.6077  157.5617 C   0  0  0  0  0  0  0  0  0  0  0  0
  152.8258  142.4911  161.1304 H   0  0  0  0  0  0  0  0  0  0  0  0
  153.0872  141.4260  159.7302 H   0  0  0  0  0  0  0  0  0  0  0  0
  151.4944  141.4723  160.5383 H   0  0  0  0  0  0  0  0  0  0  0  0
  152.5607  144.8753  160.4485 H   0  0  0  0  0  0  0  0  0  0  0  0
  151.4632  146.1693  158.2394 H   0  0  0  0  0  0  0  0  0  0  0  0
  150.1382  141.2001  158.1019 H   0  0  0  0  0  0  0  0  0  0  0  0
  149.5899  142.4610  156.0576 H   0  0  0  0  0  0  0  0  0  0  0  0
  151.2302  142.2958  155.4724 H   0  0  0  0  0  0  0  0  0  0  0  0
  149.2462  140.0221  155.9563 H   0  0  0  0  0  0  0  0  0  0  0  0
  149.8140  140.5868  154.4033 H   0  0  0  0  0  0  0  0  0  0  0  0
  151.0143  138.4990  155.1391 H   0  0  0  0  0  0  0  0  0  0  0  0
  152.1282  139.8357  154.9243 H   0  0  0  0  0  0  0  0  0  0  0  0
  150.9916  138.9135  157.4665 H   0  0  0  0  0  0  0  0  0  0  0  0
  153.0015  141.0075  157.0450 H   0  0  0  0  0  0  0  0  0  0  0  0
  152.4267  140.4169  158.5929 H   0  0  0  0  0  0  0  0  0  0  0  0
  152.5371  138.6968  156.9557 H   0  0  0  0  0  0  0  0  0  0  0  0
  150.6376  144.3035  156.7493 H   0  0  0  0  0  0  0  0  0  0  0  0
  1  2  1  0  0  0  0
  1 13  1  0  0  0  0
  1 14  1  0  0  0  0
  1 15  1  0  0  0  0
  2  6  1  0  0  0  0
  2  3  1  0  0  0  0
  3  4  2  0  0  0  0
  3 16  1  0  0  0  0
  4  5  1  0  0  0  0
  4 17  1  0  0  0  0
  5  6  2  0  0  0  0
  5 29  1  0  0  0  0
  6  7  1  0  0  0  0
  7 12  1  0  0  0  0
  7  8  1  0  0  0  0
  7 18  1  0  0  0  0
  8  9  1  0  0  0  0
  8 19  1  0  0  0  0
  8 20  1  0  0  0  0
  9 10  1  0  0  0  0
  9 21  1  0  0  0  0
  9 22  1  0  0  0  0
 10 11  1  0  0  0  0
 10 23  1  0  0  0  0
 10 24  1  0  0  0  0
 11 12  1  0  0  0  0
 11 25  1  0  0  0  0
 11 28  1  0  0  0  0
 12 26  1  0  0  0  0
 12 27  1  0  0  0  0
M  CHG  1   5   1
M  CHG  1  11   1
M  END
> <s_m_source_file>
AV-unprocessed.smi

> <i_m_source_file_index>
3125

> <i_lp_mmshare_version>
43012

> <i_f3d_flags>
0

> <s_epik_input>
W0NIM11uMVtjSF1bY0hdbmMxW0NAQEhdMltDSDJdW0NIMl1bQ0gyXVtOSF1bQ0gyXTI=

> <s_epik_cmdline>
J2VwaWtfcHl0aG9uJywgJy1waCcsICc3LjAnLCAnLXRuJywgJzgnLCAnLW1hJywgJzIwMCcsICctbWV0YWxfYmluZGluZycsICctaW1hZScsICc8aW5maWxlLm1hZT4nLCAnLW9tYWUnLCAnPG91dGZpbGUubWFlPic=

> <r_lp_tautomer_probability>
1

> <r_epik_Ionization_Penalty>
0.803551

> <r_epik_Ionization_Penalty_Charging>
0.000747377

> <r_epik_Ionization_Penalty_Neutral>
0.802804

> <r_epik_State_Penalty>
0.360941

> <r_epik_Charging_Adjusted_Penalty>
0.361688

> <i_epik_Tot_Q>
2

> <i_epik_Tot_abs_Q>
2

> <r_epik_Metal_State_Penalty>
3.98724

> <b_epik_Metal_Only>
0

> <s_lp_Force_Field>
OPLS_2005

> <r_lp_Energy>
24.5109

> <b_lp_Chiralities_Consistent>
1

> <s_lp_Variant>
AV-unprocessed.smi:3125-2

> <Gold.Version>
5.8.1

> <Gold.Id.Protein>
6NUR|6NUR_protein|mol2

> <Gold.PLP.Fitness>
35.4056

> <Gold.PLP.PLP>
-29.8251

> <Gold.PLP.part.hbond>
-1.0000

> <Gold.PLP.part.metal>
0.0000

> <Gold.PLP.part.buried>
-3.9218

> <Gold.PLP.part.nonpolar>
-25.2793

> <Gold.PLP.part.repulsive>
0.1214

> <Gold.PLP.ligand.clash>
0.0000

> <Gold.PLP.ligand.torsion>
0.2207

> <Gold.PLP.Chemscore.Hbond>
2.0000

> <Gold.PLP.Chemscore.CHOScore>
0.0000

> <Gold.PLP.Chemscore.Metal>
0.0000

> <Gold.Chemscore.Hbonds>
donor molecule, donor type, donor heavy atom, donor atom, acceptor molecule, acceptor atom, score
      L1  H     5    29       P1  8028  1.77

> <Gold.PLP.Chemscore.Internal.Correction>
0.0218

> <Gold.Rescore>
     Score         DG    S(hbond)    S(metal)    S(lipo)     H(rot)  DE(clash)    DE(int)     intcor
     14.17     -14.39       0.98        0.00      70.02       1.00       0.12       0.10       ----

> <Gold.Chemscore.Fitness>
14.1726

> <Gold.Chemscore.DG>
-14.3925

> <Gold.Chemscore.ZeroCoef>
-5.4800

> <Gold.Chemscore.Hbond>
0.9821

> <Gold.Chemscore.Metal>
0.0000

> <Gold.Chemscore.Lipo>
70.0190

> <Gold.Chemscore.Internal_Hbond>
0.0000

> <Gold.Chemscore.DEClash>
0.1200

> <Gold.Chemscore.DEInternal>
0.0999

> <Gold.Chemscore.Rot>
1.0000

> <Gold.Chemscore.Internal.Correction>
   9.000000E+99

> <Gold.Chemscore.Hbonds>
donor molecule, donor type, donor heavy atom, donor atom, acceptor molecule, acceptor atom, score
      L1  H     5    29       P1  8028  0.80

> <Gold.Chemscore.Hbond.Weighted>
-3.2803

> <Gold.Chemscore.Metal.Weighted>
-0.0000

> <Gold.Chemscore.Lipo.Weighted>
-8.1922

> <Gold.Chemscore.Internal_Hbond.Weighted>
0.0000

> <Gold.Chemscore.DEClash.Weighted>
0.1200

> <Gold.Chemscore.DEInternal.Weighted>
0.0999

> <Gold.Chemscore.Rot.Weighted>
2.5600

> <Gold.Chemscore.Internal.Correction.Weighted>
   9.000000E+99

> <Gold.Protein.RotatedTorsions>
[ 6907 6896 6895 6894 ] final  169.93 input  -60.11 | X-H torsion
[ 7974 7965 7964 7962 ] final  -86.14 input  175.53 | X-H torsion
[ 8008 7997 7996 7995 ] final  -34.31 input   59.86 | X-H torsion
[ 10167 10162 10161 10158 ] final -106.03 input  -65.29 | X-H torsion
[ 10718 10713 10712 10709 ] final -159.22 input   66.30 | X-H torsion
[ 10763 10752 10751 10750 ] final  -74.51 input  -60.55 | X-H torsion
[ 11005 11000 10999 10996 ] final  -84.22 input  -57.11 | X-H torsion

> <Gold.Protein.ActiveResidues>
 VAL166  LYS551  ARG553  GLY616  TRP617  ASP618  TYR619  PRO620  LYS621  CYS622 
 ASP623  PHE694  ASN695  SER759  ASP760  ASP761  ALA762  ILE779  LEU786  VAL792 
 PHE793  MET794  SER795  GLU796  ALA797  LYS798  CYS799  TRP800  GLU811  SER814 

> <Gold.Protein.RotatedAtoms>
  151.8241  133.3399  159.3593 H   0  0  0  0  0  0  0  0  0  0  0  0  # atno 6907 bound_to 6896
  150.7285  134.5545  159.5820 H   0  0  0  0  0  0  0  0  0  0  0  0  # atno 6908 bound_to 6896
  152.2984  134.7641  160.0414 H   0  0  0  0  0  0  0  0  0  0  0  0  # atno 6909 bound_to 6896
  145.4839  140.9556  143.1849 H   0  0  0  0  0  0  0  0  0  0  0  0  # atno 7974 bound_to 7965
  154.4124  140.1687  156.2029 H   0  0  0  0  0  0  0  0  0  0  0  0  # atno 8008 bound_to 7997
  155.9509  140.3401  155.6383 H   0  0  0  0  0  0  0  0  0  0  0  0  # atno 8009 bound_to 7997
  155.6871  140.0729  157.2453 H   0  0  0  0  0  0  0  0  0  0  0  0  # atno 8010 bound_to 7997
  140.1922  143.3883  152.1197 H   0  0  0  0  0  0  0  0  0  0  0  0  # atno 10167 bound_to 10162
  156.5650  130.8664  151.2821 H   0  0  0  0  0  0  0  0  0  0  0  0  # atno 10718 bound_to 10713
  154.4741  135.5862  153.6342 H   0  0  0  0  0  0  0  0  0  0  0  0  # atno 10763 bound_to 10752
  152.9838  135.6074  154.3329 H   0  0  0  0  0  0  0  0  0  0  0  0  # atno 10764 bound_to 10752
  154.3214  135.2843  155.2497 H   0  0  0  0  0  0  0  0  0  0  0  0  # atno 10765 bound_to 10752
  141.1652  133.7334  156.8835 H   0  0  0  0  0  0  0  0  0  0  0  0  # atno 11005 bound_to 11000
  144.7873  139.6401  143.7128 LP  0  0  0  0  0  0  0  0  0  0  0  0  # atno 17320 bound_to 7965
  146.2325  139.5840  142.9546 LP  0  0  0  0  0  0  0  0  0  0  0  0  # atno 17321 bound_to 7965
  139.5251  144.7092  151.5259 LP  0  0  0  0  0  0  0  0  0  0  0  0  # atno 17342 bound_to 10162
  140.6448  143.8816  150.6726 LP  0  0  0  0  0  0  0  0  0  0  0  0  # atno 17343 bound_to 10162
  157.7360  130.9772  150.2114 LP  0  0  0  0  0  0  0  0  0  0  0  0  # atno 17370 bound_to 10713
  156.2765  130.3728  149.7978 LP  0  0  0  0  0  0  0  0  0  0  0  0  # atno 17371 bound_to 10713
  140.1698  134.9108  157.2819 LP  0  0  0  0  0  0  0  0  0  0  0  0  # atno 17394 bound_to 11000
  140.2515  134.3677  155.7440 LP  0  0  0  0  0  0  0  0  0  0  0  0  # atno 17395 bound_to 11000

$$$$
