AV-unprocessed.smi:1417|AV-procd|sdf|5770|dock9
  -GOLD-   22720 5413D 1   1.00000     0.00000
 Structure written by MMmdl.
 39 40  0  0  0  0  0  0  0  0  3 V2000
  152.4245  141.0482  159.2439 C   0  0  0  0  0  0  0  0  0  0  0  0
  152.1130  140.5086  157.8898 C   0  0  0  0  0  0  0  0  0  0  0  0
  151.2162  140.8777  156.9277 C   0  0  0  0  0  0  0  0  0  0  0  0
  151.4455  139.9329  155.8906 C   0  0  0  0  0  0  0  0  0  0  0  0
  150.8073  139.8862  154.7110 N   0  5  0  0  0  0  0  0  0  0  0  0
  149.7278  140.6704  154.4897 C   0  0  0  0  0  0  0  0  0  0  0  0
  149.5277  141.7926  154.9596 O   0  0  0  0  0  0  0  0  0  0  0  0
  148.8209  140.1145  153.6737 N   0  0  0  0  0  0  0  0  0  0  0  0
  147.5524  140.7094  153.2548 C   0  0  2  0  0  0  0  0  0  0  0  0
  146.4283  140.4301  154.2721 C   0  0  0  0  0  0  0  0  0  0  0  0
  146.0198  138.9466  154.2819 C   0  0  0  0  0  0  0  0  0  0  0  0
  145.6204  138.4935  152.9226 N   0  3  2  0  0  0  0  0  0  0  0  0
  145.0836  137.1083  152.9041 C   0  0  0  0  0  0  0  0  0  0  0  0
  143.5653  137.0569  152.7025 C   0  0  0  0  0  0  0  0  0  0  0  0
  142.9398  138.2251  152.5391 N   0  0  0  0  0  0  0  0  0  0  0  0
  142.9611  135.9859  152.7118 O   0  0  0  0  0  0  0  0  0  0  0  0
  146.7132  138.6926  151.9367 C   0  0  0  0  0  0  0  0  0  0  0  0
  147.1438  140.1698  151.8733 C   0  0  0  0  0  0  0  0  0  0  0  0
  152.4082  139.0768  156.1895 N   0  0  0  0  0  0  0  0  0  0  0  0
  152.8378  139.4356  157.4726 O   0  0  0  0  0  0  0  0  0  0  0  0
  152.9842  141.9803  159.1674 H   0  0  0  0  0  0  0  0  0  0  0  0
  153.0214  140.3416  159.8209 H   0  0  0  0  0  0  0  0  0  0  0  0
  151.5084  141.2475  159.7998 H   0  0  0  0  0  0  0  0  0  0  0  0
  150.5068  141.6912  156.9608 H   0  0  0  0  0  0  0  0  0  0  0  0
  149.0378  139.1986  153.3095 H   0  0  0  0  0  0  0  0  0  0  0  0
  147.6953  141.7881  153.1698 H   0  0  0  0  0  0  0  0  0  0  0  0
  146.7289  140.7413  155.2731 H   0  0  0  0  0  0  0  0  0  0  0  0
  145.5580  141.0367  154.0183 H   0  0  0  0  0  0  0  0  0  0  0  0
  146.8430  138.3306  154.6476 H   0  0  0  0  0  0  0  0  0  0  0  0
  145.1936  138.8102  154.9801 H   0  0  0  0  0  0  0  0  0  0  0  0
  145.5247  136.5540  152.0746 H   0  0  0  0  0  0  0  0  0  0  0  0
  145.3688  136.5834  153.8174 H   0  0  0  0  0  0  0  0  0  0  0  0
  141.9401  138.2503  152.3989 H   0  0  0  0  0  0  0  0  0  0  0  0
  143.4712  139.0842  152.5528 H   0  0  0  0  0  0  0  0  0  0  0  0
  147.5614  138.0579  152.1982 H   0  0  0  0  0  0  0  0  0  0  0  0
  146.3778  138.3793  150.9474 H   0  0  0  0  0  0  0  0  0  0  0  0
  146.3162  140.7661  151.4865 H   0  0  0  0  0  0  0  0  0  0  0  0
  147.9624  140.2919  151.1629 H   0  0  0  0  0  0  0  0  0  0  0  0
  144.8611  139.0904  152.6263 H   0  0  0  0  0  0  0  0  0  0  0  0
  1  2  1  0  0  0  0
  1 21  1  0  0  0  0
  1 22  1  0  0  0  0
  1 23  1  0  0  0  0
  2 20  1  0  0  0  0
  2  3  2  0  0  0  0
  3  4  1  0  0  0  0
  3 24  1  0  0  0  0
  4  5  1  0  0  0  0
  4 19  2  0  0  0  0
  5  6  1  0  0  0  0
  6  7  2  0  0  0  0
  6  8  1  0  0  0  0
  8  9  1  0  0  0  0
  8 25  1  0  0  0  0
  9 18  1  0  0  0  0
  9 10  1  0  0  0  0
  9 26  1  0  0  0  0
 10 11  1  0  0  0  0
 10 27  1  0  0  0  0
 10 28  1  0  0  0  0
 11 12  1  0  0  0  0
 11 29  1  0  0  0  0
 11 30  1  0  0  0  0
 12 13  1  0  0  0  0
 12 17  1  0  0  0  0
 12 39  1  0  0  0  0
 13 14  1  0  0  0  0
 13 31  1  0  0  0  0
 13 32  1  0  0  0  0
 14 15  1  0  0  0  0
 14 16  2  0  0  0  0
 15 33  1  0  0  0  0
 15 34  1  0  0  0  0
 17 18  1  0  0  0  0
 17 35  1  0  0  0  0
 17 36  1  0  0  0  0
 18 37  1  0  0  0  0
 18 38  1  0  0  0  0
 19 20  1  0  0  0  0
M  CHG  1   5  -1
M  CHG  1  12   1
M  END
> <s_m_source_file>
AV-unprocessed.smi

> <i_m_source_file_index>
1417

> <i_lp_mmshare_version>
43012

> <i_f3d_flags>
0

> <s_epik_input>
W0NIM11jMVtjSF1jKG5vMSlbTkhdQyg9TylbTkhdW0NIXTJbQ0gyXVtDSDJdTihbQ0gyXVtDSDJdMilbQ0gyXUMoPU8pW05IMl0=

> <s_epik_cmdline>
J2VwaWtfcHl0aG9uJywgJy1waCcsICc3LjAnLCAnLXRuJywgJzgnLCAnLW1hJywgJzIwMCcsICctbWV0YWxfYmluZGluZycsICctaW1hZScsICc8aW5maWxlLm1hZT4nLCAnLW9tYWUnLCAnPG91dGZpbGUubWFlPic=

> <r_epik_Ionization_Penalty>
7.07562

> <r_epik_Ionization_Penalty_Charging>
7.07548

> <r_epik_Ionization_Penalty_Neutral>
0.00013758

> <r_epik_State_Penalty>
7.16607

> <r_epik_Charging_Adjusted_Penalty>
14.2416

> <i_epik_Tot_Q>
0

> <i_epik_Tot_abs_Q>
2

> <r_epik_Metal_State_Penalty>
3.11438

> <b_epik_Metal_Only>
1

> <s_lp_Force_Field>
OPLS_2005

> <r_lp_Energy>
2.10932

> <b_lp_Chiralities_Consistent>
1

> <s_lp_Variant>
AV-unprocessed.smi:1417-6

> <Gold.Version>
5.8.1

> <Gold.Id.Protein>
6NUR|6NUR_protein|mol2

> <Gold.PLP.Fitness>
44.4330

> <Gold.PLP.PLP>
-31.9162

> <Gold.PLP.part.hbond>
-6.5234

> <Gold.PLP.part.metal>
0.0000

> <Gold.PLP.part.buried>
-1.2242

> <Gold.PLP.part.nonpolar>
-26.3201

> <Gold.PLP.part.repulsive>
1.0846

> <Gold.PLP.ligand.clash>
0.0065

> <Gold.PLP.ligand.torsion>
1.2947

> <Gold.PLP.Chemscore.Hbond>
5.0226

> <Gold.PLP.Chemscore.CHOScore>
0.0000

> <Gold.PLP.Chemscore.Metal>
0.0000

> <Gold.Chemscore.Hbonds>
donor molecule, donor type, donor heavy atom, donor atom, acceptor molecule, acceptor atom, score
      L1  H    12    39       P1 10175  2.00
      L1  H    15    34       P1 10175  0.57
      P1  H  7989  7998       L1     5  0.30
      P1  H  7997  8010       L1    20  0.50

> <Gold.PLP.Chemscore.Internal.Correction>
0.0449

> <Gold.Rescore>
     Score         DG    S(hbond)    S(metal)    S(lipo)     H(rot)  DE(clash)    DE(int)     intcor
     14.10     -18.40       3.52        0.00      54.03       2.02       1.59       2.71       ----

> <Gold.Chemscore.Fitness>
14.0959

> <Gold.Chemscore.DG>
-18.3968

> <Gold.Chemscore.ZeroCoef>
-5.4800

> <Gold.Chemscore.Hbond>
3.5246

> <Gold.Chemscore.Metal>
0.0000

> <Gold.Chemscore.Lipo>
54.0294

> <Gold.Chemscore.Internal_Hbond>
0.0000

> <Gold.Chemscore.DEClash>
1.5876

> <Gold.Chemscore.DEInternal>
2.7134

> <Gold.Chemscore.Rot>
2.0222

> <Gold.Chemscore.Internal.Correction>
   9.000000E+99

> <Gold.Chemscore.Hbonds>
donor molecule, donor type, donor heavy atom, donor atom, acceptor molecule, acceptor atom, score
      L1  H    12    39       P1 10175  1.00
      L1  H    15    34       P1 10175  0.57
      P1  H  7997  8010       L1    20  0.01

> <Gold.Chemscore.Hbond.Weighted>
-11.7723

> <Gold.Chemscore.Metal.Weighted>
-0.0000

> <Gold.Chemscore.Lipo.Weighted>
-6.3214

> <Gold.Chemscore.Internal_Hbond.Weighted>
0.0000

> <Gold.Chemscore.DEClash.Weighted>
1.5876

> <Gold.Chemscore.DEInternal.Weighted>
2.7134

> <Gold.Chemscore.Rot.Weighted>
5.1769

> <Gold.Chemscore.Internal.Correction.Weighted>
   9.000000E+99

> <Gold.Protein.RotatedTorsions>
[ 6907 6896 6895 6894 ] final -114.55 input  -60.11 | X-H torsion
[ 7974 7965 7964 7962 ] final  -50.97 input  175.53 | X-H torsion
[ 8008 7997 7996 7995 ] final   52.53 input   59.86 | X-H torsion
[ 10167 10162 10161 10158 ] final   70.67 input  -65.29 | X-H torsion
[ 10718 10713 10712 10709 ] final   85.84 input   66.30 | X-H torsion
[ 10763 10752 10751 10750 ] final -161.75 input  -60.55 | X-H torsion
[ 11005 11000 10999 10996 ] final   29.34 input  -57.11 | X-H torsion

> <Gold.Protein.ActiveResidues>
 VAL166  LYS551  ARG553  GLY616  TRP617  ASP618  TYR619  PRO620  LYS621  CYS622 
 ASP623  PHE694  ASN695  SER759  ASP760  ASP761  ALA762  ILE779  LEU786  VAL792 
 PHE793  MET794  SER795  GLU796  ALA797  LYS798  CYS799  TRP800  GLU811  SER814 

> <Gold.Protein.RotatedAtoms>
  150.7910  133.8785  159.3278 H   0  0  0  0  0  0  0  0  0  0  0  0  # atno 6907 bound_to 6896
  151.6623  135.0986  160.0191 H   0  0  0  0  0  0  0  0  0  0  0  0  # atno 6908 bound_to 6896
  152.3984  133.6743  159.6331 H   0  0  0  0  0  0  0  0  0  0  0  0  # atno 6909 bound_to 6896
  145.9240  140.7808  142.9633 H   0  0  0  0  0  0  0  0  0  0  0  0  # atno 7974 bound_to 7965
  155.4533  140.3459  155.4303 H   0  0  0  0  0  0  0  0  0  0  0  0  # atno 8008 bound_to 7997
  156.1207  140.1486  156.9238 H   0  0  0  0  0  0  0  0  0  0  0  0  # atno 8009 bound_to 7997
  154.4821  140.0866  156.7381 H   0  0  0  0  0  0  0  0  0  0  0  0  # atno 8010 bound_to 7997
  140.0544  144.5285  150.7339 H   0  0  0  0  0  0  0  0  0  0  0  0  # atno 10167 bound_to 10162
  157.6920  131.0191  150.2883 H   0  0  0  0  0  0  0  0  0  0  0  0  # atno 10718 bound_to 10713
  154.7276  135.3039  154.8945 H   0  0  0  0  0  0  0  0  0  0  0  0  # atno 10763 bound_to 10752
  153.9798  135.6731  153.4754 H   0  0  0  0  0  0  0  0  0  0  0  0  # atno 10764 bound_to 10752
  153.0889  135.4970  154.8570 H   0  0  0  0  0  0  0  0  0  0  0  0  # atno 10765 bound_to 10752
  140.3060  134.2703  155.7744 H   0  0  0  0  0  0  0  0  0  0  0  0  # atno 11005 bound_to 11000
  144.6756  140.2021  143.7386 LP  0  0  0  0  0  0  0  0  0  0  0  0  # atno 17320 bound_to 7965
  145.8513  139.2177  143.1770 LP  0  0  0  0  0  0  0  0  0  0  0  0  # atno 17321 bound_to 7965
  140.7201  143.2581  151.4305 LP  0  0  0  0  0  0  0  0  0  0  0  0  # atno 17342 bound_to 10162
  139.5932  144.1453  152.2113 LP  0  0  0  0  0  0  0  0  0  0  0  0  # atno 17343 bound_to 10162
  156.3419  130.3817  149.7402 LP  0  0  0  0  0  0  0  0  0  0  0  0  # atno 17370 bound_to 10713
  156.4908  130.8084  151.3094 LP  0  0  0  0  0  0  0  0  0  0  0  0  # atno 17371 bound_to 10713
  141.2118  133.7677  156.9837 LP  0  0  0  0  0  0  0  0  0  0  0  0  # atno 17394 bound_to 11000
  140.1067  134.9502  157.2004 LP  0  0  0  0  0  0  0  0  0  0  0  0  # atno 17395 bound_to 11000

$$$$
