AV-unprocessed.smi:1610|AV-procd|sdf|6473|dock1
  -GOLD-   22720 7133D 1   1.00000     0.00000
 Structure written by MMmdl.
 44 45  0  0  0  0  0  0  0  0  3 V2000
  147.6340  134.8465  160.9538 C   0  0  0  0  0  0  0  0  0  0  0  0
  147.8091  136.4384  160.0558 S   0  0  0  0  0  0  0  0  0  0  0  0
  146.6446  137.2482  160.4488 O   0  0  0  0  0  0  0  0  0  0  0  0
  149.1416  136.9533  160.4086 O   0  0  0  0  0  0  0  0  0  0  0  0
  147.7086  135.9243  158.5201 N   0  5  0  0  0  0  0  0  0  0  0  0
  148.9014  135.7606  157.6932 C   0  0  0  0  0  0  0  0  0  0  0  0
  148.6597  136.2223  156.2228 C   0  0  0  0  0  0  0  0  0  0  0  0
  149.7385  135.7353  155.2174 C   0  0  0  0  0  0  0  0  0  0  0  0
  149.8513  134.2651  155.2783 N   0  0  0  0  0  0  0  0  0  0  0  0
  149.2174  133.3752  154.4747 C   0  0  0  0  0  0  0  0  0  0  0  0
  149.1047  132.1806  154.7534 O   0  0  0  0  0  0  0  0  0  0  0  0
  148.6617  133.9129  153.3741 N   0  0  0  0  0  0  0  0  0  0  0  0
  147.7223  133.2378  152.4801 C   0  0  0  0  0  0  0  0  0  0  0  0
  146.4767  134.1032  152.1934 C   0  0  0  0  0  0  0  0  0  0  0  0
  145.6265  133.6086  151.0321 C   0  0  0  0  0  0  0  0  0  0  0  0
  146.1122  132.6165  150.1512 C   0  0  0  0  0  0  0  0  0  0  0  0
  145.2791  132.1395  149.1176 C   0  0  0  0  0  0  0  0  0  0  0  0
  143.9796  132.6691  148.9832 C   0  0  0  0  0  0  0  0  0  0  0  0
  143.5558  133.6291  149.8327 N   0  3  0  0  0  0  0  0  0  0  0  0
  144.3233  134.1143  150.8324 C   0  0  0  0  0  0  0  0  0  0  0  0
  150.3612  133.8859  156.6058 C   0  0  0  0  0  0  0  0  0  0  0  0
  149.3120  134.2586  157.6918 C   0  0  0  0  0  0  0  0  0  0  0  0
  147.6662  135.0326  162.0269 H   0  0  0  0  0  0  0  0  0  0  0  0
  148.4523  134.1820  160.6775 H   0  0  0  0  0  0  0  0  0  0  0  0
  146.6833  134.3825  160.6940 H   0  0  0  0  0  0  0  0  0  0  0  0
  149.7402  136.3348  158.0873 H   0  0  0  0  0  0  0  0  0  0  0  0
  147.6950  135.8571  155.8787 H   0  0  0  0  0  0  0  0  0  0  0  0
  148.6015  137.3105  156.1820 H   0  0  0  0  0  0  0  0  0  0  0  0
  149.5055  136.0986  154.2164 H   0  0  0  0  0  0  0  0  0  0  0  0
  150.7077  136.1816  155.4504 H   0  0  0  0  0  0  0  0  0  0  0  0
  148.8133  134.8976  153.2103 H   0  0  0  0  0  0  0  0  0  0  0  0
  148.2339  133.0064  151.5456 H   0  0  0  0  0  0  0  0  0  0  0  0
  147.4133  132.2782  152.8970 H   0  0  0  0  0  0  0  0  0  0  0  0
  145.8563  134.1410  153.0898 H   0  0  0  0  0  0  0  0  0  0  0  0
  146.7802  135.1313  151.9932 H   0  0  0  0  0  0  0  0  0  0  0  0
  147.1041  132.2084  150.2792 H   0  0  0  0  0  0  0  0  0  0  0  0
  145.6284  131.3700  148.4450 H   0  0  0  0  0  0  0  0  0  0  0  0
  143.2691  132.3536  148.2332 H   0  0  0  0  0  0  0  0  0  0  0  0
  143.8585  134.8644  151.4556 H   0  0  0  0  0  0  0  0  0  0  0  0
  150.5884  132.8206  156.6645 H   0  0  0  0  0  0  0  0  0  0  0  0
  151.3124  134.3885  156.7939 H   0  0  0  0  0  0  0  0  0  0  0  0
  149.6925  133.9827  158.6758 H   0  0  0  0  0  0  0  0  0  0  0  0
  148.4272  133.6404  157.5289 H   0  0  0  0  0  0  0  0  0  0  0  0
  142.6066  133.9912  149.7287 H   0  0  0  0  0  0  0  0  0  0  0  0
  1  2  1  0  0  0  0
  1 23  1  0  0  0  0
  1 24  1  0  0  0  0
  1 25  1  0  0  0  0
  2  3  2  0  0  0  0
  2  4  2  0  0  0  0
  2  5  1  0  0  0  0
  5  6  1  0  0  0  0
  6 22  1  0  0  0  0
  6  7  1  0  0  0  0
  6 26  1  0  0  0  0
  7  8  1  0  0  0  0
  7 27  1  0  0  0  0
  7 28  1  0  0  0  0
  8  9  1  0  0  0  0
  8 29  1  0  0  0  0
  8 30  1  0  0  0  0
  9 10  1  0  0  0  0
  9 21  1  0  0  0  0
 10 11  2  0  0  0  0
 10 12  1  0  0  0  0
 12 13  1  0  0  0  0
 12 31  1  0  0  0  0
 13 14  1  0  0  0  0
 13 32  1  0  0  0  0
 13 33  1  0  0  0  0
 14 15  1  0  0  0  0
 14 34  1  0  0  0  0
 14 35  1  0  0  0  0
 15 20  1  0  0  0  0
 15 16  2  0  0  0  0
 16 17  1  0  0  0  0
 16 36  1  0  0  0  0
 17 18  2  0  0  0  0
 17 37  1  0  0  0  0
 18 19  1  0  0  0  0
 18 38  1  0  0  0  0
 19 20  2  0  0  0  0
 19 44  1  0  0  0  0
 20 39  1  0  0  0  0
 21 22  1  0  0  0  0
 21 40  1  0  0  0  0
 21 41  1  0  0  0  0
 22 42  1  0  0  0  0
 22 43  1  0  0  0  0
M  CHG  1   5  -1
M  CHG  1  19   1
M  END
> <s_m_source_file>
AV-unprocessed.smi

> <i_m_source_file_index>
1610

> <i_lp_mmshare_version>
43012

> <i_f3d_flags>
0

> <s_epik_input>
W0NIM11TKD1PKSg9TylbTkhdW0NIXTFbQ0gyXVtDSDJdTihbQ0gyXVtDSDJdMSlDKD1PKVtOSF1bQ0gyXVtDSDJdYzJbY0hdW2NIXVtjSF1uW2NIXTI=

> <s_epik_cmdline>
J2VwaWtfcHl0aG9uJywgJy1waCcsICc3LjAnLCAnLXRuJywgJzgnLCAnLW1hJywgJzIwMCcsICctbWV0YWxfYmluZGluZycsICctaW1hZScsICc8aW5maWxlLm1hZT4nLCAnLW9tYWUnLCAnPG91dGZpbGUubWFlPic=

> <r_epik_Ionization_Penalty>
8.91489

> <r_epik_Ionization_Penalty_Charging>
8.91482

> <r_epik_Ionization_Penalty_Neutral>
6.17235e-05

> <r_epik_State_Penalty>
9.05939

> <r_epik_Charging_Adjusted_Penalty>
17.9742

> <i_epik_Tot_Q>
0

> <i_epik_Tot_abs_Q>
2

> <r_epik_Metal_State_Penalty>
4.99481

> <b_epik_Metal_Only>
1

> <s_lp_Force_Field>
OPLS_2005

> <r_lp_Energy>
23.4301

> <b_lp_Chiralities_Consistent>
1

> <s_lp_Variant>
AV-unprocessed.smi:1610-4

> <Gold.Version>
5.8.1

> <Gold.Id.Protein>
6NUR|6NUR_protein|mol2

> <Gold.PLP.Fitness>
48.5925

> <Gold.PLP.PLP>
-35.8980

> <Gold.PLP.part.hbond>
-4.0000

> <Gold.PLP.part.metal>
0.0000

> <Gold.PLP.part.buried>
-4.9245

> <Gold.PLP.part.nonpolar>
-28.0024

> <Gold.PLP.part.repulsive>
0.0722

> <Gold.PLP.ligand.clash>
0.0000

> <Gold.PLP.ligand.torsion>
1.0966

> <Gold.PLP.Chemscore.Hbond>
4.5680

> <Gold.PLP.Chemscore.CHOScore>
0.0000

> <Gold.PLP.Chemscore.Metal>
0.0000

> <Gold.Chemscore.Hbonds>
donor molecule, donor type, donor heavy atom, donor atom, acceptor molecule, acceptor atom, score
      L1  H    12    31       P1  7948  0.86
      L1  H    19    44       P1 10186  2.00
      P1  H  6931  6943       L1     4  0.64
      P1  H  6934  6947       L1     3  1.00

> <Gold.PLP.Chemscore.Internal.Correction>
1.1836

> <Gold.Rescore>
     Score         DG    S(hbond)    S(metal)    S(lipo)     H(rot)  DE(clash)    DE(int)     intcor
     19.02     -20.30       2.99        0.00      80.01       1.77       0.09       1.19       ----

> <Gold.Chemscore.Fitness>
19.0187

> <Gold.Chemscore.DG>
-20.2958

> <Gold.Chemscore.ZeroCoef>
-5.4800

> <Gold.Chemscore.Hbond>
2.9868

> <Gold.Chemscore.Metal>
0.0000

> <Gold.Chemscore.Lipo>
80.0081

> <Gold.Chemscore.Internal_Hbond>
0.0000

> <Gold.Chemscore.DEClash>
0.0882

> <Gold.Chemscore.DEInternal>
1.1889

> <Gold.Chemscore.Rot>
1.7661

> <Gold.Chemscore.Internal.Correction>
   9.000000E+99

> <Gold.Chemscore.Hbonds>
donor molecule, donor type, donor heavy atom, donor atom, acceptor molecule, acceptor atom, score
      L1  H    12    31       P1  7948  0.29
      L1  H    19    44       P1 10186  1.00
      P1  H  6931  6943       L1     4  0.52
      P1  H  6934  6947       L1     3  0.78

> <Gold.Chemscore.Hbond.Weighted>
-9.9760

> <Gold.Chemscore.Metal.Weighted>
-0.0000

> <Gold.Chemscore.Lipo.Weighted>
-9.3609

> <Gold.Chemscore.Internal_Hbond.Weighted>
0.0000

> <Gold.Chemscore.DEClash.Weighted>
0.0882

> <Gold.Chemscore.DEInternal.Weighted>
1.1889

> <Gold.Chemscore.Rot.Weighted>
4.5211

> <Gold.Chemscore.Internal.Correction.Weighted>
   9.000000E+99

> <Gold.Protein.RotatedTorsions>
[ 6907 6896 6895 6894 ] final   16.07 input  -60.11 | X-H torsion
[ 7974 7965 7964 7962 ] final  -93.73 input  175.53 | X-H torsion
[ 8008 7997 7996 7995 ] final  178.57 input   59.86 | X-H torsion
[ 10167 10162 10161 10158 ] final  -28.88 input  -65.29 | X-H torsion
[ 10718 10713 10712 10709 ] final   29.68 input   66.30 | X-H torsion
[ 10763 10752 10751 10750 ] final  115.16 input  -60.55 | X-H torsion
[ 11005 11000 10999 10996 ] final  -64.60 input  -57.11 | X-H torsion

> <Gold.Protein.ActiveResidues>
 VAL166  LYS551  ARG553  GLY616  TRP617  ASP618  TYR619  PRO620  LYS621  CYS622 
 ASP623  PHE694  ASN695  SER759  ASP760  ASP761  ALA762  ILE779  LEU786  VAL792 
 PHE793  MET794  SER795  GLU796  ALA797  LYS798  CYS799  TRP800  GLU811  SER814 

> <Gold.Protein.RotatedAtoms>
  151.8280  135.0630  160.0433 H   0  0  0  0  0  0  0  0  0  0  0  0  # atno 6907 bound_to 6896
  152.2901  133.5549  159.5560 H   0  0  0  0  0  0  0  0  0  0  0  0  # atno 6908 bound_to 6896
  150.7226  134.0356  159.3790 H   0  0  0  0  0  0  0  0  0  0  0  0  # atno 6909 bound_to 6896
  145.3827  140.9519  143.2385 H   0  0  0  0  0  0  0  0  0  0  0  0  # atno 7974 bound_to 7965
  156.0532  140.1330  157.0027 H   0  0  0  0  0  0  0  0  0  0  0  0  # atno 8008 bound_to 7997
  154.4445  140.1006  156.6477 H   0  0  0  0  0  0  0  0  0  0  0  0  # atno 8009 bound_to 7997
  155.5492  140.3462  155.4467 H   0  0  0  0  0  0  0  0  0  0  0  0  # atno 8010 bound_to 7997
  140.7266  143.3974  151.1324 H   0  0  0  0  0  0  0  0  0  0  0  0  # atno 10167 bound_to 10162
  157.2497  130.7109  149.6399 H   0  0  0  0  0  0  0  0  0  0  0  0  # atno 10718 bound_to 10713
  153.5181  135.3603  155.2619 H   0  0  0  0  0  0  0  0  0  0  0  0  # atno 10763 bound_to 10752
  154.8737  135.4039  154.3291 H   0  0  0  0  0  0  0  0  0  0  0  0  # atno 10764 bound_to 10752
  153.3957  135.7073  153.6529 H   0  0  0  0  0  0  0  0  0  0  0  0  # atno 10765 bound_to 10752
  141.1429  133.6668  156.5858 H   0  0  0  0  0  0  0  0  0  0  0  0  # atno 11005 bound_to 11000
  144.8496  139.5342  143.6862 LP  0  0  0  0  0  0  0  0  0  0  0  0  # atno 17320 bound_to 7965
  146.2835  139.6940  142.9212 LP  0  0  0  0  0  0  0  0  0  0  0  0  # atno 17321 bound_to 7965
  139.7588  143.8666  152.3095 LP  0  0  0  0  0  0  0  0  0  0  0  0  # atno 17342 bound_to 10162
  139.8545  144.7148  150.9173 LP  0  0  0  0  0  0  0  0  0  0  0  0  # atno 17343 bound_to 10162
  155.9666  130.4431  150.5409 LP  0  0  0  0  0  0  0  0  0  0  0  0  # atno 17370 bound_to 10713
  157.3291  131.0696  151.1874 LP  0  0  0  0  0  0  0  0  0  0  0  0  # atno 17371 bound_to 10713
  140.3802  134.7530  157.4656 LP  0  0  0  0  0  0  0  0  0  0  0  0  # atno 17394 bound_to 11000
  140.0644  134.5951  155.8712 LP  0  0  0  0  0  0  0  0  0  0  0  0  # atno 17395 bound_to 11000

$$$$
