AV-unprocessed.smi:98|AV-procd|sdf|864|dock5
  -GOLD-   2262017313D 1   1.00000     0.00000
 Structure written by MMmdl.
 56 59  0  0  0  0  0  0  0  0  1 V2000
  151.7855  136.7530  156.0668 O   0  0  0  0  0  0  0  0  0  0  0  0
  151.1243  136.9884  155.0546 C   0  0  0  0  0  0  0  0  0  0  0  0
  151.0687  138.4116  154.4774 C   0  0  0  0  0  0  0  0  0  0  0  0
  150.6834  139.4315  155.4775 N   0  0  0  0  0  0  0  0  0  0  0  0
  149.3382  139.8764  155.4986 C   0  0  0  0  0  0  0  0  0  0  0  0
  148.5034  139.4234  154.7138 O   0  0  0  0  0  0  0  0  0  0  0  0
  149.0254  140.8895  156.4997 C   0  0  0  0  0  0  0  0  0  0  0  0
  147.7815  141.3930  156.5715 F   0  0  0  0  0  0  0  0  0  0  0  0
  149.9687  141.3346  157.3546 C   0  0  0  0  0  0  0  0  0  0  0  0
  151.2664  140.8629  157.3512 N   0  0  0  0  0  0  0  0  0  0  0  0
  152.2645  141.4410  158.3275 C   0  0  1  0  0  0  0  0  0  0  0  0
  151.7760  142.7283  159.0183 C   0  0  0  0  0  0  0  0  0  0  0  0
  151.8374  142.3660  160.4932 C   0  0  0  0  0  0  0  0  0  0  0  0
  152.8164  141.1972  160.5163 C   0  0  0  0  0  0  0  0  0  0  0  0
  152.5158  140.4951  159.3204 O   0  0  0  0  0  0  0  0  0  0  0  0
  151.6606  139.9096  156.3838 C   0  0  0  0  0  0  0  0  0  0  0  0
  152.8223  139.5026  156.3306 O   0  0  0  0  0  0  0  0  0  0  0  0
  150.4120  136.0659  154.3826 N   0  0  0  0  0  0  0  0  0  0  0  0
  150.2829  134.6811  154.6688 C   0  0  0  0  0  0  0  0  0  0  0  0
  150.6954  134.2372  155.9432 C   0  0  0  0  0  0  0  0  0  0  0  0
  150.5739  132.8806  156.3010 C   0  0  0  0  0  0  0  0  0  0  0  0
  150.0227  131.9651  155.3833 C   0  0  0  0  0  0  0  0  0  0  0  0
  149.8582  130.2400  155.8336 S   0  0  0  0  0  0  0  0  0  0  0  0
  149.7163  130.1479  157.2954 O   0  0  0  0  0  0  0  0  0  0  0  0
  148.8531  129.6233  154.9535 O   0  0  0  0  0  0  0  0  0  0  0  0
  151.4094  129.5935  155.4072 N   0  0  0  0  0  0  0  0  0  0  0  0
  152.5835  130.4798  155.4760 C   0  0  0  0  0  0  0  0  0  0  0  0
  153.7832  129.8646  154.7382 C   0  0  0  0  0  0  0  0  0  0  0  0
  154.0364  128.5550  155.2243 O   0  0  0  0  0  0  0  0  0  0  0  0
  152.9399  127.6887  154.9750 C   0  0  0  0  0  0  0  0  0  0  0  0
  151.6918  128.1835  155.7241 C   0  0  0  0  0  0  0  0  0  0  0  0
  149.5886  132.3987  154.1155 C   0  0  0  0  0  0  0  0  0  0  0  0
  149.7160  133.7552  153.7593 C   0  0  0  0  0  0  0  0  0  0  0  0
  152.0402  138.6339  154.0337 H   0  0  0  0  0  0  0  0  0  0  0  0
  150.3833  138.4329  153.6281 H   0  0  0  0  0  0  0  0  0  0  0  0
  149.6863  142.0894  158.0742 H   0  0  0  0  0  0  0  0  0  0  0  0
  153.1792  141.6121  157.7579 H   0  0  0  0  0  0  0  0  0  0  0  0
  152.4710  143.5347  158.7820 H   0  0  0  0  0  0  0  0  0  0  0  0
  150.7786  143.0266  158.6939 H   0  0  0  0  0  0  0  0  0  0  0  0
  152.1551  143.1974  161.1228 H   0  0  0  0  0  0  0  0  0  0  0  0
  150.8577  142.0364  160.8406 H   0  0  0  0  0  0  0  0  0  0  0  0
  153.8479  141.5517  160.4827 H   0  0  0  0  0  0  0  0  0  0  0  0
  152.6968  140.5640  161.3956 H   0  0  0  0  0  0  0  0  0  0  0  0
  149.8322  136.4131  153.6322 H   0  0  0  0  0  0  0  0  0  0  0  0
  151.1159  134.9369  156.6510 H   0  0  0  0  0  0  0  0  0  0  0  0
  150.9038  132.5512  157.2751 H   0  0  0  0  0  0  0  0  0  0  0  0
  152.3429  131.4509  155.0432 H   0  0  0  0  0  0  0  0  0  0  0  0
  152.8381  130.6480  156.5228 H   0  0  0  0  0  0  0  0  0  0  0  0
  153.6042  129.8383  153.6620 H   0  0  0  0  0  0  0  0  0  0  0  0
  154.6711  130.4770  154.8954 H   0  0  0  0  0  0  0  0  0  0  0  0
  152.7481  127.6256  153.9026 H   0  0  0  0  0  0  0  0  0  0  0  0
  153.2009  126.6840  155.3077 H   0  0  0  0  0  0  0  0  0  0  0  0
  151.8393  128.0873  156.8004 H   0  0  0  0  0  0  0  0  0  0  0  0
  150.8350  127.5634  155.4607 H   0  0  0  0  0  0  0  0  0  0  0  0
  149.1575  131.6978  153.4161 H   0  0  0  0  0  0  0  0  0  0  0  0
  149.3594  134.0702  152.7902 H   0  0  0  0  0  0  0  0  0  0  0  0
  1  2  2  0  0  0  0
  2  3  1  0  0  0  0
  2 18  1  0  0  0  0
  3  4  1  0  0  0  0
  3 34  1  0  0  0  0
  3 35  1  0  0  0  0
  4 16  1  0  0  0  0
  4  5  1  0  0  0  0
  5  6  2  0  0  0  0
  5  7  1  0  0  0  0
  7  8  1  0  0  0  0
  7  9  2  0  0  0  0
  9 10  1  0  0  0  0
  9 36  1  0  0  0  0
 10 11  1  0  0  0  0
 10 16  1  0  0  0  0
 11 15  1  0  0  0  0
 11 12  1  0  0  0  0
 11 37  1  0  0  0  0
 12 13  1  0  0  0  0
 12 38  1  0  0  0  0
 12 39  1  0  0  0  0
 13 14  1  0  0  0  0
 13 40  1  0  0  0  0
 13 41  1  0  0  0  0
 14 15  1  0  0  0  0
 14 42  1  0  0  0  0
 14 43  1  0  0  0  0
 16 17  2  0  0  0  0
 18 19  1  0  0  0  0
 18 44  1  0  0  0  0
 19 33  1  0  0  0  0
 19 20  2  0  0  0  0
 20 21  1  0  0  0  0
 20 45  1  0  0  0  0
 21 22  2  0  0  0  0
 21 46  1  0  0  0  0
 22 23  1  0  0  0  0
 22 32  1  0  0  0  0
 23 24  2  0  0  0  0
 23 25  2  0  0  0  0
 23 26  1  0  0  0  0
 26 31  1  0  0  0  0
 26 27  1  0  0  0  0
 27 28  1  0  0  0  0
 27 47  1  0  0  0  0
 27 48  1  0  0  0  0
 28 29  1  0  0  0  0
 28 49  1  0  0  0  0
 28 50  1  0  0  0  0
 29 30  1  0  0  0  0
 30 31  1  0  0  0  0
 30 51  1  0  0  0  0
 30 52  1  0  0  0  0
 31 53  1  0  0  0  0
 31 54  1  0  0  0  0
 32 33  2  0  0  0  0
 32 55  1  0  0  0  0
 33 56  1  0  0  0  0
M  END
> <s_m_source_file>
AV-unprocessed.smi

> <i_m_source_file_index>
98

> <i_lp_mmshare_version>
43012

> <i_f3d_flags>
0

> <s_epik_input>
TzFbQ0gyXVtDSDJdW0NIMl1bQ0BIXTFuKGMyPU8pW2NIXWMoRiljKD1PKW4yW0NIMl1DKD1PKVtOSF1jM1tjSF1bY0hdYyhbY0hdW2NIXTMpUyg9TykoPU8pTjRbQ0gyXVtDSDJdT1tDSDJdW0NIMl00

> <s_epik_cmdline>
J2VwaWtfcHl0aG9uJywgJy1waCcsICc3LjAnLCAnLXRuJywgJzgnLCAnLW1hJywgJzIwMCcsICctbWV0YWxfYmluZGluZycsICctaW1hZScsICc8aW5maWxlLm1hZT4nLCAnLW9tYWUnLCAnPG91dGZpbGUubWFlPic=

> <r_lp_tautomer_probability>
1

> <r_epik_Ionization_Penalty>
1.9271e-06

> <r_epik_Ionization_Penalty_Charging>
3.88729e-08

> <r_epik_Ionization_Penalty_Neutral>
1.88823e-06

> <r_epik_State_Penalty>
-0

> <r_epik_Charging_Adjusted_Penalty>
3.88729e-08

> <i_epik_Tot_Q>
0

> <i_epik_Tot_abs_Q>
0

> <r_epik_Metal_State_Penalty>
-0

> <b_epik_Metal_Only>
0

> <s_epik_Chemistry_Notes>
This compound contains an acetal/aminal-like group ( X-CH(R)-Y where X, Y are N, S, or O) that may be acid/base labile, releasing an aldehyde.

> <s_lp_Force_Field>
OPLS_2005

> <r_lp_Energy>
28.5933

> <b_lp_Chiralities_Consistent>
1

> <s_lp_Variant>
AV-unprocessed.smi:98-2

> <Gold.Version>
5.8.1

> <Gold.Id.Protein>
6NUR|6NUR_protein|mol2

> <Gold.PLP.Fitness>
52.3003

> <Gold.PLP.PLP>
-49.6366

> <Gold.PLP.part.hbond>
-3.9306

> <Gold.PLP.part.metal>
0.0000

> <Gold.PLP.part.buried>
-5.7601

> <Gold.PLP.part.nonpolar>
-40.7998

> <Gold.PLP.part.repulsive>
0.2492

> <Gold.PLP.ligand.clash>
0.1964

> <Gold.PLP.ligand.torsion>
2.9576

> <Gold.PLP.Chemscore.Hbond>
1.5360

> <Gold.PLP.Chemscore.CHOScore>
0.0000

> <Gold.PLP.Chemscore.Metal>
0.0000

> <Gold.Chemscore.Hbonds>
donor molecule, donor type, donor heavy atom, donor atom, acceptor molecule, acceptor atom, score
      L1  H    18    44       P1  7948  1.00
      P1  H  7997  8008       L1    17  0.61

> <Gold.PLP.Chemscore.Internal.Correction>
4.1672

> <Gold.Rescore>
     Score         DG    S(hbond)    S(metal)    S(lipo)     H(rot)  DE(clash)    DE(int)     intcor
     11.96     -16.41       1.19        0.00      96.18       1.67       0.01       4.44       ----

> <Gold.Chemscore.Fitness>
11.9591

> <Gold.Chemscore.DG>
-16.4086

> <Gold.Chemscore.ZeroCoef>
-5.4800

> <Gold.Chemscore.Hbond>
1.1860

> <Gold.Chemscore.Metal>
0.0000

> <Gold.Chemscore.Lipo>
96.1850

> <Gold.Chemscore.Internal_Hbond>
0.0000

> <Gold.Chemscore.DEClash>
0.0103

> <Gold.Chemscore.DEInternal>
4.4391

> <Gold.Chemscore.Rot>
1.6744

> <Gold.Chemscore.Internal.Correction>
   9.000000E+99

> <Gold.Chemscore.Hbonds>
donor molecule, donor type, donor heavy atom, donor atom, acceptor molecule, acceptor atom, score
      L1  H    18    44       P1  7948  0.28
      P1  H  7997  8008       L1    17  0.60

> <Gold.Chemscore.Hbond.Weighted>
-3.9614

> <Gold.Chemscore.Metal.Weighted>
-0.0000

> <Gold.Chemscore.Lipo.Weighted>
-11.2536

> <Gold.Chemscore.Internal_Hbond.Weighted>
0.0000

> <Gold.Chemscore.DEClash.Weighted>
0.0103

> <Gold.Chemscore.DEInternal.Weighted>
4.4391

> <Gold.Chemscore.Rot.Weighted>
4.2865

> <Gold.Chemscore.Internal.Correction.Weighted>
   9.000000E+99

> <Gold.Protein.RotatedTorsions>
[ 6907 6896 6895 6894 ] final  137.67 input  -60.11 | X-H torsion
[ 7974 7965 7964 7962 ] final   48.90 input  175.53 | X-H torsion
[ 8008 7997 7996 7995 ] final  -80.48 input   59.86 | X-H torsion
[ 10167 10162 10161 10158 ] final   43.54 input  -65.29 | X-H torsion
[ 10718 10713 10712 10709 ] final  179.80 input   66.30 | X-H torsion
[ 10763 10752 10751 10750 ] final   48.05 input  -60.55 | X-H torsion
[ 11005 11000 10999 10996 ] final   47.50 input  -57.11 | X-H torsion

> <Gold.Protein.ActiveResidues>
 VAL166  LYS551  ARG553  GLY616  TRP617  ASP618  TYR619  PRO620  LYS621  CYS622 
 ASP623  PHE694  ASN695  SER759  ASP760  ASP761  ALA762  ILE779  LEU786  VAL792 
 PHE793  MET794  SER795  GLU796  ALA797  LYS798  CYS799  TRP800  GLU811  SER814 

> <Gold.Protein.RotatedAtoms>
  152.2754  133.5420  159.5464 H   0  0  0  0  0  0  0  0  0  0  0  0  # atno 6907 bound_to 6896
  150.7175  134.0639  159.3850 H   0  0  0  0  0  0  0  0  0  0  0  0  # atno 6908 bound_to 6896
  151.8552  135.0544  160.0514 H   0  0  0  0  0  0  0  0  0  0  0  0  # atno 6909 bound_to 6896
  146.0160  139.4597  142.9926 H   0  0  0  0  0  0  0  0  0  0  0  0  # atno 7974 bound_to 7965
  154.5887  140.0662  156.9208 H   0  0  0  0  0  0  0  0  0  0  0  0  # atno 8008 bound_to 7997
  155.2333  140.3339  155.4282 H   0  0  0  0  0  0  0  0  0  0  0  0  # atno 8009 bound_to 7997
  156.2241  140.1811  156.7391 H   0  0  0  0  0  0  0  0  0  0  0  0  # atno 8010 bound_to 7997
  140.3433  144.2442  150.6153 H   0  0  0  0  0  0  0  0  0  0  0  0  # atno 10167 bound_to 10162
  156.8704  130.9782  151.3074 H   0  0  0  0  0  0  0  0  0  0  0  0  # atno 10718 bound_to 10713
  152.9795  135.5957  154.3862 H   0  0  0  0  0  0  0  0  0  0  0  0  # atno 10763 bound_to 10752
  154.3522  135.2767  155.2368 H   0  0  0  0  0  0  0  0  0  0  0  0  # atno 10764 bound_to 10752
  154.4402  135.6015  153.6179 H   0  0  0  0  0  0  0  0  0  0  0  0  # atno 10765 bound_to 10752
  140.1273  134.4751  155.8549 H   0  0  0  0  0  0  0  0  0  0  0  0  # atno 11005 bound_to 11000
  145.7268  141.0056  143.1373 LP  0  0  0  0  0  0  0  0  0  0  0  0  # atno 17320 bound_to 7965
  144.6971  139.8936  143.7454 LP  0  0  0  0  0  0  0  0  0  0  0  0  # atno 17321 bound_to 7965
  140.5288  143.2248  151.8272 LP  0  0  0  0  0  0  0  0  0  0  0  0  # atno 17342 bound_to 10162
  139.4837  144.4746  151.9383 LP  0  0  0  0  0  0  0  0  0  0  0  0  # atno 17343 bound_to 10162
  157.6199  130.8647  149.9090 LP  0  0  0  0  0  0  0  0  0  0  0  0  # atno 17370 bound_to 10713
  156.0729  130.3682  150.0738 LP  0  0  0  0  0  0  0  0  0  0  0  0  # atno 17371 bound_to 10713
  141.2163  133.6783  156.7003 LP  0  0  0  0  0  0  0  0  0  0  0  0  # atno 17394 bound_to 11000
  140.2887  134.8258  157.3997 LP  0  0  0  0  0  0  0  0  0  0  0  0  # atno 17395 bound_to 11000

$$$$
