#       Name:                AV-unprocessed.smi:2648
#       Creating user name   scv26
#       Creation time:       Fri Mar 27 14:29:54 2020


#       File generated by GOLD software.
#

@<TRIPOS>MOLECULE
AV-unprocessed.smi:2648
    39    40     1
SMALL
NO_CHARGES


@<TRIPOS>ATOM
      1 ****        -0.5399   1.3100   0.5262 O.2            1 S1                 0.0000
      2 ****        -1.0590   0.1961   0.5968 C.2            1 S1                 0.0000
      3 ****        -0.3541  -0.9437   0.6350 N.am           1 S1                 0.0000
      4 ****         1.1007  -1.0245   0.5982 C.3            1 S1                 0.0000
      5 ****         1.6349  -0.8955  -0.8399 C.3            1 S1                 0.0000
      6 ****         3.0983  -0.9480  -0.8692 N.am           1 S1                 0.0000
      7 ****         3.8924   0.1277  -0.7898 C.2            1 S1                 0.0000
      8 ****         3.5515   1.3063  -0.6957 O.2            1 S1                 0.0000
      9 ****         5.3321  -0.3363  -0.8250 C.3            1 S1                 0.0000
     10 ****         5.1162  -1.7640  -0.9211 N.am           1 S1                 0.0000
     11 ****         3.8157  -2.0837  -0.9421 C.2            1 S1                 0.0000
     12 ****         3.3686  -3.2277  -1.0103 O.2            1 S1                 0.0000
     13 ****        -2.3807  -0.0489   0.6249 N.am           1 S1                 0.0000
     14 ****        -3.4591   0.8772   0.5948 C.ar           1 S1                 0.0000
     15 ****        -4.7308   0.3894   0.2294 C.ar           1 S1                 0.0000
     16 ****        -5.8201   1.2828   0.2042 C.ar           1 S1                 0.0000
     17 ****        -5.7146   2.5900   0.5218 N.ar           1 S1                 0.0000
     18 ****        -4.4998   3.0526   0.8853 C.ar           1 S1                 0.0000
     19 ****        -3.3464   2.2450   0.9433 C.ar           1 S1                 0.0000
     20 ****        -0.8579  -1.8171   0.6865 H              1 S1                 0.0000
     21 ****         1.5327  -0.2550   1.2407 H              1 S1                 0.0000
     22 ****         1.3969  -1.9845   1.0223 H              1 S1                 0.0000
     23 ****         1.2212  -1.6894  -1.4638 H              1 S1                 0.0000
     24 ****         1.2918   0.0391  -1.2874 H              1 S1                 0.0000
     25 ****         5.8602   0.0511  -1.6969 H              1 S1                 0.0000
     26 ****         5.8637  -0.0693   0.0888 H              1 S1                 0.0000
     27 ****         5.8709  -2.4334  -0.9595 H              1 S1                 0.0000
     28 ****        -2.6493  -1.0218   0.6090 H              1 S1                 0.0000
     29 ****        -4.8738  -0.6485  -0.0337 H              1 S1                 0.0000
     30 ****        -6.8031   0.9363  -0.0781 H              1 S1                 0.0000
     31 ****        -4.4456   4.0998   1.1436 H              1 S1                 0.0000
     32 ****        -2.4147   2.6864   1.2609 H              1 S1                 0.0000
     33 ****         0.4559   1.3965   0.4944 LP             1 S1                 0.0000
     34 ****        -1.1139   2.1285   0.5007 LP             1 S1                 0.0000
     35 ****         2.5809   1.5457  -0.6713 LP             1 S1                 0.0000
     36 ****         4.2451   2.0248  -0.6436 LP             1 S1                 0.0000
     37 ****         2.3801  -3.3787  -1.0151 LP             1 S1                 0.0000
     38 ****         3.9937  -4.0066  -1.0609 LP             1 S1                 0.0000
     39 ****        -6.5096   3.1957   0.4890 LP             1 S1                 0.0000
@<TRIPOS>BOND
    1    1    2 2     
    2    2    3 am    
    3    2   13 am    
    4    3    4 1     
    5    3   20 1     
    6    4    5 1     
    7    4   21 1     
    8    4   22 1     
    9    5    6 1     
   10    5   23 1     
   11    5   24 1     
   12    6   11 am    
   13    6    7 am    
   14    7    8 2     
   15    7    9 1     
   16    9   10 1     
   17    9   25 1     
   18    9   26 1     
   19   10   11 am    
   20   10   27 1     
   21   11   12 2     
   22   13   14 1     
   23   13   28 1     
   24   14   19 ar    
   25   14   15 ar    
   26   15   16 ar    
   27   15   29 1     
   28   16   17 ar    
   29   16   30 1     
   30   17   18 ar    
   31   18   19 ar    
   32   18   31 1     
   33   19   32 1     
   34    1   33 1     
   35    1   34 1     
   36    8   35 1     
   37    8   36 1     
   38   12   37 1     
   39   12   38 1     
   40   17   39 1     
@<TRIPOS>SUBSTRUCTURE
      1 S1             1
@<TRIPOS>SET
LONE_PAIRS      STATIC     ATOMS    <user>   **** ""
7 33 34 35 36 37 38 39
DONOR_HYDROGENS      STATIC     ATOMS    <user>   **** ""
3 20 27 28
ATOM$BLUE        STATIC     ATOMS    COLORGROUP SYSTEM
7 33 34 35 36 37 38 39
ATOM$RED        STATIC     ATOMS    COLORGROUP SYSTEM
3 20 27 28
