AV-unprocessed.smi:295|AV-procd|sdf|2255|dock8
  -GOLD-   2262022143D 1   1.00000     0.00000
 Structure written by MMmdl.
 35 36  0  0  0  0  0  0  0  0  1 V2000
  148.2145  139.6487  153.9849 C   0  0  0  0  0  0  0  0  0  0  0  0
  149.5660  139.9961  154.6321 C   0  0  1  0  0  0  0  0  0  0  0  0
  149.3944  140.4454  156.0978 C   0  0  0  0  0  0  0  0  0  0  0  0
  150.7374  140.8522  156.7258 C   0  0  0  0  0  0  0  0  0  0  0  0
  151.7714  139.7213  156.6194 C   0  0  0  0  0  0  0  0  0  0  0  0
  151.9489  139.2640  155.1607 C   0  0  0  0  0  0  0  0  0  0  0  0
  150.6108  138.8574  154.5106 C   0  0  1  0  0  0  0  0  0  0  0  0
  150.1328  137.6126  155.1138 N   0  0  0  0  0  0  0  0  0  0  0  0
  150.8891  136.5713  155.4963 C   0  0  0  0  0  0  0  0  0  0  0  0
  152.1078  136.5167  155.3360 O   0  0  0  0  0  0  0  0  0  0  0  0
  150.1523  135.4069  156.1606 C   0  0  0  0  0  0  0  0  0  0  0  0
  149.2028  135.8831  157.1507 N   0  0  0  0  0  0  0  0  0  0  0  0
  148.0084  136.4658  156.9995 C   0  0  0  0  0  0  0  0  0  0  0  0
  147.4187  136.7924  158.1426 N   0  0  0  0  0  0  0  0  0  0  0  0
  148.3756  136.3481  159.0086 C   0  0  0  0  0  0  0  0  0  0  0  0
  148.2175  136.4789  160.4471 C   0  0  0  0  0  0  0  0  0  0  0  0
  148.0913  136.5833  161.5928 N   0  0  0  0  0  0  0  0  0  0  0  0
  149.4635  135.7939  158.4778 N   0  0  0  0  0  0  0  0  0  0  0  0
  147.7095  138.8392  154.5126 H   0  0  0  0  0  0  0  0  0  0  0  0
  148.3446  139.3406  152.9471 H   0  0  0  0  0  0  0  0  0  0  0  0
  147.5466  140.5103  153.9906 H   0  0  0  0  0  0  0  0  0  0  0  0
  149.9629  140.8494  154.0799 H   0  0  0  0  0  0  0  0  0  0  0  0
  148.7021  141.2864  156.1496 H   0  0  0  0  0  0  0  0  0  0  0  0
  148.9449  139.6429  156.6839 H   0  0  0  0  0  0  0  0  0  0  0  0
  151.1186  141.7429  156.2246 H   0  0  0  0  0  0  0  0  0  0  0  0
  150.5913  141.1255  157.7712 H   0  0  0  0  0  0  0  0  0  0  0  0
  152.7284  140.0557  157.0211 H   0  0  0  0  0  0  0  0  0  0  0  0
  151.4580  138.8787  157.2368 H   0  0  0  0  0  0  0  0  0  0  0  0
  152.3938  140.0767  154.5851 H   0  0  0  0  0  0  0  0  0  0  0  0
  152.6585  138.4370  155.1130 H   0  0  0  0  0  0  0  0  0  0  0  0
  150.8069  138.6898  153.4501 H   0  0  0  0  0  0  0  0  0  0  0  0
  149.1388  137.5524  155.2789 H   0  0  0  0  0  0  0  0  0  0  0  0
  149.6176  134.8294  155.4056 H   0  0  0  0  0  0  0  0  0  0  0  0
  150.8635  134.7322  156.6397 H   0  0  0  0  0  0  0  0  0  0  0  0
  147.5659  136.6615  156.0336 H   0  0  0  0  0  0  0  0  0  0  0  0
  1  2  1  0  0  0  0
  1 19  1  0  0  0  0
  1 20  1  0  0  0  0
  1 21  1  0  0  0  0
  2  7  1  0  0  0  0
  2  3  1  0  0  0  0
  2 22  1  0  0  0  0
  3  4  1  0  0  0  0
  3 23  1  0  0  0  0
  3 24  1  0  0  0  0
  4  5  1  0  0  0  0
  4 25  1  0  0  0  0
  4 26  1  0  0  0  0
  5  6  1  0  0  0  0
  5 27  1  0  0  0  0
  5 28  1  0  0  0  0
  6  7  1  0  0  0  0
  6 29  1  0  0  0  0
  6 30  1  0  0  0  0
  7  8  1  0  0  0  0
  7 31  1  0  0  0  0
  8  9  1  0  0  0  0
  8 32  1  0  0  0  0
  9 10  2  0  0  0  0
  9 11  1  0  0  0  0
 11 12  1  0  0  0  0
 11 33  1  0  0  0  0
 11 34  1  0  0  0  0
 12 18  1  0  0  0  0
 12 13  1  0  0  0  0
 13 14  2  0  0  0  0
 13 35  1  0  0  0  0
 14 15  1  0  0  0  0
 15 16  1  0  0  0  0
 15 18  2  0  0  0  0
 16 17  3  0  0  0  0
M  END
> <s_m_source_file>
AV-unprocessed.smi

> <i_m_source_file_index>
295

> <i_lp_mmshare_version>
43012

> <i_f3d_flags>
0

> <s_epik_input>
W0NIM11bQ0BASF0xW0NIMl1bQ0gyXVtDSDJdW0NIMl1bQ0BIXTFbTkhdQyg9TylbQ0gyXW4yW2NIXW5jKG4yKUMjTg==

> <s_epik_cmdline>
J2VwaWtfcHl0aG9uJywgJy1waCcsICc3LjAnLCAnLXRuJywgJzgnLCAnLW1hJywgJzIwMCcsICctbWV0YWxfYmluZGluZycsICctaW1hZScsICc8aW5maWxlLm1hZT4nLCAnLW9tYWUnLCAnPG91dGZpbGUubWFlPic=

> <r_lp_tautomer_probability>
1

> <r_epik_Ionization_Penalty>
5.31112e-08

> <r_epik_Ionization_Penalty_Charging>
0

> <r_epik_Ionization_Penalty_Neutral>
5.31112e-08

> <r_epik_State_Penalty>
-0

> <r_epik_Charging_Adjusted_Penalty>
0

> <i_epik_Tot_Q>
0

> <i_epik_Tot_abs_Q>
0

> <r_epik_Metal_State_Penalty>
-0

> <b_epik_Metal_Only>
0

> <s_lp_Force_Field>
OPLS_2005

> <r_lp_Energy>
13.099

> <b_lp_Chiralities_Consistent>
1

> <s_lp_Variant>
AV-unprocessed.smi:295-2

> <Gold.Version>
5.8.1

> <Gold.Id.Protein>
6NUR|6NUR_protein|mol2

> <Gold.PLP.Fitness>
32.7361

> <Gold.PLP.PLP>
-25.0919

> <Gold.PLP.part.hbond>
-2.7332

> <Gold.PLP.part.metal>
0.0000

> <Gold.PLP.part.buried>
-2.5512

> <Gold.PLP.part.nonpolar>
-20.4558

> <Gold.PLP.part.repulsive>
0.0760

> <Gold.PLP.ligand.clash>
0.0000

> <Gold.PLP.ligand.torsion>
0.6694

> <Gold.PLP.Chemscore.Hbond>
2.9913

> <Gold.PLP.Chemscore.CHOScore>
0.0000

> <Gold.PLP.Chemscore.Metal>
0.0000

> <Gold.Chemscore.Hbonds>
donor molecule, donor type, donor heavy atom, donor atom, acceptor molecule, acceptor atom, score
      P1  H  6896  6908       L1    18  1.00
      P1  H  6931  6943       L1    17  1.00
      P1  H 10752 10763       L1    10  0.73

> <Gold.PLP.Chemscore.Internal.Correction>
0.0091

> <Gold.Rescore>
     Score         DG    S(hbond)    S(metal)    S(lipo)     H(rot)  DE(clash)    DE(int)     intcor
     11.69     -13.90       2.28        0.00      49.52       1.95       0.04       2.16       ----

> <Gold.Chemscore.Fitness>
11.6920

> <Gold.Chemscore.DG>
-13.8965

> <Gold.Chemscore.ZeroCoef>
-5.4800

> <Gold.Chemscore.Hbond>
2.2777

> <Gold.Chemscore.Metal>
0.0000

> <Gold.Chemscore.Lipo>
49.5232

> <Gold.Chemscore.Internal_Hbond>
0.0000

> <Gold.Chemscore.DEClash>
0.0429

> <Gold.Chemscore.DEInternal>
2.1615

> <Gold.Chemscore.Rot>
1.9474

> <Gold.Chemscore.Internal.Correction>
   9.000000E+99

> <Gold.Chemscore.Hbonds>
donor molecule, donor type, donor heavy atom, donor atom, acceptor molecule, acceptor atom, score
      P1  H  6896  6908       L1    18  0.92
      P1  H  6931  6943       L1    17  0.30
      P1  H 10752 10763       L1    10  0.72

> <Gold.Chemscore.Hbond.Weighted>
-7.6075

> <Gold.Chemscore.Metal.Weighted>
-0.0000

> <Gold.Chemscore.Lipo.Weighted>
-5.7942

> <Gold.Chemscore.Internal_Hbond.Weighted>
0.0000

> <Gold.Chemscore.DEClash.Weighted>
0.0429

> <Gold.Chemscore.DEInternal.Weighted>
2.1615

> <Gold.Chemscore.Rot.Weighted>
4.9852

> <Gold.Chemscore.Internal.Correction.Weighted>
   9.000000E+99

> <Gold.Protein.RotatedTorsions>
[ 6907 6896 6895 6894 ] final  167.36 input  -60.11 | X-H torsion
[ 7974 7965 7964 7962 ] final   61.25 input  175.53 | X-H torsion
[ 8008 7997 7996 7995 ] final  107.05 input   59.86 | X-H torsion
[ 10167 10162 10161 10158 ] final  152.32 input  -65.29 | X-H torsion
[ 10718 10713 10712 10709 ] final  117.33 input   66.30 | X-H torsion
[ 10763 10752 10751 10750 ] final   75.84 input  -60.55 | X-H torsion
[ 11005 11000 10999 10996 ] final  -76.63 input  -57.11 | X-H torsion

> <Gold.Protein.ActiveResidues>
 VAL166  LYS551  ARG553  GLY616  TRP617  ASP618  TYR619  PRO620  LYS621  CYS622 
 ASP623  PHE694  ASN695  SER759  ASP760  ASP761  ALA762  ILE779  LEU786  VAL792 
 PHE793  MET794  SER795  GLU796  ALA797  LYS798  CYS799  TRP800  GLU811  SER814 

> <Gold.Protein.RotatedAtoms>
  151.8646  133.3463  159.3714 H   0  0  0  0  0  0  0  0  0  0  0  0  # atno 6907 bound_to 6896
  150.7169  134.5173  159.5646 H   0  0  0  0  0  0  0  0  0  0  0  0  # atno 6908 bound_to 6896
  152.2693  134.7950  160.0468 H   0  0  0  0  0  0  0  0  0  0  0  0  # atno 6909 bound_to 6896
  145.8868  139.3482  143.0673 H   0  0  0  0  0  0  0  0  0  0  0  0  # atno 7974 bound_to 7965
  156.1793  140.3102  155.9118 H   0  0  0  0  0  0  0  0  0  0  0  0  # atno 8008 bound_to 7997
  155.3419  140.0466  157.3062 H   0  0  0  0  0  0  0  0  0  0  0  0  # atno 8009 bound_to 7997
  154.5325  140.2235  155.8790 H   0  0  0  0  0  0  0  0  0  0  0  0  # atno 8010 bound_to 7997
  139.4834  144.5368  151.7632 H   0  0  0  0  0  0  0  0  0  0  0  0  # atno 10167 bound_to 10162
  157.6104  131.1036  150.7599 H   0  0  0  0  0  0  0  0  0  0  0  0  # atno 10718 bound_to 10713
  153.0683  135.4973  154.8249 H   0  0  0  0  0  0  0  0  0  0  0  0  # atno 10763 bound_to 10752
  154.6986  135.2997  154.9377 H   0  0  0  0  0  0  0  0  0  0  0  0  # atno 10764 bound_to 10752
  154.0108  135.6754  153.4818 H   0  0  0  0  0  0  0  0  0  0  0  0  # atno 10765 bound_to 10752
  141.1655  133.6991  156.7697 H   0  0  0  0  0  0  0  0  0  0  0  0  # atno 11005 bound_to 11000
  145.8957  140.9275  143.0529 LP  0  0  0  0  0  0  0  0  0  0  0  0  # atno 17320 bound_to 7965
  144.6729  140.0965  143.7462 LP  0  0  0  0  0  0  0  0  0  0  0  0  # atno 17321 bound_to 7965
  140.4901  144.1322  150.5948 LP  0  0  0  0  0  0  0  0  0  0  0  0  # atno 17342 bound_to 10162
  140.4180  143.2625  151.9750 LP  0  0  0  0  0  0  0  0  0  0  0  0  # atno 17343 bound_to 10162
  156.7978  130.4911  149.5374 LP  0  0  0  0  0  0  0  0  0  0  0  0  # atno 17370 bound_to 10713
  156.1204  130.6106  151.0185 LP  0  0  0  0  0  0  0  0  0  0  0  0  # atno 17371 bound_to 10713
  140.2473  134.8568  157.3632 LP  0  0  0  0  0  0  0  0  0  0  0  0  # atno 17394 bound_to 11000
  140.1737  134.4576  155.7815 LP  0  0  0  0  0  0  0  0  0  0  0  0  # atno 17395 bound_to 11000

$$$$
