AV-unprocessed.smi:2339|AV-procd|sdf|9336|dock1
  -GOLD-   2272012553D 1   1.00000     0.00000
 Structure written by MMmdl.
 49 52  0  0  0  0  0  0  0  0  1 V2000
  144.0579  135.5163  162.1054 C   0  0  0  0  0  0  0  0  0  0  0  0
  145.3204  134.8010  162.5989 C   0  0  0  0  0  0  0  0  0  0  0  0
  146.3409  134.7310  161.5630 N   0  0  0  0  0  0  0  0  0  0  0  0
  146.8059  133.5095  161.0875 C   0  0  0  0  0  0  0  0  0  0  0  0
  147.7877  133.3796  160.1748 C   0  0  0  0  0  0  0  0  0  0  0  0
  148.4342  134.5904  159.6300 C   0  0  0  0  0  0  0  0  0  0  0  0
  149.3323  134.5071  158.7927 O   0  0  0  0  0  0  0  0  0  0  0  0
  147.9437  135.8964  160.1448 C   0  0  0  0  0  0  0  0  0  0  0  0
  148.5534  137.0432  159.6111 N   0  0  0  0  0  0  0  0  0  0  0  0
  148.9740  137.2851  158.3526 C   0  0  0  0  0  0  0  0  0  0  0  0
  148.8366  136.5239  157.3975 O   0  0  0  0  0  0  0  0  0  0  0  0
  149.5898  138.4716  158.2056 N   0  0  0  0  0  0  0  0  0  0  0  0
  150.1603  139.0367  156.9814 C   0  0  2  0  0  0  0  0  0  0  0  0
  151.4064  138.2687  156.5176 C   0  0  1  0  0  0  0  0  0  0  0  0
  151.3603  137.4717  155.2425 C   0  0  0  0  0  0  0  0  0  0  0  0
  151.9014  138.4590  154.2038 C   0  0  0  0  0  0  0  0  0  0  0  0
  151.7097  139.7436  154.7926 O   0  0  0  0  0  0  0  0  0  0  0  0
  152.0037  139.6246  156.1829 C   0  0  1  0  0  0  0  0  0  0  0  0
  151.0274  140.3157  157.1618 C   0  0  0  0  0  0  0  0  0  0  0  0
  151.6182  140.6469  158.5505 C   0  0  0  0  0  0  0  0  0  0  0  0
  151.6301  142.1663  158.7010 C   0  0  0  0  0  0  0  0  0  0  0  0
  150.4404  142.6204  157.8693 C   0  0  0  0  0  0  0  0  0  0  0  0
  150.4286  141.6494  156.6908 C   0  0  0  0  0  0  0  0  0  0  0  0
  146.9426  135.8836  161.0617 C   0  0  0  0  0  0  0  0  0  0  0  0
  143.3036  135.5560  162.8912 H   0  0  0  0  0  0  0  0  0  0  0  0
  143.6214  134.9997  161.2502 H   0  0  0  0  0  0  0  0  0  0  0  0
  144.2786  136.5405  161.8035 H   0  0  0  0  0  0  0  0  0  0  0  0
  145.7227  135.3179  163.4709 H   0  0  0  0  0  0  0  0  0  0  0  0
  145.0685  133.7930  162.9305 H   0  0  0  0  0  0  0  0  0  0  0  0
  146.3068  132.6484  161.5080 H   0  0  0  0  0  0  0  0  0  0  0  0
  148.1148  132.4089  159.8319 H   0  0  0  0  0  0  0  0  0  0  0  0
  148.7003  137.7869  160.2782 H   0  0  0  0  0  0  0  0  0  0  0  0
  149.6875  139.0355  159.0373 H   0  0  0  0  0  0  0  0  0  0  0  0
  149.4353  139.1407  156.1706 H   0  0  0  0  0  0  0  0  0  0  0  0
  151.9379  137.7885  157.3412 H   0  0  0  0  0  0  0  0  0  0  0  0
  151.9678  136.5678  155.2903 H   0  0  0  0  0  0  0  0  0  0  0  0
  150.3379  137.1769  155.0038 H   0  0  0  0  0  0  0  0  0  0  0  0
  152.9684  138.2987  154.0427 H   0  0  0  0  0  0  0  0  0  0  0  0
  151.3948  138.3789  153.2421 H   0  0  0  0  0  0  0  0  0  0  0  0
  153.0667  139.7143  156.4111 H   0  0  0  0  0  0  0  0  0  0  0  0
  151.0121  140.2376  159.3569 H   0  0  0  0  0  0  0  0  0  0  0  0
  152.6194  140.2369  158.6863 H   0  0  0  0  0  0  0  0  0  0  0  0
  151.5682  142.4893  159.7406 H   0  0  0  0  0  0  0  0  0  0  0  0
  152.5500  142.5716  158.2774 H   0  0  0  0  0  0  0  0  0  0  0  0
  149.5230  142.5072  158.4485 H   0  0  0  0  0  0  0  0  0  0  0  0
  150.5136  143.6626  157.5579 H   0  0  0  0  0  0  0  0  0  0  0  0
  151.0350  142.0681  155.8869 H   0  0  0  0  0  0  0  0  0  0  0  0
  149.4229  141.5340  156.2882 H   0  0  0  0  0  0  0  0  0  0  0  0
  146.5092  136.7816  161.4719 H   0  0  0  0  0  0  0  0  0  0  0  0
  1  2  1  0  0  0  0
  1 25  1  0  0  0  0
  1 26  1  0  0  0  0
  1 27  1  0  0  0  0
  2  3  1  0  0  0  0
  2 28  1  0  0  0  0
  2 29  1  0  0  0  0
  3 24  1  0  0  0  0
  3  4  1  0  0  0  0
  4  5  2  0  0  0  0
  4 30  1  0  0  0  0
  5  6  1  0  0  0  0
  5 31  1  0  0  0  0
  6  7  2  0  0  0  0
  6  8  1  0  0  0  0
  8  9  1  0  0  0  0
  8 24  2  0  0  0  0
  9 10  1  0  0  0  0
  9 32  1  0  0  0  0
 10 11  2  0  0  0  0
 10 12  1  0  0  0  0
 12 13  1  0  0  0  0
 12 33  1  0  0  0  0
 13 19  1  0  0  0  0
 13 14  1  0  0  0  0
 13 34  1  0  0  0  0
 14 18  1  0  0  0  0
 14 15  1  0  0  0  0
 14 35  1  0  0  0  0
 15 16  1  0  0  0  0
 15 36  1  0  0  0  0
 15 37  1  0  0  0  0
 16 17  1  0  0  0  0
 16 38  1  0  0  0  0
 16 39  1  0  0  0  0
 17 18  1  0  0  0  0
 18 19  1  0  0  0  0
 18 40  1  0  0  0  0
 19 23  1  0  0  0  0
 19 20  1  0  0  0  0
 20 21  1  0  0  0  0
 20 41  1  0  0  0  0
 20 42  1  0  0  0  0
 21 22  1  0  0  0  0
 21 43  1  0  0  0  0
 21 44  1  0  0  0  0
 22 23  1  0  0  0  0
 22 45  1  0  0  0  0
 22 46  1  0  0  0  0
 23 47  1  0  0  0  0
 23 48  1  0  0  0  0
 24 49  1  0  0  0  0
M  END
> <s_m_source_file>
AV-unprocessed.smi

> <i_m_source_file_index>
2339

> <i_lp_mmshare_version>
43012

> <i_f3d_flags>
0

> <s_epik_input>
W0NIM11bQ0gyXW4xW2NIXVtjSF1jKD1PKWMoW2NIXTEpW05IXUMoPU8pW05IXVtDQEBIXTJbQ0BASF0oW0NIMl1bQ0gyXU8zKVtDQEBIXTNDMjRbQ0gyXVtDSDJdW0NIMl1bQ0gyXTQ=

> <s_epik_cmdline>
J2VwaWtfcHl0aG9uJywgJy1waCcsICc3LjAnLCAnLXRuJywgJzgnLCAnLW1hJywgJzIwMCcsICctbWV0YWxfYmluZGluZycsICctaW1hZScsICc8aW5maWxlLm1hZT4nLCAnLW9tYWUnLCAnPG91dGZpbGUubWFlPic=

> <r_lp_tautomer_probability>
1

> <r_epik_Ionization_Penalty>
0.00145966

> <r_epik_Ionization_Penalty_Charging>
0.00143969

> <r_epik_Ionization_Penalty_Neutral>
1.99697e-05

> <r_epik_State_Penalty>
0.000961843

> <r_epik_Charging_Adjusted_Penalty>
0.00240153

> <i_epik_Tot_Q>
0

> <i_epik_Tot_abs_Q>
0

> <r_epik_Metal_State_Penalty>
-0

> <b_epik_Metal_Only>
0

> <s_lp_Force_Field>
OPLS_2005

> <r_lp_Energy>
57.0786

> <b_lp_Chiralities_Consistent>
1

> <s_lp_Variant>
AV-unprocessed.smi:2339-1

> <Gold.Version>
5.8.1

> <Gold.Id.Protein>
6NUR|6NUR_protein|mol2

> <Gold.PLP.Fitness>
41.4493

> <Gold.PLP.PLP>
-36.0333

> <Gold.PLP.part.hbond>
-2.0000

> <Gold.PLP.part.metal>
0.0000

> <Gold.PLP.part.buried>
-6.0742

> <Gold.PLP.part.nonpolar>
-28.1773

> <Gold.PLP.part.repulsive>
0.4236

> <Gold.PLP.ligand.clash>
0.0000

> <Gold.PLP.ligand.torsion>
0.3821

> <Gold.PLP.Chemscore.Hbond>
2.0000

> <Gold.PLP.Chemscore.CHOScore>
0.0000

> <Gold.PLP.Chemscore.Metal>
0.0000

> <Gold.Chemscore.Hbonds>
donor molecule, donor type, donor heavy atom, donor atom, acceptor molecule, acceptor atom, score
      P1  H  6896  6907       L1     7  0.90
      P1  H  7989  7998       L1    17  1.00

> <Gold.PLP.Chemscore.Internal.Correction>
0.1803

> <Gold.Rescore>
     Score         DG    S(hbond)    S(metal)    S(lipo)     H(rot)  DE(clash)    DE(int)     intcor
     16.86     -19.98       1.97        0.00      93.33       1.17       0.05       3.07       ----

> <Gold.Chemscore.Fitness>
16.8557

> <Gold.Chemscore.DG>
-19.9771

> <Gold.Chemscore.ZeroCoef>
-5.4800

> <Gold.Chemscore.Hbond>
1.9657

> <Gold.Chemscore.Metal>
0.0000

> <Gold.Chemscore.Lipo>
93.3265

> <Gold.Chemscore.Internal_Hbond>
0.0000

> <Gold.Chemscore.DEClash>
0.0465

> <Gold.Chemscore.DEInternal>
3.0749

> <Gold.Chemscore.Rot>
1.1670

> <Gold.Chemscore.Internal.Correction>
   9.000000E+99

> <Gold.Chemscore.Hbonds>
donor molecule, donor type, donor heavy atom, donor atom, acceptor molecule, acceptor atom, score
      P1  H  6896  6907       L1     7  0.79
      P1  H  7989  7998       L1    17  0.54

> <Gold.Chemscore.Hbond.Weighted>
-6.5653

> <Gold.Chemscore.Metal.Weighted>
-0.0000

> <Gold.Chemscore.Lipo.Weighted>
-10.9192

> <Gold.Chemscore.Internal_Hbond.Weighted>
0.0000

> <Gold.Chemscore.DEClash.Weighted>
0.0465

> <Gold.Chemscore.DEInternal.Weighted>
3.0749

> <Gold.Chemscore.Rot.Weighted>
2.9874

> <Gold.Chemscore.Internal.Correction.Weighted>
   9.000000E+99

> <Gold.Protein.RotatedTorsions>
[ 6907 6896 6895 6894 ] final -111.02 input  -60.11 | X-H torsion
[ 7974 7965 7964 7962 ] final   90.16 input  175.53 | X-H torsion
[ 8008 7997 7996 7995 ] final   -2.50 input   59.86 | X-H torsion
[ 10167 10162 10161 10158 ] final   78.64 input  -65.29 | X-H torsion
[ 10718 10713 10712 10709 ] final   57.34 input   66.30 | X-H torsion
[ 10763 10752 10751 10750 ] final -117.68 input  -60.55 | X-H torsion
[ 11005 11000 10999 10996 ] final  -27.12 input  -57.11 | X-H torsion

> <Gold.Protein.ActiveResidues>
 VAL166  LYS551  ARG553  GLY616  TRP617  ASP618  TYR619  PRO620  LYS621  CYS622 
 ASP623  PHE694  ASN695  SER759  ASP760  ASP761  ALA762  ILE779  LEU786  VAL792 
 PHE793  MET794  SER795  GLU796  ALA797  LYS798  CYS799  TRP800  GLU811  SER814 

> <Gold.Protein.RotatedAtoms>
  150.7662  133.9297  159.3422 H   0  0  0  0  0  0  0  0  0  0  0  0  # atno 6907 bound_to 6896
  151.7194  135.0895  160.0291 H   0  0  0  0  0  0  0  0  0  0  0  0  # atno 6908 bound_to 6896
  152.3659  133.6319  159.6086 H   0  0  0  0  0  0  0  0  0  0  0  0  # atno 6909 bound_to 6896
  145.5227  139.2280  143.2662 H   0  0  0  0  0  0  0  0  0  0  0  0  # atno 7974 bound_to 7965
  154.6351  140.2533  155.7388 H   0  0  0  0  0  0  0  0  0  0  0  0  # atno 8008 bound_to 7997
  156.2500  140.2899  156.0640 H   0  0  0  0  0  0  0  0  0  0  0  0  # atno 8009 bound_to 7997
  155.1684  140.0386  157.2848 H   0  0  0  0  0  0  0  0  0  0  0  0  # atno 8010 bound_to 7997
  139.9688  144.5909  150.8004 H   0  0  0  0  0  0  0  0  0  0  0  0  # atno 10167 bound_to 10162
  157.5506  130.8763  149.8958 H   0  0  0  0  0  0  0  0  0  0  0  0  # atno 10718 bound_to 10713
  154.8563  135.4301  154.2019 H   0  0  0  0  0  0  0  0  0  0  0  0  # atno 10763 bound_to 10752
  153.3063  135.6972  153.7162 H   0  0  0  0  0  0  0  0  0  0  0  0  # atno 10764 bound_to 10752
  153.6272  135.3491  155.3004 H   0  0  0  0  0  0  0  0  0  0  0  0  # atno 10765 bound_to 10752
  140.9091  133.7473  156.0646 H   0  0  0  0  0  0  0  0  0  0  0  0  # atno 11005 bound_to 11000
  146.2095  140.6040  142.9066 LP  0  0  0  0  0  0  0  0  0  0  0  0  # atno 17320 bound_to 7965
  144.7667  140.5546  143.6698 LP  0  0  0  0  0  0  0  0  0  0  0  0  # atno 17321 bound_to 7965
  140.7529  143.2998  151.3109 LP  0  0  0  0  0  0  0  0  0  0  0  0  # atno 17342 bound_to 10162
  139.6497  144.0385  152.2617 LP  0  0  0  0  0  0  0  0  0  0  0  0  # atno 17343 bound_to 10162
  156.0573  130.3706  150.1061 LP  0  0  0  0  0  0  0  0  0  0  0  0  # atno 17370 bound_to 10713
  156.9234  130.9690  151.3545 LP  0  0  0  0  0  0  0  0  0  0  0  0  # atno 17371 bound_to 10713
  140.8133  134.3374  157.5405 LP  0  0  0  0  0  0  0  0  0  0  0  0  # atno 17394 bound_to 11000
  139.8754  134.9267  156.3406 LP  0  0  0  0  0  0  0  0  0  0  0  0  # atno 17395 bound_to 11000

$$$$
