AV-unprocessed.smi:1999|AV-procd|sdf|8097|dock3
  -GOLD-   2272010313D 1   1.00000     0.00000
 Structure written by MMmdl.
 37 38  0  0  0  0  0  0  0  0  2 V2000
  145.9445  135.0555  162.4338 C   0  0  0  0  0  0  0  0  0  0  0  0
  147.0179  135.6413  161.5821 C   0  0  0  0  0  0  0  0  0  0  0  0
  147.4019  136.9165  161.6784 N   0  0  0  0  0  0  0  0  0  0  0  0
  148.4125  137.2271  160.7800 N   0  0  0  0  0  0  0  0  0  0  0  0
  148.7724  136.1880  160.0131 C   0  0  0  0  0  0  0  0  0  0  0  0
  149.7362  136.2798  159.0820 N   0  5  0  0  0  0  0  0  0  0  0  0
  150.5256  137.3770  159.0324 C   0  0  0  0  0  0  0  0  0  0  0  0
  150.9860  137.9891  159.9990 O   0  0  0  0  0  0  0  0  0  0  0  0
  150.7977  137.7900  157.7861 N   0  0  0  0  0  0  0  0  0  0  0  0
  151.6048  138.9520  157.4171 C   0  0  1  0  0  0  0  0  0  0  0  0
  151.7302  139.0421  155.8882 C   0  0  0  0  0  0  0  0  0  0  0  0
  150.9778  140.2347  158.0014 C   0  0  0  0  0  0  0  0  0  0  0  0
  151.9179  141.3039  158.3447 N   0  0  0  0  0  0  0  0  0  0  0  0
  151.2968  142.6265  158.3476 C   0  0  0  0  0  0  0  0  0  0  0  0
  152.2979  143.7291  158.7351 C   0  0  0  0  0  0  0  0  0  0  0  0
  152.8746  143.4316  160.0026 O   0  0  0  0  0  0  0  0  0  0  0  0
  153.5332  142.1695  160.0215 C   0  0  0  0  0  0  0  0  0  0  0  0
  152.5333  141.0629  159.6449 C   0  0  0  0  0  0  0  0  0  0  0  0
  147.8776  134.7102  160.3673 S   0  0  0  0  0  0  0  0  0  0  0  0
  144.9678  135.2649  161.9974 H   0  0  0  0  0  0  0  0  0  0  0  0
  145.9808  135.4818  163.4367 H   0  0  0  0  0  0  0  0  0  0  0  0
  146.0706  133.9754  162.5102 H   0  0  0  0  0  0  0  0  0  0  0  0
  150.3946  137.2603  157.0273 H   0  0  0  0  0  0  0  0  0  0  0  0
  152.6107  138.8386  157.8226 H   0  0  0  0  0  0  0  0  0  0  0  0
  152.3357  139.9001  155.5955 H   0  0  0  0  0  0  0  0  0  0  0  0
  150.7532  139.1457  155.4149 H   0  0  0  0  0  0  0  0  0  0  0  0
  152.2056  138.1506  155.4778 H   0  0  0  0  0  0  0  0  0  0  0  0
  150.2311  140.6184  157.3047 H   0  0  0  0  0  0  0  0  0  0  0  0
  150.4268  139.9543  158.9004 H   0  0  0  0  0  0  0  0  0  0  0  0
  150.8944  142.8581  157.3620 H   0  0  0  0  0  0  0  0  0  0  0  0
  150.4559  142.6402  159.0424 H   0  0  0  0  0  0  0  0  0  0  0  0
  153.0832  143.8175  157.9827 H   0  0  0  0  0  0  0  0  0  0  0  0
  151.7958  144.6950  158.7895 H   0  0  0  0  0  0  0  0  0  0  0  0
  154.3773  142.1798  159.3300 H   0  0  0  0  0  0  0  0  0  0  0  0
  153.9373  141.9927  161.0182 H   0  0  0  0  0  0  0  0  0  0  0  0
  151.7615  140.9989  160.4137 H   0  0  0  0  0  0  0  0  0  0  0  0
  153.0478  140.1014  159.6384 H   0  0  0  0  0  0  0  0  0  0  0  0
  1  2  1  0  0  0  0
  1 20  1  0  0  0  0
  1 21  1  0  0  0  0
  1 22  1  0  0  0  0
  2 19  1  0  0  0  0
  2  3  2  0  0  0  0
  3  4  1  0  0  0  0
  4  5  2  0  0  0  0
  5  6  1  0  0  0  0
  5 19  1  0  0  0  0
  6  7  1  0  0  0  0
  7  8  2  0  0  0  0
  7  9  1  0  0  0  0
  9 10  1  0  0  0  0
  9 23  1  0  0  0  0
 10 11  1  0  0  0  0
 10 12  1  0  0  0  0
 10 24  1  0  0  0  0
 11 25  1  0  0  0  0
 11 26  1  0  0  0  0
 11 27  1  0  0  0  0
 12 13  1  0  0  0  0
 12 28  1  0  0  0  0
 12 29  1  0  0  0  0
 13 18  1  0  0  0  0
 13 14  1  0  0  0  0
 14 15  1  0  0  0  0
 14 30  1  0  0  0  0
 14 31  1  0  0  0  0
 15 16  1  0  0  0  0
 15 32  1  0  0  0  0
 15 33  1  0  0  0  0
 16 17  1  0  0  0  0
 17 18  1  0  0  0  0
 17 34  1  0  0  0  0
 17 35  1  0  0  0  0
 18 36  1  0  0  0  0
 18 37  1  0  0  0  0
M  CHG  1   6  -1
M  END
> <s_m_source_file>
AV-unprocessed.smi

> <i_m_source_file_index>
1999

> <i_lp_mmshare_version>
43012

> <i_f3d_flags>
0

> <s_epik_input>
W0NIM11jMW5uYyhzMSlbTkhdQyg9TylbTkhdW0NASF0oW0NIM10pW0NIMl1OMltDSDJdW0NIMl1PW0NIMl1bQ0gyXTI=

> <s_epik_cmdline>
J2VwaWtfcHl0aG9uJywgJy1waCcsICc3LjAnLCAnLXRuJywgJzgnLCAnLW1hJywgJzIwMCcsICctbWV0YWxfYmluZGluZycsICctaW1hZScsICc8aW5maWxlLm1hZT4nLCAnLW9tYWUnLCAnPG91dGZpbGUubWFlPic=

> <r_lp_tautomer_probability>
1

> <r_epik_Ionization_Penalty>
3.74165

> <r_epik_Ionization_Penalty_Charging>
3.28066

> <r_epik_Ionization_Penalty_Neutral>
0.460988

> <r_epik_State_Penalty>
3.48767

> <r_epik_Charging_Adjusted_Penalty>
6.76834

> <i_epik_Tot_Q>
-1

> <i_epik_Tot_abs_Q>
1

> <r_epik_Metal_State_Penalty>
0.700129

> <b_epik_Metal_Only>
1

> <s_lp_Force_Field>
OPLS_2005

> <r_lp_Energy>
23.1918

> <b_lp_Chiralities_Consistent>
1

> <s_lp_Variant>
AV-unprocessed.smi:1999-6

> <Gold.Version>
5.8.1

> <Gold.Id.Protein>
6NUR|6NUR_protein|mol2

> <Gold.PLP.Fitness>
36.8776

> <Gold.PLP.PLP>
-31.8781

> <Gold.PLP.part.hbond>
-5.7538

> <Gold.PLP.part.metal>
0.0000

> <Gold.PLP.part.buried>
-2.4063

> <Gold.PLP.part.nonpolar>
-25.4122

> <Gold.PLP.part.repulsive>
0.0478

> <Gold.PLP.ligand.clash>
0.0000

> <Gold.PLP.ligand.torsion>
0.9457

> <Gold.PLP.Chemscore.Hbond>
2.2352

> <Gold.PLP.Chemscore.CHOScore>
0.0000

> <Gold.PLP.Chemscore.Metal>
0.0000

> <Gold.Chemscore.Hbonds>
donor molecule, donor type, donor heavy atom, donor atom, acceptor molecule, acceptor atom, score
      P1  H  6896  6907       L1     6  1.70
      P1  H  6931  6943       L1     4  0.38

> <Gold.PLP.Chemscore.Internal.Correction>
0.1853

> <Gold.Rescore>
     Score         DG    S(hbond)    S(metal)    S(lipo)     H(rot)  DE(clash)    DE(int)     intcor
      8.67     -11.19       0.00        0.00      82.80       1.56       0.08       2.44       ----

> <Gold.Chemscore.Fitness>
8.6688

> <Gold.Chemscore.DG>
-11.1866

> <Gold.Chemscore.ZeroCoef>
-5.4800

> <Gold.Chemscore.Hbond>
0.0005

> <Gold.Chemscore.Metal>
0.0000

> <Gold.Chemscore.Lipo>
82.7959

> <Gold.Chemscore.Internal_Hbond>
0.0000

> <Gold.Chemscore.DEClash>
0.0811

> <Gold.Chemscore.DEInternal>
2.4368

> <Gold.Chemscore.Rot>
1.5556

> <Gold.Chemscore.Internal.Correction>
   9.000000E+99

> <Gold.Chemscore.Hbonds>
donor molecule, donor type, donor heavy atom, donor atom, acceptor molecule, acceptor atom, score
      P1  H  6896  6907       L1     6  0.04
      P1  H  6931  6943       L1     4  0.01

> <Gold.Chemscore.Hbond.Weighted>
-0.0018

> <Gold.Chemscore.Metal.Weighted>
-0.0000

> <Gold.Chemscore.Lipo.Weighted>
-9.6871

> <Gold.Chemscore.Internal_Hbond.Weighted>
0.0000

> <Gold.Chemscore.DEClash.Weighted>
0.0811

> <Gold.Chemscore.DEInternal.Weighted>
2.4368

> <Gold.Chemscore.Rot.Weighted>
3.9823

> <Gold.Chemscore.Internal.Correction.Weighted>
   9.000000E+99

> <Gold.Protein.RotatedTorsions>
[ 6907 6896 6895 6894 ] final  -27.93 input  -60.11 | X-H torsion
[ 7974 7965 7964 7962 ] final -178.29 input  175.53 | X-H torsion
[ 8008 7997 7996 7995 ] final   46.70 input   59.86 | X-H torsion
[ 10167 10162 10161 10158 ] final -108.76 input  -65.29 | X-H torsion
[ 10718 10713 10712 10709 ] final  159.33 input   66.30 | X-H torsion
[ 10763 10752 10751 10750 ] final    6.89 input  -60.55 | X-H torsion
[ 11005 11000 10999 10996 ] final   57.62 input  -57.11 | X-H torsion

> <Gold.Protein.ActiveResidues>
 VAL166  LYS551  ARG553  GLY616  TRP617  ASP618  TYR619  PRO620  LYS621  CYS622 
 ASP623  PHE694  ASN695  SER759  ASP760  ASP761  ALA762  ILE779  LEU786  VAL792 
 PHE793  MET794  SER795  GLU796  ALA797  LYS798  CYS799  TRP800  GLU811  SER814 

> <Gold.Protein.RotatedAtoms>
  151.1400  135.0175  159.8621 H   0  0  0  0  0  0  0  0  0  0  0  0  # atno 6907 bound_to 6896
  152.5452  134.1510  159.8528 H   0  0  0  0  0  0  0  0  0  0  0  0  # atno 6908 bound_to 6896
  151.1585  133.4815  159.2627 H   0  0  0  0  0  0  0  0  0  0  0  0  # atno 6909 bound_to 6896
  144.7130  140.0891  143.6422 H   0  0  0  0  0  0  0  0  0  0  0  0  # atno 7974 bound_to 7965
  155.3568  140.3416  155.4240 H   0  0  0  0  0  0  0  0  0  0  0  0  # atno 8008 bound_to 7997
  156.1734  140.1639  156.8440 H   0  0  0  0  0  0  0  0  0  0  0  0  # atno 8009 bound_to 7997
  154.5257  140.0756  156.8237 H   0  0  0  0  0  0  0  0  0  0  0  0  # atno 8010 bound_to 7997
  140.1626  143.4108  152.1414 H   0  0  0  0  0  0  0  0  0  0  0  0  # atno 10167 bound_to 10162
  157.1656  131.0598  151.2209 H   0  0  0  0  0  0  0  0  0  0  0  0  # atno 10718 bound_to 10713
  153.2426  135.6905  153.7767 H   0  0  0  0  0  0  0  0  0  0  0  0  # atno 10763 bound_to 10752
  153.6891  135.3316  155.3198 H   0  0  0  0  0  0  0  0  0  0  0  0  # atno 10764 bound_to 10752
  154.8361  135.4541  154.1353 H   0  0  0  0  0  0  0  0  0  0  0  0  # atno 10765 bound_to 10752
  140.0439  134.5834  155.9347 H   0  0  0  0  0  0  0  0  0  0  0  0  # atno 11005 bound_to 11000
  145.9635  139.2818  143.1141 LP  0  0  0  0  0  0  0  0  0  0  0  0  # atno 17320 bound_to 7965
  145.9194  140.9125  143.0413 LP  0  0  0  0  0  0  0  0  0  0  0  0  # atno 17321 bound_to 7965
  139.5374  144.7223  151.4847 LP  0  0  0  0  0  0  0  0  0  0  0  0  # atno 17342 bound_to 10162
  140.6633  143.8451  150.6913 LP  0  0  0  0  0  0  0  0  0  0  0  0  # atno 17343 bound_to 10162
  157.4091  130.7375  149.6825 LP  0  0  0  0  0  0  0  0  0  0  0  0  # atno 17370 bound_to 10713
  155.9746  130.4100  150.3908 LP  0  0  0  0  0  0  0  0  0  0  0  0  # atno 17371 bound_to 10713
  141.1897  133.6566  156.5379 LP  0  0  0  0  0  0  0  0  0  0  0  0  # atno 17394 bound_to 11000
  140.4025  134.7344  157.4788 LP  0  0  0  0  0  0  0  0  0  0  0  0  # atno 17395 bound_to 11000

$$$$
