#       Name:                AV-unprocessed.smi:2189
#       Creating user name   scv26
#       Creation time:       Fri Mar 27 12:08:42 2020


#       File generated by GOLD software.
#

@<TRIPOS>MOLECULE
AV-unprocessed.smi:2189
    43    45     1
SMALL
NO_CHARGES


@<TRIPOS>ATOM
      1 ****         1.1183   0.9673   0.1094 O.2            1 S1                 0.0000
      2 ****         0.6565  -0.0367   0.6551 C.2            1 S1                 0.0000
      3 ****         1.4638  -0.9870   1.1656 N.am           1 S1                 0.0000
      4 ****         2.9249  -0.9683   1.1566 C.3            1 S1                 0.0000
      5 ****         3.5207  -1.7023  -0.0609 C.3            1 S1                 0.0000
      6 ****         3.1292  -1.0939  -1.3960 C.ar           1 S1                 0.0000
      7 ****         2.1637  -1.6857  -2.2397 C.ar           1 S1                 0.0000
      8 ****         1.8317  -1.0534  -3.4558 C.ar           1 S1                 0.0000
      9 ****         2.4726   0.1537  -3.8039 C.ar           1 S1                 0.0000
     10 ****         3.4309   0.6989  -2.9256 C.ar           1 S1                 0.0000
     11 ****         3.7224   0.0630  -1.7698 N.pl3          1 S1                 1.0000
     12 ****        -0.7805  -0.3309   0.8107 C.2            1 S1                 0.0000
     13 ****        -1.1973  -1.6254   0.7962 C.2            1 S1                 0.0000
     14 ****        -2.5852  -1.9791   0.9626 C.2            1 S1                 0.0000
     15 ****        -3.4751  -0.9897   1.0932 C.2            1 S1                 0.0000
     16 ****        -3.1246   0.3589   1.0738 N.pl3          1 S1                 0.0000
     17 ****        -4.2163   1.3262   1.1083 C.3            1 S1                 0.0000
     18 ****        -3.8596   2.4939   2.0098 C.3            1 S1                 0.0000
     19 ****        -2.4163   3.3036   1.2324 S.o2           1 S1                 0.0000
     20 ****        -2.8128   3.7527  -0.1114 O.2            1 S1                 0.0000
     21 ****        -1.8683   4.2785   2.1874 O.2            1 S1                 0.0000
     22 ****        -1.3745   2.0000   1.0899 N.2            1 S1                 0.0000
     23 ****        -1.7615   0.7599   0.9883 C.2            1 S1                 0.0000
     24 ****         1.0258  -1.7829   1.6067 H              1 S1                 0.0000
     25 ****         3.2972   0.0564   1.2028 H              1 S1                 0.0000
     26 ****         3.2669  -1.4535   2.0710 H              1 S1                 0.0000
     27 ****         4.6088  -1.7068   0.0129 H              1 S1                 0.0000
     28 ****         3.2137  -2.7489  -0.0436 H              1 S1                 0.0000
     29 ****         1.6756  -2.6066  -1.9559 H              1 S1                 0.0000
     30 ****         1.0923  -1.4874  -4.1127 H              1 S1                 0.0000
     31 ****         2.2309   0.6548  -4.7298 H              1 S1                 0.0000
     32 ****         3.9666   1.6189  -3.1092 H              1 S1                 0.0000
     33 ****        -0.5017  -2.4394   0.6507 H              1 S1                 0.0000
     34 ****        -2.8969  -3.0130   0.9848 H              1 S1                 0.0000
     35 ****        -4.5287  -1.1915   1.2222 H              1 S1                 0.0000
     36 ****        -4.4281   1.6668   0.0942 H              1 S1                 0.0000
     37 ****        -5.1312   0.8631   1.4791 H              1 S1                 0.0000
     38 ****        -4.6726   3.2164   2.0776 H              1 S1                 0.0000
     39 ****        -3.5968   2.1708   3.0177 H              1 S1                 0.0000
     40 ****         4.4142   0.4798  -1.1462 H              1 S1                 0.0000
     41 ****         2.1086   1.0876   0.0395 LP             1 S1                 0.0000
     42 ****         0.5027   1.6616  -0.2634 LP             1 S1                 0.0000
     43 ****        -0.3918   2.1853   1.0823 LP             1 S1                 0.0000
@<TRIPOS>BOND
    1    1    2 2     
    2    2    3 am    
    3    2   12 1     
    4    3    4 1     
    5    3   24 1     
    6    4    5 1     
    7    4   25 1     
    8    4   26 1     
    9    5    6 1     
   10    5   27 1     
   11    5   28 1     
   12    6   11 ar    
   13    6    7 ar    
   14    7    8 ar    
   15    7   29 1     
   16    8    9 ar    
   17    8   30 1     
   18    9   10 ar    
   19    9   31 1     
   20   10   11 ar    
   21   10   32 1     
   22   11   40 1     
   23   12   23 1     
   24   12   13 2     
   25   13   14 1     
   26   13   33 1     
   27   14   15 2     
   28   14   34 1     
   29   15   16 1     
   30   15   35 1     
   31   16   23 1     
   32   16   17 1     
   33   17   18 1     
   34   17   36 1     
   35   17   37 1     
   36   18   19 1     
   37   18   38 1     
   38   18   39 1     
   39   19   20 2     
   40   19   21 2     
   41   19   22 1     
   42   22   23 2     
   43    1   41 1     
   44    1   42 1     
   45   22   43 1     
@<TRIPOS>SUBSTRUCTURE
      1 S1             1
@<TRIPOS>SET
LONE_PAIRS      STATIC     ATOMS    <user>   **** ""
5 41 42 20 21 43
DONOR_HYDROGENS      STATIC     ATOMS    <user>   **** ""
2 24 40
ATOM$BLUE        STATIC     ATOMS    COLORGROUP SYSTEM
5 41 42 20 21 43
ATOM$RED        STATIC     ATOMS    COLORGROUP SYSTEM
2 24 40
