AV-unprocessed.smi:3306|AV-procd|sdf|12701|dock3
  -GOLD-   2272019 33D 1   1.00000     0.00000
 Structure written by MMmdl.
 45 46  0  0  0  0  0  0  0  0  3 V2000
  146.0654  143.0246  153.8036 C   0  0  0  0  0  0  0  0  0  0  0  0
  145.9284  141.9138  154.8580 C   0  0  0  0  0  0  0  0  0  0  0  0
  146.9741  142.0624  155.9804 C   0  0  0  0  0  0  0  0  0  0  0  0
  145.9226  140.5631  154.2227 N   0  3  2  0  0  0  0  0  0  0  0  0
  145.7740  139.4516  155.1989 C   0  0  0  0  0  0  0  0  0  0  0  0
  145.5301  138.1151  154.4769 C   0  0  0  0  0  0  0  0  0  0  0  0
  146.6607  137.8014  153.4828 C   0  0  1  0  0  0  0  0  0  0  0  0
  146.3805  136.5296  152.7777 N   0  3  0  0  0  0  0  0  0  0  0  0
  146.1374  135.3643  153.6536 C   0  0  0  0  0  0  0  0  0  0  0  0
  146.6718  134.0750  153.0151 C   0  0  0  0  0  0  0  0  0  0  0  0
  145.6204  133.3727  152.1772 C   0  0  0  0  0  0  0  0  0  0  0  0
  145.9199  132.1712  151.5006 C   0  0  0  0  0  0  0  0  0  0  0  0
  144.9053  131.5613  150.7369 C   0  0  0  0  0  0  0  0  0  0  0  0
  143.6374  132.1717  150.6827 C   0  0  0  0  0  0  0  0  0  0  0  0
  143.4388  133.3699  151.3972 C   0  0  0  0  0  0  0  0  0  0  0  0
  144.4052  133.9635  152.1314 N   0  0  0  0  0  0  0  0  0  0  0  0
  146.8123  138.9845  152.5061 C   0  0  0  0  0  0  0  0  0  0  0  0
  147.0322  140.3060  153.2638 C   0  0  0  0  0  0  0  0  0  0  0  0
  145.9264  144.0070  154.2560 H   0  0  0  0  0  0  0  0  0  0  0  0
  145.3156  142.9186  153.0188 H   0  0  0  0  0  0  0  0  0  0  0  0
  147.0477  143.0240  153.3315 H   0  0  0  0  0  0  0  0  0  0  0  0
  144.9460  142.0557  155.3109 H   0  0  0  0  0  0  0  0  0  0  0  0
  146.8620  143.0232  156.4838 H   0  0  0  0  0  0  0  0  0  0  0  0
  147.9934  142.0204  155.5960 H   0  0  0  0  0  0  0  0  0  0  0  0
  146.8679  141.2881  156.7397 H   0  0  0  0  0  0  0  0  0  0  0  0
  146.6667  139.3805  155.8215 H   0  0  0  0  0  0  0  0  0  0  0  0
  144.9363  139.6523  155.8678 H   0  0  0  0  0  0  0  0  0  0  0  0
  145.4451  137.3131  155.2113 H   0  0  0  0  0  0  0  0  0  0  0  0
  144.5737  138.1563  153.9528 H   0  0  0  0  0  0  0  0  0  0  0  0
  147.5863  137.6813  154.0488 H   0  0  0  0  0  0  0  0  0  0  0  0
  145.5447  136.6642  152.2264 H   0  0  0  0  0  0  0  0  0  0  0  0
  146.6175  135.5206  154.6197 H   0  0  0  0  0  0  0  0  0  0  0  0
  145.0659  135.2697  153.8354 H   0  0  0  0  0  0  0  0  0  0  0  0
  147.5328  134.2977  152.3831 H   0  0  0  0  0  0  0  0  0  0  0  0
  147.0273  133.3939  153.7898 H   0  0  0  0  0  0  0  0  0  0  0  0
  146.9019  131.7253  151.5608 H   0  0  0  0  0  0  0  0  0  0  0  0
  145.0963  130.6426  150.2023 H   0  0  0  0  0  0  0  0  0  0  0  0
  142.8363  131.7324  150.1068 H   0  0  0  0  0  0  0  0  0  0  0  0
  142.4787  133.8641  151.3795 H   0  0  0  0  0  0  0  0  0  0  0  0
  147.6520  138.8207  151.8306 H   0  0  0  0  0  0  0  0  0  0  0  0
  145.9231  139.0670  151.8792 H   0  0  0  0  0  0  0  0  0  0  0  0
  147.1074  141.1195  152.5431 H   0  0  0  0  0  0  0  0  0  0  0  0
  147.9836  140.2635  153.7957 H   0  0  0  0  0  0  0  0  0  0  0  0
  145.0748  140.5444  153.6739 H   0  0  0  0  0  0  0  0  0  0  0  0
  147.1446  136.3209  152.1507 H   0  0  0  0  0  0  0  0  0  0  0  0
  1  2  1  0  0  0  0
  1 19  1  0  0  0  0
  1 20  1  0  0  0  0
  1 21  1  0  0  0  0
  2  3  1  0  0  0  0
  2  4  1  0  0  0  0
  2 22  1  0  0  0  0
  3 23  1  0  0  0  0
  3 24  1  0  0  0  0
  3 25  1  0  0  0  0
  4 18  1  0  0  0  0
  4  5  1  0  0  0  0
  4 44  1  0  0  0  0
  5  6  1  0  0  0  0
  5 26  1  0  0  0  0
  5 27  1  0  0  0  0
  6  7  1  0  0  0  0
  6 28  1  0  0  0  0
  6 29  1  0  0  0  0
  7  8  1  0  0  0  0
  7 17  1  0  0  0  0
  7 30  1  0  0  0  0
  8  9  1  0  0  0  0
  8 31  1  0  0  0  0
  8 45  1  0  0  0  0
  9 10  1  0  0  0  0
  9 32  1  0  0  0  0
  9 33  1  0  0  0  0
 10 11  1  0  0  0  0
 10 34  1  0  0  0  0
 10 35  1  0  0  0  0
 11 16  1  0  0  0  0
 11 12  2  0  0  0  0
 12 13  1  0  0  0  0
 12 36  1  0  0  0  0
 13 14  2  0  0  0  0
 13 37  1  0  0  0  0
 14 15  1  0  0  0  0
 14 38  1  0  0  0  0
 15 16  2  0  0  0  0
 15 39  1  0  0  0  0
 17 18  1  0  0  0  0
 17 40  1  0  0  0  0
 17 41  1  0  0  0  0
 18 42  1  0  0  0  0
 18 43  1  0  0  0  0
M  CHG  1   4   1
M  CHG  1   8   1
M  END
> <s_m_source_file>
AV-unprocessed.smi

> <i_m_source_file_index>
3306

> <i_lp_mmshare_version>
43012

> <i_f3d_flags>
0

> <s_epik_input>
W0NIM11bQ0hdKFtDSDNdKU4xW0NIMl1bQ0gyXVtDSF0oW0NIMl1bQ0gyXTEpW05IXVtDSDJdW0NIMl1jMltjSF1bY0hdW2NIXVtjSF1uMg==

> <s_epik_cmdline>
J2VwaWtfcHl0aG9uJywgJy1waCcsICc3LjAnLCAnLXRuJywgJzgnLCAnLW1hJywgJzIwMCcsICctbWV0YWxfYmluZGluZycsICctaW1hZScsICc8aW5maWxlLm1hZT4nLCAnLW9tYWUnLCAnPG91dGZpbGUubWFlPic=

> <r_epik_Ionization_Penalty>
0.0800465

> <r_epik_Ionization_Penalty_Charging>
0.0790817

> <r_epik_Ionization_Penalty_Neutral>
0.000964829

> <r_epik_State_Penalty>
0.0665964

> <r_epik_Charging_Adjusted_Penalty>
0.145678

> <i_epik_Tot_Q>
2

> <i_epik_Tot_abs_Q>
2

> <r_epik_Metal_State_Penalty>
0.0683331

> <b_epik_Metal_Only>
0

> <s_lp_Force_Field>
OPLS_2005

> <r_lp_Energy>
27.4923

> <b_lp_Chiralities_Consistent>
1

> <s_lp_Variant>
AV-unprocessed.smi:3306-1

> <Gold.Version>
5.8.1

> <Gold.Id.Protein>
6NUR|6NUR_protein|mol2

> <Gold.PLP.Fitness>
45.0252

> <Gold.PLP.PLP>
-30.9344

> <Gold.PLP.part.hbond>
-2.0000

> <Gold.PLP.part.metal>
0.0000

> <Gold.PLP.part.buried>
-3.8748

> <Gold.PLP.part.nonpolar>
-25.6542

> <Gold.PLP.part.repulsive>
0.1126

> <Gold.PLP.ligand.clash>
0.0000

> <Gold.PLP.ligand.torsion>
0.5331

> <Gold.PLP.Chemscore.Hbond>
4.0000

> <Gold.PLP.Chemscore.CHOScore>
1.0000

> <Gold.PLP.Chemscore.Metal>
0.0000

> <Gold.Chemscore.Hbonds>
donor molecule, donor type, donor heavy atom, donor atom, acceptor molecule, acceptor atom, score
      L1  H     4    44       P1 10175  2.00
      L1  H     8    45       P1  7948  2.00
      L1  C    15    39       P1 10186  1.00

> <Gold.PLP.Chemscore.Internal.Correction>
0.1571

> <Gold.Rescore>
     Score         DG    S(hbond)    S(metal)    S(lipo)     H(rot)  DE(clash)    DE(int)     intcor
     17.70     -18.45       1.96        0.00      87.02       1.47       0.26       0.49       ----

> <Gold.Chemscore.Fitness>
17.6987

> <Gold.Chemscore.DG>
-18.4480

> <Gold.Chemscore.ZeroCoef>
-5.4800

> <Gold.Chemscore.Hbond>
1.9593

> <Gold.Chemscore.Metal>
0.0000

> <Gold.Chemscore.Lipo>
87.0226

> <Gold.Chemscore.Internal_Hbond>
0.0000

> <Gold.Chemscore.DEClash>
0.2600

> <Gold.Chemscore.DEInternal>
0.4893

> <Gold.Chemscore.Rot>
1.4679

> <Gold.Chemscore.Internal.Correction>
   9.000000E+99

> <Gold.Chemscore.Hbonds>
donor molecule, donor type, donor heavy atom, donor atom, acceptor molecule, acceptor atom, score
      L1  H     4    44       P1 10175  0.99
      L1  H     8    45       P1  7948  0.94

> <Gold.Chemscore.Hbond.Weighted>
-6.5442

> <Gold.Chemscore.Metal.Weighted>
-0.0000

> <Gold.Chemscore.Lipo.Weighted>
-10.1816

> <Gold.Chemscore.Internal_Hbond.Weighted>
0.0000

> <Gold.Chemscore.DEClash.Weighted>
0.2600

> <Gold.Chemscore.DEInternal.Weighted>
0.4893

> <Gold.Chemscore.Rot.Weighted>
3.7579

> <Gold.Chemscore.Internal.Correction.Weighted>
   9.000000E+99

> <Gold.Protein.RotatedTorsions>
[ 6907 6896 6895 6894 ] final    7.59 input  -60.11 | X-H torsion
[ 7974 7965 7964 7962 ] final  162.51 input  175.53 | X-H torsion
[ 8008 7997 7996 7995 ] final   64.73 input   59.86 | X-H torsion
[ 10167 10162 10161 10158 ] final   56.74 input  -65.29 | X-H torsion
[ 10718 10713 10712 10709 ] final   13.41 input   66.30 | X-H torsion
[ 10763 10752 10751 10750 ] final   17.36 input  -60.55 | X-H torsion
[ 11005 11000 10999 10996 ] final -159.61 input  -57.11 | X-H torsion

> <Gold.Protein.ActiveResidues>
 VAL166  LYS551  ARG553  GLY616  TRP617  ASP618  TYR619  PRO620  LYS621  CYS622 
 ASP623  PHE694  ASN695  SER759  ASP760  ASP761  ALA762  ILE779  LEU786  VAL792 
 PHE793  MET794  SER795  GLU796  ALA797  LYS798  CYS799  TRP800  GLU811  SER814 

> <Gold.Protein.RotatedAtoms>
  151.6924  135.0944  160.0235 H   0  0  0  0  0  0  0  0  0  0  0  0  # atno 6907 bound_to 6896
  152.3770  133.6491  159.6140 H   0  0  0  0  0  0  0  0  0  0  0  0  # atno 6908 bound_to 6896
  150.7717  133.9093  159.3406 H   0  0  0  0  0  0  0  0  0  0  0  0  # atno 6909 bound_to 6896
  144.7633  139.8050  143.6324 H   0  0  0  0  0  0  0  0  0  0  0  0  # atno 7974 bound_to 7965
  155.6506  140.3497  155.4747 H   0  0  0  0  0  0  0  0  0  0  0  0  # atno 8008 bound_to 7997
  155.9851  140.1182  157.0714 H   0  0  0  0  0  0  0  0  0  0  0  0  # atno 8009 bound_to 7997
  154.4202  140.1130  156.5475 H   0  0  0  0  0  0  0  0  0  0  0  0  # atno 8010 bound_to 7997
  140.2055  144.3944  150.6511 H   0  0  0  0  0  0  0  0  0  0  0  0  # atno 10167 bound_to 10162
  157.0242  130.6167  149.5725 H   0  0  0  0  0  0  0  0  0  0  0  0  # atno 10718 bound_to 10713
  153.1346  135.6747  153.9123 H   0  0  0  0  0  0  0  0  0  0  0  0  # atno 10763 bound_to 10752
  153.8599  135.3082  155.3438 H   0  0  0  0  0  0  0  0  0  0  0  0  # atno 10764 bound_to 10752
  154.7737  135.4926  153.9782 H   0  0  0  0  0  0  0  0  0  0  0  0  # atno 10765 bound_to 10752
  140.6407  134.4554  157.5233 H   0  0  0  0  0  0  0  0  0  0  0  0  # atno 11005 bound_to 11000
  146.1717  139.4870  142.9923 LP  0  0  0  0  0  0  0  0  0  0  0  0  # atno 17320 bound_to 7965
  145.6549  141.0254  143.1740 LP  0  0  0  0  0  0  0  0  0  0  0  0  # atno 17321 bound_to 7965
  140.6361  143.2195  151.6393 LP  0  0  0  0  0  0  0  0  0  0  0  0  # atno 17342 bound_to 10162
  139.5200  144.3235  152.0889 LP  0  0  0  0  0  0  0  0  0  0  0  0  # atno 17343 bound_to 10162
  156.0092  130.5181  150.7931 LP  0  0  0  0  0  0  0  0  0  0  0  0  # atno 17370 bound_to 10713
  157.5227  131.0932  151.0058 LP  0  0  0  0  0  0  0  0  0  0  0  0  # atno 17371 bound_to 10713
  139.9081  134.8404  156.1628 LP  0  0  0  0  0  0  0  0  0  0  0  0  # atno 17394 bound_to 11000
  141.0609  133.6842  156.1951 LP  0  0  0  0  0  0  0  0  0  0  0  0  # atno 17395 bound_to 11000

$$$$
