#       Name:                AV-unprocessed.smi:1574
#       Creating user name   scv26
#       Creation time:       Fri Mar 27 06:55:21 2020


#       File generated by GOLD software.
#

@<TRIPOS>MOLECULE
AV-unprocessed.smi:1574
    47    48     1
SMALL
NO_CHARGES


@<TRIPOS>ATOM
      1 ****        -1.2685  -0.0714  -3.4971 C.3            1 S1                 0.0000
      2 ****        -1.4035   0.5135  -2.0820 C.3            1 S1                 0.0000
      3 ****        -2.8528   0.9697  -1.8161 C.3            1 S1                 0.0000
      4 ****        -3.0191   1.5504  -0.4032 C.3            1 S1                 0.0000
      5 ****        -2.5664   0.5441   0.6637 C.3            1 S1                 0.0000
      6 ****        -1.1211   0.0946   0.4123 C.3            1 S1                 0.0000
      7 ****        -0.9415  -0.4915  -1.0032 C.3            1 S1                 0.0000
      8 ****         0.4401  -0.7570  -1.2032 O.3            1 S1                 0.0000
      9 ****         0.8573  -2.0384  -0.7549 C.3            1 S1                 0.0000
     10 ****         2.3832  -2.0278  -0.5896 C.3            1 S1                 0.0000
     11 ****         2.7932  -1.0756   0.4371 N.am           1 S1                 0.0000
     12 ****         2.6887  -1.2776   1.7600 C.2            1 S1                 0.0000
     13 ****         2.2886  -2.3306   2.2556 O.2            1 S1                 0.0000
     14 ****         3.0803  -0.1097   2.6651 C.3            1 S1                 0.0000
     15 ****         1.9956   0.8477   2.7798 N.pl3          1 S1                 0.0000
     16 ****         1.7768   2.0040   2.1507 C.2            1 S1                 0.0000
     17 ****         0.6536   2.5770   2.5560 N.2            1 S1                 0.0000
     18 ****         0.1673   1.6851   3.4971 N.2            1 S1                 0.0000
     19 ****         0.9601   0.6581   3.6357 N.2            1 S1                 0.0000
     20 ****        -1.8788  -0.9672  -3.6158 H              1 S1                 0.0000
     21 ****        -0.2355  -0.3419  -3.7173 H              1 S1                 0.0000
     22 ****        -1.5852   0.6492  -4.2515 H              1 S1                 0.0000
     23 ****        -0.7611   1.3936  -2.0237 H              1 S1                 0.0000
     24 ****        -3.1496   1.7174  -2.5525 H              1 S1                 0.0000
     25 ****        -3.5336   0.1267  -1.9427 H              1 S1                 0.0000
     26 ****        -2.4350   2.4671  -0.3127 H              1 S1                 0.0000
     27 ****        -4.0600   1.8280  -0.2346 H              1 S1                 0.0000
     28 ****        -2.6482   0.9904   1.6552 H              1 S1                 0.0000
     29 ****        -3.2270  -0.3237   0.6569 H              1 S1                 0.0000
     30 ****        -0.4557   0.9493   0.5300 H              1 S1                 0.0000
     31 ****        -0.8270  -0.6284   1.1730 H              1 S1                 0.0000
     32 ****        -1.5266  -1.4081  -1.1055 H              1 S1                 0.0000
     33 ****         0.3829  -2.3107   0.1887 H              1 S1                 0.0000
     34 ****         0.5576  -2.7875  -1.4886 H              1 S1                 0.0000
     35 ****         2.7432  -3.0263  -0.3367 H              1 S1                 0.0000
     36 ****         2.8597  -1.7535  -1.5312 H              1 S1                 0.0000
     37 ****         3.1333  -0.1808   0.1162 H              1 S1                 0.0000
     38 ****         3.3396  -0.4758   3.6597 H              1 S1                 0.0000
     39 ****         3.9611   0.3965   2.2676 H              1 S1                 0.0000
     40 ****         2.4336   2.4219   1.4024 H              1 S1                 0.0000
     41 ****         0.9671  -0.0651  -0.7097 LP             1 S1                 0.0000
     42 ****         0.6342  -0.6886  -2.1818 LP             1 S1                 0.0000
     43 ****         2.0210  -3.0915   1.6645 LP             1 S1                 0.0000
     44 ****         2.2312  -2.4254   3.2494 LP             1 S1                 0.0000
     45 ****         0.2540   3.4430   2.2555 LP             1 S1                 0.0000
     46 ****        -0.6840   1.8121   4.0062 LP             1 S1                 0.0000
     47 ****         0.8298  -0.1179   4.2528 LP             1 S1                 0.0000
@<TRIPOS>BOND
    1    1    2 1     
    2    1   20 1     
    3    1   21 1     
    4    1   22 1     
    5    2    7 1     
    6    2    3 1     
    7    2   23 1     
    8    3    4 1     
    9    3   24 1     
   10    3   25 1     
   11    4    5 1     
   12    4   26 1     
   13    4   27 1     
   14    5    6 1     
   15    5   28 1     
   16    5   29 1     
   17    6    7 1     
   18    6   30 1     
   19    6   31 1     
   20    7    8 1     
   21    7   32 1     
   22    8    9 1     
   23    9   10 1     
   24    9   33 1     
   25    9   34 1     
   26   10   11 1     
   27   10   35 1     
   28   10   36 1     
   29   11   12 am    
   30   11   37 1     
   31   12   13 2     
   32   12   14 1     
   33   14   15 1     
   34   14   38 1     
   35   14   39 1     
   36   15   19 1     
   37   15   16 1     
   38   16   17 2     
   39   16   40 1     
   40   17   18 1     
   41   18   19 2     
   42    8   41 1     
   43    8   42 1     
   44   13   43 1     
   45   13   44 1     
   46   17   45 1     
   47   18   46 1     
   48   19   47 1     
@<TRIPOS>SUBSTRUCTURE
      1 S1             1
@<TRIPOS>SET
LONE_PAIRS      STATIC     ATOMS    <user>   **** ""
7 41 42 43 44 45 46 47
DONOR_HYDROGENS      STATIC     ATOMS    <user>   **** ""
1 37
ATOM$BLUE        STATIC     ATOMS    COLORGROUP SYSTEM
7 41 42 43 44 45 46 47
ATOM$RED        STATIC     ATOMS    COLORGROUP SYSTEM
1 37
