AV-unprocessed.smi:28|AV-procd|sdf|190|dock7
  -GOLD-   2262015453D 1   1.00000     0.00000
 Structure written by MMmdl.
 41 44  0  0  0  0  0  0  0  0  1 V2000
  151.9529  137.2153  155.3057 O   0  0  0  0  0  0  0  0  0  0  0  0
  150.8449  137.6792  155.0318 C   0  0  0  0  0  0  0  0  0  0  0  0
  149.6414  136.8623  154.9167 C   0  0  0  0  0  0  0  0  0  0  0  0
  149.7153  135.5374  155.1285 F   0  0  0  0  0  0  0  0  0  0  0  0
  148.4520  137.4135  154.5922 C   0  0  0  0  0  0  0  0  0  0  0  0
  148.2871  138.7675  154.3503 N   0  0  0  0  0  0  0  0  0  0  0  0
  146.9431  139.3479  153.9637 C   0  0  1  0  0  0  0  0  0  0  0  0
  147.0083  139.9399  152.5518 C   0  0  0  0  0  0  0  0  0  0  0  0
  146.6080  138.7524  151.7040 C   0  0  0  0  0  0  0  0  0  0  0  0
  145.5746  138.0707  152.5952 C   0  0  0  0  0  0  0  0  0  0  0  0
  145.9878  138.3263  153.9370 O   0  0  0  0  0  0  0  0  0  0  0  0
  149.3986  139.6338  154.4370 C   0  0  0  0  0  0  0  0  0  0  0  0
  149.2793  140.8382  154.1986 O   0  0  0  0  0  0  0  0  0  0  0  0
  150.6438  139.0603  154.7875 N   0  0  0  0  0  0  0  0  0  0  0  0
  151.8042  139.9349  154.8256 C   0  0  0  0  0  0  0  0  0  0  0  0
  152.3120  140.0581  156.2279 C   0  0  0  0  0  0  0  0  0  0  0  0
  153.0405  139.1725  156.9095 N   0  0  0  0  0  0  0  0  0  0  0  0
  153.2842  139.7534  158.1328 N   0  0  0  0  0  0  0  0  0  0  0  0
  152.6727  140.9426  158.1096 C   0  0  0  0  0  0  0  0  0  0  0  0
  152.6363  141.9828  159.1345 C   0  0  0  0  0  0  0  0  0  0  0  0
  153.3128  141.7504  160.3535 C   0  0  0  0  0  0  0  0  0  0  0  0
  153.3108  142.7218  161.3721 C   0  0  0  0  0  0  0  0  0  0  0  0
  152.6353  143.9402  161.1788 C   0  0  0  0  0  0  0  0  0  0  0  0
  151.9685  144.1863  159.9643 C   0  0  0  0  0  0  0  0  0  0  0  0
  151.9680  143.2191  158.9386 C   0  0  0  0  0  0  0  0  0  0  0  0
  151.0801  143.6480  157.3055 Br  0  0  0  0  0  0  0  0  0  0  0  0
  152.0474  141.1908  156.9277 O   0  0  0  0  0  0  0  0  0  0  0  0
  147.6025  136.7517  154.5149 H   0  0  0  0  0  0  0  0  0  0  0  0
  146.6943  140.0710  154.7421 H   0  0  0  0  0  0  0  0  0  0  0  0
  146.2657  140.7348  152.4730 H   0  0  0  0  0  0  0  0  0  0  0  0
  147.9906  140.3485  152.3118 H   0  0  0  0  0  0  0  0  0  0  0  0
  146.2107  139.0353  150.7290 H   0  0  0  0  0  0  0  0  0  0  0  0
  147.4649  138.0962  151.5457 H   0  0  0  0  0  0  0  0  0  0  0  0
  144.5914  138.5181  152.4440 H   0  0  0  0  0  0  0  0  0  0  0  0
  145.4938  137.0013  152.3994 H   0  0  0  0  0  0  0  0  0  0  0  0
  152.5685  139.5278  154.1614 H   0  0  0  0  0  0  0  0  0  0  0  0
  151.5311  140.9092  154.4183 H   0  0  0  0  0  0  0  0  0  0  0  0
  153.8333  140.8179  160.5174 H   0  0  0  0  0  0  0  0  0  0  0  0
  153.8274  142.5318  162.3014 H   0  0  0  0  0  0  0  0  0  0  0  0
  152.6332  144.6877  161.9584 H   0  0  0  0  0  0  0  0  0  0  0  0
  151.4594  145.1271  159.8157 H   0  0  0  0  0  0  0  0  0  0  0  0
  1  2  2  0  0  0  0
  2 14  1  0  0  0  0
  2  3  1  0  0  0  0
  3  4  1  0  0  0  0
  3  5  2  0  0  0  0
  5  6  1  0  0  0  0
  5 28  1  0  0  0  0
  6  7  1  0  0  0  0
  6 12  1  0  0  0  0
  7 11  1  0  0  0  0
  7  8  1  0  0  0  0
  7 29  1  0  0  0  0
  8  9  1  0  0  0  0
  8 30  1  0  0  0  0
  8 31  1  0  0  0  0
  9 10  1  0  0  0  0
  9 32  1  0  0  0  0
  9 33  1  0  0  0  0
 10 11  1  0  0  0  0
 10 34  1  0  0  0  0
 10 35  1  0  0  0  0
 12 13  2  0  0  0  0
 12 14  1  0  0  0  0
 14 15  1  0  0  0  0
 15 16  1  0  0  0  0
 15 36  1  0  0  0  0
 15 37  1  0  0  0  0
 16 27  1  0  0  0  0
 16 17  2  0  0  0  0
 17 18  1  0  0  0  0
 18 19  2  0  0  0  0
 19 20  1  0  0  0  0
 19 27  1  0  0  0  0
 20 25  1  0  0  0  0
 20 21  2  0  0  0  0
 21 22  1  0  0  0  0
 21 38  1  0  0  0  0
 22 23  2  0  0  0  0
 22 39  1  0  0  0  0
 23 24  1  0  0  0  0
 23 40  1  0  0  0  0
 24 25  2  0  0  0  0
 24 41  1  0  0  0  0
 25 26  1  0  0  0  0
M  END
> <s_m_source_file>
AV-unprocessed.smi

> <i_m_source_file_index>
28

> <i_lp_mmshare_version>
43012

> <i_f3d_flags>
0

> <s_epik_input>
TzFbQ0gyXVtDSDJdW0NIMl1bQ0BIXTFuKFtjSF1jKEYpYzI9TyljKD1PKW4yW0NIMl1jM25uYyhvMyktYzRbY0hdW2NIXVtjSF1bY0hdYzRCcg==

> <s_epik_cmdline>
J2VwaWtfcHl0aG9uJywgJy1waCcsICc3LjAnLCAnLXRuJywgJzgnLCAnLW1hJywgJzIwMCcsICctbWV0YWxfYmluZGluZycsICctaW1hZScsICc8aW5maWxlLm1hZT4nLCAnLW9tYWUnLCAnPG91dGZpbGUubWFlPic=

> <r_lp_tautomer_probability>
1

> <r_epik_Ionization_Penalty>
2.5628e-09

> <r_epik_Ionization_Penalty_Charging>
2.54231e-09

> <r_epik_Ionization_Penalty_Neutral>
2.0492e-11

> <r_epik_State_Penalty>
-0

> <r_epik_Charging_Adjusted_Penalty>
2.54231e-09

> <i_epik_Tot_Q>
0

> <i_epik_Tot_abs_Q>
0

> <r_epik_Metal_State_Penalty>
-0

> <b_epik_Metal_Only>
0

> <s_epik_Chemistry_Notes>
This compound contains an acetal/aminal-like group ( X-CH(R)-Y where X, Y are N, S, or O) that may be acid/base labile, releasing an aldehyde.

> <s_lp_Force_Field>
OPLS_2005

> <r_lp_Energy>
35.5142

> <b_lp_Chiralities_Consistent>
1

> <s_lp_Variant>
AV-unprocessed.smi:28-2

> <Gold.Version>
5.8.1

> <Gold.Id.Protein>
6NUR|6NUR_protein|mol2

> <Gold.PLP.Fitness>
49.4884

> <Gold.PLP.PLP>
-47.0526

> <Gold.PLP.part.hbond>
-3.2979

> <Gold.PLP.part.metal>
0.0000

> <Gold.PLP.part.buried>
1.0332

> <Gold.PLP.part.nonpolar>
-44.2314

> <Gold.PLP.part.repulsive>
0.2671

> <Gold.PLP.ligand.clash>
0.0000

> <Gold.PLP.ligand.torsion>
0.2988

> <Gold.PLP.Chemscore.Hbond>
1.0000

> <Gold.PLP.Chemscore.CHOScore>
0.0000

> <Gold.PLP.Chemscore.Metal>
0.0000

> <Gold.Chemscore.Hbonds>
donor molecule, donor type, donor heavy atom, donor atom, acceptor molecule, acceptor atom, score
      P1  H  7997  8008       L1    18  0.01
      P1  H 10752 10763       L1     1  0.93

> <Gold.PLP.Chemscore.Internal.Correction>
0.0334

> <Gold.Rescore>
     Score         DG    S(hbond)    S(metal)    S(lipo)     H(rot)  DE(clash)    DE(int)     intcor
     13.67     -16.99       1.00        0.00     107.04       1.70       0.07       3.25       ----

> <Gold.Chemscore.Fitness>
13.6678

> <Gold.Chemscore.DG>
-16.9928

> <Gold.Chemscore.ZeroCoef>
-5.4800

> <Gold.Chemscore.Hbond>
0.9987

> <Gold.Chemscore.Metal>
0.0000

> <Gold.Chemscore.Lipo>
107.0440

> <Gold.Chemscore.Internal_Hbond>
0.0000

> <Gold.Chemscore.DEClash>
0.0742

> <Gold.Chemscore.DEInternal>
3.2508

> <Gold.Chemscore.Rot>
1.6980

> <Gold.Chemscore.Internal.Correction>
   9.000000E+99

> <Gold.Chemscore.Hbonds>
donor molecule, donor type, donor heavy atom, donor atom, acceptor molecule, acceptor atom, score
      P1  H  8011  8017       L1    13  0.01
      P1  H 10752 10763       L1     1  0.86

> <Gold.Chemscore.Hbond.Weighted>
-3.3356

> <Gold.Chemscore.Metal.Weighted>
-0.0000

> <Gold.Chemscore.Lipo.Weighted>
-12.5241

> <Gold.Chemscore.Internal_Hbond.Weighted>
0.0000

> <Gold.Chemscore.DEClash.Weighted>
0.0742

> <Gold.Chemscore.DEInternal.Weighted>
3.2508

> <Gold.Chemscore.Rot.Weighted>
4.3469

> <Gold.Chemscore.Internal.Correction.Weighted>
   9.000000E+99

> <Gold.Protein.RotatedTorsions>
[ 6907 6896 6895 6894 ] final -173.81 input  -60.11 | X-H torsion
[ 7974 7965 7964 7962 ] final   78.87 input  175.53 | X-H torsion
[ 8008 7997 7996 7995 ] final -137.81 input   59.86 | X-H torsion
[ 10167 10162 10161 10158 ] final  -96.21 input  -65.29 | X-H torsion
[ 10718 10713 10712 10709 ] final    5.84 input   66.30 | X-H torsion
[ 10763 10752 10751 10750 ] final   66.75 input  -60.55 | X-H torsion
[ 11005 11000 10999 10996 ] final   79.74 input  -57.11 | X-H torsion

> <Gold.Protein.ActiveResidues>
 VAL166  LYS551  ARG553  GLY616  TRP617  ASP618  TYR619  PRO620  LYS621  CYS622 
 ASP623  PHE694  ASN695  SER759  ASP760  ASP761  ALA762  ILE779  LEU786  VAL792 
 PHE793  MET794  SER795  GLU796  ALA797  LYS798  CYS799  TRP800  GLU811  SER814 

> <Gold.Protein.RotatedAtoms>
  151.5621  133.3401  159.2972 H   0  0  0  0  0  0  0  0  0  0  0  0  # atno 6907 bound_to 6896
  150.8416  134.7713  159.6948 H   0  0  0  0  0  0  0  0  0  0  0  0  # atno 6908 bound_to 6896
  152.4483  134.5456  159.9903 H   0  0  0  0  0  0  0  0  0  0  0  0  # atno 6909 bound_to 6896
  145.6715  139.2498  143.1865 H   0  0  0  0  0  0  0  0  0  0  0  0  # atno 7974 bound_to 7965
  155.4180  140.0516  157.3027 H   0  0  0  0  0  0  0  0  0  0  0  0  # atno 8008 bound_to 7997
  154.4916  140.2122  155.9496 H   0  0  0  0  0  0  0  0  0  0  0  0  # atno 8009 bound_to 7997
  156.1349  140.3165  155.8411 H   0  0  0  0  0  0  0  0  0  0  0  0  # atno 8010 bound_to 7997
  140.2962  143.3191  152.0296 H   0  0  0  0  0  0  0  0  0  0  0  0  # atno 10167 bound_to 10162
  156.9133  130.5764  149.5647 H   0  0  0  0  0  0  0  0  0  0  0  0  # atno 10718 bound_to 10713
  153.0154  135.5309  154.6873 H   0  0  0  0  0  0  0  0  0  0  0  0  # atno 10763 bound_to 10752
  154.6017  135.2869  155.0530 H   0  0  0  0  0  0  0  0  0  0  0  0  # atno 10764 bound_to 10752
  154.1585  135.6551  153.5032 H   0  0  0  0  0  0  0  0  0  0  0  0  # atno 10765 bound_to 10752
  139.9161  134.7866  156.1818 H   0  0  0  0  0  0  0  0  0  0  0  0  # atno 11005 bound_to 11000
  146.1041  140.7508  142.9535 LP  0  0  0  0  0  0  0  0  0  0  0  0  # atno 17320 bound_to 7965
  144.7055  140.3834  143.7121 LP  0  0  0  0  0  0  0  0  0  0  0  0  # atno 17321 bound_to 7965
  139.4926  144.6489  151.6718 LP  0  0  0  0  0  0  0  0  0  0  0  0  # atno 17342 bound_to 10162
  140.5690  144.0140  150.6207 LP  0  0  0  0  0  0  0  0  0  0  0  0  # atno 17343 bound_to 10162
  156.0525  130.5592  150.9021 LP  0  0  0  0  0  0  0  0  0  0  0  0  # atno 17370 bound_to 10713
  157.5954  131.0943  150.9050 LP  0  0  0  0  0  0  0  0  0  0  0  0  # atno 17371 bound_to 10713
  141.0637  133.6829  156.2003 LP  0  0  0  0  0  0  0  0  0  0  0  0  # atno 17394 bound_to 11000
  140.6619  134.4959  157.5583 LP  0  0  0  0  0  0  0  0  0  0  0  0  # atno 17395 bound_to 11000

$$$$
