AV-unprocessed.smi:1570|AV-procd|sdf|6324|dock10
  -GOLD-   22720 6533D 1   1.00000     0.00000
 Structure written by MMmdl.
 52 54  0  0  0  0  0  0  0  0  2 V2000
  154.2226  140.2067  161.1204 C   0  0  0  0  0  0  0  0  0  0  0  0
  154.3715  141.5175  160.3375 C   0  0  0  0  0  0  0  0  0  0  0  0
  153.2199  141.7474  159.4689 N   0  0  0  0  0  0  0  0  0  0  0  0
  152.7470  140.9092  158.5168 C   0  0  0  0  0  0  0  0  0  0  0  0
  153.2283  139.8201  158.2042 O   0  0  0  0  0  0  0  0  0  0  0  0
  151.6504  141.4778  157.9627 N   0  0  0  0  0  0  0  0  0  0  0  0
  150.8263  140.9125  156.8962 C   0  0  0  0  0  0  0  0  0  0  0  0
  149.4172  140.5413  157.4015 C   0  0  2  0  0  0  0  0  0  0  0  0
  149.5595  139.5886  158.4374 O   0  0  0  0  0  0  0  0  0  0  0  0
  148.5658  139.9004  156.2861 C   0  0  0  0  0  0  0  0  0  0  0  0
  148.9243  140.3944  154.9284 N   0  3  1  0  0  0  0  0  0  0  0  0
  148.5922  139.4711  153.8126 C   0  0  0  0  0  0  0  0  0  0  0  0
  147.0899  139.5161  153.4583 C   0  0  2  0  0  0  0  0  0  0  0  0
  146.7679  138.6737  152.2190 C   0  0  0  0  0  0  0  0  0  0  0  0
  146.7087  140.8612  153.1876 O   0  0  0  0  0  0  0  0  0  0  0  0
  146.9089  141.7277  154.2993 C   0  0  2  0  0  0  0  0  0  0  0  0
  146.3744  143.1147  153.9263 C   0  0  0  0  0  0  0  0  0  0  0  0
  148.4127  141.7565  154.6408 C   0  0  0  0  0  0  0  0  0  0  0  0
  151.4193  142.7194  158.5715 C   0  0  0  0  0  0  0  0  0  0  0  0
  150.4252  143.6885  158.3504 C   0  0  0  0  0  0  0  0  0  0  0  0
  150.4698  144.8546  159.1496 C   0  0  0  0  0  0  0  0  0  0  0  0
  151.4813  145.0257  160.1301 C   0  0  0  0  0  0  0  0  0  0  0  0
  152.4710  144.0352  160.3308 C   0  0  0  0  0  0  0  0  0  0  0  0
  152.4051  142.8875  159.5217 C   0  0  0  0  0  0  0  0  0  0  0  0
  155.0839  140.0422  161.7680 H   0  0  0  0  0  0  0  0  0  0  0  0
  154.1447  139.3519  160.4479 H   0  0  0  0  0  0  0  0  0  0  0  0
  153.3318  140.2210  161.7494 H   0  0  0  0  0  0  0  0  0  0  0  0
  154.4831  142.3545  161.0269 H   0  0  0  0  0  0  0  0  0  0  0  0
  155.2865  141.4920  159.7438 H   0  0  0  0  0  0  0  0  0  0  0  0
  150.7481  141.6672  156.1118 H   0  0  0  0  0  0  0  0  0  0  0  0
  151.3209  140.0609  156.4270 H   0  0  0  0  0  0  0  0  0  0  0  0
  148.9196  141.4272  157.7948 H   0  0  0  0  0  0  0  0  0  0  0  0
  149.9590  138.8095  158.0806 H   0  0  0  0  0  0  0  0  0  0  0  0
  148.6577  138.8151  156.3195 H   0  0  0  0  0  0  0  0  0  0  0  0
  147.5157  140.1182  156.4879 H   0  0  0  0  0  0  0  0  0  0  0  0
  149.1756  139.7781  152.9433 H   0  0  0  0  0  0  0  0  0  0  0  0
  148.9028  138.4515  154.0356 H   0  0  0  0  0  0  0  0  0  0  0  0
  146.4949  139.1363  154.2897 H   0  0  0  0  0  0  0  0  0  0  0  0
  147.0349  137.6280  152.3745 H   0  0  0  0  0  0  0  0  0  0  0  0
  147.3124  139.0319  151.3448 H   0  0  0  0  0  0  0  0  0  0  0  0
  145.7032  138.7132  151.9869 H   0  0  0  0  0  0  0  0  0  0  0  0
  146.3367  141.3593  155.1523 H   0  0  0  0  0  0  0  0  0  0  0  0
  146.4963  143.8173  154.7510 H   0  0  0  0  0  0  0  0  0  0  0  0
  145.3123  143.0701  153.6839 H   0  0  0  0  0  0  0  0  0  0  0  0
  146.8969  143.5208  153.0597 H   0  0  0  0  0  0  0  0  0  0  0  0
  148.6104  142.4245  155.4802 H   0  0  0  0  0  0  0  0  0  0  0  0
  148.9707  142.1589  153.7940 H   0  0  0  0  0  0  0  0  0  0  0  0
  149.6579  143.5545  157.6027 H   0  0  0  0  0  0  0  0  0  0  0  0
  149.7245  145.6240  159.0122 H   0  0  0  0  0  0  0  0  0  0  0  0
  151.4961  145.9233  160.7304 H   0  0  0  0  0  0  0  0  0  0  0  0
  153.2428  144.1605  161.0758 H   0  0  0  0  0  0  0  0  0  0  0  0
  149.9315  140.4753  154.9439 H   0  0  0  0  0  0  0  0  0  0  0  0
  1  2  1  0  0  0  0
  1 25  1  0  0  0  0
  1 26  1  0  0  0  0
  1 27  1  0  0  0  0
  2  3  1  0  0  0  0
  2 28  1  0  0  0  0
  2 29  1  0  0  0  0
  3 24  1  0  0  0  0
  3  4  1  0  0  0  0
  4  5  2  0  0  0  0
  4  6  1  0  0  0  0
  6  7  1  0  0  0  0
  6 19  1  0  0  0  0
  7  8  1  0  0  0  0
  7 30  1  0  0  0  0
  7 31  1  0  0  0  0
  8  9  1  0  0  0  0
  8 10  1  0  0  0  0
  8 32  1  0  0  0  0
  9 33  1  0  0  0  0
 10 11  1  0  0  0  0
 10 34  1  0  0  0  0
 10 35  1  0  0  0  0
 11 18  1  0  0  0  0
 11 12  1  0  0  0  0
 11 52  1  0  0  0  0
 12 13  1  0  0  0  0
 12 36  1  0  0  0  0
 12 37  1  0  0  0  0
 13 14  1  0  0  0  0
 13 15  1  0  0  0  0
 13 38  1  0  0  0  0
 14 39  1  0  0  0  0
 14 40  1  0  0  0  0
 14 41  1  0  0  0  0
 15 16  1  0  0  0  0
 16 17  1  0  0  0  0
 16 18  1  0  0  0  0
 16 42  1  0  0  0  0
 17 43  1  0  0  0  0
 17 44  1  0  0  0  0
 17 45  1  0  0  0  0
 18 46  1  0  0  0  0
 18 47  1  0  0  0  0
 19 24  2  0  0  0  0
 19 20  1  0  0  0  0
 20 21  2  0  0  0  0
 20 48  1  0  0  0  0
 21 22  1  0  0  0  0
 21 49  1  0  0  0  0
 22 23  2  0  0  0  0
 22 50  1  0  0  0  0
 23 24  1  0  0  0  0
 23 51  1  0  0  0  0
M  CHG  1  11   1
M  END
> <s_m_source_file>
AV-unprocessed.smi

> <i_m_source_file_index>
1570

> <i_lp_mmshare_version>
43012

> <i_f3d_flags>
0

> <s_epik_input>
W2NIXTFbY0hdW2NIXVtjSF1jKGMxMiluKFtDSDJdW0NIM10pYyg9TyluMltDSDJdW0NASF0oW09IXSlbQ0gyXU4zW0NIMl1bQ0BASF0oW0NIM10pT1tDQEBIXShbQ0gzXSlbQ0gyXTM=

> <s_epik_cmdline>
J2VwaWtfcHl0aG9uJywgJy1waCcsICc3LjAnLCAnLXRuJywgJzgnLCAnLW1hJywgJzIwMCcsICctbWV0YWxfYmluZGluZycsICctaW1hZScsICc8aW5maWxlLm1hZT4nLCAnLW9tYWUnLCAnPG91dGZpbGUubWFlPic=

> <r_epik_Ionization_Penalty>
0.706332

> <r_epik_Ionization_Penalty_Charging>
0.706318

> <r_epik_Ionization_Penalty_Neutral>
1.42224e-05

> <r_epik_State_Penalty>
0.729493

> <r_epik_Charging_Adjusted_Penalty>
1.43581

> <i_epik_Tot_Q>
1

> <i_epik_Tot_abs_Q>
1

> <r_epik_Metal_State_Penalty>
0.729493

> <b_epik_Metal_Only>
0

> <s_lp_Force_Field>
OPLS_2005

> <r_lp_Energy>
54.3222

> <b_lp_Chiralities_Consistent>
1

> <s_lp_Variant>
AV-unprocessed.smi:1570-13

> <Gold.Version>
5.8.1

> <Gold.Id.Protein>
6NUR|6NUR_protein|mol2

> <Gold.PLP.Fitness>
50.9800

> <Gold.PLP.PLP>
-49.1421

> <Gold.PLP.part.hbond>
-1.2936

> <Gold.PLP.part.metal>
0.0000

> <Gold.PLP.part.buried>
-2.7316

> <Gold.PLP.part.nonpolar>
-44.9141

> <Gold.PLP.part.repulsive>
0.2908

> <Gold.PLP.ligand.clash>
0.0000

> <Gold.PLP.ligand.torsion>
0.6533

> <Gold.PLP.Chemscore.Hbond>
1.0000

> <Gold.PLP.Chemscore.CHOScore>
0.0000

> <Gold.PLP.Chemscore.Metal>
0.0000

> <Gold.Chemscore.Hbonds>
donor molecule, donor type, donor heavy atom, donor atom, acceptor molecule, acceptor atom, score
      P1  H  7997  8008       L1     5  1.00

> <Gold.PLP.Chemscore.Internal.Correction>
0.1444

> <Gold.Rescore>
     Score         DG    S(hbond)    S(metal)    S(lipo)     H(rot)  DE(clash)    DE(int)     intcor
     17.20     -18.15       0.89        0.00     129.57       2.13       0.40       0.56       ----

> <Gold.Chemscore.Fitness>
17.1967

> <Gold.Chemscore.DG>
-18.1541

> <Gold.Chemscore.ZeroCoef>
-5.4800

> <Gold.Chemscore.Hbond>
0.8887

> <Gold.Chemscore.Metal>
0.0000

> <Gold.Chemscore.Lipo>
129.5678

> <Gold.Chemscore.Internal_Hbond>
0.0000

> <Gold.Chemscore.DEClash>
0.3974

> <Gold.Chemscore.DEInternal>
0.5600

> <Gold.Chemscore.Rot>
2.1303

> <Gold.Chemscore.Internal.Correction>
   9.000000E+99

> <Gold.Chemscore.Hbonds>
donor molecule, donor type, donor heavy atom, donor atom, acceptor molecule, acceptor atom, score
      P1  H  7997  8008       L1     5  0.77

> <Gold.Chemscore.Hbond.Weighted>
-2.9682

> <Gold.Chemscore.Metal.Weighted>
-0.0000

> <Gold.Chemscore.Lipo.Weighted>
-15.1594

> <Gold.Chemscore.Internal_Hbond.Weighted>
0.0000

> <Gold.Chemscore.DEClash.Weighted>
0.3974

> <Gold.Chemscore.DEInternal.Weighted>
0.5600

> <Gold.Chemscore.Rot.Weighted>
5.4535

> <Gold.Chemscore.Internal.Correction.Weighted>
   9.000000E+99

> <Gold.Protein.RotatedTorsions>
[ 6907 6896 6895 6894 ] final   -2.86 input  -60.11 | X-H torsion
[ 7974 7965 7964 7962 ] final   53.40 input  175.53 | X-H torsion
[ 8008 7997 7996 7995 ] final  -95.16 input   59.86 | X-H torsion
[ 10167 10162 10161 10158 ] final   -2.65 input  -65.29 | X-H torsion
[ 10718 10713 10712 10709 ] final   81.80 input   66.30 | X-H torsion
[ 10763 10752 10751 10750 ] final -108.85 input  -60.55 | X-H torsion
[ 11005 11000 10999 10996 ] final  105.80 input  -57.11 | X-H torsion

> <Gold.Protein.ActiveResidues>
 VAL166  LYS551  ARG553  GLY616  TRP617  ASP618  TYR619  PRO620  LYS621  CYS622 
 ASP623  PHE694  ASN695  SER759  ASP760  ASP761  ALA762  ILE779  LEU786  VAL792 
 PHE793  MET794  SER795  GLU796  ALA797  LYS798  CYS799  TRP800  GLU811  SER814 

> <Gold.Protein.RotatedAtoms>
  151.5231  135.1067  159.9883 H   0  0  0  0  0  0  0  0  0  0  0  0  # atno 6907 bound_to 6896
  152.4612  133.7821  159.6867 H   0  0  0  0  0  0  0  0  0  0  0  0  # atno 6908 bound_to 6896
  150.8575  133.7629  159.3029 H   0  0  0  0  0  0  0  0  0  0  0  0  # atno 6909 bound_to 6896
  145.9715  139.4153  143.0187 H   0  0  0  0  0  0  0  0  0  0  0  0  # atno 7974 bound_to 7965
  154.7578  140.0482  157.0948 H   0  0  0  0  0  0  0  0  0  0  0  0  # atno 8008 bound_to 7997
  154.9976  140.3120  155.4861 H   0  0  0  0  0  0  0  0  0  0  0  0  # atno 8009 bound_to 7997
  156.2898  140.2207  156.5084 H   0  0  0  0  0  0  0  0  0  0  0  0  # atno 8010 bound_to 7997
  140.6859  143.6632  150.8249 H   0  0  0  0  0  0  0  0  0  0  0  0  # atno 10167 bound_to 10162
  157.6842  131.0020  150.2280 H   0  0  0  0  0  0  0  0  0  0  0  0  # atno 10718 bound_to 10713
  154.8160  135.4622  154.0644 H   0  0  0  0  0  0  0  0  0  0  0  0  # atno 10763 bound_to 10752
  153.2037  135.6872  153.8206 H   0  0  0  0  0  0  0  0  0  0  0  0  # atno 10764 bound_to 10752
  153.7682  135.3274  155.3325 H   0  0  0  0  0  0  0  0  0  0  0  0  # atno 10765 bound_to 10752
  139.8806  134.9348  156.5570 H   0  0  0  0  0  0  0  0  0  0  0  0  # atno 11005 bound_to 11000
  145.7899  140.9819  143.1054 LP  0  0  0  0  0  0  0  0  0  0  0  0  # atno 17320 bound_to 7965
  144.6838  139.9670  143.7481 LP  0  0  0  0  0  0  0  0  0  0  0  0  # atno 17321 bound_to 7965
  140.0339  143.5415  152.2748 LP  0  0  0  0  0  0  0  0  0  0  0  0  # atno 17342 bound_to 10162
  139.6218  144.7630  151.2724 LP  0  0  0  0  0  0  0  0  0  0  0  0  # atno 17343 bound_to 10162
  156.2918  130.3746  149.7834 LP  0  0  0  0  0  0  0  0  0  0  0  0  # atno 17370 bound_to 10713
  156.5491  130.8334  151.3294 LP  0  0  0  0  0  0  0  0  0  0  0  0  # atno 17371 bound_to 10713
  140.8198  133.8363  155.8885 LP  0  0  0  0  0  0  0  0  0  0  0  0  # atno 17394 bound_to 11000
  140.9429  134.1878  157.4784 LP  0  0  0  0  0  0  0  0  0  0  0  0  # atno 17395 bound_to 11000

$$$$
