AV-unprocessed.smi:2922|AV-procd|sdf|11199|dock1
  -GOLD-   2272016 93D 1   1.00000     0.00000
 Structure written by MMmdl.
 30 31  0  0  0  0  0  0  0  0  1 V2000
  150.8057  137.9286  153.6678 N   0  0  0  0  0  0  0  0  0  0  0  0
  150.4333  138.7276  154.6718 C   0  0  0  0  0  0  0  0  0  0  0  0
  151.2392  139.1420  155.5032 O   0  0  0  0  0  0  0  0  0  0  0  0
  148.9456  139.0972  154.7736 C   0  0  1  0  0  0  0  0  0  0  0  0
  148.6511  140.6042  154.6444 C   0  0  0  0  0  0  0  0  0  0  0  0
  147.7346  140.6957  153.4376 C   0  0  0  0  0  0  0  0  0  0  0  0
  147.1117  139.3036  153.3837 C   0  0  1  0  0  0  0  0  0  0  0  0
  146.5493  138.9109  152.0114 C   0  0  0  0  0  0  0  0  0  0  0  0
  145.2693  138.2286  152.1288 N   0  0  0  0  0  0  0  0  0  0  0  0
  145.0800  136.8843  151.8713 C   0  0  0  0  0  0  0  0  0  0  0  0
  144.1668  136.2232  152.5939 N   0  0  0  0  0  0  0  0  0  0  0  0
  144.0005  134.9103  152.3210 C   0  0  0  0  0  0  0  0  0  0  0  0
  144.7532  134.2646  151.3201 C   0  0  0  0  0  0  0  0  0  0  0  0
  144.5446  132.5893  150.9656 Cl  0  0  0  0  0  0  0  0  0  0  0  0
  145.6854  135.0593  150.6235 C   0  0  0  0  0  0  0  0  0  0  0  0
  145.8456  136.3718  150.9039 N   0  0  0  0  0  0  0  0  0  0  0  0
  148.2156  138.4778  153.7146 O   0  0  0  0  0  0  0  0  0  0  0  0
  151.7753  137.6664  153.5657 H   0  0  0  0  0  0  0  0  0  0  0  0
  150.1134  137.5937  153.0131 H   0  0  0  0  0  0  0  0  0  0  0  0
  148.5576  138.7278  155.7239 H   0  0  0  0  0  0  0  0  0  0  0  0
  148.1362  140.9569  155.5389 H   0  0  0  0  0  0  0  0  0  0  0  0
  149.5381  141.2251  154.5114 H   0  0  0  0  0  0  0  0  0  0  0  0
  146.9940  141.4912  153.5249 H   0  0  0  0  0  0  0  0  0  0  0  0
  148.3262  140.8790  152.5394 H   0  0  0  0  0  0  0  0  0  0  0  0
  146.3502  139.1949  154.1586 H   0  0  0  0  0  0  0  0  0  0  0  0
  146.4371  139.7948  151.3822 H   0  0  0  0  0  0  0  0  0  0  0  0
  147.2506  138.2459  151.5063 H   0  0  0  0  0  0  0  0  0  0  0  0
  144.4681  138.7594  152.4383 H   0  0  0  0  0  0  0  0  0  0  0  0
  143.2642  134.3759  152.9032 H   0  0  0  0  0  0  0  0  0  0  0  0
  146.3032  134.6443  149.8410 H   0  0  0  0  0  0  0  0  0  0  0  0
  1  2  1  0  0  0  0
  1 18  1  0  0  0  0
  1 19  1  0  0  0  0
  2  3  2  0  0  0  0
  2  4  1  0  0  0  0
  4 17  1  0  0  0  0
  4  5  1  0  0  0  0
  4 20  1  0  0  0  0
  5  6  1  0  0  0  0
  5 21  1  0  0  0  0
  5 22  1  0  0  0  0
  6  7  1  0  0  0  0
  6 23  1  0  0  0  0
  6 24  1  0  0  0  0
  7  8  1  0  0  0  0
  7 17  1  0  0  0  0
  7 25  1  0  0  0  0
  8  9  1  0  0  0  0
  8 26  1  0  0  0  0
  8 27  1  0  0  0  0
  9 10  1  0  0  0  0
  9 28  1  0  0  0  0
 10 16  1  0  0  0  0
 10 11  2  0  0  0  0
 11 12  1  0  0  0  0
 12 13  2  0  0  0  0
 12 29  1  0  0  0  0
 13 14  1  0  0  0  0
 13 15  1  0  0  0  0
 15 16  2  0  0  0  0
 15 30  1  0  0  0  0
M  END
> <s_m_source_file>
AV-unprocessed.smi

> <i_m_source_file_index>
2922

> <i_lp_mmshare_version>
43012

> <i_f3d_flags>
0

> <s_epik_input>
W05IMl1DKD1PKVtDQEBIXTFbQ0gyXVtDSDJdW0NASF0oTzEpW0NIMl1bTkhdYzJuW2NIXWMoQ2wpW2NIXW4y

> <s_epik_cmdline>
J2VwaWtfcHl0aG9uJywgJy1waCcsICc3LjAnLCAnLXRuJywgJzgnLCAnLW1hJywgJzIwMCcsICctbWV0YWxfYmluZGluZycsICctaW1hZScsICc8aW5maWxlLm1hZT4nLCAnLW9tYWUnLCAnPG91dGZpbGUubWFlPic=

> <r_lp_tautomer_probability>
1

> <r_epik_Ionization_Penalty>
6.13883e-06

> <r_epik_Ionization_Penalty_Charging>
0

> <r_epik_Ionization_Penalty_Neutral>
6.13883e-06

> <r_epik_State_Penalty>
-0

> <r_epik_Charging_Adjusted_Penalty>
0

> <i_epik_Tot_Q>
0

> <i_epik_Tot_abs_Q>
0

> <r_epik_Metal_State_Penalty>
-0

> <b_epik_Metal_Only>
0

> <s_lp_Force_Field>
OPLS_2005

> <r_lp_Energy>
9.86334

> <b_lp_Chiralities_Consistent>
1

> <s_lp_Variant>
AV-unprocessed.smi:2922-2

> <Gold.Version>
5.8.1

> <Gold.Id.Protein>
6NUR|6NUR_protein|mol2

> <Gold.PLP.Fitness>
35.3922

> <Gold.PLP.PLP>
-28.1702

> <Gold.PLP.part.hbond>
-4.0000

> <Gold.PLP.part.metal>
0.0000

> <Gold.PLP.part.buried>
-2.1412

> <Gold.PLP.part.nonpolar>
-24.4781

> <Gold.PLP.part.repulsive>
1.3757

> <Gold.PLP.ligand.clash>
0.0000

> <Gold.PLP.ligand.torsion>
0.9170

> <Gold.PLP.Chemscore.Hbond>
2.0000

> <Gold.PLP.Chemscore.CHOScore>
0.9976

> <Gold.PLP.Chemscore.Metal>
0.0000

> <Gold.Chemscore.Hbonds>
donor molecule, donor type, donor heavy atom, donor atom, acceptor molecule, acceptor atom, score
      L1  H     1    19       P1  7948  0.76
      L1  H     9    28       P1 10175  0.90
      L1  C    15    30       P1  7921  1.00

> <Gold.PLP.Chemscore.Internal.Correction>
0.0631

> <Gold.Rescore>
     Score         DG    S(hbond)    S(metal)    S(lipo)     H(rot)  DE(clash)    DE(int)     intcor
     10.12     -11.79       1.41        0.00      55.40       1.91       0.73       0.94       ----

> <Gold.Chemscore.Fitness>
10.1188

> <Gold.Chemscore.DG>
-11.7864

> <Gold.Chemscore.ZeroCoef>
-5.4800

> <Gold.Chemscore.Hbond>
1.4145

> <Gold.Chemscore.Metal>
0.0000

> <Gold.Chemscore.Lipo>
55.4023

> <Gold.Chemscore.Internal_Hbond>
0.0000

> <Gold.Chemscore.DEClash>
0.7325

> <Gold.Chemscore.DEInternal>
0.9351

> <Gold.Chemscore.Rot>
1.9142

> <Gold.Chemscore.Internal.Correction>
   9.000000E+99

> <Gold.Chemscore.Hbonds>
donor molecule, donor type, donor heavy atom, donor atom, acceptor molecule, acceptor atom, score
      L1  H     1    19       P1  7948  0.12
      L1  H     9    28       P1 10175  0.88

> <Gold.Chemscore.Hbond.Weighted>
-4.7246

> <Gold.Chemscore.Metal.Weighted>
-0.0000

> <Gold.Chemscore.Lipo.Weighted>
-6.4821

> <Gold.Chemscore.Internal_Hbond.Weighted>
0.0000

> <Gold.Chemscore.DEClash.Weighted>
0.7325

> <Gold.Chemscore.DEInternal.Weighted>
0.9351

> <Gold.Chemscore.Rot.Weighted>
4.9002

> <Gold.Chemscore.Internal.Correction.Weighted>
   9.000000E+99

> <Gold.Protein.RotatedTorsions>
[ 6907 6896 6895 6894 ] final -105.45 input  -60.11 | X-H torsion
[ 7974 7965 7964 7962 ] final   81.58 input  175.53 | X-H torsion
[ 8008 7997 7996 7995 ] final   71.54 input   59.86 | X-H torsion
[ 10167 10162 10161 10158 ] final  -31.99 input  -65.29 | X-H torsion
[ 10718 10713 10712 10709 ] final  -99.06 input   66.30 | X-H torsion
[ 10763 10752 10751 10750 ] final   16.98 input  -60.55 | X-H torsion
[ 11005 11000 10999 10996 ] final  120.70 input  -57.11 | X-H torsion

> <Gold.Protein.ActiveResidues>
 VAL166  LYS551  ARG553  GLY616  TRP617  ASP618  TYR619  PRO620  LYS621  CYS622 
 ASP623  PHE694  ASN695  SER759  ASP760  ASP761  ALA762  ILE779  LEU786  VAL792 
 PHE793  MET794  SER795  GLU796  ALA797  LYS798  CYS799  TRP800  GLU811  SER814 

> <Gold.Protein.RotatedAtoms>
  150.7338  134.0124  159.3673 H   0  0  0  0  0  0  0  0  0  0  0  0  # atno 6907 bound_to 6896
  151.8085  135.0686  160.0419 H   0  0  0  0  0  0  0  0  0  0  0  0  # atno 6908 bound_to 6896
  152.3090  133.5697  159.5704 H   0  0  0  0  0  0  0  0  0  0  0  0  # atno 6909 bound_to 6896
  145.6363  139.2415  143.2056 H   0  0  0  0  0  0  0  0  0  0  0  0  # atno 7974 bound_to 7965
  155.7553  140.3487  155.5171 H   0  0  0  0  0  0  0  0  0  0  0  0  # atno 8008 bound_to 7997
  155.8965  140.1027  157.1402 H   0  0  0  0  0  0  0  0  0  0  0  0  # atno 8009 bound_to 7997
  154.4039  140.1294  156.4369 H   0  0  0  0  0  0  0  0  0  0  0  0  # atno 8010 bound_to 7997
  140.7228  143.3728  151.1746 H   0  0  0  0  0  0  0  0  0  0  0  0  # atno 10167 bound_to 10162
  156.0124  130.5265  150.6614 H   0  0  0  0  0  0  0  0  0  0  0  0  # atno 10718 bound_to 10713
  153.1381  135.6754  153.9071 H   0  0  0  0  0  0  0  0  0  0  0  0  # atno 10763 bound_to 10752
  153.8536  135.3090  155.3435 H   0  0  0  0  0  0  0  0  0  0  0  0  # atno 10764 bound_to 10752
  154.7764  135.4912  153.9837 H   0  0  0  0  0  0  0  0  0  0  0  0  # atno 10765 bound_to 10752
  139.9196  134.9636  156.7847 H   0  0  0  0  0  0  0  0  0  0  0  0  # atno 11005 bound_to 11000
  146.1317  140.7177  142.9409 LP  0  0  0  0  0  0  0  0  0  0  0  0  # atno 17320 bound_to 7965
  144.7174  140.4258  143.7034 LP  0  0  0  0  0  0  0  0  0  0  0  0  # atno 17321 bound_to 7965
  139.7303  143.9083  152.3017 LP  0  0  0  0  0  0  0  0  0  0  0  0  # atno 17342 bound_to 10162
  139.8870  144.6986  150.8813 LP  0  0  0  0  0  0  0  0  0  0  0  0  # atno 17343 bound_to 10162
  157.4355  131.0855  151.0996 LP  0  0  0  0  0  0  0  0  0  0  0  0  # atno 17370 bound_to 10713
  157.1555  130.6203  149.5595 LP  0  0  0  0  0  0  0  0  0  0  0  0  # atno 17371 bound_to 10713
  140.6516  133.9726  155.7758 LP  0  0  0  0  0  0  0  0  0  0  0  0  # atno 17394 bound_to 11000
  141.0704  134.0213  157.3534 LP  0  0  0  0  0  0  0  0  0  0  0  0  # atno 17395 bound_to 11000

$$$$
