AV-unprocessed.smi:1047|AV-procd|sdf|4571|dock4
  -GOLD-   22720 3 23D 1   1.00000     0.00000
 Structure written by MMmdl.
 56 58  0  0  0  0  0  0  0  0  2 V2000
  144.5194  144.8366  158.8408 C   0  0  0  0  0  0  0  0  0  0  0  0
  143.4666  145.1310  157.7625 C   0  0  0  0  0  0  0  0  0  0  0  0
  143.9978  145.2956  156.4103 N   0  0  0  0  0  0  0  0  0  0  0  0
  142.9438  145.6806  155.4784 C   0  0  0  0  0  0  0  0  0  0  0  0
  143.4792  145.8568  154.0476 C   0  0  0  0  0  0  0  0  0  0  0  0
  144.1191  144.6554  153.6297 O   0  0  0  0  0  0  0  0  0  0  0  0
  145.1959  144.2728  154.4821 C   0  0  2  0  0  0  0  0  0  0  0  0
  145.8107  142.9800  153.9294 C   0  0  0  0  0  0  0  0  0  0  0  0
  146.9958  142.5793  154.7126 N   0  3  0  0  0  0  0  0  0  0  0  0
  147.6644  141.3624  154.2121 C   0  0  0  0  0  0  0  0  0  0  0  0
  148.7093  140.8439  155.2176 C   0  0  1  0  0  0  0  0  0  0  0  0
  149.1122  139.5458  154.8246 O   0  0  0  0  0  0  0  0  0  0  0  0
  149.9559  141.7478  155.3366 C   0  0  0  0  0  0  0  0  0  0  0  0
  150.9102  141.2938  156.3357 N   0  0  0  0  0  0  0  0  0  0  0  0
  151.6738  140.1851  156.2820 C   0  0  0  0  0  0  0  0  0  0  0  0
  152.4944  139.9602  157.3033 N   0  0  0  0  0  0  0  0  0  0  0  0
  152.2227  141.0416  158.1233 C   0  0  0  0  0  0  0  0  0  0  0  0
  152.7647  141.4002  159.3768 C   0  0  0  0  0  0  0  0  0  0  0  0
  152.3334  142.5676  160.0457 C   0  0  0  0  0  0  0  0  0  0  0  0
  152.9447  142.9156  161.3916 C   0  0  0  0  0  0  0  0  0  0  0  0
  151.3425  143.3965  159.4610 C   0  0  0  0  0  0  0  0  0  0  0  0
  150.8601  144.6528  160.1647 C   0  0  0  0  0  0  0  0  0  0  0  0
  150.7912  143.0538  158.2087 C   0  0  0  0  0  0  0  0  0  0  0  0
  151.2315  141.8915  157.5506 C   0  0  0  0  0  0  0  0  0  0  0  0
  144.6522  144.0877  155.9133 C   0  0  0  0  0  0  0  0  0  0  0  0
  144.0638  144.8383  159.8310 H   0  0  0  0  0  0  0  0  0  0  0  0
  145.3063  145.5913  158.8385 H   0  0  0  0  0  0  0  0  0  0  0  0
  144.9846  143.8611  158.7023 H   0  0  0  0  0  0  0  0  0  0  0  0
  142.7071  144.3477  157.7713 H   0  0  0  0  0  0  0  0  0  0  0  0
  142.9526  146.0488  158.0514 H   0  0  0  0  0  0  0  0  0  0  0  0
  142.1565  144.9249  155.4771 H   0  0  0  0  0  0  0  0  0  0  0  0
  142.4807  146.6121  155.8061 H   0  0  0  0  0  0  0  0  0  0  0  0
  142.6627  146.0836  153.3619 H   0  0  0  0  0  0  0  0  0  0  0  0
  144.1821  146.6900  153.9968 H   0  0  0  0  0  0  0  0  0  0  0  0
  145.9530  145.0595  154.4838 H   0  0  0  0  0  0  0  0  0  0  0  0
  145.0760  142.1748  153.9731 H   0  0  0  0  0  0  0  0  0  0  0  0
  146.0865  143.1085  152.8816 H   0  0  0  0  0  0  0  0  0  0  0  0
  147.6597  143.3406  154.7002 H   0  0  0  0  0  0  0  0  0  0  0  0
  146.9164  140.5975  153.9978 H   0  0  0  0  0  0  0  0  0  0  0  0
  148.1541  141.6061  153.2684 H   0  0  0  0  0  0  0  0  0  0  0  0
  148.2501  140.7664  156.2041 H   0  0  0  0  0  0  0  0  0  0  0  0
  149.3012  139.5555  153.8983 H   0  0  0  0  0  0  0  0  0  0  0  0
  150.4673  141.8029  154.3748 H   0  0  0  0  0  0  0  0  0  0  0  0
  149.6595  142.7687  155.5816 H   0  0  0  0  0  0  0  0  0  0  0  0
  151.6310  139.5093  155.4401 H   0  0  0  0  0  0  0  0  0  0  0  0
  153.5179  140.7674  159.8230 H   0  0  0  0  0  0  0  0  0  0  0  0
  152.1728  142.9760  162.1590 H   0  0  0  0  0  0  0  0  0  0  0  0
  153.4585  143.8760  161.3401 H   0  0  0  0  0  0  0  0  0  0  0  0
  153.6705  142.1649  161.7058 H   0  0  0  0  0  0  0  0  0  0  0  0
  150.1327  145.1946  159.5592 H   0  0  0  0  0  0  0  0  0  0  0  0
  151.6946  145.3252  160.3649 H   0  0  0  0  0  0  0  0  0  0  0  0
  150.3847  144.3990  161.1122 H   0  0  0  0  0  0  0  0  0  0  0  0
  150.0347  143.6770  157.7553 H   0  0  0  0  0  0  0  0  0  0  0  0
  145.4791  143.8126  156.5673 H   0  0  0  0  0  0  0  0  0  0  0  0
  143.9488  143.2537  155.9316 H   0  0  0  0  0  0  0  0  0  0  0  0
  146.7128  142.4158  155.6685 H   0  0  0  0  0  0  0  0  0  0  0  0
  1  2  1  0  0  0  0
  1 26  1  0  0  0  0
  1 27  1  0  0  0  0
  1 28  1  0  0  0  0
  2  3  1  0  0  0  0
  2 29  1  0  0  0  0
  2 30  1  0  0  0  0
  3 25  1  0  0  0  0
  3  4  1  0  0  0  0
  4  5  1  0  0  0  0
  4 31  1  0  0  0  0
  4 32  1  0  0  0  0
  5  6  1  0  0  0  0
  5 33  1  0  0  0  0
  5 34  1  0  0  0  0
  6  7  1  0  0  0  0
  7  8  1  0  0  0  0
  7 25  1  0  0  0  0
  7 35  1  0  0  0  0
  8  9  1  0  0  0  0
  8 36  1  0  0  0  0
  8 37  1  0  0  0  0
  9 10  1  0  0  0  0
  9 38  1  0  0  0  0
  9 56  1  0  0  0  0
 10 11  1  0  0  0  0
 10 39  1  0  0  0  0
 10 40  1  0  0  0  0
 11 12  1  0  0  0  0
 11 13  1  0  0  0  0
 11 41  1  0  0  0  0
 12 42  1  0  0  0  0
 13 14  1  0  0  0  0
 13 43  1  0  0  0  0
 13 44  1  0  0  0  0
 14 24  1  0  0  0  0
 14 15  1  0  0  0  0
 15 16  2  0  0  0  0
 15 45  1  0  0  0  0
 16 17  1  0  0  0  0
 17 24  2  0  0  0  0
 17 18  1  0  0  0  0
 18 19  2  0  0  0  0
 18 46  1  0  0  0  0
 19 20  1  0  0  0  0
 19 21  1  0  0  0  0
 20 47  1  0  0  0  0
 20 48  1  0  0  0  0
 20 49  1  0  0  0  0
 21 22  1  0  0  0  0
 21 23  2  0  0  0  0
 22 50  1  0  0  0  0
 22 51  1  0  0  0  0
 22 52  1  0  0  0  0
 23 24  1  0  0  0  0
 23 53  1  0  0  0  0
 25 54  1  0  0  0  0
 25 55  1  0  0  0  0
M  CHG  1   9   1
M  END
> <s_m_source_file>
AV-unprocessed.smi

> <i_m_source_file_index>
1047

> <i_lp_mmshare_version>
43012

> <i_f3d_flags>
0

> <s_epik_input>
W0NIM11bQ0gyXU4xW0NIMl1bQ0gyXU9bQ0BIXShbQ0gyXTEpW0NIMl1bTkhdW0NIMl1bQ0BIXShbT0hdKVtDSDJdbihbY0hdbjIpYyhjMjMpW2NIXWMoW0NIM10pYyhbY0hdMylbQ0gzXQ==

> <s_epik_cmdline>
J2VwaWtfcHl0aG9uJywgJy1waCcsICc3LjAnLCAnLXRuJywgJzgnLCAnLW1hJywgJzIwMCcsICctbWV0YWxfYmluZGluZycsICctaW1hZScsICc8aW5maWxlLm1hZT4nLCAnLW9tYWUnLCAnPG91dGZpbGUubWFlPic=

> <r_epik_Ionization_Penalty>
0.692425

> <r_epik_Ionization_Penalty_Charging>
0.0243549

> <r_epik_Ionization_Penalty_Neutral>
0.66807

> <r_epik_State_Penalty>
0.592789

> <r_epik_Charging_Adjusted_Penalty>
0.617144

> <i_epik_Tot_Q>
1

> <i_epik_Tot_abs_Q>
1

> <r_epik_Metal_State_Penalty>
0.508021

> <b_epik_Metal_Only>
0

> <s_lp_Force_Field>
OPLS_2005

> <r_lp_Energy>
28.1656

> <b_lp_Chiralities_Consistent>
1

> <s_lp_Variant>
AV-unprocessed.smi:1047-12

> <Gold.Version>
5.8.1

> <Gold.Id.Protein>
6NUR|6NUR_protein|mol2

> <Gold.PLP.Fitness>
56.3985

> <Gold.PLP.PLP>
-47.5183

> <Gold.PLP.part.hbond>
-2.0000

> <Gold.PLP.part.metal>
0.0000

> <Gold.PLP.part.buried>
-7.9932

> <Gold.PLP.part.nonpolar>
-38.3792

> <Gold.PLP.part.repulsive>
0.5528

> <Gold.PLP.ligand.clash>
0.0000

> <Gold.PLP.ligand.torsion>
0.1884

> <Gold.PLP.Chemscore.Hbond>
3.0000

> <Gold.PLP.Chemscore.CHOScore>
0.0000

> <Gold.PLP.Chemscore.Metal>
0.0000

> <Gold.Chemscore.Hbonds>
donor molecule, donor type, donor heavy atom, donor atom, acceptor molecule, acceptor atom, score
      L1  H     9    38       P1  8028  1.98
      P1  H  7997  8009       L1    16  1.00

> <Gold.PLP.Chemscore.Internal.Correction>
0.2570

> <Gold.Rescore>
     Score         DG    S(hbond)    S(metal)    S(lipo)     H(rot)  DE(clash)    DE(int)     intcor
     16.12     -17.92       1.23        0.00     128.12       2.60       1.50       0.30       ----

> <Gold.Chemscore.Fitness>
16.1206

> <Gold.Chemscore.DG>
-17.9206

> <Gold.Chemscore.ZeroCoef>
-5.4800

> <Gold.Chemscore.Hbond>
1.2332

> <Gold.Chemscore.Metal>
0.0000

> <Gold.Chemscore.Lipo>
128.1217

> <Gold.Chemscore.Internal_Hbond>
0.0000

> <Gold.Chemscore.DEClash>
1.4991

> <Gold.Chemscore.DEInternal>
0.3008

> <Gold.Chemscore.Rot>
2.6049

> <Gold.Chemscore.Internal.Correction>
   9.000000E+99

> <Gold.Chemscore.Hbonds>
donor molecule, donor type, donor heavy atom, donor atom, acceptor molecule, acceptor atom, score
      L1  H     9    38       P1  8028  0.45
      P1  H  7997  8009       L1    16  0.44

> <Gold.Chemscore.Hbond.Weighted>
-4.1188

> <Gold.Chemscore.Metal.Weighted>
-0.0000

> <Gold.Chemscore.Lipo.Weighted>
-14.9902

> <Gold.Chemscore.Internal_Hbond.Weighted>
0.0000

> <Gold.Chemscore.DEClash.Weighted>
1.4991

> <Gold.Chemscore.DEInternal.Weighted>
0.3008

> <Gold.Chemscore.Rot.Weighted>
6.6685

> <Gold.Chemscore.Internal.Correction.Weighted>
   9.000000E+99

> <Gold.Protein.RotatedTorsions>
[ 6907 6896 6895 6894 ] final  -48.95 input  -60.11 | X-H torsion
[ 7974 7965 7964 7962 ] final  120.15 input  175.53 | X-H torsion
[ 8008 7997 7996 7995 ] final -177.93 input   59.86 | X-H torsion
[ 10167 10162 10161 10158 ] final  -17.44 input  -65.29 | X-H torsion
[ 10718 10713 10712 10709 ] final   90.70 input   66.30 | X-H torsion
[ 10763 10752 10751 10750 ] final  -55.49 input  -60.55 | X-H torsion
[ 11005 11000 10999 10996 ] final  -52.00 input  -57.11 | X-H torsion

> <Gold.Protein.ActiveResidues>
 VAL166  LYS551  ARG553  GLY616  TRP617  ASP618  TYR619  PRO620  LYS621  CYS622 
 ASP623  PHE694  ASN695  SER759  ASP760  ASP761  ALA762  ILE779  LEU786  VAL792 
 PHE793  MET794  SER795  GLU796  ALA797  LYS798  CYS799  TRP800  GLU811  SER814 

> <Gold.Protein.RotatedAtoms>
  150.8853  134.8250  159.7254 H   0  0  0  0  0  0  0  0  0  0  0  0  # atno 6907 bound_to 6896
  152.4804  134.4732  159.9652 H   0  0  0  0  0  0  0  0  0  0  0  0  # atno 6908 bound_to 6896
  151.4801  133.3509  159.2872 H   0  0  0  0  0  0  0  0  0  0  0  0  # atno 6909 bound_to 6896
  145.1347  139.3305  143.4647 H   0  0  0  0  0  0  0  0  0  0  0  0  # atno 7974 bound_to 7965
  156.0128  140.1244  157.0437 H   0  0  0  0  0  0  0  0  0  0  0  0  # atno 8008 bound_to 7997
  154.4282  140.1084  156.5923 H   0  0  0  0  0  0  0  0  0  0  0  0  # atno 8009 bound_to 7997
  155.6056  140.3471  155.4609 H   0  0  0  0  0  0  0  0  0  0  0  0  # atno 8010 bound_to 7997
  140.7247  143.5016  150.9862 H   0  0  0  0  0  0  0  0  0  0  0  0  # atno 10167 bound_to 10162
  157.6959  131.0380  150.3617 H   0  0  0  0  0  0  0  0  0  0  0  0  # atno 10718 bound_to 10713
  154.1916  135.6426  153.5061 H   0  0  0  0  0  0  0  0  0  0  0  0  # atno 10763 bound_to 10752
  153.0034  135.5430  154.6409 H   0  0  0  0  0  0  0  0  0  0  0  0  # atno 10764 bound_to 10752
  154.5799  135.2924  155.0716 H   0  0  0  0  0  0  0  0  0  0  0  0  # atno 10765 bound_to 10752
  141.0901  133.6634  156.3960 H   0  0  0  0  0  0  0  0  0  0  0  0  # atno 11005 bound_to 11000
  146.3511  140.1359  142.8596 LP  0  0  0  0  0  0  0  0  0  0  0  0  # atno 17320 bound_to 7965
  145.0597  140.9079  143.4946 LP  0  0  0  0  0  0  0  0  0  0  0  0  # atno 17321 bound_to 7965
  139.8725  143.7174  152.3165 LP  0  0  0  0  0  0  0  0  0  0  0  0  # atno 17342 bound_to 10162
  139.7428  144.7555  151.0626 LP  0  0  0  0  0  0  0  0  0  0  0  0  # atno 17343 bound_to 10162
  156.4053  130.3923  149.6930 LP  0  0  0  0  0  0  0  0  0  0  0  0  # atno 17370 bound_to 10713
  156.4234  130.7780  151.2797 LP  0  0  0  0  0  0  0  0  0  0  0  0  # atno 17371 bound_to 10713
  140.5272  134.6248  157.5338 LP  0  0  0  0  0  0  0  0  0  0  0  0  # atno 17394 bound_to 11000
  139.9725  134.7269  156.0013 LP  0  0  0  0  0  0  0  0  0  0  0  0  # atno 17395 bound_to 11000

$$$$
