AV-unprocessed.smi:2671|AV-procd|sdf|10352|dock10
  -GOLD-   2272014373D 1   1.00000     0.00000
 Structure written by MMmdl.
 29 30  0  0  0  0  0  0  0  0  1 V2000
  151.6016  137.0428  154.1305 O   0  0  0  0  0  0  0  0  0  0  0  0
  151.0740  138.1800  154.6659 C   0  0  0  0  0  0  0  0  0  0  0  0
  149.8965  138.7301  154.1174 C   0  0  0  0  0  0  0  0  0  0  0  0
  149.4064  139.9108  154.7222 C   0  0  0  0  0  0  0  0  0  0  0  0
  148.1469  140.6081  154.2308 C   0  0  0  0  0  0  0  0  0  0  0  0
  147.6030  139.9650  153.1972 F   0  0  0  0  0  0  0  0  0  0  0  0
  147.2490  140.6617  155.2148 F   0  0  0  0  0  0  0  0  0  0  0  0
  148.4410  141.8508  153.8477 F   0  0  0  0  0  0  0  0  0  0  0  0
  150.0399  140.4790  155.7745 N   0  0  0  0  0  0  0  0  0  0  0  0
  151.1431  139.8653  156.2034 C   0  0  0  0  0  0  0  0  0  0  0  0
  151.9704  140.6166  157.5799 S   0  0  0  0  0  0  0  0  0  0  0  0
  151.2861  142.2914  157.4510 C   0  0  0  0  0  0  0  0  0  0  0  0
  152.0916  143.3039  158.2763 C   0  0  2  0  0  0  0  0  0  0  0  0
  152.1750  142.9852  159.7731 C   0  0  0  0  0  0  0  0  0  0  0  0
  152.1828  144.3500  160.4491 C   0  0  0  0  0  0  0  0  0  0  0  0
  152.0379  145.3411  159.2948 C   0  0  0  0  0  0  0  0  0  0  0  0
  151.4595  144.5739  158.2513 O   0  0  0  0  0  0  0  0  0  0  0  0
  151.6990  138.7548  155.7158 N   0  0  0  0  0  0  0  0  0  0  0  0
  151.1424  136.7591  153.3549 H   0  0  0  0  0  0  0  0  0  0  0  0
  149.4002  138.2669  153.2773 H   0  0  0  0  0  0  0  0  0  0  0  0
  151.2894  142.5840  156.4007 H   0  0  0  0  0  0  0  0  0  0  0  0
  150.2444  142.2783  157.7732 H   0  0  0  0  0  0  0  0  0  0  0  0
  153.0956  143.4138  157.8622 H   0  0  0  0  0  0  0  0  0  0  0  0
  151.3019  142.4197  160.1011 H   0  0  0  0  0  0  0  0  0  0  0  0
  153.0609  142.3959  160.0122 H   0  0  0  0  0  0  0  0  0  0  0  0
  151.3379  144.4319  161.1338 H   0  0  0  0  0  0  0  0  0  0  0  0
  153.0948  144.5277  161.0194 H   0  0  0  0  0  0  0  0  0  0  0  0
  151.4189  146.2009  159.5525 H   0  0  0  0  0  0  0  0  0  0  0  0
  153.0150  145.7068  158.9752 H   0  0  0  0  0  0  0  0  0  0  0  0
  1  2  1  0  0  0  0
  1 19  1  0  0  0  0
  2 18  1  0  0  0  0
  2  3  2  0  0  0  0
  3  4  1  0  0  0  0
  3 20  1  0  0  0  0
  4  5  1  0  0  0  0
  4  9  2  0  0  0  0
  5  6  1  0  0  0  0
  5  7  1  0  0  0  0
  5  8  1  0  0  0  0
  9 10  1  0  0  0  0
 10 11  1  0  0  0  0
 10 18  2  0  0  0  0
 11 12  1  0  0  0  0
 12 13  1  0  0  0  0
 12 21  1  0  0  0  0
 12 22  1  0  0  0  0
 13 17  1  0  0  0  0
 13 14  1  0  0  0  0
 13 23  1  0  0  0  0
 14 15  1  0  0  0  0
 14 24  1  0  0  0  0
 14 25  1  0  0  0  0
 15 16  1  0  0  0  0
 15 26  1  0  0  0  0
 15 27  1  0  0  0  0
 16 17  1  0  0  0  0
 16 28  1  0  0  0  0
 16 29  1  0  0  0  0
M  END
> <s_m_source_file>
AV-unprocessed.smi

> <i_m_source_file_index>
2671

> <i_lp_mmshare_version>
43012

> <i_f3d_flags>
0

> <s_epik_input>
W09IXWMxW2NIXWMoQyhGKShGKUYpbmMobjEpU1tDSDJdW0NAQEhdMltDSDJdW0NIMl1bQ0gyXU8y

> <s_epik_cmdline>
J2VwaWtfcHl0aG9uJywgJy1waCcsICc3LjAnLCAnLXRuJywgJzgnLCAnLW1hJywgJzIwMCcsICctbWV0YWxfYmluZGluZycsICctaW1hZScsICc8aW5maWxlLm1hZT4nLCAnLW9tYWUnLCAnPG91dGZpbGUubWFlPic=

> <r_lp_tautomer_probability>
0.0660145

> <r_epik_Ionization_Penalty>
3.60098

> <r_epik_Ionization_Penalty_Charging>
0

> <r_epik_Ionization_Penalty_Neutral>
3.60098

> <r_epik_State_Penalty>
2.71709

> <r_epik_Charging_Adjusted_Penalty>
2.71709

> <i_epik_Tot_Q>
0

> <i_epik_Tot_abs_Q>
0

> <r_epik_Metal_State_Penalty>
3.44057

> <b_epik_Metal_Only>
0

> <s_lp_Force_Field>
OPLS_2005

> <r_lp_Energy>
11.8845

> <b_lp_Chiralities_Consistent>
1

> <s_lp_Variant>
AV-unprocessed.smi:2671-7

> <Gold.Version>
5.8.1

> <Gold.Id.Protein>
6NUR|6NUR_protein|mol2

> <Gold.PLP.Fitness>
45.3333

> <Gold.PLP.PLP>
-40.0356

> <Gold.PLP.part.hbond>
-2.0000

> <Gold.PLP.part.metal>
0.0000

> <Gold.PLP.part.buried>
-5.2750

> <Gold.PLP.part.nonpolar>
-32.8321

> <Gold.PLP.part.repulsive>
0.1750

> <Gold.PLP.ligand.clash>
0.0000

> <Gold.PLP.ligand.torsion>
0.3544

> <Gold.PLP.Chemscore.Hbond>
2.0000

> <Gold.PLP.Chemscore.CHOScore>
0.0000

> <Gold.PLP.Chemscore.Metal>
0.0000

> <Gold.Chemscore.Hbonds>
donor molecule, donor type, donor heavy atom, donor atom, acceptor molecule, acceptor atom, score
      L1  H     1    19       P1  7949  1.00
      P1  H 10752 10765       L1     1  1.00

> <Gold.PLP.Chemscore.Internal.Correction>
0.0065

> <Gold.Rescore>
     Score         DG    S(hbond)    S(metal)    S(lipo)     H(rot)  DE(clash)    DE(int)     intcor
     13.94     -14.43       1.53        0.00      82.42       2.27       0.06       0.43       ----

> <Gold.Chemscore.Fitness>
13.9433

> <Gold.Chemscore.DG>
-14.4289

> <Gold.Chemscore.ZeroCoef>
-5.4800

> <Gold.Chemscore.Hbond>
1.5283

> <Gold.Chemscore.Metal>
0.0000

> <Gold.Chemscore.Lipo>
82.4163

> <Gold.Chemscore.Internal_Hbond>
0.0000

> <Gold.Chemscore.DEClash>
0.0586

> <Gold.Chemscore.DEInternal>
0.4271

> <Gold.Chemscore.Rot>
2.2650

> <Gold.Chemscore.Internal.Correction>
   9.000000E+99

> <Gold.Chemscore.Hbonds>
donor molecule, donor type, donor heavy atom, donor atom, acceptor molecule, acceptor atom, score
      L1  H     1    19       P1  7949  0.40
      P1  H 10752 10765       L1     1  0.30

> <Gold.Chemscore.Hbond.Weighted>
-5.1046

> <Gold.Chemscore.Metal.Weighted>
-0.0000

> <Gold.Chemscore.Lipo.Weighted>
-9.6427

> <Gold.Chemscore.Internal_Hbond.Weighted>
0.0000

> <Gold.Chemscore.DEClash.Weighted>
0.0586

> <Gold.Chemscore.DEInternal.Weighted>
0.4271

> <Gold.Chemscore.Rot.Weighted>
5.7984

> <Gold.Chemscore.Internal.Correction.Weighted>
   9.000000E+99

> <Gold.Protein.RotatedTorsions>
[ 6907 6896 6895 6894 ] final   53.88 input  -60.11 | X-H torsion
[ 7974 7965 7964 7962 ] final   70.24 input  175.53 | X-H torsion
[ 8008 7997 7996 7995 ] final -172.23 input   59.86 | X-H torsion
[ 10167 10162 10161 10158 ] final -132.63 input  -65.29 | X-H torsion
[ 10718 10713 10712 10709 ] final   64.22 input   66.30 | X-H torsion
[ 10763 10752 10751 10750 ] final  161.57 input  -60.55 | X-H torsion
[ 11005 11000 10999 10996 ] final  -87.56 input  -57.11 | X-H torsion

> <Gold.Protein.ActiveResidues>
 VAL166  LYS551  ARG553  GLY616  TRP617  ASP618  TYR619  PRO620  LYS621  CYS622 
 ASP623  PHE694  ASN695  SER759  ASP760  ASP761  ALA762  ILE779  LEU786  VAL792 
 PHE793  MET794  SER795  GLU796  ALA797  LYS798  CYS799  TRP800  GLU811  SER814 

> <Gold.Protein.RotatedAtoms>
  152.3382  134.7170  160.0270 H   0  0  0  0  0  0  0  0  0  0  0  0  # atno 6907 bound_to 6896
  151.7564  133.3325  159.3413 H   0  0  0  0  0  0  0  0  0  0  0  0  # atno 6908 bound_to 6896
  150.7463  134.6078  159.6115 H   0  0  0  0  0  0  0  0  0  0  0  0  # atno 6909 bound_to 6896
  145.7806  139.2886  143.1268 H   0  0  0  0  0  0  0  0  0  0  0  0  # atno 7974 bound_to 7965
  155.9419  140.1110  157.1049 H   0  0  0  0  0  0  0  0  0  0  0  0  # atno 8008 bound_to 7997
  154.4091  140.1217  156.5004 H   0  0  0  0  0  0  0  0  0  0  0  0  # atno 8009 bound_to 7997
  155.6951  140.3472  155.4912 H   0  0  0  0  0  0  0  0  0  0  0  0  # atno 8010 bound_to 7997
  139.9066  143.6544  152.2584 H   0  0  0  0  0  0  0  0  0  0  0  0  # atno 10167 bound_to 10162
  157.6025  130.9148  149.9817 H   0  0  0  0  0  0  0  0  0  0  0  0  # atno 10718 bound_to 10713
  154.2650  135.2767  155.2762 H   0  0  0  0  0  0  0  0  0  0  0  0  # atno 10763 bound_to 10752
  154.5351  135.5718  153.6795 H   0  0  0  0  0  0  0  0  0  0  0  0  # atno 10764 bound_to 10752
  152.9955  135.6237  154.2802 H   0  0  0  0  0  0  0  0  0  0  0  0  # atno 10765 bound_to 10752
  141.1615  133.7518  156.9324 H   0  0  0  0  0  0  0  0  0  0  0  0  # atno 11005 bound_to 11000
  146.0078  140.8463  142.9986 LP  0  0  0  0  0  0  0  0  0  0  0  0  # atno 17320 bound_to 7965
  144.6797  140.2445  143.7339 LP  0  0  0  0  0  0  0  0  0  0  0  0  # atno 17321 bound_to 7965
  139.6979  144.7639  151.1324 LP  0  0  0  0  0  0  0  0  0  0  0  0  # atno 17342 bound_to 10162
  140.7695  143.5498  150.9217 LP  0  0  0  0  0  0  0  0  0  0  0  0  # atno 17343 bound_to 10162
  156.1102  130.3650  150.0063 LP  0  0  0  0  0  0  0  0  0  0  0  0  # atno 17370 bound_to 10713
  156.8163  130.9343  151.3642 LP  0  0  0  0  0  0  0  0  0  0  0  0  # atno 17371 bound_to 10713
  140.1377  134.9314  157.2425 LP  0  0  0  0  0  0  0  0  0  0  0  0  # atno 17394 bound_to 11000
  140.2874  134.3279  155.7325 LP  0  0  0  0  0  0  0  0  0  0  0  0  # atno 17395 bound_to 11000

$$$$
