AV-unprocessed.smi:1240|AV-procd|sdf|5210|dock4
  -GOLD-   22720 4303D 1   1.00000     0.00000
 Structure written by MMmdl.
 49 51  0  0  0  0  0  0  0  0  3 V2000
  144.6057  136.4536  152.6151 O   0  0  0  0  0  0  0  0  0  0  0  0
  145.7737  136.2929  152.2623 C   0  0  0  0  0  0  0  0  0  0  0  0
  146.7179  137.2354  152.3966 N   0  0  0  0  0  0  0  0  0  0  0  0
  146.4914  138.5666  152.9492 C   0  0  0  0  0  0  0  0  0  0  0  0
  147.7991  139.3421  153.2798 C   0  0  1  0  0  0  0  0  0  0  0  0
  147.5875  140.5575  154.2266 C   0  0  1  0  0  0  0  0  0  0  0  0
  146.8576  141.7252  153.5816 C   0  0  0  0  0  0  0  0  0  0  0  0
  146.4089  142.5365  154.7907 C   0  0  0  0  0  0  0  0  0  0  0  0
  146.1397  141.5790  155.8066 O   0  0  0  0  0  0  0  0  0  0  0  0
  146.6801  140.3140  155.4395 C   0  0  0  0  0  0  0  0  0  0  0  0
  148.8506  138.4402  153.8396 N   0  3  0  0  0  0  0  0  0  0  0  0
  150.1832  139.0545  154.0700 C   0  0  0  0  0  0  0  0  0  0  0  0
  151.1966  137.9721  154.4766 C   0  0  0  0  0  0  0  0  0  0  0  0
  150.7301  137.2969  155.6387 O   0  0  0  0  0  0  0  0  0  0  0  0
  149.4893  136.6377  155.4139 C   0  0  0  0  0  0  0  0  0  0  0  0
  148.4152  137.6698  155.0304 C   0  0  0  0  0  0  0  0  0  0  0  0
  146.2781  135.1685  151.7252 N   0  0  0  0  0  0  0  0  0  0  0  0
  145.6058  133.9563  151.4073 C   0  0  0  0  0  0  0  0  0  0  0  0
  144.2302  133.8727  151.7187 C   0  0  0  0  0  0  0  0  0  0  0  0
  143.5238  132.6852  151.4384 C   0  0  0  0  0  0  0  0  0  0  0  0
  144.1667  131.6352  150.8845 N   0  3  0  0  0  0  0  0  0  0  0  0
  145.4823  131.6622  150.5815 C   0  0  0  0  0  0  0  0  0  0  0  0
  146.2409  132.8226  150.8385 C   0  0  0  0  0  0  0  0  0  0  0  0
  147.6553  137.0236  152.0860 H   0  0  0  0  0  0  0  0  0  0  0  0
  145.9010  139.1188  152.2179 H   0  0  0  0  0  0  0  0  0  0  0  0
  145.8618  138.4658  153.8338 H   0  0  0  0  0  0  0  0  0  0  0  0
  148.2035  139.7412  152.3483 H   0  0  0  0  0  0  0  0  0  0  0  0
  148.5508  140.9142  154.5935 H   0  0  0  0  0  0  0  0  0  0  0  0
  147.4835  142.3039  152.9017 H   0  0  0  0  0  0  0  0  0  0  0  0
  145.9870  141.3718  153.0264 H   0  0  0  0  0  0  0  0  0  0  0  0
  147.2136  143.1893  155.1308 H   0  0  0  0  0  0  0  0  0  0  0  0
  145.5350  143.1537  154.5807 H   0  0  0  0  0  0  0  0  0  0  0  0
  145.8507  139.6549  155.1794 H   0  0  0  0  0  0  0  0  0  0  0  0
  147.2152  139.8705  156.2793 H   0  0  0  0  0  0  0  0  0  0  0  0
  150.5333  139.5596  153.1704 H   0  0  0  0  0  0  0  0  0  0  0  0
  150.1245  139.8035  154.8604 H   0  0  0  0  0  0  0  0  0  0  0  0
  151.3557  137.2605  153.6646 H   0  0  0  0  0  0  0  0  0  0  0  0
  152.1629  138.4262  154.6964 H   0  0  0  0  0  0  0  0  0  0  0  0
  149.6013  135.8834  154.6334 H   0  0  0  0  0  0  0  0  0  0  0  0
  149.1978  136.1131  156.3239 H   0  0  0  0  0  0  0  0  0  0  0  0
  148.2355  138.3416  155.8702 H   0  0  0  0  0  0  0  0  0  0  0  0
  147.4753  137.1570  154.8228 H   0  0  0  0  0  0  0  0  0  0  0  0
  147.2751  135.1633  151.5656 H   0  0  0  0  0  0  0  0  0  0  0  0
  143.7152  134.7110  152.1649 H   0  0  0  0  0  0  0  0  0  0  0  0
  142.4722  132.5443  151.6416 H   0  0  0  0  0  0  0  0  0  0  0  0
  145.8885  130.7585  150.1512 H   0  0  0  0  0  0  0  0  0  0  0  0
  147.2947  132.8120  150.6061 H   0  0  0  0  0  0  0  0  0  0  0  0
  148.9948  137.7430  153.1231 H   0  0  0  0  0  0  0  0  0  0  0  0
  143.6381  130.7837  150.6917 H   0  0  0  0  0  0  0  0  0  0  0  0
  1  2  2  0  0  0  0
  2  3  1  0  0  0  0
  2 17  1  0  0  0  0
  3  4  1  0  0  0  0
  3 24  1  0  0  0  0
  4  5  1  0  0  0  0
  4 25  1  0  0  0  0
  4 26  1  0  0  0  0
  5  6  1  0  0  0  0
  5 11  1  0  0  0  0
  5 27  1  0  0  0  0
  6 10  1  0  0  0  0
  6  7  1  0  0  0  0
  6 28  1  0  0  0  0
  7  8  1  0  0  0  0
  7 29  1  0  0  0  0
  7 30  1  0  0  0  0
  8  9  1  0  0  0  0
  8 31  1  0  0  0  0
  8 32  1  0  0  0  0
  9 10  1  0  0  0  0
 10 33  1  0  0  0  0
 10 34  1  0  0  0  0
 11 16  1  0  0  0  0
 11 12  1  0  0  0  0
 11 48  1  0  0  0  0
 12 13  1  0  0  0  0
 12 35  1  0  0  0  0
 12 36  1  0  0  0  0
 13 14  1  0  0  0  0
 13 37  1  0  0  0  0
 13 38  1  0  0  0  0
 14 15  1  0  0  0  0
 15 16  1  0  0  0  0
 15 39  1  0  0  0  0
 15 40  1  0  0  0  0
 16 41  1  0  0  0  0
 16 42  1  0  0  0  0
 17 18  1  0  0  0  0
 17 43  1  0  0  0  0
 18 23  1  0  0  0  0
 18 19  2  0  0  0  0
 19 20  1  0  0  0  0
 19 44  1  0  0  0  0
 20 21  2  0  0  0  0
 20 45  1  0  0  0  0
 21 22  1  0  0  0  0
 21 49  1  0  0  0  0
 22 23  2  0  0  0  0
 22 46  1  0  0  0  0
 23 47  1  0  0  0  0
M  CHG  1  11   1
M  CHG  1  21   1
M  END
> <s_m_source_file>
AV-unprocessed.smi

> <i_m_source_file_index>
1240

> <i_lp_mmshare_version>
43012

> <i_f3d_flags>
0

> <s_epik_input>
W2NIXTFbY0hdbltjSF1bY0hdYzFbTkhdQyg9TylbTkhdW0NIMl1bQ0BIXShbQ0BASF0yW0NIMl1bQ0gyXU9bQ0gyXTIpTjNbQ0gyXVtDSDJdT1tDSDJdW0NIMl0z

> <s_epik_cmdline>
J2VwaWtfcHl0aG9uJywgJy1waCcsICc3LjAnLCAnLXRuJywgJzgnLCAnLW1hJywgJzIwMCcsICctbWV0YWxfYmluZGluZycsICctaW1hZScsICc8aW5maWxlLm1hZT4nLCAnLW9tYWUnLCAnPG91dGZpbGUubWFlPic=

> <r_epik_Ionization_Penalty>
2.08105

> <r_epik_Ionization_Penalty_Charging>
2.08103

> <r_epik_Ionization_Penalty_Neutral>
2.04144e-05

> <r_epik_State_Penalty>
2.15598

> <r_epik_Charging_Adjusted_Penalty>
4.23701

> <i_epik_Tot_Q>
2

> <i_epik_Tot_abs_Q>
2

> <r_epik_Metal_State_Penalty>
2.25158

> <b_epik_Metal_Only>
0

> <s_lp_Force_Field>
OPLS_2005

> <r_lp_Energy>
49.3852

> <b_lp_Chiralities_Consistent>
1

> <s_lp_Variant>
AV-unprocessed.smi:1240-16

> <Gold.Version>
5.8.1

> <Gold.Id.Protein>
6NUR|6NUR_protein|mol2

> <Gold.PLP.Fitness>
47.7966

> <Gold.PLP.PLP>
-37.0262

> <Gold.PLP.part.hbond>
-3.2775

> <Gold.PLP.part.metal>
0.0000

> <Gold.PLP.part.buried>
-4.9401

> <Gold.PLP.part.nonpolar>
-30.5252

> <Gold.PLP.part.repulsive>
0.5783

> <Gold.PLP.ligand.clash>
0.0000

> <Gold.PLP.ligand.torsion>
0.5646

> <Gold.PLP.Chemscore.Hbond>
3.8800

> <Gold.PLP.Chemscore.CHOScore>
0.0000

> <Gold.PLP.Chemscore.Metal>
0.0000

> <Gold.Chemscore.Hbonds>
donor molecule, donor type, donor heavy atom, donor atom, acceptor molecule, acceptor atom, score
      L1  H     3    24       P1  7948  0.98
      L1  H    11    48       P1  7948  2.00
      L1  H    17    43       P1  7948  0.90

> <Gold.PLP.Chemscore.Internal.Correction>
0.2597

> <Gold.Rescore>
     Score         DG    S(hbond)    S(metal)    S(lipo)     H(rot)  DE(clash)    DE(int)     intcor
     18.32     -20.59       2.69        0.00      90.41       1.74       0.35       1.92       ----

> <Gold.Chemscore.Fitness>
18.3237

> <Gold.Chemscore.DG>
-20.5917

> <Gold.Chemscore.ZeroCoef>
-5.4800

> <Gold.Chemscore.Hbond>
2.6926

> <Gold.Chemscore.Metal>
0.0000

> <Gold.Chemscore.Lipo>
90.4122

> <Gold.Chemscore.Internal_Hbond>
0.0000

> <Gold.Chemscore.DEClash>
0.3526

> <Gold.Chemscore.DEInternal>
1.9155

> <Gold.Chemscore.Rot>
1.7421

> <Gold.Chemscore.Internal.Correction>
   9.000000E+99

> <Gold.Chemscore.Hbonds>
donor molecule, donor type, donor heavy atom, donor atom, acceptor molecule, acceptor atom, score
      L1  H     3    24       P1  7948  0.91
      L1  H    11    48       P1  7948  0.99
      L1  H    17    43       P1  7948  0.77

> <Gold.Chemscore.Hbond.Weighted>
-8.9932

> <Gold.Chemscore.Metal.Weighted>
-0.0000

> <Gold.Chemscore.Lipo.Weighted>
-10.5782

> <Gold.Chemscore.Internal_Hbond.Weighted>
0.0000

> <Gold.Chemscore.DEClash.Weighted>
0.3526

> <Gold.Chemscore.DEInternal.Weighted>
1.9155

> <Gold.Chemscore.Rot.Weighted>
4.4597

> <Gold.Chemscore.Internal.Correction.Weighted>
   9.000000E+99

> <Gold.Protein.RotatedTorsions>
[ 6907 6896 6895 6894 ] final   48.14 input  -60.11 | X-H torsion
[ 7974 7965 7964 7962 ] final  133.93 input  175.53 | X-H torsion
[ 8008 7997 7996 7995 ] final  -18.09 input   59.86 | X-H torsion
[ 10167 10162 10161 10158 ] final -143.98 input  -65.29 | X-H torsion
[ 10718 10713 10712 10709 ] final   21.92 input   66.30 | X-H torsion
[ 10763 10752 10751 10750 ] final -138.99 input  -60.55 | X-H torsion
[ 11005 11000 10999 10996 ] final   30.92 input  -57.11 | X-H torsion

> <Gold.Protein.ActiveResidues>
 VAL166  LYS551  ARG553  GLY616  TRP617  ASP618  TYR619  PRO620  LYS621  CYS622 
 ASP623  PHE694  ASN695  SER759  ASP760  ASP761  ALA762  ILE779  LEU786  VAL792 
 PHE793  MET794  SER795  GLU796  ALA797  LYS798  CYS799  TRP800  GLU811  SER814 

> <Gold.Protein.RotatedAtoms>
  152.2761  134.7880  160.0405 H   0  0  0  0  0  0  0  0  0  0  0  0  # atno 6907 bound_to 6896
  151.8476  133.3429  159.3671 H   0  0  0  0  0  0  0  0  0  0  0  0  # atno 6908 bound_to 6896
  150.7171  134.5259  159.5720 H   0  0  0  0  0  0  0  0  0  0  0  0  # atno 6909 bound_to 6896
  144.9815  139.4499  143.5384 H   0  0  0  0  0  0  0  0  0  0  0  0  # atno 7974 bound_to 7965
  154.4931  140.2125  155.9506 H   0  0  0  0  0  0  0  0  0  0  0  0  # atno 8008 bound_to 7997
  156.1332  140.3193  155.8350 H   0  0  0  0  0  0  0  0  0  0  0  0  # atno 8009 bound_to 7997
  155.4257  140.0500  157.3013 H   0  0  0  0  0  0  0  0  0  0  0  0  # atno 8010 bound_to 7997
  139.7942  143.7923  152.2653 H   0  0  0  0  0  0  0  0  0  0  0  0  # atno 10167 bound_to 10162
  157.1451  130.6650  149.5993 H   0  0  0  0  0  0  0  0  0  0  0  0  # atno 10718 bound_to 10713
  154.8622  135.3596  154.5474 H   0  0  0  0  0  0  0  0  0  0  0  0  # atno 10763 bound_to 10752
  153.6093  135.7010  153.5358 H   0  0  0  0  0  0  0  0  0  0  0  0  # atno 10764 bound_to 10752
  153.3223  135.4148  155.1388 H   0  0  0  0  0  0  0  0  0  0  0  0  # atno 10765 bound_to 10752
  140.2894  134.2882  155.7780 H   0  0  0  0  0  0  0  0  0  0  0  0  # atno 11005 bound_to 11000
  146.3409  139.9091  142.8783 LP  0  0  0  0  0  0  0  0  0  0  0  0  # atno 17320 bound_to 7965
  145.2414  141.0010  143.3934 LP  0  0  0  0  0  0  0  0  0  0  0  0  # atno 17321 bound_to 7965
  139.8024  144.7369  150.9807 LP  0  0  0  0  0  0  0  0  0  0  0  0  # atno 17342 bound_to 10162
  140.7820  143.4332  151.0663 LP  0  0  0  0  0  0  0  0  0  0  0  0  # atno 17343 bound_to 10162
  155.9781  130.4764  150.6635 LP  0  0  0  0  0  0  0  0  0  0  0  0  # atno 17370 bound_to 10713
  157.4272  131.0844  151.1074 LP  0  0  0  0  0  0  0  0  0  0  0  0  # atno 17371 bound_to 10713
  141.2149  133.7575  156.9601 LP  0  0  0  0  0  0  0  0  0  0  0  0  # atno 17394 bound_to 11000
  140.1210  134.9417  157.2203 LP  0  0  0  0  0  0  0  0  0  0  0  0  # atno 17395 bound_to 11000

$$$$
