AV-unprocessed.smi:96|AV-procd|sdf|859|dock2
  -GOLD-   2262017303D 1   1.00000     0.00000
 Structure written by MMmdl.
 43 46  0  0  0  0  0  0  0  0  1 V2000
  148.1050  135.9264  157.7664 O   0  0  0  0  0  0  0  0  0  0  0  0
  148.1710  137.0839  158.1821 C   0  0  0  0  0  0  0  0  0  0  0  0
  148.9156  138.1617  157.3777 C   0  0  0  0  0  0  0  0  0  0  0  0
  150.0268  138.7984  158.1191 N   0  0  0  0  0  0  0  0  0  0  0  0
  151.0874  137.9825  158.5862 C   0  0  0  0  0  0  0  0  0  0  0  0
  151.0863  136.7647  158.4001 O   0  0  0  0  0  0  0  0  0  0  0  0
  152.1629  138.6831  159.2781 C   0  0  0  0  0  0  0  0  0  0  0  0
  153.2179  137.9919  159.7421 F   0  0  0  0  0  0  0  0  0  0  0  0
  152.1183  140.0191  159.4575 C   0  0  0  0  0  0  0  0  0  0  0  0
  151.0684  140.8007  159.0168 N   0  0  0  0  0  0  0  0  0  0  0  0
  151.1271  142.2972  159.2190 C   0  0  2  0  0  0  0  0  0  0  0  0
  151.1536  143.0971  157.9028 C   0  0  0  0  0  0  0  0  0  0  0  0
  152.4440  143.8925  158.0145 C   0  0  0  0  0  0  0  0  0  0  0  0
  152.7127  143.8955  159.5154 C   0  0  0  0  0  0  0  0  0  0  0  0
  152.2886  142.6052  159.9260 O   0  0  0  0  0  0  0  0  0  0  0  0
  150.0051  140.2020  158.3019 C   0  0  0  0  0  0  0  0  0  0  0  0
  149.0864  140.8824  157.8423 O   0  0  0  0  0  0  0  0  0  0  0  0
  147.6465  137.5071  159.3470 N   0  0  0  0  0  0  0  0  0  0  0  0
  146.9050  136.7701  160.3100 C   0  0  0  0  0  0  0  0  0  0  0  0
  147.0774  136.9220  161.7164 C   0  0  0  0  0  0  0  0  0  0  0  0
  146.3237  136.1460  162.6263 C   0  0  0  0  0  0  0  0  0  0  0  0
  145.4121  135.2176  162.0997 C   0  0  0  0  0  0  0  0  0  0  0  0
  145.2515  135.0547  160.7400 C   0  0  0  0  0  0  0  0  0  0  0  0
  145.9874  135.8125  159.8147 C   0  0  0  0  0  0  0  0  0  0  0  0
  144.3213  134.0945  160.5038 O   0  0  0  0  0  0  0  0  0  0  0  0
  143.8948  133.6542  161.7673 C   0  0  0  0  0  0  0  0  0  0  0  0
  144.5879  134.3655  162.7606 O   0  0  0  0  0  0  0  0  0  0  0  0
  149.2750  137.7145  156.4493 H   0  0  0  0  0  0  0  0  0  0  0  0
  148.1900  138.9061  157.0461 H   0  0  0  0  0  0  0  0  0  0  0  0
  152.9432  140.4901  159.9720 H   0  0  0  0  0  0  0  0  0  0  0  0
  150.2590  142.5533  159.8283 H   0  0  0  0  0  0  0  0  0  0  0  0
  151.1224  142.4565  157.0211 H   0  0  0  0  0  0  0  0  0  0  0  0
  150.2858  143.7571  157.8802 H   0  0  0  0  0  0  0  0  0  0  0  0
  153.2511  143.3758  157.4943 H   0  0  0  0  0  0  0  0  0  0  0  0
  152.3631  144.8964  157.5969 H   0  0  0  0  0  0  0  0  0  0  0  0
  153.7615  144.0703  159.7561 H   0  0  0  0  0  0  0  0  0  0  0  0
  152.1111  144.6550  160.0174 H   0  0  0  0  0  0  0  0  0  0  0  0
  147.8597  138.4601  159.6036 H   0  0  0  0  0  0  0  0  0  0  0  0
  147.7949  137.6189  162.1209 H   0  0  0  0  0  0  0  0  0  0  0  0
  146.4504  136.2587  163.6929 H   0  0  0  0  0  0  0  0  0  0  0  0
  145.8478  135.6671  158.7533 H   0  0  0  0  0  0  0  0  0  0  0  0
  142.8236  133.8290  161.8726 H   0  0  0  0  0  0  0  0  0  0  0  0
  144.0997  132.5882  161.8711 H   0  0  0  0  0  0  0  0  0  0  0  0
  1  2  2  0  0  0  0
  2  3  1  0  0  0  0
  2 18  1  0  0  0  0
  3  4  1  0  0  0  0
  3 28  1  0  0  0  0
  3 29  1  0  0  0  0
  4 16  1  0  0  0  0
  4  5  1  0  0  0  0
  5  6  2  0  0  0  0
  5  7  1  0  0  0  0
  7  8  1  0  0  0  0
  7  9  2  0  0  0  0
  9 10  1  0  0  0  0
  9 30  1  0  0  0  0
 10 11  1  0  0  0  0
 10 16  1  0  0  0  0
 11 15  1  0  0  0  0
 11 12  1  0  0  0  0
 11 31  1  0  0  0  0
 12 13  1  0  0  0  0
 12 32  1  0  0  0  0
 12 33  1  0  0  0  0
 13 14  1  0  0  0  0
 13 34  1  0  0  0  0
 13 35  1  0  0  0  0
 14 15  1  0  0  0  0
 14 36  1  0  0  0  0
 14 37  1  0  0  0  0
 16 17  2  0  0  0  0
 18 19  1  0  0  0  0
 18 38  1  0  0  0  0
 19 24  1  0  0  0  0
 19 20  2  0  0  0  0
 20 21  1  0  0  0  0
 20 39  1  0  0  0  0
 21 22  2  0  0  0  0
 21 40  1  0  0  0  0
 22 27  1  0  0  0  0
 22 23  1  0  0  0  0
 23 24  2  0  0  0  0
 23 25  1  0  0  0  0
 24 41  1  0  0  0  0
 25 26  1  0  0  0  0
 26 27  1  0  0  0  0
 26 42  1  0  0  0  0
 26 43  1  0  0  0  0
M  END
> <s_m_source_file>
AV-unprocessed.smi

> <i_m_source_file_index>
96

> <i_lp_mmshare_version>
43012

> <i_f3d_flags>
0

> <s_epik_input>
TzFbQ0gyXU9jKGMxMilbY0hdYyhbY0hdW2NIXTIpW05IXUMoPU8pW0NIMl1uM2MoPU8pYyhGKVtjSF1uKGMzPU8pW0NAQEhdNFtDSDJdW0NIMl1bQ0gyXU80

> <s_epik_cmdline>
J2VwaWtfcHl0aG9uJywgJy1waCcsICc3LjAnLCAnLXRuJywgJzgnLCAnLW1hJywgJzIwMCcsICctbWV0YWxfYmluZGluZycsICctaW1hZScsICc8aW5maWxlLm1hZT4nLCAnLW9tYWUnLCAnPG91dGZpbGUubWFlPic=

> <r_lp_tautomer_probability>
1

> <r_epik_Ionization_Penalty>
1.04778e-05

> <r_epik_Ionization_Penalty_Charging>
3.88729e-08

> <r_epik_Ionization_Penalty_Neutral>
1.04389e-05

> <r_epik_State_Penalty>
-0

> <r_epik_Charging_Adjusted_Penalty>
3.88729e-08

> <i_epik_Tot_Q>
0

> <i_epik_Tot_abs_Q>
0

> <r_epik_Metal_State_Penalty>
-0

> <b_epik_Metal_Only>
0

> <s_epik_Chemistry_Notes>
This compound contains an acetal/aminal-like group ( X-CH(R)-Y where X, Y are N, S, or O) that may be acid/base labile, releasing an aldehyde.

> <s_lp_Force_Field>
OPLS_2005

> <r_lp_Energy>
41.3846

> <b_lp_Chiralities_Consistent>
1

> <s_lp_Variant>
AV-unprocessed.smi:96-1

> <Gold.Version>
5.8.1

> <Gold.Id.Protein>
6NUR|6NUR_protein|mol2

> <Gold.PLP.Fitness>
50.3555

> <Gold.PLP.PLP>
-46.1631

> <Gold.PLP.part.hbond>
-3.0000

> <Gold.PLP.part.metal>
0.0000

> <Gold.PLP.part.buried>
-5.4295

> <Gold.PLP.part.nonpolar>
-39.5261

> <Gold.PLP.part.repulsive>
0.2717

> <Gold.PLP.ligand.clash>
0.0000

> <Gold.PLP.ligand.torsion>
0.3207

> <Gold.PLP.Chemscore.Hbond>
1.5954

> <Gold.PLP.Chemscore.CHOScore>
0.0000

> <Gold.PLP.Chemscore.Metal>
0.0000

> <Gold.PLP.Chemscore.Internal.Correction>
0.0475

> <Gold.Rescore>
     Score         DG    S(hbond)    S(metal)    S(lipo)     H(rot)  DE(clash)    DE(int)     intcor
     10.72     -14.64       0.97        0.00      91.20       1.85       0.11       3.81       ----

> <Gold.Chemscore.Fitness>
10.7183

> <Gold.Chemscore.DG>
-14.6440

> <Gold.Chemscore.ZeroCoef>
-5.4800

> <Gold.Chemscore.Hbond>
0.9668

> <Gold.Chemscore.Metal>
0.0000

> <Gold.Chemscore.Lipo>
91.1975

> <Gold.Chemscore.Internal_Hbond>
0.0000

> <Gold.Chemscore.DEClash>
0.1116

> <Gold.Chemscore.DEInternal>
3.8141

> <Gold.Chemscore.Rot>
1.8497

> <Gold.Chemscore.Internal.Correction>
   9.000000E+99

> <Gold.Chemscore.Hbond.Weighted>
-3.2292

> <Gold.Chemscore.Metal.Weighted>
-0.0000

> <Gold.Chemscore.Lipo.Weighted>
-10.6701

> <Gold.Chemscore.Internal_Hbond.Weighted>
0.0000

> <Gold.Chemscore.DEClash.Weighted>
0.1116

> <Gold.Chemscore.DEInternal.Weighted>
3.8141

> <Gold.Chemscore.Rot.Weighted>
4.7354

> <Gold.Chemscore.Internal.Correction.Weighted>
   9.000000E+99

> <Gold.Protein.RotatedTorsions>
[ 6907 6896 6895 6894 ] final   31.03 input  -60.11 | X-H torsion
[ 7974 7965 7964 7962 ] final   52.57 input  175.53 | X-H torsion
[ 8008 7997 7996 7995 ] final -161.06 input   59.86 | X-H torsion
[ 10167 10162 10161 10158 ] final  -51.86 input  -65.29 | X-H torsion
[ 10718 10713 10712 10709 ] final -116.13 input   66.30 | X-H torsion
[ 10763 10752 10751 10750 ] final  -97.81 input  -60.55 | X-H torsion
[ 11005 11000 10999 10996 ] final   62.54 input  -57.11 | X-H torsion

> <Gold.Protein.ActiveResidues>
 VAL166  LYS551  ARG553  GLY616  TRP617  ASP618  TYR619  PRO620  LYS621  CYS622 
 ASP623  PHE694  ASN695  SER759  ASP760  ASP761  ALA762  ILE779  LEU786  VAL792 
 PHE793  MET794  SER795  GLU796  ALA797  LYS798  CYS799  TRP800  GLU811  SER814 

> <Gold.Protein.RotatedAtoms>
  152.0545  134.9633  160.0574 H   0  0  0  0  0  0  0  0  0  0  0  0  # atno 6907 bound_to 6896
  152.1021  133.4250  159.4600 H   0  0  0  0  0  0  0  0  0  0  0  0  # atno 6908 bound_to 6896
  150.6840  134.2667  159.4615 H   0  0  0  0  0  0  0  0  0  0  0  0  # atno 6909 bound_to 6896
  145.9800  139.4233  143.0138 H   0  0  0  0  0  0  0  0  0  0  0  0  # atno 7974 bound_to 7965
  155.7866  140.0872  157.2031 H   0  0  0  0  0  0  0  0  0  0  0  0  # atno 8008 bound_to 7997
  154.3987  140.1498  156.3172 H   0  0  0  0  0  0  0  0  0  0  0  0  # atno 8009 bound_to 7997
  155.8600  140.3430  155.5753 H   0  0  0  0  0  0  0  0  0  0  0  0  # atno 8010 bound_to 7997
  140.6567  143.2604  151.4565 H   0  0  0  0  0  0  0  0  0  0  0  0  # atno 10167 bound_to 10162
  156.0942  130.6118  150.8996 H   0  0  0  0  0  0  0  0  0  0  0  0  # atno 10718 bound_to 10713
  154.7360  135.5032  153.9043 H   0  0  0  0  0  0  0  0  0  0  0  0  # atno 10763 bound_to 10752
  153.0996  135.6681  153.9706 H   0  0  0  0  0  0  0  0  0  0  0  0  # atno 10764 bound_to 10752
  153.9495  135.3059  155.3418 H   0  0  0  0  0  0  0  0  0  0  0  0  # atno 10765 bound_to 10752
  140.0085  134.6332  155.9817 H   0  0  0  0  0  0  0  0  0  0  0  0  # atno 11005 bound_to 11000
  145.7783  140.9867  143.1113 LP  0  0  0  0  0  0  0  0  0  0  0  0  # atno 17320 bound_to 7965
  144.6859  139.9533  143.7478 LP  0  0  0  0  0  0  0  0  0  0  0  0  # atno 17321 bound_to 7965
  139.5791  144.1751  152.1943 LP  0  0  0  0  0  0  0  0  0  0  0  0  # atno 17342 bound_to 10162
  140.1071  144.5489  150.6950 LP  0  0  0  0  0  0  0  0  0  0  0  0  # atno 17343 bound_to 10162
  157.6099  131.0937  150.8813 LP  0  0  0  0  0  0  0  0  0  0  0  0  # atno 17370 bound_to 10713
  156.8954  130.5228  149.5284 LP  0  0  0  0  0  0  0  0  0  0  0  0  # atno 17371 bound_to 10713
  141.1694  133.6537  156.4597 LP  0  0  0  0  0  0  0  0  0  0  0  0  # atno 17394 bound_to 11000
  140.4597  134.6852  157.5079 LP  0  0  0  0  0  0  0  0  0  0  0  0  # atno 17395 bound_to 11000

$$$$
