#       Name:                AV-unprocessed.smi:2822
#       Creating user name   scv26
#       Creation time:       Fri Mar 27 15:31:57 2020


#       File generated by GOLD software.
#

@<TRIPOS>MOLECULE
AV-unprocessed.smi:2822
    43    45     1
SMALL
NO_CHARGES


@<TRIPOS>ATOM
      1 ****        -5.1978  -0.2358  -1.0866 Cl             1 S1                 0.0000
      2 ****        -4.3437   1.2669  -1.1346 C.ar           1 S1                 0.0000
      3 ****        -5.0697   2.4741  -1.0676 C.ar           1 S1                 0.0000
      4 ****        -4.4198   3.6567  -1.1036 N.pl3          1 S1                 1.0000
      5 ****        -3.0769   3.7474  -1.2042 C.ar           1 S1                 0.0000
      6 ****        -2.2964   2.5760  -1.2757 C.ar           1 S1                 0.0000
      7 ****        -2.9313   1.3091  -1.2389 C.ar           1 S1                 0.0000
      8 ****        -2.2105   0.1071  -1.3049 N.pl3          1 S1                 0.0000
      9 ****        -0.7588   0.0957  -1.2099 C.3            1 S1                 0.0000
     10 ****        -0.2135  -1.3409  -1.1044 C.3            1 S1                 0.0000
     11 ****         1.3242  -1.4030  -1.1696 C.3            1 S1                 0.0000
     12 ****         1.9614  -0.8905   0.0375 N.3            1 S1                 0.0000
     13 ****         3.4178  -0.9871  -0.0573 C.3            1 S1                 0.0000
     14 ****         4.1283  -0.4328   1.1874 C.3            1 S1                 0.0000
     15 ****         3.6282  -1.1497   2.4492 C.3            1 S1                 0.0000
     16 ****         2.0951  -1.0846   2.5177 C.3            1 S1                 0.0000
     17 ****         1.4605  -1.6093   1.2127 C.3            1 S1                 0.0000
     18 ****        -0.0770  -1.5333   1.2940 C.3            1 S1                 0.0000
     19 ****        -0.6653  -1.9979   0.0814 O.3            1 S1                 0.0000
     20 ****        -6.1455   2.5283  -0.9867 H              1 S1                 0.0000
     21 ****        -2.6690   4.7475  -1.2253 H              1 S1                 0.0000
     22 ****        -1.2238   2.6683  -1.3593 H              1 S1                 0.0000
     23 ****        -2.7024  -0.7692  -1.1978 H              1 S1                 0.0000
     24 ****        -0.3536   0.5686  -2.1052 H              1 S1                 0.0000
     25 ****        -0.4345   0.6973  -0.3608 H              1 S1                 0.0000
     26 ****        -0.6035  -1.9077  -1.9507 H              1 S1                 0.0000
     27 ****         1.6257  -2.4401  -1.3250 H              1 S1                 0.0000
     28 ****         1.6766  -0.8484  -2.0401 H              1 S1                 0.0000
     29 ****         3.7108  -2.0276  -0.2068 H              1 S1                 0.0000
     30 ****         3.7641  -0.4409  -0.9356 H              1 S1                 0.0000
     31 ****         5.2074  -0.5532   1.0894 H              1 S1                 0.0000
     32 ****         3.9393   0.6381   1.2715 H              1 S1                 0.0000
     33 ****         3.9495  -2.1919   2.4305 H              1 S1                 0.0000
     34 ****         4.0683  -0.7015   3.3402 H              1 S1                 0.0000
     35 ****         1.7395  -1.6636   3.3708 H              1 S1                 0.0000
     36 ****         1.7841  -0.0535   2.6912 H              1 S1                 0.0000
     37 ****         1.7304  -2.6621   1.1129 H              1 S1                 0.0000
     38 ****        -0.4418  -2.1555   2.1115 H              1 S1                 0.0000
     39 ****        -0.4084  -0.5169   1.5079 H              1 S1                 0.0000
     40 ****        -4.9665   4.5169  -1.0532 H              1 S1                 0.0000
     41 ****         1.7300   0.0775   0.1345 LP             1 S1                 0.0000
     42 ****        -0.4611  -2.9727  -0.0080 LP             1 S1                 0.0000
     43 ****        -1.6548  -1.8695   0.1484 LP             1 S1                 0.0000
@<TRIPOS>BOND
    1    1    2 1     
    2    2    7 ar    
    3    2    3 ar    
    4    3    4 ar    
    5    3   20 1     
    6    4    5 ar    
    7    4   40 1     
    8    5    6 ar    
    9    5   21 1     
   10    6    7 ar    
   11    6   22 1     
   12    7    8 1     
   13    8    9 1     
   14    8   23 1     
   15    9   10 1     
   16    9   24 1     
   17    9   25 1     
   18   10   19 1     
   19   10   11 1     
   20   10   26 1     
   21   11   12 1     
   22   11   27 1     
   23   11   28 1     
   24   12   17 1     
   25   12   13 1     
   26   13   14 1     
   27   13   29 1     
   28   13   30 1     
   29   14   15 1     
   30   14   31 1     
   31   14   32 1     
   32   15   16 1     
   33   15   33 1     
   34   15   34 1     
   35   16   17 1     
   36   16   35 1     
   37   16   36 1     
   38   17   18 1     
   39   17   37 1     
   40   18   19 1     
   41   18   38 1     
   42   18   39 1     
   43   12   41 1     
   44   19   42 1     
   45   19   43 1     
@<TRIPOS>SUBSTRUCTURE
      1 S1             1
@<TRIPOS>SET
LONE_PAIRS      STATIC     ATOMS    <user>   **** ""
3 41 42 43
DONOR_HYDROGENS      STATIC     ATOMS    <user>   **** ""
2 40 23
ATOM$BLUE        STATIC     ATOMS    COLORGROUP SYSTEM
3 41 42 43
ATOM$RED        STATIC     ATOMS    COLORGROUP SYSTEM
2 40 23
