AV-unprocessed.smi:3045|AV-procd|sdf|11612|dock2
  -GOLD-   2272016593D 1   1.00000     0.00000
 Structure written by MMmdl.
 36 37  0  0  0  0  0  0  0  0  2 V2000
  153.8224  136.8751  163.9482 C   0  0  0  0  0  0  0  0  0  0  0  0
  154.6205  137.1892  162.7710 N   0  0  0  0  0  0  0  0  0  0  0  0
  155.1302  138.5310  162.5435 C   0  0  0  0  0  0  0  0  0  0  0  0
  155.7381  138.5048  161.1235 C   0  0  2  0  0  0  0  0  0  0  0  0
  154.8963  139.2841  160.1017 C   0  0  0  0  0  0  0  0  0  0  0  0
  155.1619  139.2177  158.9007 O   0  0  0  0  0  0  0  0  0  0  0  0
  153.9012  140.0382  160.5952 N   0  0  0  0  0  0  0  0  0  0  0  0
  153.0243  140.9053  159.8113 C   0  0  0  0  0  0  0  0  0  0  0  0
  153.5442  142.3556  159.7350 C   0  0  0  0  0  0  0  0  0  0  0  0
  152.4615  143.3797  159.4380 C   0  0  0  0  0  0  0  0  0  0  0  0
  152.1955  144.4329  160.3416 C   0  0  0  0  0  0  0  0  0  0  0  0
  151.2098  145.3887  160.0191 C   0  0  0  0  0  0  0  0  0  0  0  0
  150.5109  145.2698  158.8005 C   0  0  0  0  0  0  0  0  0  0  0  0
  150.7884  144.2461  157.9637 N   0  3  0  0  0  0  0  0  0  0  0  0
  151.7227  143.3092  158.2369 C   0  0  0  0  0  0  0  0  0  0  0  0
  155.8130  137.0108  160.7489 C   0  0  0  0  0  0  0  0  0  0  0  0
  154.9960  136.3207  161.8281 C   0  0  0  0  0  0  0  0  0  0  0  0
  154.7254  135.1214  161.7956 O   0  0  0  0  0  0  0  0  0  0  0  0
  154.3647  136.1944  164.6053 H   0  0  0  0  0  0  0  0  0  0  0  0
  152.8831  136.4010  163.6606 H   0  0  0  0  0  0  0  0  0  0  0  0
  153.5854  137.7761  164.5148 H   0  0  0  0  0  0  0  0  0  0  0  0
  154.3353  139.2704  162.6567 H   0  0  0  0  0  0  0  0  0  0  0  0
  155.8955  138.7555  163.2876 H   0  0  0  0  0  0  0  0  0  0  0  0
  156.7427  138.9306  161.1530 H   0  0  0  0  0  0  0  0  0  0  0  0
  153.7516  140.0260  161.5940 H   0  0  0  0  0  0  0  0  0  0  0  0
  152.8846  140.5006  158.8075 H   0  0  0  0  0  0  0  0  0  0  0  0
  152.0391  140.8983  160.2779 H   0  0  0  0  0  0  0  0  0  0  0  0
  154.0222  142.6210  160.6786 H   0  0  0  0  0  0  0  0  0  0  0  0
  154.3220  142.4252  158.9733 H   0  0  0  0  0  0  0  0  0  0  0  0
  152.7480  144.5177  161.2660 H   0  0  0  0  0  0  0  0  0  0  0  0
  150.9974  146.2046  160.6944 H   0  0  0  0  0  0  0  0  0  0  0  0
  149.7457  145.9579  158.4718 H   0  0  0  0  0  0  0  0  0  0  0  0
  151.8621  142.5474  157.4836 H   0  0  0  0  0  0  0  0  0  0  0  0
  155.4086  136.7835  159.7613 H   0  0  0  0  0  0  0  0  0  0  0  0
  156.8405  136.6477  160.7841 H   0  0  0  0  0  0  0  0  0  0  0  0
  150.2733  144.1799  157.0855 H   0  0  0  0  0  0  0  0  0  0  0  0
  1  2  1  0  0  0  0
  1 19  1  0  0  0  0
  1 20  1  0  0  0  0
  1 21  1  0  0  0  0
  2 17  1  0  0  0  0
  2  3  1  0  0  0  0
  3  4  1  0  0  0  0
  3 22  1  0  0  0  0
  3 23  1  0  0  0  0
  4  5  1  0  0  0  0
  4 16  1  0  0  0  0
  4 24  1  0  0  0  0
  5  6  2  0  0  0  0
  5  7  1  0  0  0  0
  7  8  1  0  0  0  0
  7 25  1  0  0  0  0
  8  9  1  0  0  0  0
  8 26  1  0  0  0  0
  8 27  1  0  0  0  0
  9 10  1  0  0  0  0
  9 28  1  0  0  0  0
  9 29  1  0  0  0  0
 10 15  1  0  0  0  0
 10 11  2  0  0  0  0
 11 12  1  0  0  0  0
 11 30  1  0  0  0  0
 12 13  2  0  0  0  0
 12 31  1  0  0  0  0
 13 14  1  0  0  0  0
 13 32  1  0  0  0  0
 14 15  2  0  0  0  0
 14 36  1  0  0  0  0
 15 33  1  0  0  0  0
 16 17  1  0  0  0  0
 16 34  1  0  0  0  0
 16 35  1  0  0  0  0
 17 18  2  0  0  0  0
M  CHG  1  14   1
M  END
> <s_m_source_file>
AV-unprocessed.smi

> <i_m_source_file_index>
3045

> <i_lp_mmshare_version>
43012

> <i_f3d_flags>
0

> <s_epik_input>
W0NIM11OMVtDSDJdW0NASF0oW0NIMl1DMT1PKUMoPU8pW05IXVtDSDJdW0NIMl1jMltjSF1bY0hdW2NIXW5bY0hdMg==

> <s_epik_cmdline>
J2VwaWtfcHl0aG9uJywgJy1waCcsICc3LjAnLCAnLXRuJywgJzgnLCAnLW1hJywgJzIwMCcsICctbWV0YWxfYmluZGluZycsICctaW1hZScsICc8aW5maWxlLm1hZT4nLCAnLW9tYWUnLCAnPG91dGZpbGUubWFlPic=

> <r_epik_Ionization_Penalty>
2.26523

> <r_epik_Ionization_Penalty_Charging>
2.26523

> <r_epik_Ionization_Penalty_Neutral>
2.92809e-08

> <r_epik_State_Penalty>
2.41338

> <r_epik_Charging_Adjusted_Penalty>
4.67861

> <i_epik_Tot_Q>
1

> <i_epik_Tot_abs_Q>
1

> <r_epik_Metal_State_Penalty>
2.42626

> <b_epik_Metal_Only>
0

> <s_lp_Force_Field>
OPLS_2005

> <r_lp_Energy>
17.4324

> <b_lp_Chiralities_Consistent>
1

> <s_lp_Variant>
AV-unprocessed.smi:3045-4

> <Gold.Version>
5.8.1

> <Gold.Id.Protein>
6NUR|6NUR_protein|mol2

> <Gold.PLP.Fitness>
45.1813

> <Gold.PLP.PLP>
-37.0679

> <Gold.PLP.part.hbond>
-2.0000

> <Gold.PLP.part.metal>
0.0000

> <Gold.PLP.part.buried>
-3.8430

> <Gold.PLP.part.nonpolar>
-30.5742

> <Gold.PLP.part.repulsive>
0.0915

> <Gold.PLP.ligand.clash>
0.0000

> <Gold.PLP.ligand.torsion>
0.4403

> <Gold.PLP.Chemscore.Hbond>
2.9825

> <Gold.PLP.Chemscore.CHOScore>
0.0000

> <Gold.PLP.Chemscore.Metal>
0.0000

> <Gold.Chemscore.Hbonds>
donor molecule, donor type, donor heavy atom, donor atom, acceptor molecule, acceptor atom, score
      L1  H    14    36       P1  8028  1.98
      P1  H  7997  8009       L1     6  1.00

> <Gold.PLP.Chemscore.Internal.Correction>
0.0465

> <Gold.Rescore>
     Score         DG    S(hbond)    S(metal)    S(lipo)     H(rot)  DE(clash)    DE(int)     intcor
     18.70     -19.07       1.89        0.00      99.52       1.71       0.01       0.35       ----

> <Gold.Chemscore.Fitness>
18.7044

> <Gold.Chemscore.DG>
-19.0671

> <Gold.Chemscore.ZeroCoef>
-5.4800

> <Gold.Chemscore.Hbond>
1.8927

> <Gold.Chemscore.Metal>
0.0000

> <Gold.Chemscore.Lipo>
99.5237

> <Gold.Chemscore.Internal_Hbond>
0.0000

> <Gold.Chemscore.DEClash>
0.0149

> <Gold.Chemscore.DEInternal>
0.3478

> <Gold.Chemscore.Rot>
1.7105

> <Gold.Chemscore.Internal.Correction>
   9.000000E+99

> <Gold.Chemscore.Hbonds>
donor molecule, donor type, donor heavy atom, donor atom, acceptor molecule, acceptor atom, score
      L1  H    14    36       P1  8028  0.82
      P1  H  7997  8009       L1     6  1.00

> <Gold.Chemscore.Hbond.Weighted>
-6.3217

> <Gold.Chemscore.Metal.Weighted>
-0.0000

> <Gold.Chemscore.Lipo.Weighted>
-11.6443

> <Gold.Chemscore.Internal_Hbond.Weighted>
0.0000

> <Gold.Chemscore.DEClash.Weighted>
0.0149

> <Gold.Chemscore.DEInternal.Weighted>
0.3478

> <Gold.Chemscore.Rot.Weighted>
4.3789

> <Gold.Chemscore.Internal.Correction.Weighted>
   9.000000E+99

> <Gold.Protein.RotatedTorsions>
[ 6907 6896 6895 6894 ] final   63.84 input  -60.11 | X-H torsion
[ 7974 7965 7964 7962 ] final  152.15 input  175.53 | X-H torsion
[ 8008 7997 7996 7995 ] final  119.12 input   59.86 | X-H torsion
[ 10167 10162 10161 10158 ] final -138.81 input  -65.29 | X-H torsion
[ 10718 10713 10712 10709 ] final   40.44 input   66.30 | X-H torsion
[ 10763 10752 10751 10750 ] final  154.64 input  -60.55 | X-H torsion
[ 11005 11000 10999 10996 ] final  -68.86 input  -57.11 | X-H torsion

> <Gold.Protein.ActiveResidues>
 VAL166  LYS551  ARG553  GLY616  TRP617  ASP618  TYR619  PRO620  LYS621  CYS622 
 ASP623  PHE694  ASN695  SER759  ASP760  ASP761  ALA762  ILE779  LEU786  VAL792 
 PHE793  MET794  SER795  GLU796  ALA797  LYS798  CYS799  TRP800  GLU811  SER814 

> <Gold.Protein.RotatedAtoms>
  152.4284  134.5824  159.9951 H   0  0  0  0  0  0  0  0  0  0  0  0  # atno 6907 bound_to 6896
  151.5954  133.3356  159.3044 H   0  0  0  0  0  0  0  0  0  0  0  0  # atno 6908 bound_to 6896
  150.8175  134.7402  159.6808 H   0  0  0  0  0  0  0  0  0  0  0  0  # atno 6909 bound_to 6896
  144.8242  139.6630  143.6087 H   0  0  0  0  0  0  0  0  0  0  0  0  # atno 7974 bound_to 7965
  156.2580  140.2860  156.0942 H   0  0  0  0  0  0  0  0  0  0  0  0  # atno 8008 bound_to 7997
  155.1430  140.0396  157.2820 H   0  0  0  0  0  0  0  0  0  0  0  0  # atno 8009 bound_to 7997
  154.6516  140.2546  155.7214 H   0  0  0  0  0  0  0  0  0  0  0  0  # atno 8010 bound_to 7997
  139.8442  143.7283  152.2661 H   0  0  0  0  0  0  0  0  0  0  0  0  # atno 10167 bound_to 10162
  157.3822  130.7760  149.7202 H   0  0  0  0  0  0  0  0  0  0  0  0  # atno 10718 bound_to 10713
  154.1555  135.2812  155.3123 H   0  0  0  0  0  0  0  0  0  0  0  0  # atno 10763 bound_to 10752
  154.6185  135.5475  153.7553 H   0  0  0  0  0  0  0  0  0  0  0  0  # atno 10764 bound_to 10752
  153.0208  135.6433  154.1698 H   0  0  0  0  0  0  0  0  0  0  0  0  # atno 10765 bound_to 10752
  141.1541  133.6750  156.6511 H   0  0  0  0  0  0  0  0  0  0  0  0  # atno 11005 bound_to 11000
  146.2548  139.6278  142.9402 LP  0  0  0  0  0  0  0  0  0  0  0  0  # atno 17320 bound_to 7965
  145.5036  141.0437  143.2527 LP  0  0  0  0  0  0  0  0  0  0  0  0  # atno 17321 bound_to 7965
  139.7529  144.7529  151.0479 LP  0  0  0  0  0  0  0  0  0  0  0  0  # atno 17342 bound_to 10162
  140.7795  143.4839  150.9982 LP  0  0  0  0  0  0  0  0  0  0  0  0  # atno 17343 bound_to 10162
  155.9778  130.4058  150.3687 LP  0  0  0  0  0  0  0  0  0  0  0  0  # atno 17370 bound_to 10713
  157.1792  131.0388  151.2757 LP  0  0  0  0  0  0  0  0  0  0  0  0  # atno 17371 bound_to 10713
  140.3320  134.7921  157.4333 LP  0  0  0  0  0  0  0  0  0  0  0  0  # atno 17394 bound_to 11000
  140.1009  134.5474  155.8354 LP  0  0  0  0  0  0  0  0  0  0  0  0  # atno 17395 bound_to 11000

$$$$
