#       Name:                AV-unprocessed.smi:972
#       Creating user name   scv26
#       Creation time:       Fri Mar 27 02:20:28 2020


#       File generated by GOLD software.
#

@<TRIPOS>MOLECULE
AV-unprocessed.smi:972
    55    57     1
SMALL
NO_CHARGES


@<TRIPOS>ATOM
      1 ****        -7.2166  -0.4871   0.3579 C.3            1 S1                 0.0000
      2 ****        -6.4692   0.8543   0.5451 C.3            1 S1                 0.0000
      3 ****        -7.1959   1.8783  -0.3587 C.3            1 S1                 0.0000
      4 ****        -6.5719   1.3023   2.0146 C.3            1 S1                 0.0000
      5 ****        -4.9874   0.7211   0.1522 C.ar           1 S1                 0.0000
      6 ****        -4.3803  -0.4352   0.4489 N.ar           1 S1                 0.0000
      7 ****        -3.0512  -0.5255   0.2296 C.ar           1 S1                 0.0000
      8 ****        -2.3038   0.5705  -0.2662 C.ar           1 S1                 0.0000
      9 ****        -0.9051   0.5762  -0.5226 N.am           1 S1                 0.0000
     10 ****        -0.0212  -0.4319  -0.4308 C.2            1 S1                 0.0000
     11 ****        -0.2830  -1.5875  -0.1002 O.2            1 S1                 0.0000
     12 ****         1.2141  -0.0212  -0.7521 N.am           1 S1                 0.0000
     13 ****         2.4050  -0.8660  -0.7588 C.3            1 S1                 0.0000
     14 ****         2.9795  -1.0163   0.6628 C.3            1 S1                 0.0000
     15 ****         4.2952  -1.8171   0.6508 C.3            1 S1                 0.0000
     16 ****         5.3006  -1.2289  -0.2713 N.4            1 S1                 1.0000
     17 ****         5.9266   0.0073   0.2540 C.3            1 S1                 0.0000
     18 ****         7.3563   0.2009  -0.1950 C.3            1 S1                 0.0000
     19 ****         7.0612  -0.2507   1.2178 C.3            1 S1                 0.0000
     20 ****         4.7734  -1.0805  -1.6523 C.3            1 S1                 0.0000
     21 ****         3.4687  -0.2617  -1.6904 C.3            1 S1                 0.0000
     22 ****        -3.0373   1.7507  -0.5017 C.ar           1 S1                 0.0000
     23 ****        -4.3657   1.8267  -0.2775 N.ar           1 S1                 0.0000
     24 ****        -8.2773  -0.3865   0.5901 H              1 S1                 0.0000
     25 ****        -6.8254  -1.2680   1.0109 H              1 S1                 0.0000
     26 ****        -7.1387  -0.8452  -0.6695 H              1 S1                 0.0000
     27 ****        -7.1183   1.6044  -1.4116 H              1 S1                 0.0000
     28 ****        -6.7884   2.8838  -0.2473 H              1 S1                 0.0000
     29 ****        -8.2569   1.9411  -0.1142 H              1 S1                 0.0000
     30 ****        -7.6112   1.4079   2.3270 H              1 S1                 0.0000
     31 ****        -6.0815   2.2639   2.1704 H              1 S1                 0.0000
     32 ****        -6.0995   0.5809   2.6823 H              1 S1                 0.0000
     33 ****        -2.6129  -1.4802   0.4712 H              1 S1                 0.0000
     34 ****        -0.5307   1.4638  -0.8244 H              1 S1                 0.0000
     35 ****         1.3387   0.9458  -1.0142 H              1 S1                 0.0000
     36 ****         2.1394  -1.8537  -1.1410 H              1 S1                 0.0000
     37 ****         3.1489  -0.0327   1.1031 H              1 S1                 0.0000
     38 ****         2.2573  -1.5173   1.3088 H              1 S1                 0.0000
     39 ****         4.7081  -1.8860   1.6578 H              1 S1                 0.0000
     40 ****         4.0939  -2.8405   0.3316 H              1 S1                 0.0000
     41 ****         5.2753   0.8679   0.3931 H              1 S1                 0.0000
     42 ****         7.7876  -0.5309  -0.8758 H              1 S1                 0.0000
     43 ****         7.7070   1.2223  -0.3282 H              1 S1                 0.0000
     44 ****         7.2165   0.4733   2.0152 H              1 S1                 0.0000
     45 ****         7.2967  -1.2821   1.4744 H              1 S1                 0.0000
     46 ****         5.5286  -0.6229  -2.2923 H              1 S1                 0.0000
     47 ****         4.5895  -2.0759  -2.0588 H              1 S1                 0.0000
     48 ****         3.0904  -0.2262  -2.7129 H              1 S1                 0.0000
     49 ****         3.6727   0.7711  -1.4053 H              1 S1                 0.0000
     50 ****        -2.5555   2.6459  -0.8667 H              1 S1                 0.0000
     51 ****         6.0520  -1.9014  -0.3300 H              1 S1                 0.0000
     52 ****        -4.8952  -1.2074   0.8212 LP             1 S1                 0.0000
     53 ****        -1.2228  -1.8415   0.1284 LP             1 S1                 0.0000
     54 ****         0.4440  -2.2730  -0.0600 LP             1 S1                 0.0000
     55 ****        -4.8681   2.6783  -0.4269 LP             1 S1                 0.0000
@<TRIPOS>BOND
    1    1    2 1     
    2    1   24 1     
    3    1   25 1     
    4    1   26 1     
    5    2    3 1     
    6    2    4 1     
    7    2    5 1     
    8    3   27 1     
    9    3   28 1     
   10    3   29 1     
   11    4   30 1     
   12    4   31 1     
   13    4   32 1     
   14    5   23 ar    
   15    5    6 ar    
   16    6    7 ar    
   17    7    8 ar    
   18    7   33 1     
   19    8    9 1     
   20    8   22 ar    
   21    9   10 am    
   22    9   34 1     
   23   10   11 2     
   24   10   12 am    
   25   12   13 1     
   26   12   35 1     
   27   13   21 1     
   28   13   14 1     
   29   13   36 1     
   30   14   15 1     
   31   14   37 1     
   32   14   38 1     
   33   15   16 1     
   34   15   39 1     
   35   15   40 1     
   36   16   17 1     
   37   16   20 1     
   38   16   51 1     
   39   17   19 1     
   40   17   18 1     
   41   17   41 1     
   42   18   19 1     
   43   18   42 1     
   44   18   43 1     
   45   19   44 1     
   46   19   45 1     
   47   20   21 1     
   48   20   46 1     
   49   20   47 1     
   50   21   48 1     
   51   21   49 1     
   52   22   23 ar    
   53   22   50 1     
   54    6   52 1     
   55   11   53 1     
   56   11   54 1     
   57   23   55 1     
@<TRIPOS>SUBSTRUCTURE
      1 S1             1
@<TRIPOS>SET
LONE_PAIRS      STATIC     ATOMS    <user>   **** ""
4 52 53 54 55
DONOR_HYDROGENS      STATIC     ATOMS    <user>   **** ""
3 34 35 51
ATOM$BLUE        STATIC     ATOMS    COLORGROUP SYSTEM
4 52 53 54 55
ATOM$RED        STATIC     ATOMS    COLORGROUP SYSTEM
3 34 35 51
