AV-unprocessed.smi:859|AV-procd|sdf|3964|dock3
  -GOLD-   22720 1433D 1   1.00000     0.00000
 Structure written by MMmdl.
 35 36  0  0  0  0  0  0  0  0  1 V2000
  152.8890  140.4678  157.3029 O   0  0  0  0  0  0  0  0  0  0  0  0
  152.0752  141.3097  157.6844 C   0  0  0  0  0  0  0  0  0  0  0  0
  150.7871  141.3122  157.3066 N   0  0  0  0  0  0  0  0  0  0  0  0
  150.1867  140.3825  156.3540 C   0  0  0  0  0  0  0  0  0  0  0  0
  150.0087  141.0232  154.9647 C   0  0  0  0  0  0  0  0  0  0  0  0
  148.6476  140.9188  154.4709 N   0  0  0  0  0  0  0  0  0  0  0  0
  148.0196  139.7823  153.9779 C   0  0  0  0  0  0  0  0  0  0  0  0
  146.7378  140.1555  153.6425 C   0  0  0  0  0  0  0  0  0  0  0  0
  146.5588  141.5105  153.9108 N   0  0  0  0  0  0  0  0  0  0  0  0
  147.7317  141.8944  154.3982 C   0  0  0  0  0  0  0  0  0  0  0  0
  152.5181  142.4459  158.6151 C   0  0  0  0  0  0  0  0  0  0  0  0
  152.5686  141.9575  160.0791 C   0  0  0  0  0  0  0  0  0  0  0  0
  152.9901  143.0859  161.0340 C   0  0  0  0  0  0  0  0  0  0  0  0
  152.0640  144.3047  160.8976 C   0  0  0  0  0  0  0  0  0  0  0  0
  152.0043  144.7975  159.4431 C   0  0  0  0  0  0  0  0  0  0  0  0
  151.5826  143.6676  158.4890 C   0  0  0  0  0  0  0  0  0  0  0  0
  150.1886  142.0380  157.6735 H   0  0  0  0  0  0  0  0  0  0  0  0
  150.7649  139.4597  156.2807 H   0  0  0  0  0  0  0  0  0  0  0  0
  149.2103  140.0957  156.7445 H   0  0  0  0  0  0  0  0  0  0  0  0
  150.2732  142.0803  155.0076 H   0  0  0  0  0  0  0  0  0  0  0  0
  150.6829  140.5616  154.2421 H   0  0  0  0  0  0  0  0  0  0  0  0
  148.5199  138.8272  153.9165 H   0  0  0  0  0  0  0  0  0  0  0  0
  145.9374  139.5581  153.2316 H   0  0  0  0  0  0  0  0  0  0  0  0
  147.9276  142.9082  154.7154 H   0  0  0  0  0  0  0  0  0  0  0  0
  153.5235  142.7568  158.3252 H   0  0  0  0  0  0  0  0  0  0  0  0
  151.5919  141.5774  160.3834 H   0  0  0  0  0  0  0  0  0  0  0  0
  153.2646  141.1226  160.1729 H   0  0  0  0  0  0  0  0  0  0  0  0
  152.9796  142.7248  162.0629 H   0  0  0  0  0  0  0  0  0  0  0  0
  154.0180  143.3821  160.8208 H   0  0  0  0  0  0  0  0  0  0  0  0
  151.0610  144.0402  161.2348 H   0  0  0  0  0  0  0  0  0  0  0  0
  152.4078  145.1084  161.5493 H   0  0  0  0  0  0  0  0  0  0  0  0
  151.3061  145.6311  159.3623 H   0  0  0  0  0  0  0  0  0  0  0  0
  152.9810  145.1820  159.1468 H   0  0  0  0  0  0  0  0  0  0  0  0
  151.5841  144.0379  157.4630 H   0  0  0  0  0  0  0  0  0  0  0  0
  150.5539  143.3792  158.7114 H   0  0  0  0  0  0  0  0  0  0  0  0
  1  2  2  0  0  0  0
  2  3  1  0  0  0  0
  2 11  1  0  0  0  0
  3  4  1  0  0  0  0
  3 17  1  0  0  0  0
  4  5  1  0  0  0  0
  4 18  1  0  0  0  0
  4 19  1  0  0  0  0
  5  6  1  0  0  0  0
  5 20  1  0  0  0  0
  5 21  1  0  0  0  0
  6 10  1  0  0  0  0
  6  7  1  0  0  0  0
  7  8  2  0  0  0  0
  7 22  1  0  0  0  0
  8  9  1  0  0  0  0
  8 23  1  0  0  0  0
  9 10  2  0  0  0  0
 10 24  1  0  0  0  0
 11 16  1  0  0  0  0
 11 12  1  0  0  0  0
 11 25  1  0  0  0  0
 12 13  1  0  0  0  0
 12 26  1  0  0  0  0
 12 27  1  0  0  0  0
 13 14  1  0  0  0  0
 13 28  1  0  0  0  0
 13 29  1  0  0  0  0
 14 15  1  0  0  0  0
 14 30  1  0  0  0  0
 14 31  1  0  0  0  0
 15 16  1  0  0  0  0
 15 32  1  0  0  0  0
 15 33  1  0  0  0  0
 16 34  1  0  0  0  0
 16 35  1  0  0  0  0
M  END
> <s_m_source_file>
AV-unprocessed.smi

> <i_m_source_file_index>
859

> <i_lp_mmshare_version>
43012

> <i_f3d_flags>
0

> <s_epik_input>
W0NIMl0xW0NIMl1bQ0gyXVtDSDJdW0NIMl1bQ0hdMUMoPU8pW05IXVtDSDJdW0NIMl1uMltjSF1bY0hdbltjSF0y

> <s_epik_cmdline>
J2VwaWtfcHl0aG9uJywgJy1waCcsICc3LjAnLCAnLXRuJywgJzgnLCAnLW1hJywgJzIwMCcsICctbWV0YWxfYmluZGluZycsICctaW1hZScsICc8aW5maWxlLm1hZT4nLCAnLW9tYWUnLCAnPG91dGZpbGUubWFlPic=

> <r_lp_tautomer_probability>
1

> <r_epik_Ionization_Penalty>
0.600603

> <r_epik_Ionization_Penalty_Charging>
0.600603

> <r_epik_Ionization_Penalty_Neutral>
2.01201e-08

> <r_epik_State_Penalty>
0.614954

> <r_epik_Charging_Adjusted_Penalty>
1.21556

> <i_epik_Tot_Q>
0

> <i_epik_Tot_abs_Q>
0

> <r_epik_Metal_State_Penalty>
0.301281

> <b_epik_Metal_Only>
0

> <s_lp_Force_Field>
OPLS_2005

> <r_lp_Energy>
12.3333

> <b_lp_Chiralities_Consistent>
1

> <s_lp_Variant>
AV-unprocessed.smi:859-2

> <Gold.Version>
5.8.1

> <Gold.Id.Protein>
6NUR|6NUR_protein|mol2

> <Gold.PLP.Fitness>
42.6271

> <Gold.PLP.PLP>
-36.1981

> <Gold.PLP.part.hbond>
-1.0000

> <Gold.PLP.part.metal>
0.0000

> <Gold.PLP.part.buried>
-1.3703

> <Gold.PLP.part.nonpolar>
-33.2788

> <Gold.PLP.part.repulsive>
0.2376

> <Gold.PLP.ligand.clash>
0.0000

> <Gold.PLP.ligand.torsion>
1.2963

> <Gold.PLP.Chemscore.Hbond>
1.0000

> <Gold.PLP.Chemscore.CHOScore>
1.9991

> <Gold.PLP.Chemscore.Metal>
0.0000

> <Gold.Chemscore.Hbonds>
donor molecule, donor type, donor heavy atom, donor atom, acceptor molecule, acceptor atom, score
      P1  H  7997  8010       L1     1  0.80
      L1  C     8    23       P1 10175  0.85
      L1  C    10    24       P1  8028  1.00

> <Gold.PLP.Chemscore.Internal.Correction>
0.0246

> <Gold.Rescore>
     Score         DG    S(hbond)    S(metal)    S(lipo)     H(rot)  DE(clash)    DE(int)     intcor
     14.09     -14.76       0.94        0.00      91.56       1.79       0.02       0.65       ----

> <Gold.Chemscore.Fitness>
14.0857

> <Gold.Chemscore.DG>
-14.7563

> <Gold.Chemscore.ZeroCoef>
-5.4800

> <Gold.Chemscore.Hbond>
0.9399

> <Gold.Chemscore.Metal>
0.0000

> <Gold.Chemscore.Lipo>
91.5567

> <Gold.Chemscore.Internal_Hbond>
0.0000

> <Gold.Chemscore.DEClash>
0.0236

> <Gold.Chemscore.DEInternal>
0.6470

> <Gold.Chemscore.Rot>
1.7872

> <Gold.Chemscore.Internal.Correction>
   9.000000E+99

> <Gold.Chemscore.Hbonds>
donor molecule, donor type, donor heavy atom, donor atom, acceptor molecule, acceptor atom, score
      P1  H  7997  8010       L1     1  0.79

> <Gold.Chemscore.Hbond.Weighted>
-3.1393

> <Gold.Chemscore.Metal.Weighted>
-0.0000

> <Gold.Chemscore.Lipo.Weighted>
-10.7121

> <Gold.Chemscore.Internal_Hbond.Weighted>
0.0000

> <Gold.Chemscore.DEClash.Weighted>
0.0236

> <Gold.Chemscore.DEInternal.Weighted>
0.6470

> <Gold.Chemscore.Rot.Weighted>
4.5751

> <Gold.Chemscore.Internal.Correction.Weighted>
   9.000000E+99

> <Gold.Protein.RotatedTorsions>
[ 6907 6896 6895 6894 ] final  130.14 input  -60.11 | X-H torsion
[ 7974 7965 7964 7962 ] final   56.91 input  175.53 | X-H torsion
[ 8008 7997 7996 7995 ] final   48.75 input   59.86 | X-H torsion
[ 10167 10162 10161 10158 ] final  109.33 input  -65.29 | X-H torsion
[ 10718 10713 10712 10709 ] final  -10.09 input   66.30 | X-H torsion
[ 10763 10752 10751 10750 ] final  -45.94 input  -60.55 | X-H torsion
[ 11005 11000 10999 10996 ] final   34.15 input  -57.11 | X-H torsion

> <Gold.Protein.ActiveResidues>
 VAL166  LYS551  ARG553  GLY616  TRP617  ASP618  TYR619  PRO620  LYS621  CYS622 
 ASP623  PHE694  ASN695  SER759  ASP760  ASP761  ALA762  ILE779  LEU786  VAL792 
 PHE793  MET794  SER795  GLU796  ALA797  LYS798  CYS799  TRP800  GLU811  SER814 

> <Gold.Protein.RotatedAtoms>
  152.3555  133.6232  159.5976 H   0  0  0  0  0  0  0  0  0  0  0  0  # atno 6907 bound_to 6896
  150.7566  133.9506  159.3493 H   0  0  0  0  0  0  0  0  0  0  0  0  # atno 6908 bound_to 6896
  151.7352  135.0867  160.0358 H   0  0  0  0  0  0  0  0  0  0  0  0  # atno 6909 bound_to 6896
  145.9348  139.3838  143.0399 H   0  0  0  0  0  0  0  0  0  0  0  0  # atno 7974 bound_to 7965
  155.3909  140.3433  155.4251 H   0  0  0  0  0  0  0  0  0  0  0  0  # atno 8008 bound_to 7997
  156.1558  140.1585  156.8728 H   0  0  0  0  0  0  0  0  0  0  0  0  # atno 8009 bound_to 7997
  154.5093  140.0794  156.7940 H   0  0  0  0  0  0  0  0  0  0  0  0  # atno 8010 bound_to 7997
  139.6775  144.7121  151.1576 H   0  0  0  0  0  0  0  0  0  0  0  0  # atno 10167 bound_to 10162
  156.6786  130.5030  149.5978 H   0  0  0  0  0  0  0  0  0  0  0  0  # atno 10718 bound_to 10713
  154.0368  135.6649  153.4786 H   0  0  0  0  0  0  0  0  0  0  0  0  # atno 10763 bound_to 10752
  153.0517  135.5080  154.7880 H   0  0  0  0  0  0  0  0  0  0  0  0  # atno 10764 bound_to 10752
  154.6843  135.3050  154.9535 H   0  0  0  0  0  0  0  0  0  0  0  0  # atno 10765 bound_to 10752
  140.2558  134.3250  155.7874 H   0  0  0  0  0  0  0  0  0  0  0  0  # atno 11005 bound_to 11000
  145.8379  140.9596  143.0815 LP  0  0  0  0  0  0  0  0  0  0  0  0  # atno 17320 bound_to 7965
  144.6770  140.0246  143.7483 LP  0  0  0  0  0  0  0  0  0  0  0  0  # atno 17321 bound_to 7965
  140.7640  143.5750  150.8955 LP  0  0  0  0  0  0  0  0  0  0  0  0  # atno 17342 bound_to 10162
  139.9419  143.6371  152.3051 LP  0  0  0  0  0  0  0  0  0  0  0  0  # atno 17343 bound_to 10162
  156.1885  130.6544  151.1033 LP  0  0  0  0  0  0  0  0  0  0  0  0  # atno 17370 bound_to 10713
  157.7052  131.0759  150.6691 LP  0  0  0  0  0  0  0  0  0  0  0  0  # atno 17371 bound_to 10713
  141.2196  133.7380  156.9109 LP  0  0  0  0  0  0  0  0  0  0  0  0  # atno 17394 bound_to 11000
  140.1513  134.9228  157.2596 LP  0  0  0  0  0  0  0  0  0  0  0  0  # atno 17395 bound_to 11000

$$$$
