AV-unprocessed.smi:625|AV-procd|sdf|3102|dock9
  -GOLD-   22720 0 23D 1   1.00000     0.00000
 Structure written by MMmdl.
 49 51  0  0  0  0  0  0  0  0  1 V2000
  148.4357  140.1695  154.1570 C   0  0  0  0  0  0  0  0  0  0  0  0
  148.9594  138.9357  154.7232 N   0  0  0  0  0  0  0  0  0  0  0  0
  150.2659  138.6458  154.8377 C   0  0  0  0  0  0  0  0  0  0  0  0
  151.1390  139.4308  154.4625 O   0  0  0  0  0  0  0  0  0  0  0  0
  150.5307  137.3375  155.4408 C   0  0  0  0  0  0  0  0  0  0  0  0
  151.3149  137.1592  156.6537 C   0  0  0  0  0  0  0  0  0  0  0  0
  151.5529  135.9247  157.1401 C   0  0  0  0  0  0  0  0  0  0  0  0
  151.0419  134.7203  156.4782 C   0  0  0  0  0  0  0  0  0  0  0  0
  151.2763  133.5910  156.9084 O   0  0  0  0  0  0  0  0  0  0  0  0
  150.2953  134.9341  155.3534 N   0  0  0  0  0  0  0  0  0  0  0  0
  149.7602  133.8178  154.5587 C   0  0  0  0  0  0  0  0  0  0  0  0
  148.2365  133.9228  154.4399 C   0  0  0  0  0  0  0  0  0  0  0  0
  147.5110  133.3899  155.2798 O   0  0  0  0  0  0  0  0  0  0  0  0
  147.7732  134.5953  153.3754 N   0  0  0  0  0  0  0  0  0  0  0  0
  146.3782  134.6541  152.9468 C   0  0  1  0  0  0  0  0  0  0  0  0
  145.8607  136.0931  153.0937 C   0  0  0  0  0  0  0  0  0  0  0  0
  146.2650  134.1335  151.4934 C   0  0  2  0  0  0  0  0  0  0  0  0
  144.8975  134.3820  150.8185 C   0  0  0  0  0  0  0  0  0  0  0  0
  144.5364  132.9976  150.2462 C   0  0  2  0  0  0  0  0  0  0  0  0
  144.1180  132.0673  151.3998 C   0  0  0  0  0  0  0  0  0  0  0  0
  145.4561  131.7798  152.1040 C   0  0  0  0  0  0  0  0  0  0  0  0
  146.4612  132.6097  151.2788 C   0  0  1  0  0  0  0  0  0  0  0  0
  145.9027  132.4352  149.8709 C   0  0  0  0  0  0  0  0  0  0  0  0
  150.0503  136.2271  154.8504 C   0  0  0  0  0  0  0  0  0  0  0  0
  147.3465  140.1656  154.2004 H   0  0  0  0  0  0  0  0  0  0  0  0
  148.7348  140.2746  153.1133 H   0  0  0  0  0  0  0  0  0  0  0  0
  148.7965  141.0365  154.7121 H   0  0  0  0  0  0  0  0  0  0  0  0
  148.2877  138.2561  155.0492 H   0  0  0  0  0  0  0  0  0  0  0  0
  151.7211  138.0044  157.1896 H   0  0  0  0  0  0  0  0  0  0  0  0
  152.1383  135.8174  158.0417 H   0  0  0  0  0  0  0  0  0  0  0  0
  150.1885  133.7792  153.5562 H   0  0  0  0  0  0  0  0  0  0  0  0
  150.0385  132.8721  155.0277 H   0  0  0  0  0  0  0  0  0  0  0  0
  148.4509  135.0165  152.7568 H   0  0  0  0  0  0  0  0  0  0  0  0
  145.7640  134.0195  153.5875 H   0  0  0  0  0  0  0  0  0  0  0  0
  144.8143  136.1693  152.7979 H   0  0  0  0  0  0  0  0  0  0  0  0
  146.4319  136.7870  152.4762 H   0  0  0  0  0  0  0  0  0  0  0  0
  145.9330  136.4309  154.1280 H   0  0  0  0  0  0  0  0  0  0  0  0
  147.0305  134.6393  150.9020 H   0  0  0  0  0  0  0  0  0  0  0  0
  144.1366  134.7412  151.5126 H   0  0  0  0  0  0  0  0  0  0  0  0
  144.9937  135.1222  150.0232 H   0  0  0  0  0  0  0  0  0  0  0  0
  143.8125  133.0360  149.4318 H   0  0  0  0  0  0  0  0  0  0  0  0
  143.3898  132.5330  152.0647 H   0  0  0  0  0  0  0  0  0  0  0  0
  143.6805  131.1440  151.0179 H   0  0  0  0  0  0  0  0  0  0  0  0
  145.4398  132.0425  153.1606 H   0  0  0  0  0  0  0  0  0  0  0  0
  145.6984  130.7182  152.0399 H   0  0  0  0  0  0  0  0  0  0  0  0
  147.4942  132.2804  151.3939 H   0  0  0  0  0  0  0  0  0  0  0  0
  145.8684  131.3940  149.5442 H   0  0  0  0  0  0  0  0  0  0  0  0
  146.4246  133.0289  149.1183 H   0  0  0  0  0  0  0  0  0  0  0  0
  149.4640  136.2429  153.9420 H   0  0  0  0  0  0  0  0  0  0  0  0
  1  2  1  0  0  0  0
  1 25  1  0  0  0  0
  1 26  1  0  0  0  0
  1 27  1  0  0  0  0
  2  3  1  0  0  0  0
  2 28  1  0  0  0  0
  3  4  2  0  0  0  0
  3  5  1  0  0  0  0
  5 24  2  0  0  0  0
  5  6  1  0  0  0  0
  6  7  2  0  0  0  0
  6 29  1  0  0  0  0
  7  8  1  0  0  0  0
  7 30  1  0  0  0  0
  8  9  2  0  0  0  0
  8 10  1  0  0  0  0
 10 11  1  0  0  0  0
 10 24  1  0  0  0  0
 11 12  1  0  0  0  0
 11 31  1  0  0  0  0
 11 32  1  0  0  0  0
 12 13  2  0  0  0  0
 12 14  1  0  0  0  0
 14 15  1  0  0  0  0
 14 33  1  0  0  0  0
 15 16  1  0  0  0  0
 15 17  1  0  0  0  0
 15 34  1  0  0  0  0
 16 35  1  0  0  0  0
 16 36  1  0  0  0  0
 16 37  1  0  0  0  0
 17 22  1  0  0  0  0
 17 18  1  0  0  0  0
 17 38  1  0  0  0  0
 18 19  1  0  0  0  0
 18 39  1  0  0  0  0
 18 40  1  0  0  0  0
 19 23  1  0  0  0  0
 19 20  1  0  0  0  0
 19 41  1  0  0  0  0
 20 21  1  0  0  0  0
 20 42  1  0  0  0  0
 20 43  1  0  0  0  0
 21 22  1  0  0  0  0
 21 44  1  0  0  0  0
 21 45  1  0  0  0  0
 22 23  1  0  0  0  0
 22 46  1  0  0  0  0
 23 47  1  0  0  0  0
 23 48  1  0  0  0  0
 24 49  1  0  0  0  0
M  END
> <s_m_source_file>
AV-unprocessed.smi

> <i_m_source_file_index>
625

> <i_lp_mmshare_version>
43012

> <i_f3d_flags>
0

> <s_epik_input>
W0NIM11bTkhdQyg9TyljMVtjSF1bY0hdYyg9TyluKFtjSF0xKVtDSDJdQyg9TylbTkhdW0NASF0oW0NIM10pW0NASF0oW0NIMl1bQ0BIXTIzKVtDQEhdKFtDSDJdMylbQ0gyXVtDSDJdMg==

> <s_epik_cmdline>
J2VwaWtfcHl0aG9uJywgJy1waCcsICc3LjAnLCAnLXRuJywgJzgnLCAnLW1hJywgJzIwMCcsICctbWV0YWxfYmluZGluZycsICctaW1hZScsICc8aW5maWxlLm1hZT4nLCAnLW9tYWUnLCAnPG91dGZpbGUubWFlPic=

> <r_lp_tautomer_probability>
1

> <r_epik_Ionization_Penalty>
3.7129e-07

> <r_epik_Ionization_Penalty_Charging>
5.04114e-08

> <r_epik_Ionization_Penalty_Neutral>
3.20879e-07

> <r_epik_State_Penalty>
-0

> <r_epik_Charging_Adjusted_Penalty>
5.04114e-08

> <i_epik_Tot_Q>
0

> <i_epik_Tot_abs_Q>
0

> <r_epik_Metal_State_Penalty>
-0

> <b_epik_Metal_Only>
0

> <s_lp_Force_Field>
OPLS_2005

> <r_lp_Energy>
63.4228

> <b_lp_Chiralities_Consistent>
1

> <s_lp_Variant>
AV-unprocessed.smi:625-2

> <Gold.Version>
5.8.1

> <Gold.Id.Protein>
6NUR|6NUR_protein|mol2

> <Gold.PLP.Fitness>
43.3608

> <Gold.PLP.PLP>
-36.9639

> <Gold.PLP.part.hbond>
-2.8440

> <Gold.PLP.part.metal>
0.0000

> <Gold.PLP.part.buried>
-3.3757

> <Gold.PLP.part.nonpolar>
-30.9044

> <Gold.PLP.part.repulsive>
0.1703

> <Gold.PLP.ligand.clash>
0.0000

> <Gold.PLP.ligand.torsion>
1.6374

> <Gold.PLP.Chemscore.Hbond>
2.2075

> <Gold.PLP.Chemscore.CHOScore>
1.0000

> <Gold.PLP.Chemscore.Metal>
0.0000

> <Gold.Chemscore.Hbonds>
donor molecule, donor type, donor heavy atom, donor atom, acceptor molecule, acceptor atom, score
      L1  H    14    33       P1  7948  1.00
      P1  H  6896  6908       L1     9  0.22
      P1  H  7989  7998       L1     4  1.00
      L1  C    24    49       P1  7948  1.00

> <Gold.PLP.Chemscore.Internal.Correction>
0.0492

> <Gold.Rescore>
     Score         DG    S(hbond)    S(metal)    S(lipo)     H(rot)  DE(clash)    DE(int)     intcor
     18.28     -19.70       2.57        0.00      84.83       1.67       0.06       1.37       ----

> <Gold.Chemscore.Fitness>
18.2756

> <Gold.Chemscore.DG>
-19.7049

> <Gold.Chemscore.ZeroCoef>
-5.4800

> <Gold.Chemscore.Hbond>
2.5679

> <Gold.Chemscore.Metal>
0.0000

> <Gold.Chemscore.Lipo>
84.8323

> <Gold.Chemscore.Internal_Hbond>
0.0000

> <Gold.Chemscore.DEClash>
0.0560

> <Gold.Chemscore.DEInternal>
1.3732

> <Gold.Chemscore.Rot>
1.6709

> <Gold.Chemscore.Internal.Correction>
   9.000000E+99

> <Gold.Chemscore.Hbonds>
donor molecule, donor type, donor heavy atom, donor atom, acceptor molecule, acceptor atom, score
      L1  H    14    33       P1  7948  0.56
      P1  H  6896  6908       L1     9  0.18
      P1  H  7989  7998       L1     4  1.00

> <Gold.Chemscore.Hbond.Weighted>
-8.5769

> <Gold.Chemscore.Metal.Weighted>
-0.0000

> <Gold.Chemscore.Lipo.Weighted>
-9.9254

> <Gold.Chemscore.Internal_Hbond.Weighted>
0.0000

> <Gold.Chemscore.DEClash.Weighted>
0.0560

> <Gold.Chemscore.DEInternal.Weighted>
1.3732

> <Gold.Chemscore.Rot.Weighted>
4.2774

> <Gold.Chemscore.Internal.Correction.Weighted>
   9.000000E+99

> <Gold.Protein.RotatedTorsions>
[ 6907 6896 6895 6894 ] final   93.98 input  -60.11 | X-H torsion
[ 7974 7965 7964 7962 ] final   86.92 input  175.53 | X-H torsion
[ 8008 7997 7996 7995 ] final -105.07 input   59.86 | X-H torsion
[ 10167 10162 10161 10158 ] final  118.32 input  -65.29 | X-H torsion
[ 10718 10713 10712 10709 ] final -111.17 input   66.30 | X-H torsion
[ 10763 10752 10751 10750 ] final  139.17 input  -60.55 | X-H torsion
[ 11005 11000 10999 10996 ] final   16.79 input  -57.11 | X-H torsion

> <Gold.Protein.ActiveResidues>
 VAL166  LYS551  ARG553  GLY616  TRP617  ASP618  TYR619  PRO620  LYS621  CYS622 
 ASP623  PHE694  ASN695  SER759  ASP760  ASP761  ALA762  ILE779  LEU786  VAL792 
 PHE793  MET794  SER795  GLU796  ALA797  LYS798  CYS799  TRP800  GLU811  SER814 

> <Gold.Protein.RotatedAtoms>
  152.5451  134.1264  159.8420 H   0  0  0  0  0  0  0  0  0  0  0  0  # atno 6907 bound_to 6896
  151.1314  133.5027  159.2606 H   0  0  0  0  0  0  0  0  0  0  0  0  # atno 6908 bound_to 6896
  151.1671  135.0310  159.8790 H   0  0  0  0  0  0  0  0  0  0  0  0  # atno 6909 bound_to 6896
  145.5659  139.2308  143.2433 H   0  0  0  0  0  0  0  0  0  0  0  0  # atno 7974 bound_to 7965
  154.8946  140.0415  157.1858 H   0  0  0  0  0  0  0  0  0  0  0  0  # atno 8008 bound_to 7997
  154.8506  140.2928  155.5580 H   0  0  0  0  0  0  0  0  0  0  0  0  # atno 8009 bound_to 7997
  156.2996  140.2465  156.3464 H   0  0  0  0  0  0  0  0  0  0  0  0  # atno 8010 bound_to 7997
  139.6119  144.7083  151.2825 H   0  0  0  0  0  0  0  0  0  0  0  0  # atno 10167 bound_to 10162
  156.0632  130.5853  150.8337 H   0  0  0  0  0  0  0  0  0  0  0  0  # atno 10718 bound_to 10713
  153.9017  135.3021  155.3448 H   0  0  0  0  0  0  0  0  0  0  0  0  # atno 10763 bound_to 10752
  154.7667  135.4907  153.9571 H   0  0  0  0  0  0  0  0  0  0  0  0  # atno 10764 bound_to 10752
  153.1241  135.6789  153.9386 H   0  0  0  0  0  0  0  0  0  0  0  0  # atno 10765 bound_to 10752
  140.4431  134.1301  155.7693 H   0  0  0  0  0  0  0  0  0  0  0  0  # atno 11005 bound_to 11000
  146.1819  140.6484  142.9185 LP  0  0  0  0  0  0  0  0  0  0  0  0  # atno 17320 bound_to 7965
  144.7461  140.5071  143.6835 LP  0  0  0  0  0  0  0  0  0  0  0  0  # atno 17321 bound_to 7965
  140.7325  143.6822  150.7991 LP  0  0  0  0  0  0  0  0  0  0  0  0  # atno 17342 bound_to 10162
  140.0418  143.5338  152.2714 LP  0  0  0  0  0  0  0  0  0  0  0  0  # atno 17343 bound_to 10162
  157.5655  131.0946  150.9496 LP  0  0  0  0  0  0  0  0  0  0  0  0  # atno 17370 bound_to 10713
  156.9724  130.5496  149.5291 LP  0  0  0  0  0  0  0  0  0  0  0  0  # atno 17371 bound_to 10713
  141.1697  133.8634  157.1609 LP  0  0  0  0  0  0  0  0  0  0  0  0  # atno 17394 bound_to 11000
  140.0056  135.0010  157.0286 LP  0  0  0  0  0  0  0  0  0  0  0  0  # atno 17395 bound_to 11000

$$$$
