AV-unprocessed.smi:261|AV-procd|sdf|1996|dock1
  -GOLD-   2262021183D 1   1.00000     0.00000
 Structure written by MMmdl.
 51 54  0  0  0  0  0  0  0  0  1 V2000
  152.2836  144.6336  158.5632 C   0  0  0  0  0  0  0  0  0  0  0  0
  151.1059  143.9117  158.8846 O   0  0  0  0  0  0  0  0  0  0  0  0
  150.9741  142.6936  158.1667 C   0  0  2  0  0  0  0  0  0  0  0  0
  151.1113  142.8632  156.6504 C   0  0  0  0  0  0  0  0  0  0  0  0
  150.3321  141.6754  156.0610 C   0  0  1  0  0  0  0  0  0  0  0  0
  151.2368  140.4501  155.8403 C   0  0  0  0  0  0  0  0  0  0  0  0
  151.8395  139.9472  156.9199 N   0  0  0  0  0  0  0  0  0  0  0  0
  151.3821  139.9565  154.7230 O   0  0  0  0  0  0  0  0  0  0  0  0
  149.2987  141.4194  157.0673 N   0  0  0  0  0  0  0  0  0  0  0  0
  148.1297  140.7736  156.8016 C   0  0  0  0  0  0  0  0  0  0  0  0
  147.1245  140.8571  157.7138 N   0  0  0  0  0  0  0  0  0  0  0  0
  145.9553  140.2479  157.5021 C   0  0  0  0  0  0  0  0  0  0  0  0
  145.5784  139.5093  156.4586 N   0  0  0  0  0  0  0  0  0  0  0  0
  146.5776  139.4162  155.5364 C   0  0  0  0  0  0  0  0  0  0  0  0
  147.8718  140.0079  155.6241 C   0  0  0  0  0  0  0  0  0  0  0  0
  148.6041  139.6819  154.4863 N   0  0  0  0  0  0  0  0  0  0  0  0
  147.7952  138.9483  153.7733 C   0  0  0  0  0  0  0  0  0  0  0  0
  146.5543  138.7433  154.3286 N   0  0  0  0  0  0  0  0  0  0  0  0
  145.4585  137.9785  153.7593 C   0  0  0  0  0  0  0  0  0  0  0  0
  145.9386  136.9471  152.7153 C   0  0  1  0  0  0  0  0  0  0  0  0
  146.8090  136.0397  153.3642 O   0  0  0  0  0  0  0  0  0  0  0  0
  144.7854  136.1354  152.0923 C   0  0  1  0  0  0  0  0  0  0  0  0
  145.2157  135.1228  151.0288 C   0  0  0  0  0  0  0  0  0  0  0  0
  144.1033  134.0874  151.0466 C   0  0  0  0  0  0  0  0  0  0  0  0
  143.4055  134.3221  152.3879 C   0  0  0  0  0  0  0  0  0  0  0  0
  144.2160  135.2722  153.0656 O   0  0  0  0  0  0  0  0  0  0  0  0
  149.5604  142.1289  158.3124 C   0  0  0  0  0  0  0  0  0  0  0  0
  151.6905  141.9525  158.5265 H   0  0  0  0  0  0  0  0  0  0  0  0
  149.8852  141.9757  155.1114 H   0  0  0  0  0  0  0  0  0  0  0  0
  152.3334  145.5375  159.1701 H   0  0  0  0  0  0  0  0  0  0  0  0
  152.2964  144.9351  157.5154 H   0  0  0  0  0  0  0  0  0  0  0  0
  153.1771  144.0427  158.7690 H   0  0  0  0  0  0  0  0  0  0  0  0
  150.6356  143.7951  156.3413 H   0  0  0  0  0  0  0  0  0  0  0  0
  152.1514  142.9055  156.3241 H   0  0  0  0  0  0  0  0  0  0  0  0
  152.4400  139.1404  156.8324 H   0  0  0  0  0  0  0  0  0  0  0  0
  151.6875  140.3740  157.8222 H   0  0  0  0  0  0  0  0  0  0  0  0
  145.2162  140.3711  158.2798 H   0  0  0  0  0  0  0  0  0  0  0  0
  148.0815  138.5401  152.8148 H   0  0  0  0  0  0  0  0  0  0  0  0
  144.9222  137.4804  154.5685 H   0  0  0  0  0  0  0  0  0  0  0  0
  144.7596  138.6851  153.3111 H   0  0  0  0  0  0  0  0  0  0  0  0
  146.4910  137.4604  151.9271 H   0  0  0  0  0  0  0  0  0  0  0  0
  147.6012  135.9695  152.8535 H   0  0  0  0  0  0  0  0  0  0  0  0
  144.0156  136.7937  151.6838 H   0  0  0  0  0  0  0  0  0  0  0  0
  145.3551  135.5744  150.0461 H   0  0  0  0  0  0  0  0  0  0  0  0
  146.1554  134.6505  151.3193 H   0  0  0  0  0  0  0  0  0  0  0  0
  143.4059  134.2401  150.2222 H   0  0  0  0  0  0  0  0  0  0  0  0
  144.5052  133.0769  150.9656 H   0  0  0  0  0  0  0  0  0  0  0  0
  142.4098  134.7411  152.2351 H   0  0  0  0  0  0  0  0  0  0  0  0
  143.3048  133.4080  152.9732 H   0  0  0  0  0  0  0  0  0  0  0  0
  149.4939  141.4728  159.1805 H   0  0  0  0  0  0  0  0  0  0  0  0
  148.8311  142.9328  158.4234 H   0  0  0  0  0  0  0  0  0  0  0  0
  1  2  1  0  0  0  0
  1 30  1  0  0  0  0
  1 31  1  0  0  0  0
  1 32  1  0  0  0  0
  2  3  1  0  0  0  0
  3 28  1  0  0  0  0
  3 27  1  0  0  0  0
  3  4  1  0  0  0  0
  4  5  1  0  0  0  0
  4 33  1  0  0  0  0
  4 34  1  0  0  0  0
  5 29  1  0  0  0  0
  5  6  1  0  0  0  0
  5  9  1  0  0  0  0
  6  7  1  0  0  0  0
  6  8  2  0  0  0  0
  7 35  1  0  0  0  0
  7 36  1  0  0  0  0
  9 10  1  0  0  0  0
  9 27  1  0  0  0  0
 10 15  1  0  0  0  0
 10 11  2  0  0  0  0
 11 12  1  0  0  0  0
 12 13  2  0  0  0  0
 12 37  1  0  0  0  0
 13 14  1  0  0  0  0
 14 18  1  0  0  0  0
 14 15  2  0  0  0  0
 15 16  1  0  0  0  0
 16 17  2  0  0  0  0
 17 18  1  0  0  0  0
 17 38  1  0  0  0  0
 18 19  1  0  0  0  0
 19 20  1  0  0  0  0
 19 39  1  0  0  0  0
 19 40  1  0  0  0  0
 20 21  1  0  0  0  0
 20 22  1  0  0  0  0
 20 41  1  0  0  0  0
 21 42  1  0  0  0  0
 22 26  1  0  0  0  0
 22 23  1  0  0  0  0
 22 43  1  0  0  0  0
 23 24  1  0  0  0  0
 23 44  1  0  0  0  0
 23 45  1  0  0  0  0
 24 25  1  0  0  0  0
 24 46  1  0  0  0  0
 24 47  1  0  0  0  0
 25 26  1  0  0  0  0
 25 48  1  0  0  0  0
 25 49  1  0  0  0  0
 27 50  1  0  0  0  0
 27 51  1  0  0  0  0
M  END
> <s_m_source_file>
AV-unprocessed.smi

> <i_m_source_file_index>
261

> <i_lp_mmshare_version>
43012

> <i_f3d_flags>
0

> <s_epik_input>
W0NIM11PW0NASF0xW0NIMl1bQ0BASF0oQyg9TylbTkgyXSlOKFtDSDJdMSljKG5bY0hdbjIpYyhjMjMpbltjSF1uM1tDSDJdW0NASF0oW09IXSlbQ0BASF00W0NIMl1bQ0gyXVtDSDJdTzQ=

> <s_epik_cmdline>
J2VwaWtfcHl0aG9uJywgJy1waCcsICc3LjAnLCAnLXRuJywgJzgnLCAnLW1hJywgJzIwMCcsICctbWV0YWxfYmluZGluZycsICctaW1hZScsICc8aW5maWxlLm1hZT4nLCAnLW9tYWUnLCAnPG91dGZpbGUubWFlPic=

> <r_lp_tautomer_probability>
1

> <r_epik_Ionization_Penalty>
0.000713824

> <r_epik_Ionization_Penalty_Charging>
0

> <r_epik_Ionization_Penalty_Neutral>
0.000713824

> <r_epik_State_Penalty>
0.000402132

> <r_epik_Charging_Adjusted_Penalty>
0.000402132

> <i_epik_Tot_Q>
0

> <i_epik_Tot_abs_Q>
0

> <r_epik_Metal_State_Penalty>
-0

> <b_epik_Metal_Only>
0

> <s_lp_Force_Field>
OPLS_2005

> <r_lp_Energy>
41.8336

> <b_lp_Chiralities_Consistent>
1

> <s_lp_Variant>
AV-unprocessed.smi:261-14

> <Gold.Version>
5.8.1

> <Gold.Id.Protein>
6NUR|6NUR_protein|mol2

> <Gold.PLP.Fitness>
44.7835

> <Gold.PLP.PLP>
-34.3394

> <Gold.PLP.part.hbond>
-1.7849

> <Gold.PLP.part.metal>
0.0000

> <Gold.PLP.part.buried>
-4.5249

> <Gold.PLP.part.nonpolar>
-28.4229

> <Gold.PLP.part.repulsive>
0.5178

> <Gold.PLP.ligand.clash>
0.0000

> <Gold.PLP.ligand.torsion>
0.4834

> <Gold.PLP.Chemscore.Hbond>
2.0000

> <Gold.PLP.Chemscore.CHOScore>
1.7641

> <Gold.PLP.Chemscore.Metal>
0.0000

> <Gold.Chemscore.Hbonds>
donor molecule, donor type, donor heavy atom, donor atom, acceptor molecule, acceptor atom, score
      L1  H    21    42       P1  7948  1.00
      P1  H  7989  7998       L1     8  1.00
      L1  C    17    38       P1  7948  0.77
      L1  C    17    38       P1  7957  0.49

> <Gold.PLP.Chemscore.Internal.Correction>
0.1186

> <Gold.Rescore>
     Score         DG    S(hbond)    S(metal)    S(lipo)     H(rot)  DE(clash)    DE(int)     intcor
     10.04     -12.70       1.97        0.00      75.02       3.18       0.07       2.58       ----

> <Gold.Chemscore.Fitness>
10.0430

> <Gold.Chemscore.DG>
-12.6991

> <Gold.Chemscore.ZeroCoef>
-5.4800

> <Gold.Chemscore.Hbond>
1.9732

> <Gold.Chemscore.Metal>
0.0000

> <Gold.Chemscore.Lipo>
75.0189

> <Gold.Chemscore.Internal_Hbond>
0.0000

> <Gold.Chemscore.DEClash>
0.0719

> <Gold.Chemscore.DEInternal>
2.5842

> <Gold.Chemscore.Rot>
3.1831

> <Gold.Chemscore.Internal.Correction>
   9.000000E+99

> <Gold.Chemscore.Hbonds>
donor molecule, donor type, donor heavy atom, donor atom, acceptor molecule, acceptor atom, score
      L1  H    21    42       P1  7948  1.00
      P1  H  7989  7998       L1     8  0.92

> <Gold.Chemscore.Hbond.Weighted>
-6.5905

> <Gold.Chemscore.Metal.Weighted>
-0.0000

> <Gold.Chemscore.Lipo.Weighted>
-8.7772

> <Gold.Chemscore.Internal_Hbond.Weighted>
0.0000

> <Gold.Chemscore.DEClash.Weighted>
0.0719

> <Gold.Chemscore.DEInternal.Weighted>
2.5842

> <Gold.Chemscore.Rot.Weighted>
8.1486

> <Gold.Chemscore.Internal.Correction.Weighted>
   9.000000E+99

> <Gold.Protein.RotatedTorsions>
[ 6907 6896 6895 6894 ] final  171.05 input  -60.11 | X-H torsion
[ 7974 7965 7964 7962 ] final -121.46 input  175.53 | X-H torsion
[ 8008 7997 7996 7995 ] final   70.55 input   59.86 | X-H torsion
[ 10167 10162 10161 10158 ] final  -31.59 input  -65.29 | X-H torsion
[ 10718 10713 10712 10709 ] final -106.86 input   66.30 | X-H torsion
[ 10763 10752 10751 10750 ] final -113.22 input  -60.55 | X-H torsion
[ 11005 11000 10999 10996 ] final  -29.92 input  -57.11 | X-H torsion

> <Gold.Protein.ActiveResidues>
 VAL166  LYS551  ARG553  GLY616  TRP617  ASP618  TYR619  PRO620  LYS621  CYS622 
 ASP623  PHE694  ASN695  SER759  ASP760  ASP761  ALA762  ILE779  LEU786  VAL792 
 PHE793  MET794  SER795  GLU796  ALA797  LYS798  CYS799  TRP800  GLU811  SER814 

> <Gold.Protein.RotatedAtoms>
  151.8063  133.3376  159.3541 H   0  0  0  0  0  0  0  0  0  0  0  0  # atno 6907 bound_to 6896
  150.7341  134.5706  159.5898 H   0  0  0  0  0  0  0  0  0  0  0  0  # atno 6908 bound_to 6896
  152.3107  134.7502  160.0388 H   0  0  0  0  0  0  0  0  0  0  0  0  # atno 6909 bound_to 6896
  145.0401  140.8137  143.4272 H   0  0  0  0  0  0  0  0  0  0  0  0  # atno 7974 bound_to 7965
  155.7406  140.3490  155.5102 H   0  0  0  0  0  0  0  0  0  0  0  0  # atno 8008 bound_to 7997
  155.9098  140.1048  157.1309 H   0  0  0  0  0  0  0  0  0  0  0  0  # atno 8009 bound_to 7997
  154.4054  140.1270  156.4529 H   0  0  0  0  0  0  0  0  0  0  0  0  # atno 8010 bound_to 7997
  140.7234  143.3759  151.1691 H   0  0  0  0  0  0  0  0  0  0  0  0  # atno 10167 bound_to 10162
  156.0409  130.5634  150.7740 H   0  0  0  0  0  0  0  0  0  0  0  0  # atno 10718 bound_to 10713
  154.8386  135.4462  154.1315 H   0  0  0  0  0  0  0  0  0  0  0  0  # atno 10763 bound_to 10752
  153.2524  135.6928  153.7671 H   0  0  0  0  0  0  0  0  0  0  0  0  # atno 10764 bound_to 10752
  153.6978  135.3377  155.3193 H   0  0  0  0  0  0  0  0  0  0  0  0  # atno 10765 bound_to 10752
  140.9338  133.7321  156.0975 H   0  0  0  0  0  0  0  0  0  0  0  0  # atno 11005 bound_to 11000
  145.1659  139.2431  143.5367 LP  0  0  0  0  0  0  0  0  0  0  0  0  # atno 17320 bound_to 7965
  146.3508  140.1398  142.8595 LP  0  0  0  0  0  0  0  0  0  0  0  0  # atno 17321 bound_to 7965
  139.7339  143.9030  152.3028 LP  0  0  0  0  0  0  0  0  0  0  0  0  # atno 17342 bound_to 10162
  139.8828  144.7008  150.8858 LP  0  0  0  0  0  0  0  0  0  0  0  0  # atno 17343 bound_to 10162
  157.5226  131.0932  151.0059 LP  0  0  0  0  0  0  0  0  0  0  0  0  # atno 17370 bound_to 10713
  157.0385  130.5739  149.5353 LP  0  0  0  0  0  0  0  0  0  0  0  0  # atno 17371 bound_to 10713
  140.7827  134.3707  157.5483 LP  0  0  0  0  0  0  0  0  0  0  0  0  # atno 17394 bound_to 11000
  139.8803  134.9091  156.2984 LP  0  0  0  0  0  0  0  0  0  0  0  0  # atno 17395 bound_to 11000

$$$$
