AV-unprocessed.smi:1612|AV-procd|sdf|6477|dock1
  -GOLD-   22720 7133D 1   1.00000     0.00000
 Structure written by MMmdl.
 37 38  0  0  0  0  0  0  0  0  1 V2000
  147.7864  140.9829  153.4896 C   0  0  0  0  0  0  0  0  0  0  0  0
  147.5063  141.1026  155.0040 C   0  0  1  0  0  0  0  0  0  0  0  0
  148.4403  142.0126  155.6767 N   0  0  0  0  0  0  0  0  0  0  0  0
  149.3192  141.7226  156.6510 C   0  0  0  0  0  0  0  0  0  0  0  0
  149.5104  140.5880  157.0880 O   0  0  0  0  0  0  0  0  0  0  0  0
  149.9586  142.8301  157.0673 N   0  0  0  0  0  0  0  0  0  0  0  0
  150.9572  142.9434  158.0715 C   0  0  0  0  0  0  0  0  0  0  0  0
  151.4438  144.2530  158.2861 C   0  0  0  0  0  0  0  0  0  0  0  0
  152.4366  144.4722  159.2606 C   0  0  0  0  0  0  0  0  0  0  0  0
  152.9187  143.3748  159.9962 C   0  0  0  0  0  0  0  0  0  0  0  0
  152.3812  142.1043  159.7202 C   0  0  0  0  0  0  0  0  0  0  0  0
  151.4294  141.8921  158.7870 N   0  0  0  0  0  0  0  0  0  0  0  0
  146.0381  141.4235  155.3540 C   0  0  0  0  0  0  0  0  0  0  0  0
  145.4152  140.6499  156.0824 O   0  0  0  0  0  0  0  0  0  0  0  0
  145.4640  142.5359  154.8446 N   0  0  0  0  0  0  0  0  0  0  0  0
  144.0871  142.9811  155.0629 C   0  0  0  0  0  0  0  0  0  0  0  0
  144.0054  144.3877  154.4692 C   0  0  0  0  0  0  0  0  0  0  0  0
  145.0997  144.4100  153.4119 C   0  0  0  0  0  0  0  0  0  0  0  0
  146.1683  143.4663  153.9635 C   0  0  0  0  0  0  0  0  0  0  0  0
  147.1713  140.2007  153.0437 H   0  0  0  0  0  0  0  0  0  0  0  0
  148.8285  140.7209  153.3039 H   0  0  0  0  0  0  0  0  0  0  0  0
  147.5746  141.9049  152.9481 H   0  0  0  0  0  0  0  0  0  0  0  0
  147.7221  140.1153  155.4119 H   0  0  0  0  0  0  0  0  0  0  0  0
  148.3859  142.9784  155.3882 H   0  0  0  0  0  0  0  0  0  0  0  0
  149.6989  143.6944  156.6157 H   0  0  0  0  0  0  0  0  0  0  0  0
  151.0620  145.0849  157.7121 H   0  0  0  0  0  0  0  0  0  0  0  0
  152.8209  145.4654  159.4399 H   0  0  0  0  0  0  0  0  0  0  0  0
  153.6799  143.5029  160.7516 H   0  0  0  0  0  0  0  0  0  0  0  0
  152.7238  141.2357  160.2628 H   0  0  0  0  0  0  0  0  0  0  0  0
  143.4079  142.3089  154.5370 H   0  0  0  0  0  0  0  0  0  0  0  0
  143.8116  142.9901  156.1176 H   0  0  0  0  0  0  0  0  0  0  0  0
  143.0202  144.6194  154.0638 H   0  0  0  0  0  0  0  0  0  0  0  0
  144.2308  145.1241  155.2417 H   0  0  0  0  0  0  0  0  0  0  0  0
  144.7086  144.0126  152.4744 H   0  0  0  0  0  0  0  0  0  0  0  0
  145.4809  145.4126  153.2166 H   0  0  0  0  0  0  0  0  0  0  0  0
  146.9033  144.0203  154.5495 H   0  0  0  0  0  0  0  0  0  0  0  0
  146.6951  142.9524  153.1578 H   0  0  0  0  0  0  0  0  0  0  0  0
  1  2  1  0  0  0  0
  1 20  1  0  0  0  0
  1 21  1  0  0  0  0
  1 22  1  0  0  0  0
  2  3  1  0  0  0  0
  2 13  1  0  0  0  0
  2 23  1  0  0  0  0
  3  4  1  0  0  0  0
  3 24  1  0  0  0  0
  4  5  2  0  0  0  0
  4  6  1  0  0  0  0
  6  7  1  0  0  0  0
  6 25  1  0  0  0  0
  7 12  1  0  0  0  0
  7  8  2  0  0  0  0
  8  9  1  0  0  0  0
  8 26  1  0  0  0  0
  9 10  2  0  0  0  0
  9 27  1  0  0  0  0
 10 11  1  0  0  0  0
 10 28  1  0  0  0  0
 11 12  2  0  0  0  0
 11 29  1  0  0  0  0
 13 14  2  0  0  0  0
 13 15  1  0  0  0  0
 15 19  1  0  0  0  0
 15 16  1  0  0  0  0
 16 17  1  0  0  0  0
 16 30  1  0  0  0  0
 16 31  1  0  0  0  0
 17 18  1  0  0  0  0
 17 32  1  0  0  0  0
 17 33  1  0  0  0  0
 18 19  1  0  0  0  0
 18 34  1  0  0  0  0
 18 35  1  0  0  0  0
 19 36  1  0  0  0  0
 19 37  1  0  0  0  0
M  END
> <s_m_source_file>
AV-unprocessed.smi

> <i_m_source_file_index>
1612

> <i_lp_mmshare_version>
43012

> <i_f3d_flags>
0

> <s_epik_input>
W0NIMl0xW0NIMl1bQ0gyXVtDSDJdTjFDKD1PKVtDQEhdKFtDSDNdKVtOSF1DKD1PKVtOSF1jMltjSF1bY0hdW2NIXVtjSF1uMg==

> <s_epik_cmdline>
J2VwaWtfcHl0aG9uJywgJy1waCcsICc3LjAnLCAnLXRuJywgJzgnLCAnLW1hJywgJzIwMCcsICctbWV0YWxfYmluZGluZycsICctaW1hZScsICc8aW5maWxlLm1hZT4nLCAnLW9tYWUnLCAnPG91dGZpbGUubWFlPic=

> <r_lp_tautomer_probability>
1

> <r_epik_Ionization_Penalty>
3.95281e-05

> <r_epik_Ionization_Penalty_Charging>
0

> <r_epik_Ionization_Penalty_Neutral>
3.95281e-05

> <r_epik_State_Penalty>
-0

> <r_epik_Charging_Adjusted_Penalty>
0

> <i_epik_Tot_Q>
0

> <i_epik_Tot_abs_Q>
0

> <r_epik_Metal_State_Penalty>
-0

> <b_epik_Metal_Only>
0

> <s_lp_Force_Field>
OPLS_2005

> <r_lp_Energy>
35.1648

> <b_lp_Chiralities_Consistent>
1

> <s_lp_Variant>
AV-unprocessed.smi:1612-2

> <Gold.Version>
5.8.1

> <Gold.Id.Protein>
6NUR|6NUR_protein|mol2

> <Gold.PLP.Fitness>
43.9480

> <Gold.PLP.PLP>
-38.1280

> <Gold.PLP.part.hbond>
-2.0000

> <Gold.PLP.part.metal>
0.0000

> <Gold.PLP.part.buried>
-4.9526

> <Gold.PLP.part.nonpolar>
-32.0070

> <Gold.PLP.part.repulsive>
0.1735

> <Gold.PLP.ligand.clash>
0.0000

> <Gold.PLP.ligand.torsion>
0.1634

> <Gold.PLP.Chemscore.Hbond>
2.0000

> <Gold.PLP.Chemscore.CHOScore>
0.0000

> <Gold.PLP.Chemscore.Metal>
0.0000

> <Gold.Chemscore.Hbonds>
donor molecule, donor type, donor heavy atom, donor atom, acceptor molecule, acceptor atom, score
      L1  H     3    24       P1  8028  0.99
      L1  H     6    25       P1  8028  1.00

> <Gold.PLP.Chemscore.Internal.Correction>
0.1468

> <Gold.Rescore>
     Score         DG    S(hbond)    S(metal)    S(lipo)     H(rot)  DE(clash)    DE(int)     intcor
     16.19     -18.47       1.95        0.00      83.74       1.30       0.07       2.20       ----

> <Gold.Chemscore.Fitness>
16.1928

> <Gold.Chemscore.DG>
-18.4677

> <Gold.Chemscore.ZeroCoef>
-5.4800

> <Gold.Chemscore.Hbond>
1.9529

> <Gold.Chemscore.Metal>
0.0000

> <Gold.Chemscore.Lipo>
83.7358

> <Gold.Chemscore.Internal_Hbond>
0.0000

> <Gold.Chemscore.DEClash>
0.0732

> <Gold.Chemscore.DEInternal>
2.2018

> <Gold.Chemscore.Rot>
1.3016

> <Gold.Chemscore.Internal.Correction>
   9.000000E+99

> <Gold.Chemscore.Hbonds>
donor molecule, donor type, donor heavy atom, donor atom, acceptor molecule, acceptor atom, score
      L1  H     3    24       P1  8028  0.94
      L1  H     6    25       P1  8028  0.98

> <Gold.Chemscore.Hbond.Weighted>
-6.5228

> <Gold.Chemscore.Metal.Weighted>
-0.0000

> <Gold.Chemscore.Lipo.Weighted>
-9.7971

> <Gold.Chemscore.Internal_Hbond.Weighted>
0.0000

> <Gold.Chemscore.DEClash.Weighted>
0.0732

> <Gold.Chemscore.DEInternal.Weighted>
2.2018

> <Gold.Chemscore.Rot.Weighted>
3.3322

> <Gold.Chemscore.Internal.Correction.Weighted>
   9.000000E+99

> <Gold.Protein.RotatedTorsions>
[ 6907 6896 6895 6894 ] final  108.00 input  -60.11 | X-H torsion
[ 7974 7965 7964 7962 ] final -133.11 input  175.53 | X-H torsion
[ 8008 7997 7996 7995 ] final   55.06 input   59.86 | X-H torsion
[ 10167 10162 10161 10158 ] final  166.48 input  -65.29 | X-H torsion
[ 10718 10713 10712 10709 ] final  125.02 input   66.30 | X-H torsion
[ 10763 10752 10751 10750 ] final   -8.74 input  -60.55 | X-H torsion
[ 11005 11000 10999 10996 ] final  -48.16 input  -57.11 | X-H torsion

> <Gold.Protein.ActiveResidues>
 VAL166  LYS551  ARG553  GLY616  TRP617  ASP618  TYR619  PRO620  LYS621  CYS622 
 ASP623  PHE694  ASN695  SER759  ASP760  ASP761  ALA762  ILE779  LEU786  VAL792 
 PHE793  MET794  SER795  GLU796  ALA797  LYS798  CYS799  TRP800  GLU811  SER814 

> <Gold.Protein.RotatedAtoms>
  152.5131  133.9153  159.7507 H   0  0  0  0  0  0  0  0  0  0  0  0  # atno 6907 bound_to 6896
  150.9537  133.6513  159.2774 H   0  0  0  0  0  0  0  0  0  0  0  0  # atno 6908 bound_to 6896
  151.3782  135.0940  159.9540 H   0  0  0  0  0  0  0  0  0  0  0  0  # atno 6909 bound_to 6896
  144.9223  140.7029  143.4957 H   0  0  0  0  0  0  0  0  0  0  0  0  # atno 7974 bound_to 7965
  155.4950  140.3472  155.4361 H   0  0  0  0  0  0  0  0  0  0  0  0  # atno 8008 bound_to 7997
  156.0952  140.1421  156.9568 H   0  0  0  0  0  0  0  0  0  0  0  0  # atno 8009 bound_to 7997
  154.4659  140.0918  156.6996 H   0  0  0  0  0  0  0  0  0  0  0  0  # atno 8010 bound_to 7997
  139.4925  144.4022  151.9396 H   0  0  0  0  0  0  0  0  0  0  0  0  # atno 10167 bound_to 10162
  157.5538  131.1093  150.8657 H   0  0  0  0  0  0  0  0  0  0  0  0  # atno 10718 bound_to 10713
  153.4448  135.7014  153.6146 H   0  0  0  0  0  0  0  0  0  0  0  0  # atno 10763 bound_to 10752
  153.4505  135.3759  155.2281 H   0  0  0  0  0  0  0  0  0  0  0  0  # atno 10764 bound_to 10752
  154.8728  135.3996  154.3852 H   0  0  0  0  0  0  0  0  0  0  0  0  # atno 10765 bound_to 10752
  141.0684  133.6686  156.3401 H   0  0  0  0  0  0  0  0  0  0  0  0  # atno 11005 bound_to 11000
  145.3275  139.1769  143.4554 LP  0  0  0  0  0  0  0  0  0  0  0  0  # atno 17320 bound_to 7965
  146.3210  140.3301  142.8639 LP  0  0  0  0  0  0  0  0  0  0  0  0  # atno 17321 bound_to 7965
  140.3462  144.3144  150.5958 LP  0  0  0  0  0  0  0  0  0  0  0  0  # atno 17342 bound_to 10162
  140.5524  143.2204  151.7904 LP  0  0  0  0  0  0  0  0  0  0  0  0  # atno 17343 bound_to 10162
  156.9174  130.5303  149.5279 LP  0  0  0  0  0  0  0  0  0  0  0  0  # atno 17370 bound_to 10713
  156.0600  130.5654  150.9172 LP  0  0  0  0  0  0  0  0  0  0  0  0  # atno 17371 bound_to 10713
  140.5725  134.5826  157.5461 LP  0  0  0  0  0  0  0  0  0  0  0  0  # atno 17394 bound_to 11000
  139.9499  134.7635  156.0473 LP  0  0  0  0  0  0  0  0  0  0  0  0  # atno 17395 bound_to 11000

$$$$
