AV-unprocessed.smi:2568|AV-procd|sdf|10090|dock2
  -GOLD-   2272014113D 1   1.00000     0.00000
 Structure written by MMmdl.
 24 25  0  0  0  0  0  0  0  0  1 V2000
  151.4691  142.6983  158.0735 C   0  0  0  0  0  0  0  0  0  0  0  0
  151.3468  141.5901  157.0834 C   0  0  0  0  0  0  0  0  0  0  0  0
  150.8376  141.7798  155.8651 N   0  0  0  0  0  0  0  0  0  0  0  0
  150.8418  140.6098  155.1921 N   0  0  0  0  0  0  0  0  0  0  0  0
  151.3889  139.7792  156.0794 C   0  0  0  0  0  0  0  0  0  0  0  0
  151.5571  138.3245  155.7657 C   0  0  2  0  0  0  0  0  0  0  0  0
  151.2499  138.0100  154.2882 C   0  0  0  0  0  0  0  0  0  0  0  0
  151.3288  136.5694  154.0497 N   0  0  0  0  0  0  0  0  0  0  0  0
  150.4554  135.8341  154.9636 C   0  0  0  0  0  0  0  0  0  0  0  0
  150.7738  136.2042  156.4238 C   0  0  0  0  0  0  0  0  0  0  0  0
  150.6469  137.6110  156.5998 O   0  0  0  0  0  0  0  0  0  0  0  0
  151.7105  140.3297  157.2915 N   0  0  0  0  0  0  0  0  0  0  0  0
  150.4867  142.6417  155.4722 H   0  0  0  0  0  0  0  0  0  0  0  0
  151.9736  142.3502  158.9755 H   0  0  0  0  0  0  0  0  0  0  0  0
  150.4802  143.0662  158.3471 H   0  0  0  0  0  0  0  0  0  0  0  0
  152.0452  143.5201  157.6476 H   0  0  0  0  0  0  0  0  0  0  0  0
  152.5796  138.0290  156.0104 H   0  0  0  0  0  0  0  0  0  0  0  0
  150.2525  138.3716  154.0345 H   0  0  0  0  0  0  0  0  0  0  0  0
  151.9493  138.5357  153.6379 H   0  0  0  0  0  0  0  0  0  0  0  0
  151.0641  136.3682  153.0907 H   0  0  0  0  0  0  0  0  0  0  0  0
  149.4119  136.0659  154.7467 H   0  0  0  0  0  0  0  0  0  0  0  0
  150.5758  134.7611  154.8139 H   0  0  0  0  0  0  0  0  0  0  0  0
  150.0797  135.7014  157.0975 H   0  0  0  0  0  0  0  0  0  0  0  0
  151.7781  135.8787  156.7001 H   0  0  0  0  0  0  0  0  0  0  0  0
  1 14  1  0  0  0  0
  1 15  1  0  0  0  0
  1 16  1  0  0  0  0
  1  2  1  0  0  0  0
  2 12  2  0  0  0  0
  2  3  1  0  0  0  0
  3  4  1  0  0  0  0
  3 13  1  0  0  0  0
  4  5  2  0  0  0  0
  5 12  1  0  0  0  0
  5  6  1  0  0  0  0
  6 11  1  0  0  0  0
  6  7  1  0  0  0  0
  6 17  1  0  0  0  0
  7  8  1  0  0  0  0
  7 18  1  0  0  0  0
  7 19  1  0  0  0  0
  8  9  1  0  0  0  0
  8 20  1  0  0  0  0
  9 10  1  0  0  0  0
  9 21  1  0  0  0  0
  9 22  1  0  0  0  0
 10 11  1  0  0  0  0
 10 23  1  0  0  0  0
 10 24  1  0  0  0  0
M  END
> <s_m_source_file>
AV-unprocessed.smi

> <i_m_source_file_index>
2568

> <i_lp_mmshare_version>
43012

> <i_f3d_flags>
0

> <s_epik_input>
W0NIM11jMW5bbkhdYyhuMSlbQ0BASF0yW0NIMl1bTkhdW0NIMl1bQ0gyXU8y

> <s_epik_cmdline>
J2VwaWtfcHl0aG9uJywgJy1waCcsICc3LjAnLCAnLXRuJywgJzgnLCAnLW1hJywgJzIwMCcsICctbWV0YWxfYmluZGluZycsICctaW1hZScsICc8aW5maWxlLm1hZT4nLCAnLW9tYWUnLCAnPG91dGZpbGUubWFlPic=

> <r_epik_Ionization_Penalty>
1.10101

> <r_epik_Ionization_Penalty_Charging>
0

> <r_epik_Ionization_Penalty_Neutral>
1.10101

> <r_epik_State_Penalty>
1.26524

> <r_epik_Charging_Adjusted_Penalty>
1.26524

> <i_epik_Tot_Q>
0

> <i_epik_Tot_abs_Q>
0

> <r_epik_Metal_State_Penalty>
1.56429

> <b_epik_Metal_Only>
0

> <s_lp_Force_Field>
OPLS_2005

> <r_lp_Energy>
12.1745

> <b_lp_Chiralities_Consistent>
1

> <s_lp_Variant>
AV-unprocessed.smi:2568-3

> <Gold.Version>
5.8.1

> <Gold.Id.Protein>
6NUR|6NUR_protein|mol2

> <Gold.PLP.Fitness>
27.0329

> <Gold.PLP.PLP>
-18.3754

> <Gold.PLP.part.hbond>
-3.4556

> <Gold.PLP.part.metal>
0.0000

> <Gold.PLP.part.buried>
-2.7992

> <Gold.PLP.part.nonpolar>
-12.3385

> <Gold.PLP.part.repulsive>
0.2021

> <Gold.PLP.ligand.clash>
0.0000

> <Gold.PLP.ligand.torsion>
0.1176

> <Gold.PLP.Chemscore.Hbond>
2.9600

> <Gold.PLP.Chemscore.CHOScore>
0.0000

> <Gold.PLP.Chemscore.Metal>
0.0000

> <Gold.Chemscore.Hbonds>
donor molecule, donor type, donor heavy atom, donor atom, acceptor molecule, acceptor atom, score
      L1  H     8    20       P1  7949  1.00
      P1  H  7989  7998       L1     4  0.94
      P1  H 10752 10763       L1     8  0.95

> <Gold.PLP.Chemscore.Internal.Correction>
0.0126

> <Gold.Rescore>
     Score         DG    S(hbond)    S(metal)    S(lipo)     H(rot)  DE(clash)    DE(int)     intcor
     12.66     -12.80       1.81        0.00      32.67       1.00       0.13       0.01       ----

> <Gold.Chemscore.Fitness>
12.6632

> <Gold.Chemscore.DG>
-12.7979

> <Gold.Chemscore.ZeroCoef>
-5.4800

> <Gold.Chemscore.Hbond>
1.8131

> <Gold.Chemscore.Metal>
0.0000

> <Gold.Chemscore.Lipo>
32.6683

> <Gold.Chemscore.Internal_Hbond>
0.0000

> <Gold.Chemscore.DEClash>
0.1282

> <Gold.Chemscore.DEInternal>
0.0065

> <Gold.Chemscore.Rot>
1.0000

> <Gold.Chemscore.Internal.Correction>
   9.000000E+99

> <Gold.Chemscore.Hbonds>
donor molecule, donor type, donor heavy atom, donor atom, acceptor molecule, acceptor atom, score
      L1  H     8    20       P1  7949  0.30
      P1  H  7989  7998       L1     4  0.58
      P1  H 10752 10763       L1     8  0.12

> <Gold.Chemscore.Hbond.Weighted>
-6.0557

> <Gold.Chemscore.Metal.Weighted>
-0.0000

> <Gold.Chemscore.Lipo.Weighted>
-3.8222

> <Gold.Chemscore.Internal_Hbond.Weighted>
0.0000

> <Gold.Chemscore.DEClash.Weighted>
0.1282

> <Gold.Chemscore.DEInternal.Weighted>
0.0065

> <Gold.Chemscore.Rot.Weighted>
2.5600

> <Gold.Chemscore.Internal.Correction.Weighted>
   9.000000E+99

> <Gold.Protein.RotatedTorsions>
[ 6907 6896 6895 6894 ] final   52.64 input  -60.11 | X-H torsion
[ 7974 7965 7964 7962 ] final   -1.50 input  175.53 | X-H torsion
[ 8008 7997 7996 7995 ] final -169.25 input   59.86 | X-H torsion
[ 10167 10162 10161 10158 ] final  151.49 input  -65.29 | X-H torsion
[ 10718 10713 10712 10709 ] final   43.58 input   66.30 | X-H torsion
[ 10763 10752 10751 10750 ] final   28.68 input  -60.55 | X-H torsion
[ 11005 11000 10999 10996 ] final -139.83 input  -57.11 | X-H torsion

> <Gold.Protein.ActiveResidues>
 VAL166  LYS551  ARG553  GLY616  TRP617  ASP618  TYR619  PRO620  LYS621  CYS622 
 ASP623  PHE694  ASN695  SER759  ASP760  ASP761  ALA762  ILE779  LEU786  VAL792 
 PHE793  MET794  SER795  GLU796  ALA797  LYS798  CYS799  TRP800  GLU811  SER814 

> <Gold.Protein.RotatedAtoms>
  152.3254  134.7327  160.0302 H   0  0  0  0  0  0  0  0  0  0  0  0  # atno 6907 bound_to 6896
  151.7762  133.3340  159.3466 H   0  0  0  0  0  0  0  0  0  0  0  0  # atno 6908 bound_to 6896
  150.7393  134.5905  159.6029 H   0  0  0  0  0  0  0  0  0  0  0  0  # atno 6909 bound_to 6896
  146.2416  140.1429  142.8335 H   0  0  0  0  0  0  0  0  0  0  0  0  # atno 7974 bound_to 7965
  155.9025  140.1043  157.1339 H   0  0  0  0  0  0  0  0  0  0  0  0  # atno 8008 bound_to 7997
  154.4028  140.1290  156.4518 H   0  0  0  0  0  0  0  0  0  0  0  0  # atno 8009 bound_to 7997
  155.7406  140.3467  155.5105 H   0  0  0  0  0  0  0  0  0  0  0  0  # atno 8010 bound_to 7997
  139.4840  144.5436  151.7522 H   0  0  0  0  0  0  0  0  0  0  0  0  # atno 10167 bound_to 10162
  157.4175  130.7950  149.7485 H   0  0  0  0  0  0  0  0  0  0  0  0  # atno 10718 bound_to 10713
  153.0476  135.6507  154.0775 H   0  0  0  0  0  0  0  0  0  0  0  0  # atno 10763 bound_to 10752
  154.0470  135.2899  155.3348 H   0  0  0  0  0  0  0  0  0  0  0  0  # atno 10764 bound_to 10752
  154.6745  135.5344  153.8247 H   0  0  0  0  0  0  0  0  0  0  0  0  # atno 10765 bound_to 10752
  140.8481  134.2319  157.4775 H   0  0  0  0  0  0  0  0  0  0  0  0  # atno 11005 bound_to 11000
  145.0231  140.8810  143.5154 LP  0  0  0  0  0  0  0  0  0  0  0  0  # atno 17320 bound_to 7965
  145.1481  139.2531  143.5455 LP  0  0  0  0  0  0  0  0  0  0  0  0  # atno 17321 bound_to 7965
  140.4979  144.1213  150.5964 LP  0  0  0  0  0  0  0  0  0  0  0  0  # atno 17342 bound_to 10162
  140.4096  143.2663  151.9849 LP  0  0  0  0  0  0  0  0  0  0  0  0  # atno 17343 bound_to 10162
  155.9870  130.3970  150.3187 LP  0  0  0  0  0  0  0  0  0  0  0  0  # atno 17370 bound_to 10713
  157.1331  131.0277  151.2960 LP  0  0  0  0  0  0  0  0  0  0  0  0  # atno 17371 bound_to 10713
  139.8704  134.9670  156.4580 LP  0  0  0  0  0  0  0  0  0  0  0  0  # atno 17394 bound_to 11000
  140.8820  133.7911  155.9477 LP  0  0  0  0  0  0  0  0  0  0  0  0  # atno 17395 bound_to 11000

$$$$
