AV-unprocessed.smi:1184|AV-procd|sdf|4972|dock7
  -GOLD-   22720 3563D 1   1.00000     0.00000
 Structure written by MMmdl.
 43 44  0  0  0  0  0  0  0  0  2 V2000
  144.2432  133.2447  150.0677 C   0  0  0  0  0  0  0  0  0  0  0  0
  143.8012  132.4607  151.3121 C   0  0  0  0  0  0  0  0  0  0  0  0
  143.9637  133.2477  152.5569 N   0  3  2  0  0  0  0  0  0  0  0  0
  143.1308  134.4721  152.6265 C   0  0  0  0  0  0  0  0  0  0  0  0
  144.0197  135.5862  153.1999 C   0  0  0  0  0  0  0  0  0  0  0  0
  145.2226  134.8540  153.7924 C   0  0  2  0  0  0  0  0  0  0  0  0
  146.4935  135.7169  153.9228 C   0  0  0  0  0  0  0  0  0  0  0  0
  147.6830  134.9254  153.6288 N   0  0  0  0  0  0  0  0  0  0  0  0
  148.0734  133.8374  154.3111 C   0  0  0  0  0  0  0  0  0  0  0  0
  147.3739  133.2695  155.1494 O   0  0  0  0  0  0  0  0  0  0  0  0
  149.5068  133.3700  154.0709 C   0  0  0  0  0  0  0  0  0  0  0  0
  150.3135  133.6683  155.3101 C   0  0  0  0  0  0  0  0  0  0  0  0
  150.8887  132.7422  156.2271 C   0  0  0  0  0  0  0  0  0  0  0  0
  150.8197  131.2420  156.2078 C   0  0  0  0  0  0  0  0  0  0  0  0
  151.5690  133.3519  157.1833 N   0  0  0  0  0  0  0  0  0  0  0  0
  151.4570  134.7205  156.9213 O   0  0  0  0  0  0  0  0  0  0  0  0
  150.7049  134.8833  155.8036 C   0  0  0  0  0  0  0  0  0  0  0  0
  150.4877  136.2853  155.3446 C   0  0  0  0  0  0  0  0  0  0  0  0
  145.3513  133.6444  152.8649 C   0  0  0  0  0  0  0  0  0  0  0  0
  144.1818  132.6189  149.1770 H   0  0  0  0  0  0  0  0  0  0  0  0
  145.2745  133.5868  150.1613 H   0  0  0  0  0  0  0  0  0  0  0  0
  143.6138  134.1184  149.8958 H   0  0  0  0  0  0  0  0  0  0  0  0
  142.7643  132.1383  151.2078 H   0  0  0  0  0  0  0  0  0  0  0  0
  144.4058  131.5564  151.3910 H   0  0  0  0  0  0  0  0  0  0  0  0
  142.7436  134.7599  151.6478 H   0  0  0  0  0  0  0  0  0  0  0  0
  142.2767  134.2775  153.2756 H   0  0  0  0  0  0  0  0  0  0  0  0
  144.3428  136.2434  152.3912 H   0  0  0  0  0  0  0  0  0  0  0  0
  143.5004  136.2000  153.9365 H   0  0  0  0  0  0  0  0  0  0  0  0
  144.9440  134.4892  154.7827 H   0  0  0  0  0  0  0  0  0  0  0  0
  146.4341  136.5924  153.2739 H   0  0  0  0  0  0  0  0  0  0  0  0
  146.5786  136.0963  154.9414 H   0  0  0  0  0  0  0  0  0  0  0  0
  148.3219  135.3051  152.9451 H   0  0  0  0  0  0  0  0  0  0  0  0
  149.5046  132.3039  153.8414 H   0  0  0  0  0  0  0  0  0  0  0  0
  149.9124  133.8720  153.1917 H   0  0  0  0  0  0  0  0  0  0  0  0
  150.9812  130.8554  155.2016 H   0  0  0  0  0  0  0  0  0  0  0  0
  149.8434  130.8938  156.5449 H   0  0  0  0  0  0  0  0  0  0  0  0
  151.5741  130.7946  156.8559 H   0  0  0  0  0  0  0  0  0  0  0  0
  149.5487  136.3757  154.7982 H   0  0  0  0  0  0  0  0  0  0  0  0
  151.2943  136.6016  154.6832 H   0  0  0  0  0  0  0  0  0  0  0  0
  150.4525  136.9726  156.1901 H   0  0  0  0  0  0  0  0  0  0  0  0
  145.9029  132.8237  153.3239 H   0  0  0  0  0  0  0  0  0  0  0  0
  145.8676  133.9303  151.9466 H   0  0  0  0  0  0  0  0  0  0  0  0
  143.6590  132.6635  153.3226 H   0  0  0  0  0  0  0  0  0  0  0  0
  1  2  1  0  0  0  0
  1 20  1  0  0  0  0
  1 21  1  0  0  0  0
  1 22  1  0  0  0  0
  2  3  1  0  0  0  0
  2 23  1  0  0  0  0
  2 24  1  0  0  0  0
  3 19  1  0  0  0  0
  3  4  1  0  0  0  0
  3 43  1  0  0  0  0
  4  5  1  0  0  0  0
  4 25  1  0  0  0  0
  4 26  1  0  0  0  0
  5  6  1  0  0  0  0
  5 27  1  0  0  0  0
  5 28  1  0  0  0  0
  6  7  1  0  0  0  0
  6 19  1  0  0  0  0
  6 29  1  0  0  0  0
  7  8  1  0  0  0  0
  7 30  1  0  0  0  0
  7 31  1  0  0  0  0
  8  9  1  0  0  0  0
  8 32  1  0  0  0  0
  9 10  2  0  0  0  0
  9 11  1  0  0  0  0
 11 12  1  0  0  0  0
 11 33  1  0  0  0  0
 11 34  1  0  0  0  0
 12 17  2  0  0  0  0
 12 13  1  0  0  0  0
 13 14  1  0  0  0  0
 13 15  2  0  0  0  0
 14 35  1  0  0  0  0
 14 36  1  0  0  0  0
 14 37  1  0  0  0  0
 15 16  1  0  0  0  0
 16 17  1  0  0  0  0
 17 18  1  0  0  0  0
 18 38  1  0  0  0  0
 18 39  1  0  0  0  0
 18 40  1  0  0  0  0
 19 41  1  0  0  0  0
 19 42  1  0  0  0  0
M  CHG  1   3   1
M  END
> <s_m_source_file>
AV-unprocessed.smi

> <i_m_source_file_index>
1184

> <i_lp_mmshare_version>
43012

> <i_f3d_flags>
0

> <s_epik_input>
W0NIM11bQ0gyXU4xW0NIMl1bQ0gyXVtDQEhdKFtDSDJdMSlbQ0gyXVtOSF1DKD1PKVtDSDJdYzJjKFtDSDNdKW5vYzJbQ0gzXQ==

> <s_epik_cmdline>
J2VwaWtfcHl0aG9uJywgJy1waCcsICc3LjAnLCAnLXRuJywgJzgnLCAnLW1hJywgJzIwMCcsICctbWV0YWxfYmluZGluZycsICctaW1hZScsICc8aW5maWxlLm1hZT4nLCAnLW9tYWUnLCAnPG91dGZpbGUubWFlPic=

> <r_epik_Ionization_Penalty>
0.000590726

> <r_epik_Ionization_Penalty_Charging>
0.000590692

> <r_epik_Ionization_Penalty_Neutral>
3.44741e-08

> <r_epik_State_Penalty>
0.000371644

> <r_epik_Charging_Adjusted_Penalty>
0.000962336

> <i_epik_Tot_Q>
1

> <i_epik_Tot_abs_Q>
1

> <r_epik_Metal_State_Penalty>
-0

> <b_epik_Metal_Only>
0

> <s_lp_Force_Field>
OPLS_2005

> <r_lp_Energy>
20.136

> <b_lp_Chiralities_Consistent>
1

> <s_lp_Variant>
AV-unprocessed.smi:1184-4

> <Gold.Version>
5.8.1

> <Gold.Id.Protein>
6NUR|6NUR_protein|mol2

> <Gold.PLP.Fitness>
38.4570

> <Gold.PLP.PLP>
-28.7915

> <Gold.PLP.part.hbond>
-3.9230

> <Gold.PLP.part.metal>
0.0000

> <Gold.PLP.part.buried>
-5.0275

> <Gold.PLP.part.nonpolar>
-20.2510

> <Gold.PLP.part.repulsive>
0.0163

> <Gold.PLP.ligand.clash>
0.0000

> <Gold.PLP.ligand.torsion>
0.6550

> <Gold.PLP.Chemscore.Hbond>
3.6449

> <Gold.PLP.Chemscore.CHOScore>
0.0000

> <Gold.PLP.Chemscore.Metal>
0.0000

> <Gold.Chemscore.Hbonds>
donor molecule, donor type, donor heavy atom, donor atom, acceptor molecule, acceptor atom, score
      L1  H     3    43       P1 10957  2.00
      L1  H     8    32       P1  7948  1.00
      P1  H  6896  6908       L1    15  0.66

> <Gold.PLP.Chemscore.Internal.Correction>
0.0410

> <Gold.Rescore>
     Score         DG    S(hbond)    S(metal)    S(lipo)     H(rot)  DE(clash)    DE(int)     intcor
     15.13     -15.72       2.27        0.00      59.20       1.67       0.03       0.57       ----

> <Gold.Chemscore.Fitness>
15.1333

> <Gold.Chemscore.DG>
-15.7235

> <Gold.Chemscore.ZeroCoef>
-5.4800

> <Gold.Chemscore.Hbond>
2.2719

> <Gold.Chemscore.Metal>
0.0000

> <Gold.Chemscore.Lipo>
59.2017

> <Gold.Chemscore.Internal_Hbond>
0.0000

> <Gold.Chemscore.DEClash>
0.0251

> <Gold.Chemscore.DEInternal>
0.5652

> <Gold.Chemscore.Rot>
1.6684

> <Gold.Chemscore.Internal.Correction>
   9.000000E+99

> <Gold.Chemscore.Hbonds>
donor molecule, donor type, donor heavy atom, donor atom, acceptor molecule, acceptor atom, score
      L1  H     3    43       P1 10957  0.39
      L1  H     8    32       P1  7948  0.90
      P1  H  6896  6908       L1    15  0.16

> <Gold.Chemscore.Hbond.Weighted>
-7.5881

> <Gold.Chemscore.Metal.Weighted>
-0.0000

> <Gold.Chemscore.Lipo.Weighted>
-6.9266

> <Gold.Chemscore.Internal_Hbond.Weighted>
0.0000

> <Gold.Chemscore.DEClash.Weighted>
0.0251

> <Gold.Chemscore.DEInternal.Weighted>
0.5652

> <Gold.Chemscore.Rot.Weighted>
4.2712

> <Gold.Chemscore.Internal.Correction.Weighted>
   9.000000E+99

> <Gold.Protein.RotatedTorsions>
[ 6907 6896 6895 6894 ] final   74.02 input  -60.11 | X-H torsion
[ 7974 7965 7964 7962 ] final  -41.40 input  175.53 | X-H torsion
[ 8008 7997 7996 7995 ] final -132.26 input   59.86 | X-H torsion
[ 10167 10162 10161 10158 ] final  108.57 input  -65.29 | X-H torsion
[ 10718 10713 10712 10709 ] final  171.64 input   66.30 | X-H torsion
[ 10763 10752 10751 10750 ] final   49.71 input  -60.55 | X-H torsion
[ 11005 11000 10999 10996 ] final  100.80 input  -57.11 | X-H torsion

> <Gold.Protein.ActiveResidues>
 VAL166  LYS551  ARG553  GLY616  TRP617  ASP618  TYR619  PRO620  LYS621  CYS622 
 ASP623  PHE694  ASN695  SER759  ASP760  ASP761  ALA762  ILE779  LEU786  VAL792 
 PHE793  MET794  SER795  GLU796  ALA797  LYS798  CYS799  TRP800  GLU811  SER814 

> <Gold.Protein.RotatedAtoms>
  152.4954  134.4335  159.9519 H   0  0  0  0  0  0  0  0  0  0  0  0  # atno 6907 bound_to 6896
  151.4314  133.3663  159.2777 H   0  0  0  0  0  0  0  0  0  0  0  0  # atno 6908 bound_to 6896
  150.9152  134.8592  159.7512 H   0  0  0  0  0  0  0  0  0  0  0  0  # atno 6909 bound_to 6896
  146.0214  140.6845  142.9176 H   0  0  0  0  0  0  0  0  0  0  0  0  # atno 7974 bound_to 7965
  155.3259  140.0464  157.3041 H   0  0  0  0  0  0  0  0  0  0  0  0  # atno 8008 bound_to 7997
  154.5354  140.2271  155.8697 H   0  0  0  0  0  0  0  0  0  0  0  0  # atno 8009 bound_to 7997
  156.1830  140.3069  155.9191 H   0  0  0  0  0  0  0  0  0  0  0  0  # atno 8010 bound_to 7997
  139.6835  144.7116  151.1473 H   0  0  0  0  0  0  0  0  0  0  0  0  # atno 10167 bound_to 10162
  156.9907  131.0146  151.2857 H   0  0  0  0  0  0  0  0  0  0  0  0  # atno 10718 bound_to 10713
  152.9786  135.5902  154.4134 H   0  0  0  0  0  0  0  0  0  0  0  0  # atno 10763 bound_to 10752
  154.3767  135.2767  155.2237 H   0  0  0  0  0  0  0  0  0  0  0  0  # atno 10764 bound_to 10752
  154.4169  135.6068  153.6041 H   0  0  0  0  0  0  0  0  0  0  0  0  # atno 10765 bound_to 10752
  139.8771  134.9156  156.4810 H   0  0  0  0  0  0  0  0  0  0  0  0  # atno 11005 bound_to 11000
  144.6991  140.3573  143.7170 LP  0  0  0  0  0  0  0  0  0  0  0  0  # atno 17320 bound_to 7965
  145.7187  139.1704  143.2497 LP  0  0  0  0  0  0  0  0  0  0  0  0  # atno 17321 bound_to 7965
  140.7660  143.5663  150.9044 LP  0  0  0  0  0  0  0  0  0  0  0  0  # atno 17342 bound_to 10162
  139.9337  143.6463  152.3070 LP  0  0  0  0  0  0  0  0  0  0  0  0  # atno 17343 bound_to 10162
  157.5461  130.8151  149.8087 LP  0  0  0  0  0  0  0  0  0  0  0  0  # atno 17370 bound_to 10713
  156.0208  130.3796  150.1967 LP  0  0  0  0  0  0  0  0  0  0  0  0  # atno 17371 bound_to 10713
  140.8727  133.7976  155.9381 LP  0  0  0  0  0  0  0  0  0  0  0  0  # atno 17394 bound_to 11000
  140.8936  134.2465  157.5081 LP  0  0  0  0  0  0  0  0  0  0  0  0  # atno 17395 bound_to 11000

$$$$
