AV-unprocessed.smi:2005|AV-procd|sdf|8128|dock10
  -GOLD-   2272010363D 1   1.00000     0.00000
 Structure written by MMmdl.
 38 39  0  0  0  0  0  0  0  0  2 V2000
  154.1421  134.6961  164.5535 C   0  0  0  0  0  0  0  0  0  0  0  0
  154.7484  135.9736  163.9544 C   0  0  0  0  0  0  0  0  0  0  0  0
  154.4598  137.2284  164.7914 C   0  0  0  0  0  0  0  0  0  0  0  0
  154.3730  136.1550  162.5167 C   0  0  0  0  0  0  0  0  0  0  0  0
  154.5863  135.2230  161.5823 N   0  0  0  0  0  0  0  0  0  0  0  0
  154.1534  135.6282  160.3286 N   0  0  0  0  0  0  0  0  0  0  0  0
  153.6301  136.8622  160.3265 C   0  0  0  0  0  0  0  0  0  0  0  0
  153.1525  137.4407  159.2122 N   0  5  0  0  0  0  0  0  0  0  0  0
  153.5257  138.7008  158.8919 C   0  0  0  0  0  0  0  0  0  0  0  0
  154.5859  139.0345  158.3574 O   0  0  0  0  0  0  0  0  0  0  0  0
  152.6139  139.6314  159.2108 N   0  0  0  0  0  0  0  0  0  0  0  0
  152.7362  141.0698  158.9883 C   0  0  2  0  0  0  0  0  0  0  0  0
  152.8139  141.7971  160.3428 C   0  0  0  0  0  0  0  0  0  0  0  0
  152.9004  143.3228  160.1607 C   0  0  0  0  0  0  0  0  0  0  0  0
  151.7481  143.8748  159.3002 C   0  0  2  0  0  0  0  0  0  0  0  0
  150.5301  143.7998  160.0148 O   0  0  0  0  0  0  0  0  0  0  0  0
  151.6257  143.1195  157.9632 C   0  0  0  0  0  0  0  0  0  0  0  0
  151.5483  141.5950  158.1574 C   0  0  0  0  0  0  0  0  0  0  0  0
  153.6125  137.6207  161.9180 S   0  0  0  0  0  0  0  0  0  0  0  0
  154.4393  133.8165  163.9815 H   0  0  0  0  0  0  0  0  0  0  0  0
  153.0523  134.7380  164.5579 H   0  0  0  0  0  0  0  0  0  0  0  0
  154.4733  134.5488  165.5818 H   0  0  0  0  0  0  0  0  0  0  0  0
  155.8304  135.8365  163.9734 H   0  0  0  0  0  0  0  0  0  0  0  0
  154.9725  138.0995  164.3819 H   0  0  0  0  0  0  0  0  0  0  0  0
  154.7969  137.1000  165.8202 H   0  0  0  0  0  0  0  0  0  0  0  0
  153.3924  137.4509  164.8169 H   0  0  0  0  0  0  0  0  0  0  0  0
  151.7606  139.3104  159.6445 H   0  0  0  0  0  0  0  0  0  0  0  0
  153.6629  141.2680  158.4461 H   0  0  0  0  0  0  0  0  0  0  0  0
  151.9383  141.5514  160.9459 H   0  0  0  0  0  0  0  0  0  0  0  0
  153.6809  141.4472  160.9045 H   0  0  0  0  0  0  0  0  0  0  0  0
  152.9171  143.8164  161.1331 H   0  0  0  0  0  0  0  0  0  0  0  0
  153.8491  143.5662  159.6808 H   0  0  0  0  0  0  0  0  0  0  0  0
  151.9308  144.9305  159.0967 H   0  0  0  0  0  0  0  0  0  0  0  0
  150.4825  144.5362  160.6052 H   0  0  0  0  0  0  0  0  0  0  0  0
  150.7565  143.4713  157.4065 H   0  0  0  0  0  0  0  0  0  0  0  0
  152.4946  143.3499  157.3454 H   0  0  0  0  0  0  0  0  0  0  0  0
  151.5256  141.1065  157.1828 H   0  0  0  0  0  0  0  0  0  0  0  0
  150.6101  141.3366  158.6509 H   0  0  0  0  0  0  0  0  0  0  0  0
  1  2  1  0  0  0  0
  1 20  1  0  0  0  0
  1 21  1  0  0  0  0
  1 22  1  0  0  0  0
  2  3  1  0  0  0  0
  2  4  1  0  0  0  0
  2 23  1  0  0  0  0
  3 24  1  0  0  0  0
  3 25  1  0  0  0  0
  3 26  1  0  0  0  0
  4 19  1  0  0  0  0
  4  5  2  0  0  0  0
  5  6  1  0  0  0  0
  6  7  2  0  0  0  0
  7  8  1  0  0  0  0
  7 19  1  0  0  0  0
  8  9  1  0  0  0  0
  9 10  2  0  0  0  0
  9 11  1  0  0  0  0
 11 12  1  0  0  0  0
 11 27  1  0  0  0  0
 12 18  1  0  0  0  0
 12 13  1  0  0  0  0
 12 28  1  0  0  0  0
 13 14  1  0  0  0  0
 13 29  1  0  0  0  0
 13 30  1  0  0  0  0
 14 15  1  0  0  0  0
 14 31  1  0  0  0  0
 14 32  1  0  0  0  0
 15 16  1  0  0  0  0
 15 17  1  0  0  0  0
 15 33  1  0  0  0  0
 16 34  1  0  0  0  0
 17 18  1  0  0  0  0
 17 35  1  0  0  0  0
 17 36  1  0  0  0  0
 18 37  1  0  0  0  0
 18 38  1  0  0  0  0
M  CHG  1   8  -1
M  END
> <s_m_source_file>
AV-unprocessed.smi

> <i_m_source_file_index>
2005

> <i_lp_mmshare_version>
43012

> <i_f3d_flags>
0

> <s_epik_input>
W0NIM11bQ0hdKFtDSDNdKWMxbm5jKHMxKVtOSF1DKD1PKVtOSF1bQ0BASF0yW0NIMl1bQ0gyXVtDQEBIXShbT0hdKVtDSDJdW0NIMl0y

> <s_epik_cmdline>
J2VwaWtfcHl0aG9uJywgJy1waCcsICc3LjAnLCAnLXRuJywgJzgnLCAnLW1hJywgJzIwMCcsICctbWV0YWxfYmluZGluZycsICctaW1hZScsICc8aW5maWxlLm1hZT4nLCAnLW9tYWUnLCAnPG91dGZpbGUubWFlPic=

> <r_lp_tautomer_probability>
1

> <r_epik_Ionization_Penalty>
4.58298

> <r_epik_Ionization_Penalty_Charging>
4.41114

> <r_epik_Ionization_Penalty_Neutral>
0.171842

> <r_epik_State_Penalty>
4.41079

> <r_epik_Charging_Adjusted_Penalty>
8.82193

> <i_epik_Tot_Q>
-1

> <i_epik_Tot_abs_Q>
1

> <r_epik_Metal_State_Penalty>
0.7766

> <b_epik_Metal_Only>
1

> <s_lp_Force_Field>
OPLS_2005

> <r_lp_Energy>
2.0831

> <b_lp_Chiralities_Consistent>
1

> <s_lp_Variant>
AV-unprocessed.smi:2005-4

> <Gold.Version>
5.8.1

> <Gold.Id.Protein>
6NUR|6NUR_protein|mol2

> <Gold.PLP.Fitness>
40.4890

> <Gold.PLP.PLP>
-36.8805

> <Gold.PLP.part.hbond>
-2.4353

> <Gold.PLP.part.metal>
0.0000

> <Gold.PLP.part.buried>
-4.8252

> <Gold.PLP.part.nonpolar>
-30.6688

> <Gold.PLP.part.repulsive>
0.1109

> <Gold.PLP.ligand.clash>
0.0000

> <Gold.PLP.ligand.torsion>
1.2254

> <Gold.PLP.Chemscore.Hbond>
1.9920

> <Gold.PLP.Chemscore.CHOScore>
0.0000

> <Gold.PLP.Chemscore.Metal>
0.0000

> <Gold.Chemscore.Hbonds>
donor molecule, donor type, donor heavy atom, donor atom, acceptor molecule, acceptor atom, score
      P1  H  6896  6907       L1     6  1.00
      P1  H  7997  8008       L1    10  1.00

> <Gold.PLP.Chemscore.Internal.Correction>
0.0834

> <Gold.Rescore>
     Score         DG    S(hbond)    S(metal)    S(lipo)     H(rot)  DE(clash)    DE(int)     intcor
     17.66     -19.13       1.73        0.00     104.47       1.70       0.29       1.18       ----

> <Gold.Chemscore.Fitness>
17.6586

> <Gold.Chemscore.DG>
-19.1304

> <Gold.Chemscore.ZeroCoef>
-5.4800

> <Gold.Chemscore.Hbond>
1.7279

> <Gold.Chemscore.Metal>
0.0000

> <Gold.Chemscore.Lipo>
104.4709

> <Gold.Chemscore.Internal_Hbond>
0.0000

> <Gold.Chemscore.DEClash>
0.2880

> <Gold.Chemscore.DEInternal>
1.1838

> <Gold.Chemscore.Rot>
1.6968

> <Gold.Chemscore.Internal.Correction>
   9.000000E+99

> <Gold.Chemscore.Hbonds>
donor molecule, donor type, donor heavy atom, donor atom, acceptor molecule, acceptor atom, score
      P1  H  6896  6907       L1     6  0.15
      P1  H  7997  8008       L1    10  0.92

> <Gold.Chemscore.Hbond.Weighted>
-5.7712

> <Gold.Chemscore.Metal.Weighted>
-0.0000

> <Gold.Chemscore.Lipo.Weighted>
-12.2231

> <Gold.Chemscore.Internal_Hbond.Weighted>
0.0000

> <Gold.Chemscore.DEClash.Weighted>
0.2880

> <Gold.Chemscore.DEInternal.Weighted>
1.1838

> <Gold.Chemscore.Rot.Weighted>
4.3439

> <Gold.Chemscore.Internal.Correction.Weighted>
   9.000000E+99

> <Gold.Protein.RotatedTorsions>
[ 6907 6896 6895 6894 ] final   72.78 input  -60.11 | X-H torsion
[ 7974 7965 7964 7962 ] final   73.96 input  175.53 | X-H torsion
[ 8008 7997 7996 7995 ] final -130.55 input   59.86 | X-H torsion
[ 10167 10162 10161 10158 ] final  -28.31 input  -65.29 | X-H torsion
[ 10718 10713 10712 10709 ] final   64.94 input   66.30 | X-H torsion
[ 10763 10752 10751 10750 ] final -114.78 input  -60.55 | X-H torsion
[ 11005 11000 10999 10996 ] final   98.37 input  -57.11 | X-H torsion

> <Gold.Protein.ActiveResidues>
 VAL166  LYS551  ARG553  GLY616  TRP617  ASP618  TYR619  PRO620  LYS621  CYS622 
 ASP623  PHE694  ASN695  SER759  ASP760  ASP761  ALA762  ILE779  LEU786  VAL792 
 PHE793  MET794  SER795  GLU796  ALA797  LYS798  CYS799  TRP800  GLU811  SER814 

> <Gold.Protein.RotatedAtoms>
  152.4887  134.4519  159.9577 H   0  0  0  0  0  0  0  0  0  0  0  0  # atno 6907 bound_to 6896
  151.4511  133.3611  159.2803 H   0  0  0  0  0  0  0  0  0  0  0  0  # atno 6908 bound_to 6896
  150.9021  134.8458  159.7427 H   0  0  0  0  0  0  0  0  0  0  0  0  # atno 6909 bound_to 6896
  145.7343  139.2696  143.1523 H   0  0  0  0  0  0  0  0  0  0  0  0  # atno 7974 bound_to 7965
  155.2977  140.0451  157.3027 H   0  0  0  0  0  0  0  0  0  0  0  0  # atno 8008 bound_to 7997
  154.5505  140.2316  155.8461 H   0  0  0  0  0  0  0  0  0  0  0  0  # atno 8009 bound_to 7997
  156.1962  140.3038  155.9439 H   0  0  0  0  0  0  0  0  0  0  0  0  # atno 8010 bound_to 7997
  140.7271  143.4021  151.1247 H   0  0  0  0  0  0  0  0  0  0  0  0  # atno 10167 bound_to 10162
  157.6073  130.9187  149.9911 H   0  0  0  0  0  0  0  0  0  0  0  0  # atno 10718 bound_to 10713
  154.8454  135.4405  154.1559 H   0  0  0  0  0  0  0  0  0  0  0  0  # atno 10763 bound_to 10752
  153.2708  135.6945  153.7488 H   0  0  0  0  0  0  0  0  0  0  0  0  # atno 10764 bound_to 10752
  153.6730  135.3416  155.3133 H   0  0  0  0  0  0  0  0  0  0  0  0  # atno 10765 bound_to 10752
  139.8772  134.9046  156.4447 H   0  0  0  0  0  0  0  0  0  0  0  0  # atno 11005 bound_to 11000
  146.0508  140.8071  142.9782 LP  0  0  0  0  0  0  0  0  0  0  0  0  # atno 17320 bound_to 7965
  144.6885  140.3050  143.7257 LP  0  0  0  0  0  0  0  0  0  0  0  0  # atno 17321 bound_to 7965
  139.7642  143.8590  152.3107 LP  0  0  0  0  0  0  0  0  0  0  0  0  # atno 17342 bound_to 10162
  139.8486  144.7175  150.9242 LP  0  0  0  0  0  0  0  0  0  0  0  0  # atno 17343 bound_to 10162
  156.1163  130.3647  149.9963 LP  0  0  0  0  0  0  0  0  0  0  0  0  # atno 17370 bound_to 10713
  156.8051  130.9305  151.3645 LP  0  0  0  0  0  0  0  0  0  0  0  0  # atno 17371 bound_to 10713
  140.8975  133.7804  155.9641 LP  0  0  0  0  0  0  0  0  0  0  0  0  # atno 17394 bound_to 11000
  140.8687  134.2752  157.5201 LP  0  0  0  0  0  0  0  0  0  0  0  0  # atno 17395 bound_to 11000

$$$$
