AV-unprocessed.smi:2822|AV-procd|sdf|10876|dock10
  -GOLD-   2272015313D 1   1.00000     0.00000
 Structure written by MMmdl.
 40 42  0  0  0  0  0  0  0  0  2 V2000
  146.2839  131.4597  148.9787 Cl  0  0  0  0  0  0  0  0  0  0  0  0
  145.2580  132.2961  150.0912 C   0  0  0  0  0  0  0  0  0  0  0  0
  143.9379  132.6104  149.7075 C   0  0  0  0  0  0  0  0  0  0  0  0
  143.1227  133.2636  150.5624 N   0  3  0  0  0  0  0  0  0  0  0  0
  143.5140  133.6412  151.7977 C   0  0  0  0  0  0  0  0  0  0  0  0
  144.8219  133.3550  152.2390 C   0  0  0  0  0  0  0  0  0  0  0  0
  145.7171  132.6719  151.3780 C   0  0  0  0  0  0  0  0  0  0  0  0
  147.0303  132.3568  151.7592 N   0  0  0  0  0  0  0  0  0  0  0  0
  147.6936  133.0718  152.8391 C   0  0  0  0  0  0  0  0  0  0  0  0
  148.2840  132.1046  153.8737 C   0  0  2  0  0  0  0  0  0  0  0  0
  149.6311  132.6090  154.4232 C   0  0  0  0  0  0  0  0  0  0  0  0
  150.2272  131.6590  155.3535 N   0  0  0  0  0  0  0  0  0  0  0  0
  151.5059  132.1475  155.8666 C   0  0  0  0  0  0  0  0  0  0  0  0
  152.1395  131.1794  156.8782 C   0  0  0  0  0  0  0  0  0  0  0  0
  152.3131  129.7891  156.2500 C   0  0  0  0  0  0  0  0  0  0  0  0
  150.9787  129.3039  155.6625 C   0  0  0  0  0  0  0  0  0  0  0  0
  150.3830  130.3545  154.7026 C   0  0  1  0  0  0  0  0  0  0  0  0
  149.0390  129.8649  154.1250 C   0  0  0  0  0  0  0  0  0  0  0  0
  148.5028  130.8455  153.2425 O   0  0  0  0  0  0  0  0  0  0  0  0
  143.5124  132.3595  148.7467 H   0  0  0  0  0  0  0  0  0  0  0  0
  142.7747  134.1566  152.3933 H   0  0  0  0  0  0  0  0  0  0  0  0
  145.1159  133.6624  153.2315 H   0  0  0  0  0  0  0  0  0  0  0  0
  147.5944  131.7753  151.1548 H   0  0  0  0  0  0  0  0  0  0  0  0
  148.4771  133.7139  152.4345 H   0  0  0  0  0  0  0  0  0  0  0  0
  146.9615  133.7173  153.3258 H   0  0  0  0  0  0  0  0  0  0  0  0
  147.5805  131.9820  154.6996 H   0  0  0  0  0  0  0  0  0  0  0  0
  150.3161  132.7919  153.5935 H   0  0  0  0  0  0  0  0  0  0  0  0
  149.4839  133.5675  154.9225 H   0  0  0  0  0  0  0  0  0  0  0  0
  152.1985  132.3120  155.0397 H   0  0  0  0  0  0  0  0  0  0  0  0
  151.3613  133.1168  156.3453 H   0  0  0  0  0  0  0  0  0  0  0  0
  153.1033  131.5634  157.2133 H   0  0  0  0  0  0  0  0  0  0  0  0
  151.5061  131.1082  157.7635 H   0  0  0  0  0  0  0  0  0  0  0  0
  153.0643  129.8360  155.4607 H   0  0  0  0  0  0  0  0  0  0  0  0
  152.6816  129.0804  156.9921 H   0  0  0  0  0  0  0  0  0  0  0  0
  151.1289  128.3581  155.1410 H   0  0  0  0  0  0  0  0  0  0  0  0
  150.2759  129.1040  156.4726 H   0  0  0  0  0  0  0  0  0  0  0  0
  151.0752  130.4676  153.8659 H   0  0  0  0  0  0  0  0  0  0  0  0
  149.1771  128.9350  153.5728 H   0  0  0  0  0  0  0  0  0  0  0  0
  148.3232  129.6596  154.9227 H   0  0  0  0  0  0  0  0  0  0  0  0
  142.1717  133.4801  150.2623 H   0  0  0  0  0  0  0  0  0  0  0  0
  1  2  1  0  0  0  0
  2  7  1  0  0  0  0
  2  3  2  0  0  0  0
  3  4  1  0  0  0  0
  3 20  1  0  0  0  0
  4  5  2  0  0  0  0
  4 40  1  0  0  0  0
  5  6  1  0  0  0  0
  5 21  1  0  0  0  0
  6  7  2  0  0  0  0
  6 22  1  0  0  0  0
  7  8  1  0  0  0  0
  8  9  1  0  0  0  0
  8 23  1  0  0  0  0
  9 10  1  0  0  0  0
  9 24  1  0  0  0  0
  9 25  1  0  0  0  0
 10 19  1  0  0  0  0
 10 11  1  0  0  0  0
 10 26  1  0  0  0  0
 11 12  1  0  0  0  0
 11 27  1  0  0  0  0
 11 28  1  0  0  0  0
 12 17  1  0  0  0  0
 12 13  1  0  0  0  0
 13 14  1  0  0  0  0
 13 29  1  0  0  0  0
 13 30  1  0  0  0  0
 14 15  1  0  0  0  0
 14 31  1  0  0  0  0
 14 32  1  0  0  0  0
 15 16  1  0  0  0  0
 15 33  1  0  0  0  0
 15 34  1  0  0  0  0
 16 17  1  0  0  0  0
 16 35  1  0  0  0  0
 16 36  1  0  0  0  0
 17 18  1  0  0  0  0
 17 37  1  0  0  0  0
 18 19  1  0  0  0  0
 18 38  1  0  0  0  0
 18 39  1  0  0  0  0
M  CHG  1   4   1
M  END
> <s_m_source_file>
AV-unprocessed.smi

> <i_m_source_file_index>
2822

> <i_lp_mmshare_version>
43012

> <i_f3d_flags>
0

> <s_epik_input>
Q2xjMVtjSF1uW2NIXVtjSF1jMVtOSF1bQ0gyXVtDQEhdKFtDSDJdMilPW0NIMl1bQ0BASF0oTjIzKVtDSDJdW0NIMl1bQ0gyXVtDSDJdMw==

> <s_epik_cmdline>
J2VwaWtfcHl0aG9uJywgJy1waCcsICc3LjAnLCAnLXRuJywgJzgnLCAnLW1hJywgJzIwMCcsICctbWV0YWxfYmluZGluZycsICctaW1hZScsICc8aW5maWxlLm1hZT4nLCAnLW9tYWUnLCAnPG91dGZpbGUubWFlPic=

> <r_epik_Ionization_Penalty>
1.37653

> <r_epik_Ionization_Penalty_Charging>
0.152973

> <r_epik_Ionization_Penalty_Neutral>
1.22356

> <r_epik_State_Penalty>
1.42693

> <r_epik_Charging_Adjusted_Penalty>
1.5799

> <i_epik_Tot_Q>
1

> <i_epik_Tot_abs_Q>
1

> <r_epik_Metal_State_Penalty>
4.59822

> <b_epik_Metal_Only>
0

> <s_lp_Force_Field>
OPLS_2005

> <r_lp_Energy>
43.1836

> <b_lp_Chiralities_Consistent>
1

> <s_lp_Variant>
AV-unprocessed.smi:2822-17

> <Gold.Version>
5.8.1

> <Gold.Id.Protein>
6NUR|6NUR_protein|mol2

> <Gold.PLP.Fitness>
43.8544

> <Gold.PLP.PLP>
-36.1176

> <Gold.PLP.part.hbond>
-2.0000

> <Gold.PLP.part.metal>
0.0000

> <Gold.PLP.part.buried>
-4.6703

> <Gold.PLP.part.nonpolar>
-30.9728

> <Gold.PLP.part.repulsive>
1.4288

> <Gold.PLP.ligand.clash>
0.0000

> <Gold.PLP.ligand.torsion>
0.6318

> <Gold.PLP.Chemscore.Hbond>
3.0000

> <Gold.PLP.Chemscore.CHOScore>
0.0000

> <Gold.PLP.Chemscore.Metal>
0.0000

> <Gold.Chemscore.Hbonds>
donor molecule, donor type, donor heavy atom, donor atom, acceptor molecule, acceptor atom, score
      L1  H     4    40       P1 10186  2.00
      L1  H     8    23       P1 10747  1.00

> <Gold.PLP.Chemscore.Internal.Correction>
0.0004

> <Gold.Rescore>
     Score         DG    S(hbond)    S(metal)    S(lipo)     H(rot)  DE(clash)    DE(int)     intcor
     18.86     -20.93       1.99        0.00     101.14       1.18       1.50       0.57       ----

> <Gold.Chemscore.Fitness>
18.8627

> <Gold.Chemscore.DG>
-20.9299

> <Gold.Chemscore.ZeroCoef>
-5.4800

> <Gold.Chemscore.Hbond>
1.9862

> <Gold.Chemscore.Metal>
0.0000

> <Gold.Chemscore.Lipo>
101.1421

> <Gold.Chemscore.Internal_Hbond>
0.0000

> <Gold.Chemscore.DEClash>
1.4985

> <Gold.Chemscore.DEInternal>
0.5688

> <Gold.Chemscore.Rot>
1.1788

> <Gold.Chemscore.Internal.Correction>
   9.000000E+99

> <Gold.Chemscore.Hbonds>
donor molecule, donor type, donor heavy atom, donor atom, acceptor molecule, acceptor atom, score
      L1  H     4    40       P1 10186  0.98
      L1  H     8    23       P1 10747  1.00

> <Gold.Chemscore.Hbond.Weighted>
-6.6340

> <Gold.Chemscore.Metal.Weighted>
-0.0000

> <Gold.Chemscore.Lipo.Weighted>
-11.8336

> <Gold.Chemscore.Internal_Hbond.Weighted>
0.0000

> <Gold.Chemscore.DEClash.Weighted>
1.4985

> <Gold.Chemscore.DEInternal.Weighted>
0.5688

> <Gold.Chemscore.Rot.Weighted>
3.0177

> <Gold.Chemscore.Internal.Correction.Weighted>
   9.000000E+99

> <Gold.Protein.RotatedTorsions>
[ 6907 6896 6895 6894 ] final   72.36 input  -60.11 | X-H torsion
[ 7974 7965 7964 7962 ] final  166.13 input  175.53 | X-H torsion
[ 8008 7997 7996 7995 ] final  -27.80 input   59.86 | X-H torsion
[ 10167 10162 10161 10158 ] final   33.65 input  -65.29 | X-H torsion
[ 10718 10713 10712 10709 ] final   -0.06 input   66.30 | X-H torsion
[ 10763 10752 10751 10750 ] final -154.77 input  -60.55 | X-H torsion
[ 11005 11000 10999 10996 ] final -139.49 input  -57.11 | X-H torsion

> <Gold.Protein.ActiveResidues>
 VAL166  LYS551  ARG553  GLY616  TRP617  ASP618  TYR619  PRO620  LYS621  CYS622 
 ASP623  PHE694  ASN695  SER759  ASP760  ASP761  ALA762  ILE779  LEU786  VAL792 
 PHE793  MET794  SER795  GLU796  ALA797  LYS798  CYS799  TRP800  GLU811  SER814 

> <Gold.Protein.RotatedAtoms>
  152.4863  134.4583  159.9596 H   0  0  0  0  0  0  0  0  0  0  0  0  # atno 6907 bound_to 6896
  151.4578  133.3594  159.2812 H   0  0  0  0  0  0  0  0  0  0  0  0  # atno 6908 bound_to 6896
  150.8977  134.8411  159.7398 H   0  0  0  0  0  0  0  0  0  0  0  0  # atno 6909 bound_to 6896
  144.7475  139.8570  143.6377 H   0  0  0  0  0  0  0  0  0  0  0  0  # atno 7974 bound_to 7965
  154.4360  140.1862  156.0990 H   0  0  0  0  0  0  0  0  0  0  0  0  # atno 8008 bound_to 7997
  156.0307  140.3331  155.7111 H   0  0  0  0  0  0  0  0  0  0  0  0  # atno 8009 bound_to 7997
  155.5843  140.0625  157.2766 H   0  0  0  0  0  0  0  0  0  0  0  0  # atno 8010 bound_to 7997
  140.4388  144.1218  150.6170 H   0  0  0  0  0  0  0  0  0  0  0  0  # atno 10167 bound_to 10162
  156.8261  130.5472  149.5692 H   0  0  0  0  0  0  0  0  0  0  0  0  # atno 10718 bound_to 10713
  154.7835  135.3182  154.7938 H   0  0  0  0  0  0  0  0  0  0  0  0  # atno 10763 bound_to 10752
  153.8644  135.6850  153.4784 H   0  0  0  0  0  0  0  0  0  0  0  0  # atno 10764 bound_to 10752
  153.1478  135.4712  154.9531 H   0  0  0  0  0  0  0  0  0  0  0  0  # atno 10765 bound_to 10752
  140.8514  134.2281  157.4758 H   0  0  0  0  0  0  0  0  0  0  0  0  # atno 11005 bound_to 11000
  146.1375  139.4424  143.0129 LP  0  0  0  0  0  0  0  0  0  0  0  0  # atno 17320 bound_to 7965
  145.7069  141.0118  143.1474 LP  0  0  0  0  0  0  0  0  0  0  0  0  # atno 17321 bound_to 7965
  140.4343  143.2554  151.9555 LP  0  0  0  0  0  0  0  0  0  0  0  0  # atno 17342 bound_to 10162
  139.4788  144.5715  151.8081 LP  0  0  0  0  0  0  0  0  0  0  0  0  # atno 17343 bound_to 10162
  156.0961  130.5933  150.9816 LP  0  0  0  0  0  0  0  0  0  0  0  0  # atno 17370 bound_to 10713
  157.6431  131.0907  150.8209 LP  0  0  0  0  0  0  0  0  0  0  0  0  # atno 17371 bound_to 10713
  139.8704  134.9685  156.4634 LP  0  0  0  0  0  0  0  0  0  0  0  0  # atno 17394 bound_to 11000
  140.8785  133.7935  155.9441 LP  0  0  0  0  0  0  0  0  0  0  0  0  # atno 17395 bound_to 11000

$$$$
