AV-unprocessed.smi:2032|AV-procd|sdf|8251|dock8
  -GOLD-   2272010523D 1   1.00000     0.00000
 Structure written by MMmdl.
 42 43  0  0  0  0  0  0  0  0  3 V2000
  147.8184  131.8741  153.2747 C   0  0  0  0  0  0  0  0  0  0  0  0
  147.7938  133.3932  153.4781 C   0  0  2  0  0  0  0  0  0  0  0  0
  149.0374  133.8943  154.2314 C   0  0  0  0  0  0  0  0  0  0  0  0
  148.9581  135.3586  154.4753 N   0  3  2  0  0  0  0  0  0  0  0  0
  150.2247  135.9069  155.0594 C   0  0  2  0  0  0  0  0  0  0  0  0
  150.3769  135.6478  156.5781 C   0  0  0  0  0  0  0  0  0  0  0  0
  150.3273  137.4258  154.7626 C   0  0  0  0  0  0  0  0  0  0  0  0
  151.2719  138.1126  155.6378 N   0  0  0  0  0  0  0  0  0  0  0  0
  151.4533  139.4393  155.7003 C   0  0  0  0  0  0  0  0  0  0  0  0
  150.7743  140.1857  154.9909 O   0  0  0  0  0  0  0  0  0  0  0  0
  152.4135  139.8157  156.5738 N   0  5  0  0  0  0  0  0  0  0  0  0
  152.1714  140.7998  157.4549 C   0  0  0  0  0  0  0  0  0  0  0  0
  152.7323  140.8464  158.6686 N   0  0  0  0  0  0  0  0  0  0  0  0
  152.3452  141.9597  159.4169 C   0  0  0  0  0  0  0  0  0  0  0  0
  151.4757  142.7846  158.7539 C   0  0  0  0  0  0  0  0  0  0  0  0
  151.1151  142.1842  157.1605 S   0  0  0  0  0  0  0  0  0  0  0  0
  147.7077  135.6662  155.2221 C   0  0  0  0  0  0  0  0  0  0  0  0
  146.4636  135.1016  154.5060 C   0  0  1  0  0  0  0  0  0  0  0  0
  146.0631  135.8980  153.2510 C   0  0  0  0  0  0  0  0  0  0  0  0
  146.6291  133.7124  154.2314 O   0  0  0  0  0  0  0  0  0  0  0  0
  148.6921  131.5693  152.6980 H   0  0  0  0  0  0  0  0  0  0  0  0
  146.9318  131.5384  152.7360 H   0  0  0  0  0  0  0  0  0  0  0  0
  147.8472  131.3478  154.2293 H   0  0  0  0  0  0  0  0  0  0  0  0
  147.7435  133.8640  152.4962 H   0  0  0  0  0  0  0  0  0  0  0  0
  149.1322  133.3737  155.1860 H   0  0  0  0  0  0  0  0  0  0  0  0
  149.9236  133.6428  153.6512 H   0  0  0  0  0  0  0  0  0  0  0  0
  151.0563  135.3935  154.5739 H   0  0  0  0  0  0  0  0  0  0  0  0
  151.2997  136.0773  156.9681 H   0  0  0  0  0  0  0  0  0  0  0  0
  150.4285  134.5836  156.8082 H   0  0  0  0  0  0  0  0  0  0  0  0
  149.5518  136.0828  157.1428 H   0  0  0  0  0  0  0  0  0  0  0  0
  150.6138  137.6242  153.7304 H   0  0  0  0  0  0  0  0  0  0  0  0
  149.3509  137.8922  154.8962 H   0  0  0  0  0  0  0  0  0  0  0  0
  151.8442  137.5378  156.2391 H   0  0  0  0  0  0  0  0  0  0  0  0
  152.7395  142.0861  160.4141 H   0  0  0  0  0  0  0  0  0  0  0  0
  151.0288  143.7035  159.1021 H   0  0  0  0  0  0  0  0  0  0  0  0
  147.7800  135.2423  156.2249 H   0  0  0  0  0  0  0  0  0  0  0  0
  147.5678  136.7409  155.3351 H   0  0  0  0  0  0  0  0  0  0  0  0
  145.6249  135.1705  155.1995 H   0  0  0  0  0  0  0  0  0  0  0  0
  145.8005  136.9235  153.5121 H   0  0  0  0  0  0  0  0  0  0  0  0
  145.1948  135.4500  152.7671 H   0  0  0  0  0  0  0  0  0  0  0  0
  146.8671  135.9480  152.5173 H   0  0  0  0  0  0  0  0  0  0  0  0
  148.8549  135.8025  153.5739 H   0  0  0  0  0  0  0  0  0  0  0  0
  1  2  1  0  0  0  0
  1 21  1  0  0  0  0
  1 22  1  0  0  0  0
  1 23  1  0  0  0  0
  2 20  1  0  0  0  0
  2  3  1  0  0  0  0
  2 24  1  0  0  0  0
  3  4  1  0  0  0  0
  3 25  1  0  0  0  0
  3 26  1  0  0  0  0
  4  5  1  0  0  0  0
  4 17  1  0  0  0  0
  4 42  1  0  0  0  0
  5  6  1  0  0  0  0
  5  7  1  0  0  0  0
  5 27  1  0  0  0  0
  6 28  1  0  0  0  0
  6 29  1  0  0  0  0
  6 30  1  0  0  0  0
  7  8  1  0  0  0  0
  7 31  1  0  0  0  0
  7 32  1  0  0  0  0
  8  9  1  0  0  0  0
  8 33  1  0  0  0  0
  9 10  2  0  0  0  0
  9 11  1  0  0  0  0
 11 12  1  0  0  0  0
 12 16  1  0  0  0  0
 12 13  2  0  0  0  0
 13 14  1  0  0  0  0
 14 15  2  0  0  0  0
 14 34  1  0  0  0  0
 15 16  1  0  0  0  0
 15 35  1  0  0  0  0
 17 18  1  0  0  0  0
 17 36  1  0  0  0  0
 17 37  1  0  0  0  0
 18 19  1  0  0  0  0
 18 20  1  0  0  0  0
 18 38  1  0  0  0  0
 19 39  1  0  0  0  0
 19 40  1  0  0  0  0
 19 41  1  0  0  0  0
M  CHG  1   4   1
M  CHG  1  11  -1
M  END
> <s_m_source_file>
AV-unprocessed.smi

> <i_m_source_file_index>
2032

> <i_lp_mmshare_version>
43012

> <i_f3d_flags>
0

> <s_epik_input>
W0NIM11bQ0BASF0xW0NIMl1OKFtDSDJdW0NASF0oTzEpW0NIM10pW0NASF0oW0NIM10pW0NIMl1bTkhdQyg9TylbTkhdYzJuW2NIXVtjSF1zMg==

> <s_epik_cmdline>
J2VwaWtfcHl0aG9uJywgJy1waCcsICc3LjAnLCAnLXRuJywgJzgnLCAnLW1hJywgJzIwMCcsICctbWV0YWxfYmluZGluZycsICctaW1hZScsICc8aW5maWxlLm1hZT4nLCAnLW9tYWUnLCAnPG91dGZpbGUubWFlPic=

> <r_lp_tautomer_probability>
0.999

> <r_epik_Ionization_Penalty>
6.71699

> <r_epik_Ionization_Penalty_Charging>
5.88592

> <r_epik_Ionization_Penalty_Neutral>
0.831074

> <r_epik_State_Penalty>
6.08365

> <r_epik_Charging_Adjusted_Penalty>
11.9696

> <i_epik_Tot_Q>
0

> <i_epik_Tot_abs_Q>
2

> <r_epik_Metal_State_Penalty>
2.0947

> <b_epik_Metal_Only>
1

> <s_lp_Force_Field>
OPLS_2005

> <r_lp_Energy>
13.7972

> <b_lp_Chiralities_Consistent>
1

> <s_lp_Variant>
AV-unprocessed.smi:2032-21

> <Gold.Version>
5.8.1

> <Gold.Id.Protein>
6NUR|6NUR_protein|mol2

> <Gold.PLP.Fitness>
41.4043

> <Gold.PLP.PLP>
-28.6887

> <Gold.PLP.part.hbond>
-3.0547

> <Gold.PLP.part.metal>
0.0000

> <Gold.PLP.part.buried>
-1.9435

> <Gold.PLP.part.nonpolar>
-21.7449

> <Gold.PLP.part.repulsive>
0.2275

> <Gold.PLP.ligand.clash>
0.0000

> <Gold.PLP.ligand.torsion>
1.1771

> <Gold.PLP.Chemscore.Hbond>
5.0000

> <Gold.PLP.Chemscore.CHOScore>
0.0000

> <Gold.PLP.Chemscore.Metal>
0.0000

> <Gold.Chemscore.Hbonds>
donor molecule, donor type, donor heavy atom, donor atom, acceptor molecule, acceptor atom, score
      L1  H     4    42       P1  7948  2.00
      P1  H  7989  7998       L1    10  1.00
      P1  H  7997  8009       L1    11  1.80

> <Gold.PLP.Chemscore.Internal.Correction>
0.0698

> <Gold.Rescore>
     Score         DG    S(hbond)    S(metal)    S(lipo)     H(rot)  DE(clash)    DE(int)     intcor
     15.67     -17.97       2.70        0.00      64.21       1.58       0.05       2.25       ----

> <Gold.Chemscore.Fitness>
15.6730

> <Gold.Chemscore.DG>
-17.9683

> <Gold.Chemscore.ZeroCoef>
-5.4800

> <Gold.Chemscore.Hbond>
2.7001

> <Gold.Chemscore.Metal>
0.0000

> <Gold.Chemscore.Lipo>
64.2083

> <Gold.Chemscore.Internal_Hbond>
0.0000

> <Gold.Chemscore.DEClash>
0.0464

> <Gold.Chemscore.DEInternal>
2.2489

> <Gold.Chemscore.Rot>
1.5791

> <Gold.Chemscore.Internal.Correction>
   9.000000E+99

> <Gold.Chemscore.Hbonds>
donor molecule, donor type, donor heavy atom, donor atom, acceptor molecule, acceptor atom, score
      L1  H     4    42       P1  7948  0.97
      P1  H  7989  7998       L1    10  0.92
      P1  H  7997  8009       L1    11  0.18

> <Gold.Chemscore.Hbond.Weighted>
-9.0184

> <Gold.Chemscore.Metal.Weighted>
-0.0000

> <Gold.Chemscore.Lipo.Weighted>
-7.5124

> <Gold.Chemscore.Internal_Hbond.Weighted>
0.0000

> <Gold.Chemscore.DEClash.Weighted>
0.0464

> <Gold.Chemscore.DEInternal.Weighted>
2.2489

> <Gold.Chemscore.Rot.Weighted>
4.0425

> <Gold.Chemscore.Internal.Correction.Weighted>
   9.000000E+99

> <Gold.Protein.RotatedTorsions>
[ 6907 6896 6895 6894 ] final    5.47 input  -60.11 | X-H torsion
[ 7974 7965 7964 7962 ] final -145.18 input  175.53 | X-H torsion
[ 8008 7997 7996 7995 ] final -161.31 input   59.86 | X-H torsion
[ 10167 10162 10161 10158 ] final   -7.58 input  -65.29 | X-H torsion
[ 10718 10713 10712 10709 ] final  177.48 input   66.30 | X-H torsion
[ 10763 10752 10751 10750 ] final -172.05 input  -60.55 | X-H torsion
[ 11005 11000 10999 10996 ] final   61.81 input  -57.11 | X-H torsion

> <Gold.Protein.ActiveResidues>
 VAL166  LYS551  ARG553  GLY616  TRP617  ASP618  TYR619  PRO620  LYS621  CYS622 
 ASP623  PHE694  ASN695  SER759  ASP760  ASP761  ALA762  ILE779  LEU786  VAL792 
 PHE793  MET794  SER795  GLU796  ALA797  LYS798  CYS799  TRP800  GLU811  SER814 

> <Gold.Protein.RotatedAtoms>
  151.6581  135.0993  160.0173 H   0  0  0  0  0  0  0  0  0  0  0  0  # atno 6907 bound_to 6896
  152.3962  133.6746  159.6287 H   0  0  0  0  0  0  0  0  0  0  0  0  # atno 6908 bound_to 6896
  150.7869  133.8786  159.3320 H   0  0  0  0  0  0  0  0  0  0  0  0  # atno 6909 bound_to 6896
  144.8246  140.5617  143.5556 H   0  0  0  0  0  0  0  0  0  0  0  0  # atno 7974 bound_to 7965
  155.7904  140.0877  157.2012 H   0  0  0  0  0  0  0  0  0  0  0  0  # atno 8008 bound_to 7997
  154.3986  140.1491  156.3214 H   0  0  0  0  0  0  0  0  0  0  0  0  # atno 8009 bound_to 7997
  155.8565  140.3432  155.5730 H   0  0  0  0  0  0  0  0  0  0  0  0  # atno 8010 bound_to 7997
  140.7033  143.6065  150.8746 H   0  0  0  0  0  0  0  0  0  0  0  0  # atno 10167 bound_to 10162
  156.9047  130.9890  151.3030 H   0  0  0  0  0  0  0  0  0  0  0  0  # atno 10718 bound_to 10713
  154.6237  135.2878  155.0297 H   0  0  0  0  0  0  0  0  0  0  0  0  # atno 10763 bound_to 10752
  154.1483  135.6507  153.4961 H   0  0  0  0  0  0  0  0  0  0  0  0  # atno 10764 bound_to 10752
  153.0247  135.5349  154.7036 H   0  0  0  0  0  0  0  0  0  0  0  0  # atno 10765 bound_to 10752
  140.0135  134.6259  155.9744 H   0  0  0  0  0  0  0  0  0  0  0  0  # atno 11005 bound_to 11000
  145.5030  139.1482  143.3647 LP  0  0  0  0  0  0  0  0  0  0  0  0  # atno 17320 bound_to 7965
  146.2551  140.5170  142.8877 LP  0  0  0  0  0  0  0  0  0  0  0  0  # atno 17321 bound_to 7965
  139.9788  143.5974  152.2949 LP  0  0  0  0  0  0  0  0  0  0  0  0  # atno 17342 bound_to 10162
  139.6587  144.7662  151.2004 LP  0  0  0  0  0  0  0  0  0  0  0  0  # atno 17343 bound_to 10162
  157.6004  130.8508  149.8794 LP  0  0  0  0  0  0  0  0  0  0  0  0  # atno 17370 bound_to 10713
  156.0565  130.3707  150.1080 LP  0  0  0  0  0  0  0  0  0  0  0  0  # atno 17371 bound_to 10713
  141.1727  133.6538  156.4713 LP  0  0  0  0  0  0  0  0  0  0  0  0  # atno 17394 bound_to 11000
  140.4511  134.6927  157.5040 LP  0  0  0  0  0  0  0  0  0  0  0  0  # atno 17395 bound_to 11000

$$$$
