#       Name:                AV-unprocessed.smi:2032
#       Creating user name   scv26
#       Creation time:       Fri Mar 27 10:50:50 2020


#       File generated by GOLD software.
#

@<TRIPOS>MOLECULE
AV-unprocessed.smi:2032
    48    49     1
SMALL
NO_CHARGES


@<TRIPOS>ATOM
      1 ****        -4.1465  -2.0416  -1.9723 C.3            1 S1                 0.0000
      2 ****        -3.5535  -1.3269  -0.7527 C.3            1 S1                 0.0000
      3 ****        -2.0136  -1.3001  -0.7921 C.3            1 S1                 0.0000
      4 ****        -1.4578  -0.6894   0.4460 N.4            1 S1                 1.0000
      5 ****         0.0326  -0.5213   0.4895 C.3            1 S1                 0.0000
      6 ****         0.4006   0.5975   1.4909 C.3            1 S1                 0.0000
      7 ****         0.6761  -0.2546  -0.9006 C.3            1 S1                 0.0000
      8 ****         2.1295  -0.1120  -0.8413 N.am           1 S1                 0.0000
      9 ****         2.7996   1.0492  -0.8929 C.2            1 S1                 0.0000
     10 ****         2.2481   2.1459  -0.9889 O.2            1 S1                 0.0000
     11 ****         4.1272   0.8503  -0.8186 N.am           1 S1                 0.0000
     12 ****         5.1578   1.8254  -0.7699 C.2            1 S1                 0.0000
     13 ****         4.9475   3.1469  -0.7810 N.2            1 S1                 0.0000
     14 ****         6.1419   3.8685  -0.7121 C.2            1 S1                 0.0000
     15 ****         7.2598   3.0747  -0.6478 C.2            1 S1                 0.0000
     16 ****         6.8549   1.3792  -0.6725 S.3            1 S1                 0.0000
     17 ****        -1.9814  -1.4223   1.6308 C.3            1 S1                 0.0000
     18 ****        -3.5206  -1.4675   1.6388 C.3            1 S1                 0.0000
     19 ****        -4.1755  -0.1161   1.9774 C.3            1 S1                 0.0000
     20 ****        -3.9969  -2.0143   0.4119 O.3            1 S1                 0.0000
     21 ****        -3.8570  -1.5449  -2.8987 H              1 S1                 0.0000
     22 ****        -5.2359  -2.0495  -1.9275 H              1 S1                 0.0000
     23 ****        -3.8086  -3.0769  -2.0277 H              1 S1                 0.0000
     24 ****        -3.9364  -0.3062  -0.7448 H              1 S1                 0.0000
     25 ****        -1.6164  -2.3097  -0.9108 H              1 S1                 0.0000
     26 ****        -1.7248  -0.7273  -1.6728 H              1 S1                 0.0000
     27 ****         0.4570  -1.4576   0.8555 H              1 S1                 0.0000
     28 ****         1.4782   0.6745   1.6323 H              1 S1                 0.0000
     29 ****        -0.0155   0.4331   2.4828 H              1 S1                 0.0000
     30 ****         0.0436   1.5672   1.1423 H              1 S1                 0.0000
     31 ****         0.4993  -1.0964  -1.5701 H              1 S1                 0.0000
     32 ****         0.2208   0.6187  -1.3713 H              1 S1                 0.0000
     33 ****         2.6657  -0.9637  -0.7611 H              1 S1                 0.0000
     34 ****         4.4371  -0.1088  -0.7669 H              1 S1                 0.0000
     35 ****         6.1041   4.9478  -0.7128 H              1 S1                 0.0000
     36 ****         8.2926   3.3841  -0.5872 H              1 S1                 0.0000
     37 ****        -1.5913  -2.4413   1.6150 H              1 S1                 0.0000
     38 ****        -1.6377  -0.9776   2.5627 H              1 S1                 0.0000
     39 ****        -3.8267  -2.1676   2.4167 H              1 S1                 0.0000
     40 ****        -3.8945   0.2078   2.9798 H              1 S1                 0.0000
     41 ****        -5.2626  -0.1934   1.9499 H              1 S1                 0.0000
     42 ****        -3.8783   0.6744   1.2889 H              1 S1                 0.0000
     43 ****        -1.8424   0.2438   0.4836 H              1 S1                 0.0000
     44 ****         1.2506   2.2018  -1.0325 LP             1 S1                 0.0000
     45 ****         2.7977   2.9806  -1.0233 LP             1 S1                 0.0000
     46 ****         4.0421   3.5683  -0.8325 LP             1 S1                 0.0000
     47 ****        -3.6867  -2.9631   0.3516 LP             1 S1                 0.0000
     48 ****        -4.9965  -1.9908   0.4268 LP             1 S1                 0.0000
@<TRIPOS>BOND
    1    1    2 1     
    2    1   21 1     
    3    1   22 1     
    4    1   23 1     
    5    2   20 1     
    6    2    3 1     
    7    2   24 1     
    8    3    4 1     
    9    3   25 1     
   10    3   26 1     
   11    4    5 1     
   12    4   17 1     
   13    4   43 1     
   14    5    6 1     
   15    5    7 1     
   16    5   27 1     
   17    6   28 1     
   18    6   29 1     
   19    6   30 1     
   20    7    8 1     
   21    7   31 1     
   22    7   32 1     
   23    8    9 am    
   24    8   33 1     
   25    9   10 2     
   26    9   11 am    
   27   11   12 1     
   28   11   34 1     
   29   12   16 1     
   30   12   13 2     
   31   13   14 1     
   32   14   15 2     
   33   14   35 1     
   34   15   16 1     
   35   15   36 1     
   36   17   18 1     
   37   17   37 1     
   38   17   38 1     
   39   18   19 1     
   40   18   20 1     
   41   18   39 1     
   42   19   40 1     
   43   19   41 1     
   44   19   42 1     
   45   10   44 1     
   46   10   45 1     
   47   13   46 1     
   48   20   47 1     
   49   20   48 1     
@<TRIPOS>SUBSTRUCTURE
      1 S1             1
@<TRIPOS>SET
LONE_PAIRS      STATIC     ATOMS    <user>   **** ""
5 44 45 46 47 48
DONOR_HYDROGENS      STATIC     ATOMS    <user>   **** ""
3 43 33 34
ATOM$BLUE        STATIC     ATOMS    COLORGROUP SYSTEM
5 44 45 46 47 48
ATOM$RED        STATIC     ATOMS    COLORGROUP SYSTEM
3 43 33 34
