#       Name:                AV-unprocessed.smi:113
#       Creating user name   scv26
#       Creation time:       Thu Mar 26 18:20:33 2020


#       File generated by GOLD software.
#

@<TRIPOS>MOLECULE
AV-unprocessed.smi:113
    63    66     1
SMALL
NO_CHARGES


@<TRIPOS>ATOM
      1 ****        -0.8673  -0.5715   4.2215 C.3            1 S1                 0.0000
      2 ****        -1.5664  -1.1017   2.9871 C.ar           1 S1                 0.0000
      3 ****        -1.4189  -0.4596   1.7448 C.ar           1 S1                 0.0000
      4 ****        -2.0900  -0.9850   0.6169 C.ar           1 S1                 0.0000
      5 ****        -1.9610  -0.3257  -0.7609 C.3            1 S1                 0.0000
      6 ****        -1.1713   0.8955  -0.8353 N.am           1 S1                 0.0000
      7 ****        -1.8350   2.1254  -0.6060 C.2            1 S1                 0.0000
      8 ****        -3.0424   2.1715  -0.3607 O.2            1 S1                 0.0000
      9 ****        -0.9801   3.3135  -0.6613 C.2            1 S1                 0.0000
     10 ****        -1.6230   4.6702  -0.4197 C.3            1 S1                 0.0000
     11 ****         0.3441   3.1784  -0.9143 C.2            1 S1                 0.0000
     12 ****         0.9674   1.9641  -1.1408 N.am           1 S1                 0.0000
     13 ****         2.4652   1.9194  -1.3481 C.3            1 S1                 0.0000
     14 ****         2.8863   1.2971  -2.6912 C.3            1 S1                 0.0000
     15 ****         3.9583   0.2880  -2.2915 C.3            1 S1                 0.0000
     16 ****         3.4867  -1.0331  -2.4785 O.3            1 S1                 0.0000
     17 ****         4.2494   0.6173  -0.8157 C.3            1 S1                 0.0000
     18 ****         4.7349  -0.5352   0.0816 C.3            1 S1                 0.0000
     19 ****         6.0255  -0.9541  -0.3100 O.3            1 S1                 0.0000
     20 ****         3.0279   1.1527  -0.3323 O.3            1 S1                 0.0000
     21 ****         0.2152   0.7704  -1.0768 C.2            1 S1                 0.0000
     22 ****         0.7530  -0.3312  -1.2062 O.2            1 S1                 0.0000
     23 ****        -2.8868  -2.1479   0.7991 C.ar           1 S1                 0.0000
     24 ****        -3.5888  -2.7403  -0.2787 C.2            1 S1                 0.0000
     25 ****        -4.3732  -3.8901  -0.0770 C.2            1 S1                 0.0000
     26 ****        -4.4639  -4.4604   1.2034 C.2            1 S1                 0.0000
     27 ****        -3.7695  -3.8786   2.2791 C.2            1 S1                 0.0000
     28 ****        -2.9761  -2.7250   2.1003 C.ar           1 S1                 0.0000
     29 ****        -2.3249  -2.2012   3.1621 N.ar           1 S1                 0.0000
     30 ****        -0.0440   0.0909   3.9525 H              1 S1                 0.0000
     31 ****        -0.4604  -1.3895   4.8171 H              1 S1                 0.0000
     32 ****        -1.5691  -0.0115   4.8398 H              1 S1                 0.0000
     33 ****        -0.7966   0.4196   1.6738 H              1 S1                 0.0000
     34 ****        -1.5373  -1.0324  -1.4761 H              1 S1                 0.0000
     35 ****        -2.9485  -0.0950  -1.1638 H              1 S1                 0.0000
     36 ****        -0.9009   5.4829  -0.5032 H              1 S1                 0.0000
     37 ****        -2.0589   4.7123   0.5792 H              1 S1                 0.0000
     38 ****        -2.4149   4.8525  -1.1472 H              1 S1                 0.0000
     39 ****         0.9463   4.0754  -0.9413 H              1 S1                 0.0000
     40 ****         2.8222   2.9454  -1.2505 H              1 S1                 0.0000
     41 ****         2.0459   0.8444  -3.2190 H              1 S1                 0.0000
     42 ****         3.2949   2.0843  -3.3253 H              1 S1                 0.0000
     43 ****         4.8577   0.4064  -2.8968 H              1 S1                 0.0000
     44 ****         4.1494  -1.6373  -2.1811 H              1 S1                 0.0000
     45 ****         4.9795   1.4282  -0.7777 H              1 S1                 0.0000
     46 ****         4.7894  -0.1974   1.1168 H              1 S1                 0.0000
     47 ****         4.0464  -1.3802   0.0633 H              1 S1                 0.0000
     48 ****         5.9806  -1.2899  -1.1920 H              1 S1                 0.0000
     49 ****        -3.5400  -2.3286  -1.2751 H              1 S1                 0.0000
     50 ****        -4.9048  -4.3341  -0.9059 H              1 S1                 0.0000
     51 ****        -5.0650  -5.3439   1.3612 H              1 S1                 0.0000
     52 ****        -3.8468  -4.3264   3.2592 H              1 S1                 0.0000
     53 ****        -3.5769   1.3273  -0.3199 LP             1 S1                 0.0000
     54 ****        -3.4872   3.0531  -0.2025 LP             1 S1                 0.0000
     55 ****         3.3001  -1.1894  -3.4484 LP             1 S1                 0.0000
     56 ****         2.6476  -1.1683  -1.9516 LP             1 S1                 0.0000
     57 ****         6.3480  -1.6717   0.3072 LP             1 S1                 0.0000
     58 ****         6.6555  -0.1782  -0.2770 LP             1 S1                 0.0000
     59 ****         2.4064   0.4100  -0.0831 LP             1 S1                 0.0000
     60 ****         3.2014   1.7252   0.4691 LP             1 S1                 0.0000
     61 ****         0.2057  -1.1656  -1.1408 LP             1 S1                 0.0000
     62 ****         1.7366  -0.3905  -1.3765 LP             1 S1                 0.0000
     63 ****        -2.4049  -2.6237   4.0650 LP             1 S1                 0.0000
@<TRIPOS>BOND
    1    1    2 1     
    2    1   30 1     
    3    1   31 1     
    4    1   32 1     
    5    2   29 ar    
    6    2    3 ar    
    7    3    4 ar    
    8    3   33 1     
    9    4    5 1     
   10    4   23 ar    
   11    5    6 1     
   12    5   34 1     
   13    5   35 1     
   14    6   21 am    
   15    6    7 am    
   16    7    8 2     
   17    7    9 1     
   18    9   10 1     
   19    9   11 2     
   20   10   36 1     
   21   10   37 1     
   22   10   38 1     
   23   11   12 1     
   24   11   39 1     
   25   12   13 1     
   26   12   21 am    
   27   13   20 1     
   28   13   14 1     
   29   13   40 1     
   30   14   15 1     
   31   14   41 1     
   32   14   42 1     
   33   15   16 1     
   34   15   17 1     
   35   15   43 1     
   36   16   44 1     
   37   17   18 1     
   38   17   20 1     
   39   17   45 1     
   40   18   19 1     
   41   18   46 1     
   42   18   47 1     
   43   19   48 1     
   44   21   22 2     
   45   23   28 ar    
   46   23   24 1     
   47   24   25 2     
   48   24   49 1     
   49   25   26 1     
   50   25   50 1     
   51   26   27 2     
   52   26   51 1     
   53   27   28 1     
   54   27   52 1     
   55   28   29 ar    
   56    8   53 1     
   57    8   54 1     
   58   16   55 1     
   59   16   56 1     
   60   19   57 1     
   61   19   58 1     
   62   20   59 1     
   63   20   60 1     
   64   22   61 1     
   65   22   62 1     
   66   29   63 1     
@<TRIPOS>SUBSTRUCTURE
      1 S1             1
@<TRIPOS>SET
LONE_PAIRS      STATIC     ATOMS    <user>   **** ""
11 53 54 55 56 57 58 59 60 61 62 63
DONOR_HYDROGENS      STATIC     ATOMS    <user>   **** ""
2 44 48
ATOM$BLUE        STATIC     ATOMS    COLORGROUP SYSTEM
11 53 54 55 56 57 58 59 60 61 62 63
ATOM$RED        STATIC     ATOMS    COLORGROUP SYSTEM
2 44 48
