AV-unprocessed.smi:276|AV-procd|sdf|2070|dock4
  -GOLD-   2262021323D 1   1.00000     0.00000
 Structure written by MMmdl.
 57 61  0  0  0  0  0  0  0  0  1 V2000
  148.5680  132.8014  153.5414 C   0  0  0  0  0  0  0  0  0  0  0  0
  149.1467  132.6087  154.8200 O   0  0  0  0  0  0  0  0  0  0  0  0
  150.0695  133.6309  155.1622 C   0  0  2  0  0  0  0  0  0  0  0  0
  150.6509  133.5169  156.5766 C   0  0  0  0  0  0  0  0  0  0  0  0
  150.4926  135.0436  156.7206 C   0  0  1  0  0  0  0  0  0  0  0  0
  151.7229  135.7545  156.3430 N   0  0  0  0  0  0  0  0  0  0  0  0
  152.8199  135.6967  157.3041 C   0  0  0  0  0  0  0  0  0  0  0  0
  151.5618  137.0258  155.9122 C   0  0  0  0  0  0  0  0  0  0  0  0
  151.8144  137.2675  154.6017 N   0  0  0  0  0  0  0  0  0  0  0  0
  151.6621  138.4997  154.1075 C   0  0  0  0  0  0  0  0  0  0  0  0
  151.2791  139.6116  154.7387 N   0  0  0  0  0  0  0  0  0  0  0  0
  151.0401  139.3740  156.0605 C   0  0  0  0  0  0  0  0  0  0  0  0
  151.1615  138.1229  156.7284 C   0  0  0  0  0  0  0  0  0  0  0  0
  150.8432  138.2729  158.0734 N   0  0  0  0  0  0  0  0  0  0  0  0
  150.5352  139.5354  158.1901 C   0  0  0  0  0  0  0  0  0  0  0  0
  150.6245  140.2694  157.0297 N   0  0  0  0  0  0  0  0  0  0  0  0
  150.3333  141.6845  156.8751 C   0  0  0  0  0  0  0  0  0  0  0  0
  150.4493  142.4626  158.2062 C   0  0  2  0  0  0  0  0  0  0  0  0
  149.5787  143.5767  158.1312 O   0  0  0  0  0  0  0  0  0  0  0  0
  151.8667  143.0088  158.5011 C   0  0  2  0  0  0  0  0  0  0  0  0
  152.8975  141.9607  158.9576 C   0  0  0  0  0  0  0  0  0  0  0  0
  152.8110  142.0151  160.4650 C   0  0  0  0  0  0  0  0  0  0  0  0
  152.5966  143.5030  160.6858 C   0  0  0  0  0  0  0  0  0  0  0  0
  151.7509  143.9009  159.6147 O   0  0  0  0  0  0  0  0  0  0  0  0
  149.4062  134.9443  155.6148 C   0  0  0  0  0  0  0  0  0  0  0  0
  147.9194  134.9536  156.0153 C   0  0  0  0  0  0  0  0  0  0  0  0
  147.6073  135.5350  154.6337 C   0  0  0  0  0  0  0  0  0  0  0  0
  149.0497  136.0454  154.5973 C   0  0  0  0  0  0  0  0  0  0  0  0
  147.8599  131.9986  153.3363 H   0  0  0  0  0  0  0  0  0  0  0  0
  149.3253  132.7905  152.7567 H   0  0  0  0  0  0  0  0  0  0  0  0
  148.0278  133.7476  153.4932 H   0  0  0  0  0  0  0  0  0  0  0  0
  150.8336  133.8030  154.4009 H   0  0  0  0  0  0  0  0  0  0  0  0
  149.9956  132.9675  157.2548 H   0  0  0  0  0  0  0  0  0  0  0  0
  151.6661  133.1229  156.6111 H   0  0  0  0  0  0  0  0  0  0  0  0
  150.0987  135.3218  157.6980 H   0  0  0  0  0  0  0  0  0  0  0  0
  153.5881  136.4443  157.0979 H   0  0  0  0  0  0  0  0  0  0  0  0
  153.3050  134.7217  157.2721 H   0  0  0  0  0  0  0  0  0  0  0  0
  152.4516  135.8618  158.3172 H   0  0  0  0  0  0  0  0  0  0  0  0
  151.8748  138.6098  153.0543 H   0  0  0  0  0  0  0  0  0  0  0  0
  150.2288  139.9687  159.1311 H   0  0  0  0  0  0  0  0  0  0  0  0
  151.0264  142.0743  156.1312 H   0  0  0  0  0  0  0  0  0  0  0  0
  149.3320  141.7925  156.4558 H   0  0  0  0  0  0  0  0  0  0  0  0
  150.1209  141.8228  159.0263 H   0  0  0  0  0  0  0  0  0  0  0  0
  149.4759  143.8174  157.2232 H   0  0  0  0  0  0  0  0  0  0  0  0
  152.2521  143.5431  157.6315 H   0  0  0  0  0  0  0  0  0  0  0  0
  152.7475  140.9580  158.5634 H   0  0  0  0  0  0  0  0  0  0  0  0
  153.8942  142.2778  158.6471 H   0  0  0  0  0  0  0  0  0  0  0  0
  151.9478  141.4487  160.8170 H   0  0  0  0  0  0  0  0  0  0  0  0
  153.7030  141.6332  160.9620 H   0  0  0  0  0  0  0  0  0  0  0  0
  152.1500  143.7266  161.6548 H   0  0  0  0  0  0  0  0  0  0  0  0
  153.5420  144.0421  160.6104 H   0  0  0  0  0  0  0  0  0  0  0  0
  147.4767  133.9775  156.2147 H   0  0  0  0  0  0  0  0  0  0  0  0
  147.7078  135.6578  156.8217 H   0  0  0  0  0  0  0  0  0  0  0  0
  147.4116  134.7659  153.8849 H   0  0  0  0  0  0  0  0  0  0  0  0
  146.8446  136.3141  154.6260 H   0  0  0  0  0  0  0  0  0  0  0  0
  149.1167  137.0590  154.9920 H   0  0  0  0  0  0  0  0  0  0  0  0
  149.5438  135.9565  153.6296 H   0  0  0  0  0  0  0  0  0  0  0  0
  1  2  1  0  0  0  0
  1 29  1  0  0  0  0
  1 30  1  0  0  0  0
  1 31  1  0  0  0  0
  2  3  1  0  0  0  0
  3 25  1  0  0  0  0
  3  4  1  0  0  0  0
  3 32  1  0  0  0  0
  4  5  1  0  0  0  0
  4 33  1  0  0  0  0
  4 34  1  0  0  0  0
  5  6  1  0  0  0  0
  5 25  1  0  0  0  0
  5 35  1  0  0  0  0
  6  7  1  0  0  0  0
  6  8  1  0  0  0  0
  7 36  1  0  0  0  0
  7 37  1  0  0  0  0
  7 38  1  0  0  0  0
  8 13  1  0  0  0  0
  8  9  2  0  0  0  0
  9 10  1  0  0  0  0
 10 11  2  0  0  0  0
 10 39  1  0  0  0  0
 11 12  1  0  0  0  0
 12 16  1  0  0  0  0
 12 13  2  0  0  0  0
 13 14  1  0  0  0  0
 14 15  2  0  0  0  0
 15 16  1  0  0  0  0
 15 40  1  0  0  0  0
 16 17  1  0  0  0  0
 17 18  1  0  0  0  0
 17 41  1  0  0  0  0
 17 42  1  0  0  0  0
 18 19  1  0  0  0  0
 18 20  1  0  0  0  0
 18 43  1  0  0  0  0
 19 44  1  0  0  0  0
 20 24  1  0  0  0  0
 20 21  1  0  0  0  0
 20 45  1  0  0  0  0
 21 22  1  0  0  0  0
 21 46  1  0  0  0  0
 21 47  1  0  0  0  0
 22 23  1  0  0  0  0
 22 48  1  0  0  0  0
 22 49  1  0  0  0  0
 23 24  1  0  0  0  0
 23 50  1  0  0  0  0
 23 51  1  0  0  0  0
 25 28  1  0  0  0  0
 25 26  1  0  0  0  0
 26 27  1  0  0  0  0
 26 52  1  0  0  0  0
 26 53  1  0  0  0  0
 27 28  1  0  0  0  0
 27 54  1  0  0  0  0
 27 55  1  0  0  0  0
 28 56  1  0  0  0  0
 28 57  1  0  0  0  0
M  END
> <s_m_source_file>
AV-unprocessed.smi

> <i_m_source_file_index>
276

> <i_lp_mmshare_version>
43012

> <i_f3d_flags>
0

> <s_epik_input>
W0NIMl0xW0NIMl1bQ0gyXUMxMltDQEhdKE9bQ0gzXSlbQ0gyXVtDQEhdMk4oW0NIM10pYyhuW2NIXW4zKWMoYzM0KW5bY0hdbjRbQ0gyXVtDQEhdKFtPSF0pW0NAQEhdNVtDSDJdW0NIMl1bQ0gyXU81

> <s_epik_cmdline>
J2VwaWtfcHl0aG9uJywgJy1waCcsICc3LjAnLCAnLXRuJywgJzgnLCAnLW1hJywgJzIwMCcsICctbWV0YWxfYmluZGluZycsICctaW1hZScsICc8aW5maWxlLm1hZT4nLCAnLW9tYWUnLCAnPG91dGZpbGUubWFlPic=

> <r_lp_tautomer_probability>
1

> <r_epik_Ionization_Penalty>
0.00204117

> <r_epik_Ionization_Penalty_Charging>
0

> <r_epik_Ionization_Penalty_Neutral>
0.00204117

> <r_epik_State_Penalty>
0.00127401

> <r_epik_Charging_Adjusted_Penalty>
0.00127401

> <i_epik_Tot_Q>
0

> <i_epik_Tot_abs_Q>
0

> <r_epik_Metal_State_Penalty>
-0

> <b_epik_Metal_Only>
0

> <s_lp_Force_Field>
OPLS_2005

> <r_lp_Energy>
59.1309

> <b_lp_Chiralities_Consistent>
1

> <s_lp_Variant>
AV-unprocessed.smi:276-1

> <Gold.Version>
5.8.1

> <Gold.Id.Protein>
6NUR|6NUR_protein|mol2

> <Gold.PLP.Fitness>
45.0182

> <Gold.PLP.PLP>
-38.0297

> <Gold.PLP.part.hbond>
-5.0000

> <Gold.PLP.part.metal>
0.0000

> <Gold.PLP.part.buried>
-3.0599

> <Gold.PLP.part.nonpolar>
-31.1978

> <Gold.PLP.part.repulsive>
0.2201

> <Gold.PLP.ligand.clash>
0.0000

> <Gold.PLP.ligand.torsion>
1.2236

> <Gold.PLP.Chemscore.Hbond>
2.8960

> <Gold.PLP.Chemscore.CHOScore>
0.0000

> <Gold.PLP.Chemscore.Metal>
0.0000

> <Gold.Chemscore.Hbonds>
donor molecule, donor type, donor heavy atom, donor atom, acceptor molecule, acceptor atom, score
      L1  H    19    44       P1  8028  1.00
      P1  H  7989  7998       L1    11  1.00
      P1  H 10752 10764       L1     9  0.91

> <Gold.PLP.Chemscore.Internal.Correction>
0.7478

> <Gold.Rescore>
     Score         DG    S(hbond)    S(metal)    S(lipo)     H(rot)  DE(clash)    DE(int)     intcor
     14.37     -16.82       2.29        0.00      91.03       2.72       0.22       2.23       ----

> <Gold.Chemscore.Fitness>
14.3709

> <Gold.Chemscore.DG>
-16.8180

> <Gold.Chemscore.ZeroCoef>
-5.4800

> <Gold.Chemscore.Hbond>
2.2885

> <Gold.Chemscore.Metal>
0.0000

> <Gold.Chemscore.Lipo>
91.0291

> <Gold.Chemscore.Internal_Hbond>
0.0000

> <Gold.Chemscore.DEClash>
0.2189

> <Gold.Chemscore.DEInternal>
2.2282

> <Gold.Chemscore.Rot>
2.7172

> <Gold.Chemscore.Internal.Correction>
   9.000000E+99

> <Gold.Chemscore.Hbonds>
donor molecule, donor type, donor heavy atom, donor atom, acceptor molecule, acceptor atom, score
      L1  H    19    44       P1  8028  0.60
      P1  H  7989  7998       L1    11  0.30
      P1  H 10752 10764       L1     9  0.19

> <Gold.Chemscore.Hbond.Weighted>
-7.6436

> <Gold.Chemscore.Metal.Weighted>
-0.0000

> <Gold.Chemscore.Lipo.Weighted>
-10.6504

> <Gold.Chemscore.Internal_Hbond.Weighted>
0.0000

> <Gold.Chemscore.DEClash.Weighted>
0.2189

> <Gold.Chemscore.DEInternal.Weighted>
2.2282

> <Gold.Chemscore.Rot.Weighted>
6.9560

> <Gold.Chemscore.Internal.Correction.Weighted>
   9.000000E+99

> <Gold.Protein.RotatedTorsions>
[ 6907 6896 6895 6894 ] final -143.85 input  -60.11 | X-H torsion
[ 7974 7965 7964 7962 ] final -135.26 input  175.53 | X-H torsion
[ 8008 7997 7996 7995 ] final   83.60 input   59.86 | X-H torsion
[ 10167 10162 10161 10158 ] final -135.99 input  -65.29 | X-H torsion
[ 10718 10713 10712 10709 ] final   32.14 input   66.30 | X-H torsion
[ 10763 10752 10751 10750 ] final  -82.06 input  -60.55 | X-H torsion
[ 11005 11000 10999 10996 ] final  121.57 input  -57.11 | X-H torsion

> <Gold.Protein.ActiveResidues>
 VAL166  LYS551  ARG553  GLY616  TRP617  ASP618  TYR619  PRO620  LYS621  CYS622 
 ASP623  PHE694  ASN695  SER759  ASP760  ASP761  ALA762  ILE779  LEU786  VAL792 
 PHE793  MET794  SER795  GLU796  ALA797  LYS798  CYS799  TRP800  GLU811  SER814 

> <Gold.Protein.RotatedAtoms>
  151.1061  133.5208  159.2607 H   0  0  0  0  0  0  0  0  0  0  0  0  # atno 6907 bound_to 6896
  151.2020  135.0446  159.8886 H   0  0  0  0  0  0  0  0  0  0  0  0  # atno 6908 bound_to 6896
  152.5447  134.0887  159.8321 H   0  0  0  0  0  0  0  0  0  0  0  0  # atno 6909 bound_to 6896
  144.9029  140.6795  143.5073 H   0  0  0  0  0  0  0  0  0  0  0  0  # atno 7974 bound_to 7965
  155.9261  140.3418  155.6211 H   0  0  0  0  0  0  0  0  0  0  0  0  # atno 8008 bound_to 7997
  155.7214  140.0784  157.2347 H   0  0  0  0  0  0  0  0  0  0  0  0  # atno 8009 bound_to 7997
  154.4077  140.1604  156.2394 H   0  0  0  0  0  0  0  0  0  0  0  0  # atno 8010 bound_to 7997
  139.8722  143.6942  152.2638 H   0  0  0  0  0  0  0  0  0  0  0  0  # atno 10167 bound_to 10162
  157.2814  130.7257  149.6559 H   0  0  0  0  0  0  0  0  0  0  0  0  # atno 10718 bound_to 10713
  154.5711  135.5604  153.7096 H   0  0  0  0  0  0  0  0  0  0  0  0  # atno 10763 bound_to 10752
  153.0049  135.6297  154.2113 H   0  0  0  0  0  0  0  0  0  0  0  0  # atno 10764 bound_to 10752
  154.2052  135.2876  155.2957 H   0  0  0  0  0  0  0  0  0  0  0  0  # atno 10765 bound_to 10752
  139.9232  134.9639  156.7979 H   0  0  0  0  0  0  0  0  0  0  0  0  # atno 11005 bound_to 11000
  145.3585  139.1688  143.4396 LP  0  0  0  0  0  0  0  0  0  0  0  0  # atno 17320 bound_to 7965
  146.3118  140.3645  142.8668 LP  0  0  0  0  0  0  0  0  0  0  0  0  # atno 17321 bound_to 7965
  139.7273  144.7590  151.0858 LP  0  0  0  0  0  0  0  0  0  0  0  0  # atno 17342 bound_to 10162
  140.7759  143.5132  150.9627 LP  0  0  0  0  0  0  0  0  0  0  0  0  # atno 17343 bound_to 10162
  155.9664  130.4337  150.5016 LP  0  0  0  0  0  0  0  0  0  0  0  0  # atno 17370 bound_to 10713
  157.2961  131.0636  151.2100 LP  0  0  0  0  0  0  0  0  0  0  0  0  # atno 17371 bound_to 10713
  140.6414  133.9815  155.7709 LP  0  0  0  0  0  0  0  0  0  0  0  0  # atno 17394 bound_to 11000
  141.0769  134.0122  157.3445 LP  0  0  0  0  0  0  0  0  0  0  0  0  # atno 17395 bound_to 11000

$$$$
