AV-unprocessed.smi:3331|AV-procd|sdf|12821|dock8
  -GOLD-   2272019193D 1   1.00000     0.00000
 Structure written by MMmdl.
 47 48  0  0  0  0  0  0  0  0  2 V2000
  154.3204  139.6180  160.2533 C   0  0  0  0  0  0  0  0  0  0  0  0
  153.5625  140.3735  159.1530 C   0  0  2  0  0  0  0  0  0  0  0  0
  153.1049  141.7680  159.6353 C   0  0  0  0  0  0  0  0  0  0  0  0
  152.2325  142.4964  158.5881 C   0  0  2  0  0  0  0  0  0  0  0  0
  151.6859  143.8225  159.1344 C   0  0  0  0  0  0  0  0  0  0  0  0
  151.0978  141.5708  158.0998 C   0  0  0  0  0  0  0  0  0  0  0  0
  151.6925  140.3343  157.5758 N   0  0  0  0  0  0  0  0  0  0  0  0
  151.7251  140.0480  156.2498 C   0  0  0  0  0  0  0  0  0  0  0  0
  151.1498  140.7513  155.4169 O   0  0  0  0  0  0  0  0  0  0  0  0
  152.4982  138.8110  155.7428 C   0  0  1  0  0  0  0  0  0  0  0  0
  151.5424  137.8482  155.0188 C   0  0  0  0  0  0  0  0  0  0  0  0
  153.5993  139.1872  154.8246 N   0  3  0  0  0  0  0  0  0  0  0  0
  154.4021  138.0581  154.3069 C   0  0  0  0  0  0  0  0  0  0  0  0
  155.7778  138.5409  153.8279 C   0  0  0  0  0  0  0  0  0  0  0  0
  156.4551  137.5321  153.0374 N   0  0  0  0  0  0  0  0  0  0  0  0
  157.7611  137.5217  152.5951 C   0  0  0  0  0  0  0  0  0  0  0  0
  157.9398  136.3689  151.8858 C   0  0  0  0  0  0  0  0  0  0  0  0
  156.6693  135.7315  151.9503 C   0  0  0  0  0  0  0  0  0  0  0  0
  155.7827  136.4302  152.6413 N   0  0  0  0  0  0  0  0  0  0  0  0
  152.3485  139.5705  158.6448 C   0  0  0  0  0  0  0  0  0  0  0  0
  153.6851  139.4381  161.1211 H   0  0  0  0  0  0  0  0  0  0  0  0
  155.1901  140.1834  160.5894 H   0  0  0  0  0  0  0  0  0  0  0  0
  154.6746  138.6515  159.8941 H   0  0  0  0  0  0  0  0  0  0  0  0
  154.2494  140.5133  158.3166 H   0  0  0  0  0  0  0  0  0  0  0  0
  152.5341  141.6565  160.5583 H   0  0  0  0  0  0  0  0  0  0  0  0
  153.9734  142.3785  159.8853 H   0  0  0  0  0  0  0  0  0  0  0  0
  152.8654  142.7318  157.7309 H   0  0  0  0  0  0  0  0  0  0  0  0
  151.0340  143.6593  159.9932 H   0  0  0  0  0  0  0  0  0  0  0  0
  151.1099  144.3523  158.3751 H   0  0  0  0  0  0  0  0  0  0  0  0
  152.4960  144.4800  159.4508 H   0  0  0  0  0  0  0  0  0  0  0  0
  150.4233  141.3303  158.9230 H   0  0  0  0  0  0  0  0  0  0  0  0
  150.4847  142.0901  157.3620 H   0  0  0  0  0  0  0  0  0  0  0  0
  152.9650  138.2877  156.5769 H   0  0  0  0  0  0  0  0  0  0  0  0
  150.7212  137.5314  155.6622 H   0  0  0  0  0  0  0  0  0  0  0  0
  152.0660  136.9478  154.6960 H   0  0  0  0  0  0  0  0  0  0  0  0
  151.1055  138.3111  154.1327 H   0  0  0  0  0  0  0  0  0  0  0  0
  153.1937  139.6603  154.0298 H   0  0  0  0  0  0  0  0  0  0  0  0
  154.5294  137.3050  155.0854 H   0  0  0  0  0  0  0  0  0  0  0  0
  153.8640  137.5828  153.4855 H   0  0  0  0  0  0  0  0  0  0  0  0
  155.6797  139.4459  153.2261 H   0  0  0  0  0  0  0  0  0  0  0  0
  156.4092  138.7935  154.6810 H   0  0  0  0  0  0  0  0  0  0  0  0
  158.4470  138.3255  152.8186 H   0  0  0  0  0  0  0  0  0  0  0  0
  158.8406  136.0326  151.3940 H   0  0  0  0  0  0  0  0  0  0  0  0
  156.3676  134.7886  151.5183 H   0  0  0  0  0  0  0  0  0  0  0  0
  152.6489  138.5679  158.3473 H   0  0  0  0  0  0  0  0  0  0  0  0
  151.6379  139.4167  159.4585 H   0  0  0  0  0  0  0  0  0  0  0  0
  154.2092  139.8319  155.3072 H   0  0  0  0  0  0  0  0  0  0  0  0
  1  2  1  0  0  0  0
  1 21  1  0  0  0  0
  1 22  1  0  0  0  0
  1 23  1  0  0  0  0
  2 20  1  0  0  0  0
  2  3  1  0  0  0  0
  2 24  1  0  0  0  0
  3  4  1  0  0  0  0
  3 25  1  0  0  0  0
  3 26  1  0  0  0  0
  4  5  1  0  0  0  0
  4  6  1  0  0  0  0
  4 27  1  0  0  0  0
  5 28  1  0  0  0  0
  5 29  1  0  0  0  0
  5 30  1  0  0  0  0
  6  7  1  0  0  0  0
  6 31  1  0  0  0  0
  6 32  1  0  0  0  0
  7  8  1  0  0  0  0
  7 20  1  0  0  0  0
  8  9  2  0  0  0  0
  8 10  1  0  0  0  0
 10 11  1  0  0  0  0
 10 12  1  0  0  0  0
 10 33  1  0  0  0  0
 11 34  1  0  0  0  0
 11 35  1  0  0  0  0
 11 36  1  0  0  0  0
 12 13  1  0  0  0  0
 12 37  1  0  0  0  0
 12 47  1  0  0  0  0
 13 14  1  0  0  0  0
 13 38  1  0  0  0  0
 13 39  1  0  0  0  0
 14 15  1  0  0  0  0
 14 40  1  0  0  0  0
 14 41  1  0  0  0  0
 15 19  1  0  0  0  0
 15 16  1  0  0  0  0
 16 17  2  0  0  0  0
 16 42  1  0  0  0  0
 17 18  1  0  0  0  0
 17 43  1  0  0  0  0
 18 19  2  0  0  0  0
 18 44  1  0  0  0  0
 20 45  1  0  0  0  0
 20 46  1  0  0  0  0
M  CHG  1  12   1
M  END
> <s_m_source_file>
AV-unprocessed.smi

> <i_m_source_file_index>
3331

> <i_lp_mmshare_version>
43012

> <i_f3d_flags>
0

> <s_epik_input>
W0NIM11bQ0BASF0xW0NIMl1bQ0BASF0oW0NIM10pW0NIMl1OKFtDSDJdMSlDKD1PKVtDQEhdKFtDSDNdKVtOSF1bQ0gyXVtDSDJdbjJbY0hdW2NIXVtjSF1uMg==

> <s_epik_cmdline>
J2VwaWtfcHl0aG9uJywgJy1waCcsICc3LjAnLCAnLXRuJywgJzgnLCAnLW1hJywgJzIwMCcsICctbWV0YWxfYmluZGluZycsICctaW1hZScsICc8aW5maWxlLm1hZT4nLCAnLW9tYWUnLCAnPG91dGZpbGUubWFlPic=

> <r_lp_tautomer_probability>
1

> <r_epik_Ionization_Penalty>
0.189706

> <r_epik_Ionization_Penalty_Charging>
0.189703

> <r_epik_Ionization_Penalty_Neutral>
2.45875e-06

> <r_epik_State_Penalty>
0.179341

> <r_epik_Charging_Adjusted_Penalty>
0.369044

> <i_epik_Tot_Q>
1

> <i_epik_Tot_abs_Q>
1

> <r_epik_Metal_State_Penalty>
0.179578

> <b_epik_Metal_Only>
0

> <s_lp_Force_Field>
OPLS_2005

> <r_lp_Energy>
26.0913

> <b_lp_Chiralities_Consistent>
1

> <s_lp_Variant>
AV-unprocessed.smi:3331-5

> <Gold.Version>
5.8.1

> <Gold.Id.Protein>
6NUR|6NUR_protein|mol2

> <Gold.PLP.Fitness>
43.9313

> <Gold.PLP.PLP>
-39.0525

> <Gold.PLP.part.hbond>
-2.0000

> <Gold.PLP.part.metal>
0.0000

> <Gold.PLP.part.buried>
-1.0124

> <Gold.PLP.part.nonpolar>
-39.8866

> <Gold.PLP.part.repulsive>
3.4417

> <Gold.PLP.ligand.clash>
0.0000

> <Gold.PLP.ligand.torsion>
0.2545

> <Gold.PLP.Chemscore.Hbond>
1.7840

> <Gold.PLP.Chemscore.CHOScore>
0.0000

> <Gold.PLP.Chemscore.Metal>
0.0000

> <Gold.Chemscore.Hbonds>
donor molecule, donor type, donor heavy atom, donor atom, acceptor molecule, acceptor atom, score
      P1  H  7989  7998       L1     9  0.80
      P1  H 10752 10764       L1    19  1.00

> <Gold.PLP.Chemscore.Internal.Correction>
0.0357

> <Gold.Rescore>
     Score         DG    S(hbond)    S(metal)    S(lipo)     H(rot)  DE(clash)    DE(int)     intcor
     20.68     -23.54       1.90        0.00     137.89       1.73       2.74       0.12       ----

> <Gold.Chemscore.Fitness>
20.6841

> <Gold.Chemscore.DG>
-23.5426

> <Gold.Chemscore.ZeroCoef>
-5.4800

> <Gold.Chemscore.Hbond>
1.9003

> <Gold.Chemscore.Metal>
0.0000

> <Gold.Chemscore.Lipo>
137.8856

> <Gold.Chemscore.Internal_Hbond>
0.0000

> <Gold.Chemscore.DEClash>
2.7369

> <Gold.Chemscore.DEInternal>
0.1216

> <Gold.Chemscore.Rot>
1.7254

> <Gold.Chemscore.Internal.Correction>
   9.000000E+99

> <Gold.Chemscore.Hbonds>
donor molecule, donor type, donor heavy atom, donor atom, acceptor molecule, acceptor atom, score
      P1  H  7989  7998       L1     9  0.78
      P1  H 10752 10764       L1    19  0.96

> <Gold.Chemscore.Hbond.Weighted>
-6.3470

> <Gold.Chemscore.Metal.Weighted>
-0.0000

> <Gold.Chemscore.Lipo.Weighted>
-16.1326

> <Gold.Chemscore.Internal_Hbond.Weighted>
0.0000

> <Gold.Chemscore.DEClash.Weighted>
2.7369

> <Gold.Chemscore.DEInternal.Weighted>
0.1216

> <Gold.Chemscore.Rot.Weighted>
4.4170

> <Gold.Chemscore.Internal.Correction.Weighted>
   9.000000E+99

> <Gold.Protein.RotatedTorsions>
[ 6907 6896 6895 6894 ] final   -6.03 input  -60.11 | X-H torsion
[ 7974 7965 7964 7962 ] final  161.74 input  175.53 | X-H torsion
[ 8008 7997 7996 7995 ] final  -62.60 input   59.86 | X-H torsion
[ 10167 10162 10161 10158 ] final  -12.03 input  -65.29 | X-H torsion
[ 10718 10713 10712 10709 ] final  -73.47 input   66.30 | X-H torsion
[ 10763 10752 10751 10750 ] final  155.24 input  -60.55 | X-H torsion
[ 11005 11000 10999 10996 ] final  -18.12 input  -57.11 | X-H torsion

> <Gold.Protein.ActiveResidues>
 VAL166  LYS551  ARG553  GLY616  TRP617  ASP618  TYR619  PRO620  LYS621  CYS622 
 ASP623  PHE694  ASN695  SER759  ASP760  ASP761  ALA762  ILE779  LEU786  VAL792 
 PHE793  MET794  SER795  GLU796  ALA797  LYS798  CYS799  TRP800  GLU811  SER814 

> <Gold.Protein.RotatedAtoms>
  151.4722  135.1046  159.9754 H   0  0  0  0  0  0  0  0  0  0  0  0  # atno 6907 bound_to 6896
  152.4812  133.8255  159.7086 H   0  0  0  0  0  0  0  0  0  0  0  0  # atno 6908 bound_to 6896
  150.8885  133.7213  159.2938 H   0  0  0  0  0  0  0  0  0  0  0  0  # atno 6909 bound_to 6896
  144.7671  139.7940  143.6311 H   0  0  0  0  0  0  0  0  0  0  0  0  # atno 7974 bound_to 7965
  154.4508  140.0992  156.6612 H   0  0  0  0  0  0  0  0  0  0  0  0  # atno 8008 bound_to 7997
  155.5290  140.3481  155.4404 H   0  0  0  0  0  0  0  0  0  0  0  0  # atno 8009 bound_to 7997
  156.0677  140.1342  156.9855 H   0  0  0  0  0  0  0  0  0  0  0  0  # atno 8010 bound_to 7997
  140.7152  143.5576  150.9231 H   0  0  0  0  0  0  0  0  0  0  0  0  # atno 10167 bound_to 10162
  156.0279  130.4395  150.2747 H   0  0  0  0  0  0  0  0  0  0  0  0  # atno 10718 bound_to 10713
  154.1651  135.2807  155.3097 H   0  0  0  0  0  0  0  0  0  0  0  0  # atno 10763 bound_to 10752
  154.6117  135.5496  153.7484 H   0  0  0  0  0  0  0  0  0  0  0  0  # atno 10764 bound_to 10752
  153.0181  135.6417  154.1792 H   0  0  0  0  0  0  0  0  0  0  0  0  # atno 10765 bound_to 10752
  140.8236  133.8049  155.9685 H   0  0  0  0  0  0  0  0  0  0  0  0  # atno 11005 bound_to 11000
  146.1787  139.4970  142.9880 LP  0  0  0  0  0  0  0  0  0  0  0  0  # atno 17320 bound_to 7965
  145.6437  141.0278  143.1798 LP  0  0  0  0  0  0  0  0  0  0  0  0  # atno 17321 bound_to 7965
  139.9301  143.6503  152.3078 LP  0  0  0  0  0  0  0  0  0  0  0  0  # atno 17342 bound_to 10162
  139.6951  144.7642  151.1370 LP  0  0  0  0  0  0  0  0  0  0  0  0  # atno 17343 bound_to 10162
  157.0850  131.0154  151.3142 LP  0  0  0  0  0  0  0  0  0  0  0  0  # atno 17370 bound_to 10713
  157.4898  130.7815  149.7496 LP  0  0  0  0  0  0  0  0  0  0  0  0  # atno 17371 bound_to 10713
  140.9072  134.2305  157.5007 LP  0  0  0  0  0  0  0  0  0  0  0  0  # atno 17394 bound_to 11000
  139.8707  134.9734  156.4807 LP  0  0  0  0  0  0  0  0  0  0  0  0  # atno 17395 bound_to 11000

$$$$
