AV-unprocessed.smi:1948|AV-procd|sdf|7876|dock7
  -GOLD-   2272010 23D 1   1.00000     0.00000
 Structure written by MMmdl.
 29 30  0  0  0  0  0  0  0  0  2 V2000
  149.0927  135.8443  159.0681 O   0  0  0  0  0  0  0  0  0  0  0  0
  148.6687  136.9836  159.2758 C   0  0  0  0  0  0  0  0  0  0  0  0
  147.7951  137.3488  160.2420 N   0  5  0  0  0  0  0  0  0  0  0  0
  147.1176  136.4110  160.9247 C   0  0  0  0  0  0  0  0  0  0  0  0
  146.3449  135.4970  160.3157 N   0  0  0  0  0  0  0  0  0  0  0  0
  145.7381  134.6171  161.2017 N   0  0  0  0  0  0  0  0  0  0  0  0
  146.0763  134.8869  162.4624 C   0  0  0  0  0  0  0  0  0  0  0  0
  147.1703  136.2364  162.6813 S   0  0  0  0  0  0  0  0  0  0  0  0
  149.0747  138.0012  158.5024 N   0  0  0  0  0  0  0  0  0  0  0  0
  150.0043  137.9122  157.3791 C   0  0  2  0  0  0  0  0  0  0  0  0
  151.1914  138.8765  157.5753 C   0  0  0  0  0  0  0  0  0  0  0  0
  152.1506  138.8423  156.3725 C   0  0  0  0  0  0  0  0  0  0  0  0
  151.4284  139.1109  155.0386 C   0  0  2  0  0  0  0  0  0  0  0  0
  151.0244  140.4643  154.9675 O   0  0  0  0  0  0  0  0  0  0  0  0
  150.2102  138.1861  154.8569 C   0  0  0  0  0  0  0  0  0  0  0  0
  149.2614  138.2262  156.0679 C   0  0  0  0  0  0  0  0  0  0  0  0
  145.6830  134.2852  163.2678 H   0  0  0  0  0  0  0  0  0  0  0  0
  148.7032  138.9160  158.7120 H   0  0  0  0  0  0  0  0  0  0  0  0
  150.3848  136.8907  157.3141 H   0  0  0  0  0  0  0  0  0  0  0  0
  150.8217  139.8927  157.7196 H   0  0  0  0  0  0  0  0  0  0  0  0
  151.7388  138.6192  158.4827 H   0  0  0  0  0  0  0  0  0  0  0  0
  152.9596  139.5591  156.5173 H   0  0  0  0  0  0  0  0  0  0  0  0
  152.6217  137.8595  156.3283 H   0  0  0  0  0  0  0  0  0  0  0  0
  152.1259  138.9457  154.2168 H   0  0  0  0  0  0  0  0  0  0  0  0
  150.6751  140.7181  155.8080 H   0  0  0  0  0  0  0  0  0  0  0  0
  149.6687  138.4478  153.9471 H   0  0  0  0  0  0  0  0  0  0  0  0
  150.5598  137.1623  154.7177 H   0  0  0  0  0  0  0  0  0  0  0  0
  148.4501  137.5127  155.9192 H   0  0  0  0  0  0  0  0  0  0  0  0
  148.7957  139.2108  156.1330 H   0  0  0  0  0  0  0  0  0  0  0  0
  1  2  2  0  0  0  0
  2  3  1  0  0  0  0
  2  9  1  0  0  0  0
  3  4  1  0  0  0  0
  4  8  1  0  0  0  0
  4  5  2  0  0  0  0
  5  6  1  0  0  0  0
  6  7  2  0  0  0  0
  7  8  1  0  0  0  0
  7 17  1  0  0  0  0
  9 10  1  0  0  0  0
  9 18  1  0  0  0  0
 10 16  1  0  0  0  0
 10 11  1  0  0  0  0
 10 19  1  0  0  0  0
 11 12  1  0  0  0  0
 11 20  1  0  0  0  0
 11 21  1  0  0  0  0
 12 13  1  0  0  0  0
 12 22  1  0  0  0  0
 12 23  1  0  0  0  0
 13 14  1  0  0  0  0
 13 15  1  0  0  0  0
 13 24  1  0  0  0  0
 14 25  1  0  0  0  0
 15 16  1  0  0  0  0
 15 26  1  0  0  0  0
 15 27  1  0  0  0  0
 16 28  1  0  0  0  0
 16 29  1  0  0  0  0
M  CHG  1   3  -1
M  END
> <s_m_source_file>
AV-unprocessed.smi

> <i_m_source_file_index>
1948

> <i_lp_mmshare_version>
43012

> <i_f3d_flags>
0

> <s_epik_input>
czFbY0hdbm5jMVtOSF1DKD1PKVtOSF1bQ0BASF0yW0NIMl1bQ0gyXVtDQEBIXShbT0hdKVtDSDJdW0NIMl0y

> <s_epik_cmdline>
J2VwaWtfcHl0aG9uJywgJy1waCcsICc3LjAnLCAnLXRuJywgJzgnLCAnLW1hJywgJzIwMCcsICctbWV0YWxfYmluZGluZycsICctaW1hZScsICc8aW5maWxlLm1hZT4nLCAnLW9tYWUnLCAnPG91dGZpbGUubWFlPic=

> <r_lp_tautomer_probability>
1

> <r_epik_Ionization_Penalty>
4.52057

> <r_epik_Ionization_Penalty_Charging>
4.4725

> <r_epik_Ionization_Penalty_Neutral>
0.048076

> <r_epik_State_Penalty>
4.47218

> <r_epik_Charging_Adjusted_Penalty>
8.94468

> <i_epik_Tot_Q>
-1

> <i_epik_Tot_abs_Q>
1

> <r_epik_Metal_State_Penalty>
0.805713

> <b_epik_Metal_Only>
1

> <s_lp_Force_Field>
OPLS_2005

> <r_lp_Energy>
8.18749

> <b_lp_Chiralities_Consistent>
1

> <s_lp_Variant>
AV-unprocessed.smi:1948-4

> <Gold.Version>
5.8.1

> <Gold.Id.Protein>
6NUR|6NUR_protein|mol2

> <Gold.PLP.Fitness>
39.7517

> <Gold.PLP.PLP>
-26.4018

> <Gold.PLP.part.hbond>
-4.0000

> <Gold.PLP.part.metal>
0.0000

> <Gold.PLP.part.buried>
-4.2280

> <Gold.PLP.part.nonpolar>
-19.3786

> <Gold.PLP.part.repulsive>
0.1771

> <Gold.PLP.ligand.clash>
0.0000

> <Gold.PLP.ligand.torsion>
0.5945

> <Gold.PLP.Chemscore.Hbond>
4.8440

> <Gold.PLP.Chemscore.CHOScore>
0.0000

> <Gold.PLP.Chemscore.Metal>
0.0000

> <Gold.Chemscore.Hbonds>
donor molecule, donor type, donor heavy atom, donor atom, acceptor molecule, acceptor atom, score
      P1  H  6896  6907       L1     1  0.81
      P1  H  6931  6943       L1     3  0.57
      P1  H  6934  6947       L1     3  1.63
      P1  H  7989  7998       L1    14  1.00

> <Gold.PLP.Chemscore.Internal.Correction>
0.0069

> <Gold.Rescore>
     Score         DG    S(hbond)    S(metal)    S(lipo)     H(rot)  DE(clash)    DE(int)     intcor
     14.82     -15.66       2.66        0.00      44.71       1.53       0.00       0.84       ----

> <Gold.Chemscore.Fitness>
14.8174

> <Gold.Chemscore.DG>
-15.6585

> <Gold.Chemscore.ZeroCoef>
-5.4800

> <Gold.Chemscore.Hbond>
2.6568

> <Gold.Chemscore.Metal>
0.0000

> <Gold.Chemscore.Lipo>
44.7111

> <Gold.Chemscore.Internal_Hbond>
0.0000

> <Gold.Chemscore.DEClash>
0.0000

> <Gold.Chemscore.DEInternal>
0.8412

> <Gold.Chemscore.Rot>
1.5337

> <Gold.Chemscore.Internal.Correction>
   9.000000E+99

> <Gold.Chemscore.Hbonds>
donor molecule, donor type, donor heavy atom, donor atom, acceptor molecule, acceptor atom, score
      P1  H  6896  6907       L1     1  0.80
      P1  H  6931  6943       L1     3  0.05
      P1  H  6934  6947       L1     3  0.45
      P1  H  7989  7998       L1    14  0.29

> <Gold.Chemscore.Hbond.Weighted>
-8.8735

> <Gold.Chemscore.Metal.Weighted>
-0.0000

> <Gold.Chemscore.Lipo.Weighted>
-5.2312

> <Gold.Chemscore.Internal_Hbond.Weighted>
0.0000

> <Gold.Chemscore.DEClash.Weighted>
0.0000

> <Gold.Chemscore.DEInternal.Weighted>
0.8412

> <Gold.Chemscore.Rot.Weighted>
3.9262

> <Gold.Chemscore.Internal.Correction.Weighted>
   9.000000E+99

> <Gold.Protein.RotatedTorsions>
[ 6907 6896 6895 6894 ] final  -76.60 input  -60.11 | X-H torsion
[ 7974 7965 7964 7962 ] final -159.94 input  175.53 | X-H torsion
[ 8008 7997 7996 7995 ] final  -54.54 input   59.86 | X-H torsion
[ 10167 10162 10161 10158 ] final  -11.80 input  -65.29 | X-H torsion
[ 10718 10713 10712 10709 ] final   -9.83 input   66.30 | X-H torsion
[ 10763 10752 10751 10750 ] final  166.64 input  -60.55 | X-H torsion
[ 11005 11000 10999 10996 ] final   32.90 input  -57.11 | X-H torsion

> <Gold.Protein.ActiveResidues>
 VAL166  LYS551  ARG553  GLY616  TRP617  ASP618  TYR619  PRO620  LYS621  CYS622 
 ASP623  PHE694  ASN695  SER759  ASP760  ASP761  ALA762  ILE779  LEU786  VAL792 
 PHE793  MET794  SER795  GLU796  ALA797  LYS798  CYS799  TRP800  GLU811  SER814 

> <Gold.Protein.RotatedAtoms>
  150.7022  134.4547  159.5352 H   0  0  0  0  0  0  0  0  0  0  0  0  # atno 6907 bound_to 6896
  152.2233  134.8389  160.0492 H   0  0  0  0  0  0  0  0  0  0  0  0  # atno 6908 bound_to 6896
  151.9232  133.3556  159.3941 H   0  0  0  0  0  0  0  0  0  0  0  0  # atno 6909 bound_to 6896
  144.7446  140.3613  143.6095 H   0  0  0  0  0  0  0  0  0  0  0  0  # atno 7974 bound_to 7965
  154.4166  140.1174  156.5333 H   0  0  0  0  0  0  0  0  0  0  0  0  # atno 8008 bound_to 7997
  155.6584  140.3496  155.4754 H   0  0  0  0  0  0  0  0  0  0  0  0  # atno 8009 bound_to 7997
  155.9734  140.1146  157.0781 H   0  0  0  0  0  0  0  0  0  0  0  0  # atno 8010 bound_to 7997
  140.7147  143.5600  150.9206 H   0  0  0  0  0  0  0  0  0  0  0  0  # atno 10167 bound_to 10162
  156.6824  130.5041  149.5967 H   0  0  0  0  0  0  0  0  0  0  0  0  # atno 10718 bound_to 10713
  154.3420  135.2754  155.2417 H   0  0  0  0  0  0  0  0  0  0  0  0  # atno 10763 bound_to 10752
  154.4684  135.5889  153.6308 H   0  0  0  0  0  0  0  0  0  0  0  0  # atno 10764 bound_to 10752
  152.9857  135.6082  154.3622 H   0  0  0  0  0  0  0  0  0  0  0  0  # atno 10765 bound_to 10752
  140.2687  134.3107  155.7834 H   0  0  0  0  0  0  0  0  0  0  0  0  # atno 11005 bound_to 11000
  145.7175  139.1701  143.2504 LP  0  0  0  0  0  0  0  0  0  0  0  0  # atno 17320 bound_to 7965
  146.1302  140.7196  142.9416 LP  0  0  0  0  0  0  0  0  0  0  0  0  # atno 17321 bound_to 7965
  139.9326  143.6476  152.3073 LP  0  0  0  0  0  0  0  0  0  0  0  0  # atno 17342 bound_to 10162
  139.6932  144.7644  151.1402 LP  0  0  0  0  0  0  0  0  0  0  0  0  # atno 17343 bound_to 10162
  156.1858  130.6528  151.1004 LP  0  0  0  0  0  0  0  0  0  0  0  0  # atno 17370 bound_to 10713
  157.7039  131.0765  150.6732 LP  0  0  0  0  0  0  0  0  0  0  0  0  # atno 17371 bound_to 10713
  141.2180  133.7453  156.9300 LP  0  0  0  0  0  0  0  0  0  0  0  0  # atno 17394 bound_to 11000
  140.1394  134.9303  157.2446 LP  0  0  0  0  0  0  0  0  0  0  0  0  # atno 17395 bound_to 11000

$$$$
