AV-unprocessed.smi:2126|AV-procd|sdf|8678|dock10
  -GOLD-   2272011433D 1   1.00000     0.00000
 Structure written by MMmdl.
 41 43  0  0  0  0  0  0  0  0  2 V2000
  150.9669  141.9303  157.9275 C   0  0  0  0  0  0  0  0  0  0  0  0
  151.5352  140.9783  157.0403 O   0  0  0  0  0  0  0  0  0  0  0  0
  150.6865  140.2808  156.2078 C   0  0  0  0  0  0  0  0  0  0  0  0
  150.9572  138.9891  155.6938 C   0  0  0  0  0  0  0  0  0  0  0  0
  150.0286  138.3493  154.8505 C   0  0  0  0  0  0  0  0  0  0  0  0
  148.8173  138.9760  154.4978 C   0  0  0  0  0  0  0  0  0  0  0  0
  147.9675  138.2761  153.6684 O   0  0  0  0  0  0  0  0  0  0  0  0
  146.5852  138.6082  153.6844 C   0  0  0  0  0  0  0  0  0  0  0  0
  145.8534  137.7244  152.6643 C   0  0  1  0  0  0  0  0  0  0  0  0
  146.4610  137.8933  151.3986 O   0  0  0  0  0  0  0  0  0  0  0  0
  145.8782  136.2333  153.0559 C   0  0  0  0  0  0  0  0  0  0  0  0
  145.1423  135.3829  152.1121 N   0  0  0  0  0  0  0  0  0  0  0  0
  144.0417  135.6579  151.3610 C   0  0  0  0  0  0  0  0  0  0  0  0
  143.7429  134.5384  150.6451 N   0  3  0  0  0  0  0  0  0  0  0  0
  144.6656  133.5335  150.9443 C   0  0  0  0  0  0  0  0  0  0  0  0
  144.7776  132.2283  150.4751 C   0  0  0  0  0  0  0  0  0  0  0  0
  145.8422  131.4597  150.9904 C   0  0  0  0  0  0  0  0  0  0  0  0
  146.7450  131.9933  151.9334 C   0  0  0  0  0  0  0  0  0  0  0  0
  146.6230  133.3184  152.4011 C   0  0  0  0  0  0  0  0  0  0  0  0
  145.5677  134.0703  151.8869 C   0  0  0  0  0  0  0  0  0  0  0  0
  148.5475  140.2686  155.0101 C   0  0  0  0  0  0  0  0  0  0  0  0
  149.4748  140.9073  155.8556 C   0  0  0  0  0  0  0  0  0  0  0  0
  151.7603  142.3982  158.5100 H   0  0  0  0  0  0  0  0  0  0  0  0
  150.2769  141.4587  158.6284 H   0  0  0  0  0  0  0  0  0  0  0  0
  150.4473  142.7212  157.3851 H   0  0  0  0  0  0  0  0  0  0  0  0
  151.8706  138.4657  155.9322 H   0  0  0  0  0  0  0  0  0  0  0  0
  150.2507  137.3635  154.4686 H   0  0  0  0  0  0  0  0  0  0  0  0
  146.1803  138.4288  154.6821 H   0  0  0  0  0  0  0  0  0  0  0  0
  146.4377  139.6621  153.4419 H   0  0  0  0  0  0  0  0  0  0  0  0
  144.8215  138.0660  152.5786 H   0  0  0  0  0  0  0  0  0  0  0  0
  145.7910  138.1212  150.7719 H   0  0  0  0  0  0  0  0  0  0  0  0
  146.9057  135.8684  153.0929 H   0  0  0  0  0  0  0  0  0  0  0  0
  145.4600  136.0807  154.0518 H   0  0  0  0  0  0  0  0  0  0  0  0
  143.5021  136.5937  151.3394 H   0  0  0  0  0  0  0  0  0  0  0  0
  144.0876  131.8170  149.7530 H   0  0  0  0  0  0  0  0  0  0  0  0
  145.9687  130.4403  150.6558 H   0  0  0  0  0  0  0  0  0  0  0  0
  147.5480  131.3738  152.3059 H   0  0  0  0  0  0  0  0  0  0  0  0
  147.3184  133.7195  153.1239 H   0  0  0  0  0  0  0  0  0  0  0  0
  147.6345  140.7926  154.7721 H   0  0  0  0  0  0  0  0  0  0  0  0
  149.2526  141.8923  156.2392 H   0  0  0  0  0  0  0  0  0  0  0  0
  142.9653  134.4685  150.0013 H   0  0  0  0  0  0  0  0  0  0  0  0
  1  2  1  0  0  0  0
  1 23  1  0  0  0  0
  1 24  1  0  0  0  0
  1 25  1  0  0  0  0
  2  3  1  0  0  0  0
  3 22  1  0  0  0  0
  3  4  2  0  0  0  0
  4  5  1  0  0  0  0
  4 26  1  0  0  0  0
  5  6  2  0  0  0  0
  5 27  1  0  0  0  0
  6  7  1  0  0  0  0
  6 21  1  0  0  0  0
  7  8  1  0  0  0  0
  8  9  1  0  0  0  0
  8 28  1  0  0  0  0
  8 29  1  0  0  0  0
  9 10  1  0  0  0  0
  9 11  1  0  0  0  0
  9 30  1  0  0  0  0
 10 31  1  0  0  0  0
 11 12  1  0  0  0  0
 11 32  1  0  0  0  0
 11 33  1  0  0  0  0
 12 20  1  0  0  0  0
 12 13  1  0  0  0  0
 13 14  2  0  0  0  0
 13 34  1  0  0  0  0
 14 15  1  0  0  0  0
 14 41  1  0  0  0  0
 15 20  2  0  0  0  0
 15 16  1  0  0  0  0
 16 17  2  0  0  0  0
 16 35  1  0  0  0  0
 17 18  1  0  0  0  0
 17 36  1  0  0  0  0
 18 19  2  0  0  0  0
 18 37  1  0  0  0  0
 19 20  1  0  0  0  0
 19 38  1  0  0  0  0
 21 22  2  0  0  0  0
 21 39  1  0  0  0  0
 22 40  1  0  0  0  0
M  CHG  1  14   1
M  END
> <s_m_source_file>
AV-unprocessed.smi

> <i_m_source_file_index>
2126

> <i_lp_mmshare_version>
43012

> <i_f3d_flags>
0

> <s_epik_input>
W0NIM11PYzFbY0hdW2NIXWMoW2NIXVtjSF0xKU9bQ0gyXVtDQEhdKFtPSF0pW0NIMl1uKFtjSF1uMiljKGMyMylbY0hdW2NIXVtjSF1bY0hdMw==

> <s_epik_cmdline>
J2VwaWtfcHl0aG9uJywgJy1waCcsICc3LjAnLCAnLXRuJywgJzgnLCAnLW1hJywgJzIwMCcsICctbWV0YWxfYmluZGluZycsICctaW1hZScsICc8aW5maWxlLm1hZT4nLCAnLW9tYWUnLCAnPG91dGZpbGUubWFlPic=

> <r_lp_tautomer_probability>
1

> <r_epik_Ionization_Penalty>
1.37822

> <r_epik_Ionization_Penalty_Charging>
1.37822

> <r_epik_Ionization_Penalty_Neutral>
2.3993e-06

> <r_epik_State_Penalty>
1.45852

> <r_epik_Charging_Adjusted_Penalty>
2.83674

> <i_epik_Tot_Q>
1

> <i_epik_Tot_abs_Q>
1

> <r_epik_Metal_State_Penalty>
5.4985

> <b_epik_Metal_Only>
0

> <s_lp_Force_Field>
OPLS_2005

> <r_lp_Energy>
22.1455

> <b_lp_Chiralities_Consistent>
1

> <s_lp_Variant>
AV-unprocessed.smi:2126-4

> <Gold.Version>
5.8.1

> <Gold.Id.Protein>
6NUR|6NUR_protein|mol2

> <Gold.PLP.Fitness>
52.6744

> <Gold.PLP.PLP>
-40.3514

> <Gold.PLP.part.hbond>
-4.0000

> <Gold.PLP.part.metal>
0.0000

> <Gold.PLP.part.buried>
-1.9370

> <Gold.PLP.part.nonpolar>
-36.9616

> <Gold.PLP.part.repulsive>
2.7825

> <Gold.PLP.ligand.clash>
0.0000

> <Gold.PLP.ligand.torsion>
1.0786

> <Gold.PLP.Chemscore.Hbond>
3.7963

> <Gold.PLP.Chemscore.CHOScore>
1.0000

> <Gold.PLP.Chemscore.Metal>
0.0000

> <Gold.Chemscore.Hbonds>
donor molecule, donor type, donor heavy atom, donor atom, acceptor molecule, acceptor atom, score
      L1  H    10    31       P1 10171  0.62
      L1  H    14    41       P1 10186  2.00
      P1  H  7954  7966       L1    10  0.29
      L1  C    13    34       P1 10171  0.97

> <Gold.PLP.Chemscore.Internal.Correction>
0.0915

> <Gold.Rescore>
     Score         DG    S(hbond)    S(metal)    S(lipo)     H(rot)  DE(clash)    DE(int)     intcor
     15.35     -17.86       2.25        0.00      98.47       2.60       1.49       1.02       ----

> <Gold.Chemscore.Fitness>
15.3522

> <Gold.Chemscore.DG>
-17.8636

> <Gold.Chemscore.ZeroCoef>
-5.4800

> <Gold.Chemscore.Hbond>
2.2544

> <Gold.Chemscore.Metal>
0.0000

> <Gold.Chemscore.Lipo>
98.4703

> <Gold.Chemscore.Internal_Hbond>
0.0000

> <Gold.Chemscore.DEClash>
1.4879

> <Gold.Chemscore.DEInternal>
1.0234

> <Gold.Chemscore.Rot>
2.6043

> <Gold.Chemscore.Internal.Correction>
   9.000000E+99

> <Gold.Chemscore.Hbonds>
donor molecule, donor type, donor heavy atom, donor atom, acceptor molecule, acceptor atom, score
      L1  H    10    31       P1 10171  0.60
      L1  H    14    41       P1 10186  0.82
      P1  H  7954  7966       L1    10  0.04

> <Gold.Chemscore.Hbond.Weighted>
-7.5296

> <Gold.Chemscore.Metal.Weighted>
-0.0000

> <Gold.Chemscore.Lipo.Weighted>
-11.5210

> <Gold.Chemscore.Internal_Hbond.Weighted>
0.0000

> <Gold.Chemscore.DEClash.Weighted>
1.4879

> <Gold.Chemscore.DEInternal.Weighted>
1.0234

> <Gold.Chemscore.Rot.Weighted>
6.6670

> <Gold.Chemscore.Internal.Correction.Weighted>
   9.000000E+99

> <Gold.Protein.RotatedTorsions>
[ 6907 6896 6895 6894 ] final   -9.41 input  -60.11 | X-H torsion
[ 7974 7965 7964 7962 ] final  -52.98 input  175.53 | X-H torsion
[ 8008 7997 7996 7995 ] final -178.04 input   59.86 | X-H torsion
[ 10167 10162 10161 10158 ] final  121.79 input  -65.29 | X-H torsion
[ 10718 10713 10712 10709 ] final  177.73 input   66.30 | X-H torsion
[ 10763 10752 10751 10750 ] final -168.81 input  -60.55 | X-H torsion
[ 11005 11000 10999 10996 ] final   -7.16 input  -57.11 | X-H torsion

> <Gold.Protein.ActiveResidues>
 VAL166  LYS551  ARG553  GLY616  TRP617  ASP618  TYR619  PRO620  LYS621  CYS622 
 ASP623  PHE694  ASN695  SER759  ASP760  ASP761  ALA762  ILE779  LEU786  VAL792 
 PHE793  MET794  SER795  GLU796  ALA797  LYS798  CYS799  TRP800  GLU811  SER814 

> <Gold.Protein.RotatedAtoms>
  151.4182  135.0994  159.9605 H   0  0  0  0  0  0  0  0  0  0  0  0  # atno 6907 bound_to 6896
  152.4997  133.8732  159.7319 H   0  0  0  0  0  0  0  0  0  0  0  0  # atno 6908 bound_to 6896
  150.9242  133.6786  159.2853 H   0  0  0  0  0  0  0  0  0  0  0  0  # atno 6909 bound_to 6896
  145.9020  140.7986  142.9738 H   0  0  0  0  0  0  0  0  0  0  0  0  # atno 7974 bound_to 7965
  156.0141  140.1247  157.0424 H   0  0  0  0  0  0  0  0  0  0  0  0  # atno 8008 bound_to 7997
  154.4286  140.1082  156.5941 H   0  0  0  0  0  0  0  0  0  0  0  0  # atno 8009 bound_to 7997
  155.6038  140.3471  155.4604 H   0  0  0  0  0  0  0  0  0  0  0  0  # atno 8010 bound_to 7997
  139.5898  144.7021  151.3319 H   0  0  0  0  0  0  0  0  0  0  0  0  # atno 10167 bound_to 10162
  156.9010  130.9878  151.3035 H   0  0  0  0  0  0  0  0  0  0  0  0  # atno 10718 bound_to 10713
  154.6589  135.2922  154.9892 H   0  0  0  0  0  0  0  0  0  0  0  0  # atno 10763 bound_to 10752
  154.0958  135.6584  153.4864 H   0  0  0  0  0  0  0  0  0  0  0  0  # atno 10764 bound_to 10752
  153.0418  135.5231  154.7531 H   0  0  0  0  0  0  0  0  0  0  0  0  # atno 10765 bound_to 10752
  140.7098  133.8918  155.8743 H   0  0  0  0  0  0  0  0  0  0  0  0  # atno 11005 bound_to 11000
  144.6736  140.1691  143.7416 LP  0  0  0  0  0  0  0  0  0  0  0  0  # atno 17320 bound_to 7965
  145.8779  139.2307  143.1622 LP  0  0  0  0  0  0  0  0  0  0  0  0  # atno 17321 bound_to 7965
  140.7163  143.7257  150.7662 LP  0  0  0  0  0  0  0  0  0  0  0  0  # atno 17342 bound_to 10162
  140.0810  143.4968  152.2530 LP  0  0  0  0  0  0  0  0  0  0  0  0  # atno 17343 bound_to 10162
  157.6026  130.8524  149.8826 LP  0  0  0  0  0  0  0  0  0  0  0  0  # atno 17370 bound_to 10713
  156.0582  130.3704  150.1042 LP  0  0  0  0  0  0  0  0  0  0  0  0  # atno 17371 bound_to 10713
  141.0094  134.1041  157.4237 LP  0  0  0  0  0  0  0  0  0  0  0  0  # atno 17394 bound_to 11000
  139.8874  135.0090  156.6561 LP  0  0  0  0  0  0  0  0  0  0  0  0  # atno 17395 bound_to 11000

$$$$
