#       Name:                AV-unprocessed.smi:249
#       Creating user name   scv26
#       Creation time:       Thu Mar 26 21:03:11 2020


#       File generated by GOLD software.
#

@<TRIPOS>MOLECULE
AV-unprocessed.smi:249
    72    75     1
SMALL
NO_CHARGES


@<TRIPOS>ATOM
      1 ****        -5.7532  -0.7486   4.9917 C.3            1 S1                 0.0000
      2 ****        -4.2760  -0.8593   4.5793 C.3            1 S1                 0.0000
      3 ****        -4.0684  -0.9299   3.1034 N.4            1 S1                 1.0000
      4 ****        -4.5579   0.2990   2.4135 C.3            1 S1                 0.0000
      5 ****        -4.4237   0.2011   0.8855 C.3            1 S1                 0.0000
      6 ****        -2.9664  -0.0468   0.4615 C.3            1 S1                 0.0000
      7 ****        -2.0956   1.1075   0.7393 N.3            1 S1                 0.0000
      8 ****        -2.4769   2.3888   0.1537 C.3            1 S1                 0.0000
      9 ****        -0.7733   0.8865   0.5659 C.ar           1 S1                 0.0000
     10 ****         0.0265   1.0108   1.6534 N.ar           1 S1                 0.0000
     11 ****         1.3404   0.7906   1.5427 C.ar           1 S1                 0.0000
     12 ****         2.0416   0.4464   0.4597 N.ar           1 S1                 0.0000
     13 ****         1.2375   0.3293  -0.6361 C.ar           1 S1                 0.0000
     14 ****        -0.1701   0.5314  -0.6730 C.ar           1 S1                 0.0000
     15 ****        -0.6475   0.3247  -1.9615 N.2            1 S1                 0.0000
     16 ****         0.4187   0.0157  -2.6484 C.2            1 S1                 0.0000
     17 ****         1.5937  -0.0018  -1.9309 N.pl3          1 S1                 0.0000
     18 ****         2.9186  -0.3111  -2.4379 C.3            1 S1                 0.0000
     19 ****         3.8052   0.9503  -2.6074 C.3            1 S1                 0.0000
     20 ****         3.1594   2.0338  -3.5024 C.3            1 S1                 0.0000
     21 ****         2.8859   1.5529  -4.8025 O.3            1 S1                 0.0000
     22 ****         5.2764   0.6531  -3.0042 C.3            1 S1                 0.0000
     23 ****         6.0901  -0.1173  -1.9621 C.3            1 S1                 0.0000
     24 ****         6.7800  -1.2229  -2.7624 C.3            1 S1                 0.0000
     25 ****         6.7671  -0.7450  -4.0973 O.3            1 S1                 0.0000
     26 ****         5.4992  -0.1435  -4.2974 C.3            1 S1                 0.0000
     27 ****        -2.5219  -1.3441   1.1710 C.3            1 S1                 0.0000
     28 ****        -2.6603  -1.2642   2.7096 C.3            1 S1                 0.0000
     29 ****        -2.1571  -2.5898   3.3169 C.3            1 S1                 0.0000
     30 ****        -5.8561  -0.8700   6.0704 H              1 S1                 0.0000
     31 ****        -6.3573  -1.5214   4.5154 H              1 S1                 0.0000
     32 ****        -6.1812   0.2223   4.7448 H              1 S1                 0.0000
     33 ****        -3.7032  -0.0295   4.9958 H              1 S1                 0.0000
     34 ****        -3.9034  -1.7641   5.0543 H              1 S1                 0.0000
     35 ****        -5.6098   0.4689   2.6364 H              1 S1                 0.0000
     36 ****        -4.0140   1.1682   2.7863 H              1 S1                 0.0000
     37 ****        -5.0473  -0.6190   0.5263 H              1 S1                 0.0000
     38 ****        -4.8260   1.0971   0.4129 H              1 S1                 0.0000
     39 ****        -2.9526  -0.2176  -0.6154 H              1 S1                 0.0000
     40 ****        -1.6566   3.1087   0.1723 H              1 S1                 0.0000
     41 ****        -3.3032   2.8272   0.7132 H              1 S1                 0.0000
     42 ****        -2.7933   2.2618  -0.8822 H              1 S1                 0.0000
     43 ****         1.9120   0.9063   2.4519 H              1 S1                 0.0000
     44 ****         0.3788  -0.2043  -3.7055 H              1 S1                 0.0000
     45 ****         3.3761  -1.0247  -1.7533 H              1 S1                 0.0000
     46 ****         2.7989  -0.8331  -3.3867 H              1 S1                 0.0000
     47 ****         3.8704   1.4083  -1.6193 H              1 S1                 0.0000
     48 ****         2.2271   2.3908  -3.0643 H              1 S1                 0.0000
     49 ****         3.8124   2.9035  -3.5800 H              1 S1                 0.0000
     50 ****         2.4996   2.2528  -5.3067 H              1 S1                 0.0000
     51 ****         5.7838   1.6104  -3.1336 H              1 S1                 0.0000
     52 ****         6.8304   0.5433  -1.5090 H              1 S1                 0.0000
     53 ****         5.4918  -0.5317  -1.1510 H              1 S1                 0.0000
     54 ****         7.7937  -1.4252  -2.4161 H              1 S1                 0.0000
     55 ****         6.2088  -2.1510  -2.7075 H              1 S1                 0.0000
     56 ****         4.7583  -0.9301  -4.4381 H              1 S1                 0.0000
     57 ****         5.4972   0.4886  -5.1856 H              1 S1                 0.0000
     58 ****        -3.1325  -2.1706   0.8040 H              1 S1                 0.0000
     59 ****        -1.4998  -1.6054   0.8945 H              1 S1                 0.0000
     60 ****        -2.0133  -0.4654   3.0753 H              1 S1                 0.0000
     61 ****        -1.1902  -2.8668   2.8952 H              1 S1                 0.0000
     62 ****        -2.8488  -3.4088   3.1168 H              1 S1                 0.0000
     63 ****        -2.0040  -2.5241   4.3934 H              1 S1                 0.0000
     64 ****        -4.6410  -1.6928   2.7710 H              1 S1                 0.0000
     65 ****        -2.2669   1.2024   1.7199 LP             1 S1                 0.0000
     66 ****        -0.3657   1.2668   2.5369 LP             1 S1                 0.0000
     67 ****         3.0299   0.2939   0.4528 LP             1 S1                 0.0000
     68 ****        -1.5902   0.3962  -2.2874 LP             1 S1                 0.0000
     69 ****         2.2491   0.7836  -4.7504 LP             1 S1                 0.0000
     70 ****         3.7355   1.2535  -5.2369 LP             1 S1                 0.0000
     71 ****         6.8946  -1.5031  -4.7369 LP             1 S1                 0.0000
     72 ****         7.4940  -0.0711  -4.2300 LP             1 S1                 0.0000
@<TRIPOS>BOND
    1    1    2 1     
    2    1   30 1     
    3    1   31 1     
    4    1   32 1     
    5    2    3 1     
    6    2   33 1     
    7    2   34 1     
    8    3   28 1     
    9    3    4 1     
   10    3   64 1     
   11    4    5 1     
   12    4   35 1     
   13    4   36 1     
   14    5    6 1     
   15    5   37 1     
   16    5   38 1     
   17    6    7 1     
   18    6   27 1     
   19    6   39 1     
   20    7    8 1     
   21    7    9 1     
   22    8   40 1     
   23    8   41 1     
   24    8   42 1     
   25    9   14 ar    
   26    9   10 ar    
   27   10   11 ar    
   28   11   12 ar    
   29   11   43 1     
   30   12   13 ar    
   31   13   17 1     
   32   13   14 ar    
   33   14   15 1     
   34   15   16 2     
   35   16   17 1     
   36   16   44 1     
   37   17   18 1     
   38   18   19 1     
   39   18   45 1     
   40   18   46 1     
   41   19   20 1     
   42   19   22 1     
   43   19   47 1     
   44   20   21 1     
   45   20   48 1     
   46   20   49 1     
   47   21   50 1     
   48   22   26 1     
   49   22   23 1     
   50   22   51 1     
   51   23   24 1     
   52   23   52 1     
   53   23   53 1     
   54   24   25 1     
   55   24   54 1     
   56   24   55 1     
   57   25   26 1     
   58   26   56 1     
   59   26   57 1     
   60   27   28 1     
   61   27   58 1     
   62   27   59 1     
   63   28   29 1     
   64   28   60 1     
   65   29   61 1     
   66   29   62 1     
   67   29   63 1     
   68    7   65 1     
   69   10   66 1     
   70   12   67 1     
   71   15   68 1     
   72   21   69 1     
   73   21   70 1     
   74   25   71 1     
   75   25   72 1     
@<TRIPOS>SUBSTRUCTURE
      1 S1             1
@<TRIPOS>SET
LONE_PAIRS      STATIC     ATOMS    <user>   **** ""
8 65 66 67 68 69 70 71 72
DONOR_HYDROGENS      STATIC     ATOMS    <user>   **** ""
2 64 50
ATOM$BLUE        STATIC     ATOMS    COLORGROUP SYSTEM
8 65 66 67 68 69 70 71 72
ATOM$RED        STATIC     ATOMS    COLORGROUP SYSTEM
2 64 50
