AV-unprocessed.smi:438|AV-procd|sdf|2576|dock10
  -GOLD-   2262022563D 1   1.00000     0.00000
 Structure written by MMmdl.
 48 49  0  0  0  0  0  0  0  0  1 V2000
  147.9476  133.3830  158.5209 C   0  0  0  0  0  0  0  0  0  0  0  0
  148.2497  134.7596  159.0835 C   0  0  0  0  0  0  0  0  0  0  0  0
  149.3326  135.3814  158.5675 N   0  0  0  0  0  0  0  0  0  0  0  0
  149.6166  136.5885  159.0547 C   0  0  0  0  0  0  0  0  0  0  0  0
  151.0637  137.3697  158.3668 S   0  0  0  0  0  0  0  0  0  0  0  0
  150.6025  139.1373  158.3951 C   0  0  0  0  0  0  0  0  0  0  0  0
  151.7528  140.1347  158.2037 C   0  0  0  0  0  0  0  0  0  0  0  0
  152.6219  139.8975  157.3659 O   0  0  0  0  0  0  0  0  0  0  0  0
  151.7627  141.2325  158.9764 N   0  0  0  0  0  0  0  0  0  0  0  0
  152.7682  142.2946  158.9626 C   0  0  1  0  0  0  0  0  0  0  0  0
  152.1936  143.6163  158.4032 C   0  0  0  0  0  0  0  0  0  0  0  0
  151.1608  144.2475  159.3506 C   0  0  0  0  0  0  0  0  0  0  0  0
  151.7447  144.4519  160.7561 C   0  0  0  0  0  0  0  0  0  0  0  0
  152.3065  143.1399  161.3265 C   0  0  0  0  0  0  0  0  0  0  0  0
  153.3519  142.5100  160.3814 C   0  0  1  0  0  0  0  0  0  0  0  0
  153.9533  141.2271  160.9813 C   0  0  0  0  0  0  0  0  0  0  0  0
  148.9439  137.2609  159.9901 N   0  0  0  0  0  0  0  0  0  0  0  0
  147.8604  136.6531  160.5174 C   0  0  0  0  0  0  0  0  0  0  0  0
  147.1579  137.3218  161.4771 O   0  0  0  0  0  0  0  0  0  0  0  0
  147.4566  135.3623  160.0937 C   0  0  0  0  0  0  0  0  0  0  0  0
  146.2376  134.6742  160.6934 C   0  0  0  0  0  0  0  0  0  0  0  0
  146.3880  134.4472  162.2034 C   0  0  0  0  0  0  0  0  0  0  0  0
  145.2283  133.8240  162.7095 O   0  0  0  0  0  0  0  0  0  0  0  0
  146.9141  133.3264  158.1791 H   0  0  0  0  0  0  0  0  0  0  0  0
  148.1027  132.6200  159.2836 H   0  0  0  0  0  0  0  0  0  0  0  0
  148.5936  133.1479  157.6741 H   0  0  0  0  0  0  0  0  0  0  0  0
  149.8772  139.3051  157.5989 H   0  0  0  0  0  0  0  0  0  0  0  0
  150.0866  139.3581  159.3300 H   0  0  0  0  0  0  0  0  0  0  0  0
  151.0078  141.3411  159.6385 H   0  0  0  0  0  0  0  0  0  0  0  0
  153.5799  141.9712  158.3083 H   0  0  0  0  0  0  0  0  0  0  0  0
  153.0108  144.3220  158.2497 H   0  0  0  0  0  0  0  0  0  0  0  0
  151.7477  143.4599  157.4205 H   0  0  0  0  0  0  0  0  0  0  0  0
  150.8184  145.2008  158.9478 H   0  0  0  0  0  0  0  0  0  0  0  0
  150.2826  143.6068  159.4074 H   0  0  0  0  0  0  0  0  0  0  0  0
  152.5370  145.2004  160.7160 H   0  0  0  0  0  0  0  0  0  0  0  0
  150.9787  144.8489  161.4224 H   0  0  0  0  0  0  0  0  0  0  0  0
  152.7551  143.3327  162.3016 H   0  0  0  0  0  0  0  0  0  0  0  0
  151.4889  142.4390  161.5006 H   0  0  0  0  0  0  0  0  0  0  0  0
  154.1714  143.2241  160.2856 H   0  0  0  0  0  0  0  0  0  0  0  0
  153.1908  140.4704  161.1676 H   0  0  0  0  0  0  0  0  0  0  0  0
  154.4464  141.4356  161.9310 H   0  0  0  0  0  0  0  0  0  0  0  0
  154.6979  140.7938  160.3130 H   0  0  0  0  0  0  0  0  0  0  0  0
  146.3223  136.9213  161.6611 H   0  0  0  0  0  0  0  0  0  0  0  0
  145.3404  135.2586  160.4895 H   0  0  0  0  0  0  0  0  0  0  0  0
  146.0804  133.7201  160.1885 H   0  0  0  0  0  0  0  0  0  0  0  0
  147.2514  133.8157  162.4150 H   0  0  0  0  0  0  0  0  0  0  0  0
  146.5389  135.3928  162.7248 H   0  0  0  0  0  0  0  0  0  0  0  0
  144.5640  134.4839  162.8376 H   0  0  0  0  0  0  0  0  0  0  0  0
  1  2  1  0  0  0  0
  1 24  1  0  0  0  0
  1 25  1  0  0  0  0
  1 26  1  0  0  0  0
  2 20  1  0  0  0  0
  2  3  2  0  0  0  0
  3  4  1  0  0  0  0
  4  5  1  0  0  0  0
  4 17  2  0  0  0  0
  5  6  1  0  0  0  0
  6  7  1  0  0  0  0
  6 27  1  0  0  0  0
  6 28  1  0  0  0  0
  7  8  2  0  0  0  0
  7  9  1  0  0  0  0
  9 10  1  0  0  0  0
  9 29  1  0  0  0  0
 10 15  1  0  0  0  0
 10 11  1  0  0  0  0
 10 30  1  0  0  0  0
 11 12  1  0  0  0  0
 11 31  1  0  0  0  0
 11 32  1  0  0  0  0
 12 13  1  0  0  0  0
 12 33  1  0  0  0  0
 12 34  1  0  0  0  0
 13 14  1  0  0  0  0
 13 35  1  0  0  0  0
 13 36  1  0  0  0  0
 14 15  1  0  0  0  0
 14 37  1  0  0  0  0
 14 38  1  0  0  0  0
 15 16  1  0  0  0  0
 15 39  1  0  0  0  0
 16 40  1  0  0  0  0
 16 41  1  0  0  0  0
 16 42  1  0  0  0  0
 17 18  1  0  0  0  0
 18 19  1  0  0  0  0
 18 20  2  0  0  0  0
 19 43  1  0  0  0  0
 20 21  1  0  0  0  0
 21 22  1  0  0  0  0
 21 44  1  0  0  0  0
 21 45  1  0  0  0  0
 22 23  1  0  0  0  0
 22 46  1  0  0  0  0
 22 47  1  0  0  0  0
 23 48  1  0  0  0  0
M  END
> <s_m_source_file>
AV-unprocessed.smi

> <i_m_source_file_index>
438

> <i_lp_mmshare_version>
43012

> <i_f3d_flags>
0

> <s_epik_input>
W09IXVtDSDJdW0NIMl1jMWMoW09IXSluYyhuYzFbQ0gzXSlTW0NIMl1DKD1PKVtOSF1bQ0BASF0yW0NIMl1bQ0gyXVtDSDJdW0NIMl1bQ0BIXTJbQ0gzXQ==

> <s_epik_cmdline>
J2VwaWtfcHl0aG9uJywgJy1waCcsICc3LjAnLCAnLXRuJywgJzgnLCAnLW1hJywgJzIwMCcsICctbWV0YWxfYmluZGluZycsICctaW1hZScsICc8aW5maWxlLm1hZT4nLCAnLW9tYWUnLCAnPG91dGZpbGUubWFlPic=

> <r_lp_tautomer_probability>
0.0660145

> <r_epik_Ionization_Penalty>
2.91405

> <r_epik_Ionization_Penalty_Charging>
0

> <r_epik_Ionization_Penalty_Neutral>
2.91405

> <r_epik_State_Penalty>
2.44767

> <r_epik_Charging_Adjusted_Penalty>
2.44767

> <i_epik_Tot_Q>
0

> <i_epik_Tot_abs_Q>
0

> <r_epik_Metal_State_Penalty>
3.04288

> <b_epik_Metal_Only>
0

> <s_lp_Force_Field>
OPLS_2005

> <r_lp_Energy>
-3.37475

> <b_lp_Chiralities_Consistent>
1

> <s_lp_Variant>
AV-unprocessed.smi:438-14

> <Gold.Version>
5.8.1

> <Gold.Id.Protein>
6NUR|6NUR_protein|mol2

> <Gold.PLP.Fitness>
55.6360

> <Gold.PLP.PLP>
-48.3187

> <Gold.PLP.part.hbond>
-6.2214

> <Gold.PLP.part.metal>
0.0000

> <Gold.PLP.part.buried>
-5.2779

> <Gold.PLP.part.nonpolar>
-37.6397

> <Gold.PLP.part.repulsive>
0.1415

> <Gold.PLP.ligand.clash>
0.0000

> <Gold.PLP.ligand.torsion>
0.7281

> <Gold.PLP.Chemscore.Hbond>
2.8960

> <Gold.PLP.Chemscore.CHOScore>
0.0000

> <Gold.PLP.Chemscore.Metal>
0.0000

> <Gold.Chemscore.Hbonds>
donor molecule, donor type, donor heavy atom, donor atom, acceptor molecule, acceptor atom, score
      P1  H  6896  6909       L1     3  0.85
      P1  H  6931  6943       L1    19  0.15
      P1  H  6934  6947       L1    19  0.99
      P1  H  7997  8008       L1     8  1.00

> <Gold.PLP.Chemscore.Internal.Correction>
0.0855

> <Gold.Rescore>
     Score         DG    S(hbond)    S(metal)    S(lipo)     H(rot)  DE(clash)    DE(int)     intcor
     16.52     -17.19       2.26        0.00     110.74       3.44       0.04       0.63       ----

> <Gold.Chemscore.Fitness>
16.5213

> <Gold.Chemscore.DG>
-17.1900

> <Gold.Chemscore.ZeroCoef>
-5.4800

> <Gold.Chemscore.Hbond>
2.2605

> <Gold.Chemscore.Metal>
0.0000

> <Gold.Chemscore.Lipo>
110.7353

> <Gold.Chemscore.Internal_Hbond>
0.0000

> <Gold.Chemscore.DEClash>
0.0433

> <Gold.Chemscore.DEInternal>
0.6253

> <Gold.Chemscore.Rot>
3.4359

> <Gold.Chemscore.Internal.Correction>
   9.000000E+99

> <Gold.Chemscore.Hbonds>
donor molecule, donor type, donor heavy atom, donor atom, acceptor molecule, acceptor atom, score
      P1  H  6896  6909       L1     3  0.04
      P1  H  6934  6947       L1    19  0.45
      P1  H  7997  8008       L1     8  0.99

> <Gold.Chemscore.Hbond.Weighted>
-7.5500

> <Gold.Chemscore.Metal.Weighted>
-0.0000

> <Gold.Chemscore.Lipo.Weighted>
-12.9560

> <Gold.Chemscore.Internal_Hbond.Weighted>
0.0000

> <Gold.Chemscore.DEClash.Weighted>
0.0433

> <Gold.Chemscore.DEInternal.Weighted>
0.6253

> <Gold.Chemscore.Rot.Weighted>
8.7960

> <Gold.Chemscore.Internal.Correction.Weighted>
   9.000000E+99

> <Gold.Protein.RotatedTorsions>
[ 6907 6896 6895 6894 ] final   31.39 input  -60.11 | X-H torsion
[ 7974 7965 7964 7962 ] final -179.48 input  175.53 | X-H torsion
[ 8008 7997 7996 7995 ] final  -62.06 input   59.86 | X-H torsion
[ 10167 10162 10161 10158 ] final -134.55 input  -65.29 | X-H torsion
[ 10718 10713 10712 10709 ] final -138.07 input   66.30 | X-H torsion
[ 10763 10752 10751 10750 ] final  -35.84 input  -60.55 | X-H torsion
[ 11005 11000 10999 10996 ] final  100.57 input  -57.11 | X-H torsion

> <Gold.Protein.ActiveResidues>
 VAL166  LYS551  ARG553  GLY616  TRP617  ASP618  TYR619  PRO620  LYS621  CYS622 
 ASP623  PHE694  ASN695  SER759  ASP760  ASP761  ALA762  ILE779  LEU786  VAL792 
 PHE793  MET794  SER795  GLU796  ALA797  LYS798  CYS799  TRP800  GLU811  SER814 

> <Gold.Protein.RotatedAtoms>
  152.0596  134.9602  160.0574 H   0  0  0  0  0  0  0  0  0  0  0  0  # atno 6907 bound_to 6896
  152.0971  133.4225  159.4578 H   0  0  0  0  0  0  0  0  0  0  0  0  # atno 6908 bound_to 6896
  150.6838  134.2723  159.4636 H   0  0  0  0  0  0  0  0  0  0  0  0  # atno 6909 bound_to 6896
  144.7137  140.0711  143.6429 H   0  0  0  0  0  0  0  0  0  0  0  0  # atno 7974 bound_to 7965
  154.4480  140.1004  156.6528 H   0  0  0  0  0  0  0  0  0  0  0  0  # atno 8008 bound_to 7997
  155.5379  140.3483  155.4422 H   0  0  0  0  0  0  0  0  0  0  0  0  # atno 8009 bound_to 7997
  156.0618  140.1328  156.9921 H   0  0  0  0  0  0  0  0  0  0  0  0  # atno 8010 bound_to 7997
  139.8868  143.6771  152.2618 H   0  0  0  0  0  0  0  0  0  0  0  0  # atno 10167 bound_to 10162
  156.2952  130.7398  151.1434 H   0  0  0  0  0  0  0  0  0  0  0  0  # atno 10718 bound_to 10713
  153.8698  135.6832  153.4775 H   0  0  0  0  0  0  0  0  0  0  0  0  # atno 10763 bound_to 10752
  153.1294  135.4705  154.9322 H   0  0  0  0  0  0  0  0  0  0  0  0  # atno 10764 bound_to 10752
  154.7719  135.3241  154.8122 H   0  0  0  0  0  0  0  0  0  0  0  0  # atno 10765 bound_to 10752
  139.8771  134.9146  156.4777 H   0  0  0  0  0  0  0  0  0  0  0  0  # atno 11005 bound_to 11000
  145.9782  139.2921  143.1057 LP  0  0  0  0  0  0  0  0  0  0  0  0  # atno 17320 bound_to 7965
  145.9040  140.9224  143.0488 LP  0  0  0  0  0  0  0  0  0  0  0  0  # atno 17321 bound_to 7965
  139.7145  144.7614  151.1056 LP  0  0  0  0  0  0  0  0  0  0  0  0  # atno 17342 bound_to 10162
  140.7734  143.5287  150.9449 LP  0  0  0  0  0  0  0  0  0  0  0  0  # atno 17343 bound_to 10162
  157.7353  131.0573  150.5475 LP  0  0  0  0  0  0  0  0  0  0  0  0  # atno 17370 bound_to 10713
  156.5596  130.4252  149.6069 LP  0  0  0  0  0  0  0  0  0  0  0  0  # atno 17371 bound_to 10713
  140.8750  133.7960  155.9405 LP  0  0  0  0  0  0  0  0  0  0  0  0  # atno 17394 bound_to 11000
  140.8913  134.2491  157.5093 LP  0  0  0  0  0  0  0  0  0  0  0  0  # atno 17395 bound_to 11000

$$$$
