AV-unprocessed.smi:255|AV-procd|sdf|1953|dock7
  -GOLD-   2262021 93D 1   1.00000     0.00000
 Structure written by MMmdl.
 44 47  0  0  0  0  0  0  0  0  1 V2000
  144.6209  133.2609  148.9422 O   0  0  0  0  0  0  0  0  0  0  0  0
  144.3469  133.7015  150.2554 C   0  0  0  0  0  0  0  0  0  0  0  0
  145.4796  133.2839  151.2123 C   0  0  2  0  0  0  0  0  0  0  0  0
  145.6855  131.7704  151.2758 C   0  0  0  0  0  0  0  0  0  0  0  0
  146.4723  131.6208  152.5726 C   0  0  2  0  0  0  0  0  0  0  0  0
  146.3676  130.3999  153.0965 F   0  0  0  0  0  0  0  0  0  0  0  0
  145.8839  132.7048  153.4809 C   0  0  0  0  0  0  0  0  0  0  0  0
  145.2160  133.6602  152.5996 N   0  0  0  0  0  0  0  0  0  0  0  0
  145.4251  134.9628  152.8907 C   0  0  0  0  0  0  0  0  0  0  0  0
  144.5880  135.9158  152.4025 N   0  0  0  0  0  0  0  0  0  0  0  0
  144.7914  137.2006  152.7096 C   0  0  0  0  0  0  0  0  0  0  0  0
  145.7493  137.7362  153.4703 N   0  0  0  0  0  0  0  0  0  0  0  0
  146.5892  136.7787  153.9595 C   0  0  0  0  0  0  0  0  0  0  0  0
  146.4959  135.3793  153.7229 C   0  0  0  0  0  0  0  0  0  0  0  0
  147.5124  134.7110  154.3919 N   0  0  0  0  0  0  0  0  0  0  0  0
  148.1756  135.6645  154.9879 C   0  0  0  0  0  0  0  0  0  0  0  0
  147.6969  136.9385  154.7743 N   0  0  0  0  0  0  0  0  0  0  0  0
  148.2421  138.1756  155.3134 C   0  0  0  0  0  0  0  0  0  0  0  0
  149.3289  138.8186  154.4175 C   0  0  2  0  0  0  0  0  0  0  0  0
  148.8206  138.9440  153.1014 O   0  0  0  0  0  0  0  0  0  0  0  0
  150.6153  137.9909  154.3763 C   0  0  0  0  0  0  0  0  0  0  0  0
  151.5964  138.8156  155.2004 C   0  0  0  0  0  0  0  0  0  0  0  0
  151.2242  140.1441  154.8809 O   0  0  0  0  0  0  0  0  0  0  0  0
  149.8055  140.1992  154.9141 C   0  0  0  0  0  0  0  0  0  0  0  0
  146.4194  133.7297  150.8801 H   0  0  0  0  0  0  0  0  0  0  0  0
  147.5307  131.8148  152.3936 H   0  0  0  0  0  0  0  0  0  0  0  0
  145.2113  133.8767  148.5359 H   0  0  0  0  0  0  0  0  0  0  0  0
  144.1817  134.7795  150.2712 H   0  0  0  0  0  0  0  0  0  0  0  0
  143.4115  133.2304  150.5586 H   0  0  0  0  0  0  0  0  0  0  0  0
  144.7250  131.2583  151.3564 H   0  0  0  0  0  0  0  0  0  0  0  0
  146.2138  131.3736  150.4083 H   0  0  0  0  0  0  0  0  0  0  0  0
  145.1264  132.2770  154.1384 H   0  0  0  0  0  0  0  0  0  0  0  0
  146.6505  133.1533  154.1146 H   0  0  0  0  0  0  0  0  0  0  0  0
  144.0853  137.8997  152.2862 H   0  0  0  0  0  0  0  0  0  0  0  0
  149.0424  135.4641  155.6009 H   0  0  0  0  0  0  0  0  0  0  0  0
  147.4194  138.8762  155.4621 H   0  0  0  0  0  0  0  0  0  0  0  0
  148.6451  137.9660  156.3053 H   0  0  0  0  0  0  0  0  0  0  0  0
  148.7153  138.0777  152.7388 H   0  0  0  0  0  0  0  0  0  0  0  0
  150.4951  136.9780  154.7628 H   0  0  0  0  0  0  0  0  0  0  0  0
  150.9956  137.9080  153.3566 H   0  0  0  0  0  0  0  0  0  0  0  0
  151.4593  138.6387  156.2686 H   0  0  0  0  0  0  0  0  0  0  0  0
  152.6370  138.6145  154.9453 H   0  0  0  0  0  0  0  0  0  0  0  0
  149.4250  141.0329  154.3225 H   0  0  0  0  0  0  0  0  0  0  0  0
  149.5110  140.3701  155.9495 H   0  0  0  0  0  0  0  0  0  0  0  0
  1  2  1  0  0  0  0
  1 27  1  0  0  0  0
  2  3  1  0  0  0  0
  2 28  1  0  0  0  0
  2 29  1  0  0  0  0
  3 25  1  0  0  0  0
  3  8  1  0  0  0  0
  3  4  1  0  0  0  0
  4  5  1  0  0  0  0
  4 30  1  0  0  0  0
  4 31  1  0  0  0  0
  5 26  1  0  0  0  0
  5  6  1  0  0  0  0
  5  7  1  0  0  0  0
  7  8  1  0  0  0  0
  7 32  1  0  0  0  0
  7 33  1  0  0  0  0
  8  9  1  0  0  0  0
  9 14  1  0  0  0  0
  9 10  2  0  0  0  0
 10 11  1  0  0  0  0
 11 12  2  0  0  0  0
 11 34  1  0  0  0  0
 12 13  1  0  0  0  0
 13 17  1  0  0  0  0
 13 14  2  0  0  0  0
 14 15  1  0  0  0  0
 15 16  2  0  0  0  0
 16 17  1  0  0  0  0
 16 35  1  0  0  0  0
 17 18  1  0  0  0  0
 18 19  1  0  0  0  0
 18 36  1  0  0  0  0
 18 37  1  0  0  0  0
 19 24  1  0  0  0  0
 19 20  1  0  0  0  0
 19 21  1  0  0  0  0
 20 38  1  0  0  0  0
 21 22  1  0  0  0  0
 21 39  1  0  0  0  0
 21 40  1  0  0  0  0
 22 23  1  0  0  0  0
 22 41  1  0  0  0  0
 22 42  1  0  0  0  0
 23 24  1  0  0  0  0
 24 43  1  0  0  0  0
 24 44  1  0  0  0  0
M  END
> <s_m_source_file>
AV-unprocessed.smi

> <i_m_source_file_index>
255

> <i_lp_mmshare_version>
43012

> <i_f3d_flags>
0

> <s_epik_input>
W09IXVtDSDJdW0NAQEhdMVtDSDJdW0NASF0oRilbQ0gyXU4xYyhuW2NIXW4yKWMoYzIzKW5bY0hdbjNbQ0gyXVtDQEBdNChbT0hdKVtDSDJdW0NIMl1PW0NIMl00

> <s_epik_cmdline>
J2VwaWtfcHl0aG9uJywgJy1waCcsICc3LjAnLCAnLXRuJywgJzgnLCAnLW1hJywgJzIwMCcsICctbWV0YWxfYmluZGluZycsICctaW1hZScsICc8aW5maWxlLm1hZT4nLCAnLW9tYWUnLCAnPG91dGZpbGUubWFlPic=

> <r_lp_tautomer_probability>
1

> <r_epik_Ionization_Penalty>
0.0058098

> <r_epik_Ionization_Penalty_Charging>
0

> <r_epik_Ionization_Penalty_Neutral>
0.0058098

> <r_epik_State_Penalty>
0.00411166

> <r_epik_Charging_Adjusted_Penalty>
0.00411166

> <i_epik_Tot_Q>
0

> <i_epik_Tot_abs_Q>
0

> <r_epik_Metal_State_Penalty>
-0

> <b_epik_Metal_Only>
0

> <s_lp_Force_Field>
OPLS_2005

> <r_lp_Energy>
52.96

> <b_lp_Chiralities_Consistent>
1

> <s_lp_Variant>
AV-unprocessed.smi:255-5

> <Gold.Version>
5.8.1

> <Gold.Id.Protein>
6NUR|6NUR_protein|mol2

> <Gold.PLP.Fitness>
43.6678

> <Gold.PLP.PLP>
-30.8993

> <Gold.PLP.part.hbond>
-3.2784

> <Gold.PLP.part.metal>
0.0000

> <Gold.PLP.part.buried>
-3.5608

> <Gold.PLP.part.nonpolar>
-22.9822

> <Gold.PLP.part.repulsive>
0.5415

> <Gold.PLP.ligand.clash>
0.3689

> <Gold.PLP.ligand.torsion>
0.7539

> <Gold.PLP.Chemscore.Hbond>
3.0000

> <Gold.PLP.Chemscore.CHOScore>
1.8521

> <Gold.PLP.Chemscore.Metal>
0.0000

> <Gold.Chemscore.Hbonds>
donor molecule, donor type, donor heavy atom, donor atom, acceptor molecule, acceptor atom, score
      L1  H     1    27       P1  7921  1.00
      L1  H    20    38       P1  7948  1.00
      P1  H  7989  7998       L1    23  1.00
      L1  C    11    34       P1 10171  0.87
      L1  C    11    34       P1 10175  0.88

> <Gold.PLP.Chemscore.Internal.Correction>
0.0890

> <Gold.Rescore>
     Score         DG    S(hbond)    S(metal)    S(lipo)     H(rot)  DE(clash)    DE(int)     intcor
     10.97     -13.89       2.81        0.00      64.35       3.33       0.01       2.91       ----

> <Gold.Chemscore.Fitness>
10.9728

> <Gold.Chemscore.DG>
-13.8883

> <Gold.Chemscore.ZeroCoef>
-5.4800

> <Gold.Chemscore.Hbond>
2.8137

> <Gold.Chemscore.Metal>
0.0000

> <Gold.Chemscore.Lipo>
64.3466

> <Gold.Chemscore.Internal_Hbond>
0.0000

> <Gold.Chemscore.DEClash>
0.0060

> <Gold.Chemscore.DEInternal>
2.9095

> <Gold.Chemscore.Rot>
3.3273

> <Gold.Chemscore.Internal.Correction>
   9.000000E+99

> <Gold.Chemscore.Hbonds>
donor molecule, donor type, donor heavy atom, donor atom, acceptor molecule, acceptor atom, score
      L1  H     1    27       P1  7921  0.86
      L1  H    20    38       P1  7948  0.93
      P1  H  7989  7998       L1    23  0.49

> <Gold.Chemscore.Hbond.Weighted>
-9.3976

> <Gold.Chemscore.Metal.Weighted>
-0.0000

> <Gold.Chemscore.Lipo.Weighted>
-7.5286

> <Gold.Chemscore.Internal_Hbond.Weighted>
0.0000

> <Gold.Chemscore.DEClash.Weighted>
0.0060

> <Gold.Chemscore.DEInternal.Weighted>
2.9095

> <Gold.Chemscore.Rot.Weighted>
8.5179

> <Gold.Chemscore.Internal.Correction.Weighted>
   9.000000E+99

> <Gold.Protein.RotatedTorsions>
[ 6907 6896 6895 6894 ] final   43.92 input  -60.11 | X-H torsion
[ 7974 7965 7964 7962 ] final -173.10 input  175.53 | X-H torsion
[ 8008 7997 7996 7995 ] final -166.74 input   59.86 | X-H torsion
[ 10167 10162 10161 10158 ] final -167.27 input  -65.29 | X-H torsion
[ 10718 10713 10712 10709 ] final -153.85 input   66.30 | X-H torsion
[ 10763 10752 10751 10750 ] final   47.65 input  -60.55 | X-H torsion
[ 11005 11000 10999 10996 ] final -179.58 input  -57.11 | X-H torsion

> <Gold.Protein.ActiveResidues>
 VAL166  LYS551  ARG553  GLY616  TRP617  ASP618  TYR619  PRO620  LYS621  CYS622 
 ASP623  PHE694  ASN695  SER759  ASP760  ASP761  ALA762  ILE779  LEU786  VAL792 
 PHE793  MET794  SER795  GLU796  ALA797  LYS798  CYS799  TRP800  GLU811  SER814 

> <Gold.Protein.RotatedAtoms>
  152.2262  134.8366  160.0479 H   0  0  0  0  0  0  0  0  0  0  0  0  # atno 6907 bound_to 6896
  151.9132  133.3561  159.3879 H   0  0  0  0  0  0  0  0  0  0  0  0  # atno 6908 bound_to 6896
  150.7013  134.4637  159.5436 H   0  0  0  0  0  0  0  0  0  0  0  0  # atno 6909 bound_to 6896
  144.7140  140.1673  143.6370 H   0  0  0  0  0  0  0  0  0  0  0  0  # atno 7974 bound_to 7965
  155.8680  140.0989  157.1569 H   0  0  0  0  0  0  0  0  0  0  0  0  # atno 8008 bound_to 7997
  154.3995  140.1352  156.4105 H   0  0  0  0  0  0  0  0  0  0  0  0  # atno 8009 bound_to 7997
  155.7783  140.3459  155.5286 H   0  0  0  0  0  0  0  0  0  0  0  0  # atno 8010 bound_to 7997
  139.6060  144.0912  152.1793 H   0  0  0  0  0  0  0  0  0  0  0  0  # atno 10167 bound_to 10162
  156.4913  130.8349  151.2571 H   0  0  0  0  0  0  0  0  0  0  0  0  # atno 10718 bound_to 10713
  152.9798  135.5969  154.3798 H   0  0  0  0  0  0  0  0  0  0  0  0  # atno 10763 bound_to 10752
  154.3463  135.2767  155.2397 H   0  0  0  0  0  0  0  0  0  0  0  0  # atno 10764 bound_to 10752
  154.4457  135.6002  153.6213 H   0  0  0  0  0  0  0  0  0  0  0  0  # atno 10765 bound_to 10752
  140.4171  134.6639  157.4644 H   0  0  0  0  0  0  0  0  0  0  0  0  # atno 11005 bound_to 11000
  145.8975  139.2411  143.1513 LP  0  0  0  0  0  0  0  0  0  0  0  0  # atno 17320 bound_to 7965
  145.9843  140.8657  143.0099 LP  0  0  0  0  0  0  0  0  0  0  0  0  # atno 17321 bound_to 7965
  140.0519  144.5925  150.7329 LP  0  0  0  0  0  0  0  0  0  0  0  0  # atno 17342 bound_to 10162
  140.7285  143.2662  151.4036 LP  0  0  0  0  0  0  0  0  0  0  0  0  # atno 17343 bound_to 10162
  157.7473  131.0012  150.2956 LP  0  0  0  0  0  0  0  0  0  0  0  0  # atno 17370 bound_to 10713
  156.3424  130.3817  149.7398 LP  0  0  0  0  0  0  0  0  0  0  0  0  # atno 17371 bound_to 10713
  140.0226  134.6524  155.9218 LP  0  0  0  0  0  0  0  0  0  0  0  0  # atno 17394 bound_to 11000
  141.1799  133.6545  156.4976 LP  0  0  0  0  0  0  0  0  0  0  0  0  # atno 17395 bound_to 11000

$$$$
