AV-unprocessed.smi:2516|AV-procd|sdf|9899|dock8
  -GOLD-   2272013533D 1   1.00000     0.00000
 Structure written by MMmdl.
 47 48  0  0  0  0  0  0  0  0  1 V2000
  145.9342  128.8250  151.8991 C   0  0  0  0  0  0  0  0  0  0  0  0
  145.7532  130.3334  151.6941 C   0  0  0  0  0  0  0  0  0  0  0  0
  146.7884  131.0936  152.3726 N   0  0  0  0  0  0  0  0  0  0  0  0
  147.7512  130.4254  153.0518 N   0  0  0  0  0  0  0  0  0  0  0  0
  148.5473  131.3575  153.5545 C   0  0  0  0  0  0  0  0  0  0  0  0
  149.7740  130.9308  154.3123 C   0  0  0  0  0  0  0  0  0  0  0  0
  148.0601  132.6572  153.2234 C   0  0  0  0  0  0  0  0  0  0  0  0
  148.6149  133.9254  153.5289 N   0  0  0  0  0  0  0  0  0  0  0  0
  148.9572  134.3818  154.7434 C   0  0  0  0  0  0  0  0  0  0  0  0
  148.8382  133.7495  155.7923 O   0  0  0  0  0  0  0  0  0  0  0  0
  149.4288  135.6353  154.6780 N   0  0  0  0  0  0  0  0  0  0  0  0
  149.8598  136.4434  155.8186 C   0  0  1  0  0  0  0  0  0  0  0  0
  150.7070  135.5630  156.7564 C   0  0  0  0  0  0  0  0  0  0  0  0
  150.6069  137.7098  155.3237 C   0  0  0  0  0  0  0  0  0  0  0  0
  152.0253  137.3991  154.8028 C   0  0  0  0  0  0  0  0  0  0  0  0
  152.7675  138.6830  154.3975 C   0  0  0  0  0  0  0  0  0  0  0  0
  152.8220  139.5844  155.4958 O   0  0  0  0  0  0  0  0  0  0  0  0
  151.5322  140.0021  155.9249 C   0  0  0  0  0  0  0  0  0  0  0  0
  150.7264  138.7906  156.4201 C   0  0  0  0  0  0  0  0  0  0  0  0
  146.9567  132.4656  152.4432 C   0  0  0  0  0  0  0  0  0  0  0  0
  146.0417  133.4361  151.7681 C   0  0  0  0  0  0  0  0  0  0  0  0
  145.1495  128.2671  151.3881 H   0  0  0  0  0  0  0  0  0  0  0  0
  145.8944  128.5628  152.9567 H   0  0  0  0  0  0  0  0  0  0  0  0
  146.8933  128.4866  151.5060 H   0  0  0  0  0  0  0  0  0  0  0  0
  145.7782  130.5739  150.6303 H   0  0  0  0  0  0  0  0  0  0  0  0
  144.7778  130.6523  152.0618 H   0  0  0  0  0  0  0  0  0  0  0  0
  150.5954  131.6306  154.1599 H   0  0  0  0  0  0  0  0  0  0  0  0
  150.1214  129.9491  153.9889 H   0  0  0  0  0  0  0  0  0  0  0  0
  149.5737  130.8736  155.3820 H   0  0  0  0  0  0  0  0  0  0  0  0
  148.6508  134.5878  152.7685 H   0  0  0  0  0  0  0  0  0  0  0  0
  149.4858  136.0715  153.7695 H   0  0  0  0  0  0  0  0  0  0  0  0
  148.9772  136.7735  156.3699 H   0  0  0  0  0  0  0  0  0  0  0  0
  150.9506  136.0780  157.6848 H   0  0  0  0  0  0  0  0  0  0  0  0
  151.6423  135.2630  156.2824 H   0  0  0  0  0  0  0  0  0  0  0  0
  150.1705  134.6549  157.0339 H   0  0  0  0  0  0  0  0  0  0  0  0
  150.0352  138.1378  154.4983 H   0  0  0  0  0  0  0  0  0  0  0  0
  152.5970  136.8794  155.5728 H   0  0  0  0  0  0  0  0  0  0  0  0
  151.9843  136.7334  153.9412 H   0  0  0  0  0  0  0  0  0  0  0  0
  153.7858  138.4445  154.0894 H   0  0  0  0  0  0  0  0  0  0  0  0
  152.2820  139.1604  153.5448 H   0  0  0  0  0  0  0  0  0  0  0  0
  151.6482  140.7285  156.7295 H   0  0  0  0  0  0  0  0  0  0  0  0
  151.0117  140.5095  155.1111 H   0  0  0  0  0  0  0  0  0  0  0  0
  149.7417  139.1300  156.7423 H   0  0  0  0  0  0  0  0  0  0  0  0
  151.2125  138.3694  157.3012 H   0  0  0  0  0  0  0  0  0  0  0  0
  146.2646  134.4609  152.0645 H   0  0  0  0  0  0  0  0  0  0  0  0
  145.0018  133.2348  152.0256 H   0  0  0  0  0  0  0  0  0  0  0  0
  146.1420  133.3712  150.6847 H   0  0  0  0  0  0  0  0  0  0  0  0
  1  2  1  0  0  0  0
  1 22  1  0  0  0  0
  1 23  1  0  0  0  0
  1 24  1  0  0  0  0
  2  3  1  0  0  0  0
  2 25  1  0  0  0  0
  2 26  1  0  0  0  0
  3 20  1  0  0  0  0
  3  4  1  0  0  0  0
  4  5  2  0  0  0  0
  5  6  1  0  0  0  0
  5  7  1  0  0  0  0
  6 27  1  0  0  0  0
  6 28  1  0  0  0  0
  6 29  1  0  0  0  0
  7  8  1  0  0  0  0
  7 20  2  0  0  0  0
  8  9  1  0  0  0  0
  8 30  1  0  0  0  0
  9 10  2  0  0  0  0
  9 11  1  0  0  0  0
 11 12  1  0  0  0  0
 11 31  1  0  0  0  0
 12 13  1  0  0  0  0
 12 14  1  0  0  0  0
 12 32  1  0  0  0  0
 13 33  1  0  0  0  0
 13 34  1  0  0  0  0
 13 35  1  0  0  0  0
 14 19  1  0  0  0  0
 14 15  1  0  0  0  0
 14 36  1  0  0  0  0
 15 16  1  0  0  0  0
 15 37  1  0  0  0  0
 15 38  1  0  0  0  0
 16 17  1  0  0  0  0
 16 39  1  0  0  0  0
 16 40  1  0  0  0  0
 17 18  1  0  0  0  0
 18 19  1  0  0  0  0
 18 41  1  0  0  0  0
 18 42  1  0  0  0  0
 19 43  1  0  0  0  0
 19 44  1  0  0  0  0
 20 21  1  0  0  0  0
 21 45  1  0  0  0  0
 21 46  1  0  0  0  0
 21 47  1  0  0  0  0
M  END
> <s_m_source_file>
AV-unprocessed.smi

> <i_m_source_file_index>
2516

> <i_lp_mmshare_version>
43012

> <i_f3d_flags>
0

> <s_epik_input>
W0NIM11bQ0gyXW4xbmMoW0NIM10pYyhjMVtDSDNdKVtOSF1DKD1PKVtOSF1bQ0BIXShbQ0gzXSlbQ0hdMltDSDJdW0NIMl1PW0NIMl1bQ0gyXTI=

> <s_epik_cmdline>
J2VwaWtfcHl0aG9uJywgJy1waCcsICc3LjAnLCAnLXRuJywgJzgnLCAnLW1hJywgJzIwMCcsICctbWV0YWxfYmluZGluZycsICctaW1hZScsICc8aW5maWxlLm1hZT4nLCAnLW9tYWUnLCAnPG91dGZpbGUubWFlPic=

> <r_lp_tautomer_probability>
1

> <r_epik_Ionization_Penalty>
0.00383358

> <r_epik_Ionization_Penalty_Charging>
0

> <r_epik_Ionization_Penalty_Neutral>
0.00383358

> <r_epik_State_Penalty>
0.00270714

> <r_epik_Charging_Adjusted_Penalty>
0.00270714

> <i_epik_Tot_Q>
0

> <i_epik_Tot_abs_Q>
0

> <r_epik_Metal_State_Penalty>
-0

> <b_epik_Metal_Only>
0

> <s_lp_Force_Field>
OPLS_2005

> <r_lp_Energy>
15.2282

> <b_lp_Chiralities_Consistent>
1

> <s_lp_Variant>
AV-unprocessed.smi:2516-2

> <Gold.Version>
5.8.1

> <Gold.Id.Protein>
6NUR|6NUR_protein|mol2

> <Gold.PLP.Fitness>
41.9298

> <Gold.PLP.PLP>
-34.7301

> <Gold.PLP.part.hbond>
-3.0151

> <Gold.PLP.part.metal>
0.0000

> <Gold.PLP.part.buried>
-2.2717

> <Gold.PLP.part.nonpolar>
-29.1819

> <Gold.PLP.part.repulsive>
0.1490

> <Gold.PLP.ligand.clash>
0.0000

> <Gold.PLP.ligand.torsion>
0.8339

> <Gold.PLP.Chemscore.Hbond>
2.8500

> <Gold.PLP.Chemscore.CHOScore>
0.0000

> <Gold.PLP.Chemscore.Metal>
0.0000

> <Gold.Chemscore.Hbonds>
donor molecule, donor type, donor heavy atom, donor atom, acceptor molecule, acceptor atom, score
      L1  H     8    30       P1  7948  0.75
      L1  H    11    31       P1  7948  1.00
      P1  H  7997  8010       L1    17  1.00

> <Gold.PLP.Chemscore.Internal.Correction>
0.3175

> <Gold.Rescore>
     Score         DG    S(hbond)    S(metal)    S(lipo)     H(rot)  DE(clash)    DE(int)     intcor
     16.72     -19.56       2.30        0.00      83.26       1.30       0.66       2.18       ----

> <Gold.Chemscore.Fitness>
16.7223

> <Gold.Chemscore.DG>
-19.5644

> <Gold.Chemscore.ZeroCoef>
-5.4800

> <Gold.Chemscore.Hbond>
2.2960

> <Gold.Chemscore.Metal>
0.0000

> <Gold.Chemscore.Lipo>
83.2588

> <Gold.Chemscore.Internal_Hbond>
0.0000

> <Gold.Chemscore.DEClash>
0.6590

> <Gold.Chemscore.DEInternal>
2.1830

> <Gold.Chemscore.Rot>
1.2990

> <Gold.Chemscore.Internal.Correction>
   9.000000E+99

> <Gold.Chemscore.Hbonds>
donor molecule, donor type, donor heavy atom, donor atom, acceptor molecule, acceptor atom, score
      L1  H     8    30       P1  7948  0.09
      L1  H    11    31       P1  7948  0.58
      P1  H  7997  8010       L1    17  0.99

> <Gold.Chemscore.Hbond.Weighted>
-7.6685

> <Gold.Chemscore.Metal.Weighted>
-0.0000

> <Gold.Chemscore.Lipo.Weighted>
-9.7413

> <Gold.Chemscore.Internal_Hbond.Weighted>
0.0000

> <Gold.Chemscore.DEClash.Weighted>
0.6590

> <Gold.Chemscore.DEInternal.Weighted>
2.1830

> <Gold.Chemscore.Rot.Weighted>
3.3254

> <Gold.Chemscore.Internal.Correction.Weighted>
   9.000000E+99

> <Gold.Protein.RotatedTorsions>
[ 6907 6896 6895 6894 ] final  -50.45 input  -60.11 | X-H torsion
[ 7974 7965 7964 7962 ] final  137.05 input  175.53 | X-H torsion
[ 8008 7997 7996 7995 ] final   83.35 input   59.86 | X-H torsion
[ 10167 10162 10161 10158 ] final   66.41 input  -65.29 | X-H torsion
[ 10718 10713 10712 10709 ] final  124.46 input   66.30 | X-H torsion
[ 10763 10752 10751 10750 ] final -141.53 input  -60.55 | X-H torsion
[ 11005 11000 10999 10996 ] final  -65.10 input  -57.11 | X-H torsion

> <Gold.Protein.ActiveResidues>
 VAL166  LYS551  ARG553  GLY616  TRP617  ASP618  TYR619  PRO620  LYS621  CYS622 
 ASP623  PHE694  ASN695  SER759  ASP760  ASP761  ALA762  ILE779  LEU786  VAL792 
 PHE793  MET794  SER795  GLU796  ALA797  LYS798  CYS799  TRP800  GLU811  SER814 

> <Gold.Protein.RotatedAtoms>
  150.8706  134.8079  159.7151 H   0  0  0  0  0  0  0  0  0  0  0  0  # atno 6907 bound_to 6896
  152.4712  134.4952  159.9717 H   0  0  0  0  0  0  0  0  0  0  0  0  # atno 6908 bound_to 6896
  151.5042  133.3459  159.2909 H   0  0  0  0  0  0  0  0  0  0  0  0  # atno 6909 bound_to 6896
  144.9505  139.4824  143.5528 H   0  0  0  0  0  0  0  0  0  0  0  0  # atno 7974 bound_to 7965
  155.9227  140.3420  155.6186 H   0  0  0  0  0  0  0  0  0  0  0  0  # atno 8008 bound_to 7997
  155.7253  140.0788  157.2331 H   0  0  0  0  0  0  0  0  0  0  0  0  # atno 8009 bound_to 7997
  154.4072  140.1598  156.2436 H   0  0  0  0  0  0  0  0  0  0  0  0  # atno 8010 bound_to 7997
  140.1007  144.4906  150.7039 H   0  0  0  0  0  0  0  0  0  0  0  0  # atno 10167 bound_to 10162
  157.5583  131.1091  150.8583 H   0  0  0  0  0  0  0  0  0  0  0  0  # atno 10718 bound_to 10713
  154.8542  135.3522  154.5883 H   0  0  0  0  0  0  0  0  0  0  0  0  # atno 10763 bound_to 10752
  153.6493  135.6995  153.5219 H   0  0  0  0  0  0  0  0  0  0  0  0  # atno 10764 bound_to 10752
  153.2907  135.4235  155.1122 H   0  0  0  0  0  0  0  0  0  0  0  0  # atno 10765 bound_to 10752
  141.1444  133.6676  156.5934 H   0  0  0  0  0  0  0  0  0  0  0  0  # atno 11005 bound_to 11000
  146.3319  139.8587  142.8860 LP  0  0  0  0  0  0  0  0  0  0  0  0  # atno 17320 bound_to 7965
  145.2851  141.0150  143.3695 LP  0  0  0  0  0  0  0  0  0  0  0  0  # atno 17321 bound_to 7965
  140.6979  143.2416  151.4947 LP  0  0  0  0  0  0  0  0  0  0  0  0  # atno 17342 bound_to 10162
  139.5673  144.2012  152.1784 LP  0  0  0  0  0  0  0  0  0  0  0  0  # atno 17343 bound_to 10162
  156.9088  130.5273  149.5281 LP  0  0  0  0  0  0  0  0  0  0  0  0  # atno 17370 bound_to 10713
  156.0639  130.5686  150.9249 LP  0  0  0  0  0  0  0  0  0  0  0  0  # atno 17371 bound_to 10713
  140.3745  134.7577  157.4620 LP  0  0  0  0  0  0  0  0  0  0  0  0  # atno 17394 bound_to 11000
  140.0685  134.5896  155.8668 LP  0  0  0  0  0  0  0  0  0  0  0  0  # atno 17395 bound_to 11000

$$$$
