AV-unprocessed.smi:1419|AV-procd|sdf|5775|dock2
  -GOLD-   22720 5423D 1   1.00000     0.00000
 Structure written by MMmdl.
 42 43  0  0  0  0  0  0  0  0  2 V2000
  151.1679  137.2419  156.1457 C   0  0  0  0  0  0  0  0  0  0  0  0
  151.9460  138.5024  155.7454 C   0  0  1  0  0  0  0  0  0  0  0  0
  151.5074  139.0155  154.3569 C   0  0  0  0  0  0  0  0  0  0  0  0
  150.2492  139.7693  154.3987 N   0  0  0  0  0  0  0  0  0  0  0  0
  150.0807  141.0840  154.7497 C   0  0  0  0  0  0  0  0  0  0  0  0
  148.7370  141.3427  154.6614 C   0  0  0  0  0  0  0  0  0  0  0  0
  148.1432  140.1776  154.2557 N   0  3  0  0  0  0  0  0  0  0  0  0
  149.0648  139.2234  154.0907 C   0  0  0  0  0  0  0  0  0  0  0  0
  151.7429  139.5299  156.7658 N   0  0  0  0  0  0  0  0  0  0  0  0
  152.5137  139.7293  157.8498 C   0  0  0  0  0  0  0  0  0  0  0  0
  153.4568  138.9884  158.1308 O   0  0  0  0  0  0  0  0  0  0  0  0
  152.1679  140.8049  158.5986 N   0  0  0  0  0  0  0  0  0  0  0  0
  151.6630  142.0901  158.0977 C   0  0  0  0  0  0  0  0  0  0  0  0
  152.8215  143.1067  158.1511 C   0  0  1  0  0  0  0  0  0  0  0  0
  152.3900  144.5032  157.6913 C   0  0  0  0  0  0  0  0  0  0  0  0
  153.2937  143.2056  159.4950 O   0  0  0  0  0  0  0  0  0  0  0  0
  153.7369  141.9663  160.0496 C   0  0  1  0  0  0  0  0  0  0  0  0
  154.2166  142.2258  161.4814 C   0  0  0  0  0  0  0  0  0  0  0  0
  152.5800  140.9476  159.9962 C   0  0  0  0  0  0  0  0  0  0  0  0
  151.3177  136.4417  155.4201 H   0  0  0  0  0  0  0  0  0  0  0  0
  150.0968  137.4375  156.2076 H   0  0  0  0  0  0  0  0  0  0  0  0
  151.4959  136.8693  157.1167 H   0  0  0  0  0  0  0  0  0  0  0  0
  153.0015  138.2275  155.7011 H   0  0  0  0  0  0  0  0  0  0  0  0
  152.2659  139.6814  153.9432 H   0  0  0  0  0  0  0  0  0  0  0  0
  151.3959  138.1885  153.6533 H   0  0  0  0  0  0  0  0  0  0  0  0
  150.9068  141.7182  155.0374 H   0  0  0  0  0  0  0  0  0  0  0  0
  148.1739  142.2446  154.8535 H   0  0  0  0  0  0  0  0  0  0  0  0
  148.8848  138.2087  153.7824 H   0  0  0  0  0  0  0  0  0  0  0  0
  150.9734  140.1667  156.6179 H   0  0  0  0  0  0  0  0  0  0  0  0
  151.2526  142.0399  157.0890 H   0  0  0  0  0  0  0  0  0  0  0  0
  150.8390  142.4243  158.7302 H   0  0  0  0  0  0  0  0  0  0  0  0
  153.6391  142.7665  157.5129 H   0  0  0  0  0  0  0  0  0  0  0  0
  152.0328  144.4849  156.6612 H   0  0  0  0  0  0  0  0  0  0  0  0
  153.2232  145.2046  157.7416 H   0  0  0  0  0  0  0  0  0  0  0  0
  151.5876  144.8940  158.3175 H   0  0  0  0  0  0  0  0  0  0  0  0
  154.5794  141.5975  159.4614 H   0  0  0  0  0  0  0  0  0  0  0  0
  154.5824  141.3093  161.9450 H   0  0  0  0  0  0  0  0  0  0  0  0
  153.4103  142.6171  162.1029 H   0  0  0  0  0  0  0  0  0  0  0  0
  155.0297  142.9520  161.4944 H   0  0  0  0  0  0  0  0  0  0  0  0
  151.7354  141.2976  160.5921 H   0  0  0  0  0  0  0  0  0  0  0  0
  152.8869  139.9999  160.4418 H   0  0  0  0  0  0  0  0  0  0  0  0
  147.1500  140.0535  154.1028 H   0  0  0  0  0  0  0  0  0  0  0  0
  1  2  1  0  0  0  0
  1 20  1  0  0  0  0
  1 21  1  0  0  0  0
  1 22  1  0  0  0  0
  2  3  1  0  0  0  0
  2  9  1  0  0  0  0
  2 23  1  0  0  0  0
  3  4  1  0  0  0  0
  3 24  1  0  0  0  0
  3 25  1  0  0  0  0
  4  8  1  0  0  0  0
  4  5  1  0  0  0  0
  5  6  2  0  0  0  0
  5 26  1  0  0  0  0
  6  7  1  0  0  0  0
  6 27  1  0  0  0  0
  7  8  2  0  0  0  0
  7 42  1  0  0  0  0
  8 28  1  0  0  0  0
  9 10  1  0  0  0  0
  9 29  1  0  0  0  0
 10 11  2  0  0  0  0
 10 12  1  0  0  0  0
 12 19  1  0  0  0  0
 12 13  1  0  0  0  0
 13 14  1  0  0  0  0
 13 30  1  0  0  0  0
 13 31  1  0  0  0  0
 14 15  1  0  0  0  0
 14 16  1  0  0  0  0
 14 32  1  0  0  0  0
 15 33  1  0  0  0  0
 15 34  1  0  0  0  0
 15 35  1  0  0  0  0
 16 17  1  0  0  0  0
 17 18  1  0  0  0  0
 17 19  1  0  0  0  0
 17 36  1  0  0  0  0
 18 37  1  0  0  0  0
 18 38  1  0  0  0  0
 18 39  1  0  0  0  0
 19 40  1  0  0  0  0
 19 41  1  0  0  0  0
M  CHG  1   7   1
M  END
> <s_m_source_file>
AV-unprocessed.smi

> <i_m_source_file_index>
1419

> <i_lp_mmshare_version>
43012

> <i_f3d_flags>
0

> <s_epik_input>
W2NIXTFuW2NIXVtjSF1uMVtDSDJdW0NAQEhdKFtDSDNdKVtOSF1DKD1PKU4yW0NIMl1bQ0BASF0oW0NIM10pT1tDQEBIXShbQ0gzXSlbQ0gyXTI=

> <s_epik_cmdline>
J2VwaWtfcHl0aG9uJywgJy1waCcsICc3LjAnLCAnLXRuJywgJzgnLCAnLW1hJywgJzIwMCcsICctbWV0YWxfYmluZGluZycsICctaW1hZScsICc8aW5maWxlLm1hZT4nLCAnLW9tYWUnLCAnPG91dGZpbGUubWFlPic=

> <r_lp_tautomer_probability>
1

> <r_epik_Ionization_Penalty>
0.253607

> <r_epik_Ionization_Penalty_Charging>
0

> <r_epik_Ionization_Penalty_Neutral>
0.253607

> <r_epik_State_Penalty>
0.245018

> <r_epik_Charging_Adjusted_Penalty>
0.245018

> <i_epik_Tot_Q>
1

> <i_epik_Tot_abs_Q>
1

> <r_epik_Metal_State_Penalty>
0.535379

> <b_epik_Metal_Only>
0

> <s_lp_Force_Field>
OPLS_2005

> <r_lp_Energy>
29.1854

> <b_lp_Chiralities_Consistent>
1

> <s_lp_Variant>
AV-unprocessed.smi:1419-2

> <Gold.Version>
5.8.1

> <Gold.Id.Protein>
6NUR|6NUR_protein|mol2

> <Gold.PLP.Fitness>
39.6148

> <Gold.PLP.PLP>
-35.8972

> <Gold.PLP.part.hbond>
-1.0000

> <Gold.PLP.part.metal>
0.0000

> <Gold.PLP.part.buried>
-1.1187

> <Gold.PLP.part.nonpolar>
-31.1477

> <Gold.PLP.part.repulsive>
0.1115

> <Gold.PLP.ligand.clash>
0.0000

> <Gold.PLP.ligand.torsion>
1.1834

> <Gold.PLP.Chemscore.Hbond>
1.0000

> <Gold.PLP.Chemscore.CHOScore>
1.0000

> <Gold.PLP.Chemscore.Metal>
0.0000

> <Gold.Chemscore.Hbonds>
donor molecule, donor type, donor heavy atom, donor atom, acceptor molecule, acceptor atom, score
      P1  H  7997  8010       L1    11  0.80
      L1  C     8    28       P1  7948  0.48

> <Gold.PLP.Chemscore.Internal.Correction>
0.0844

> <Gold.Rescore>
     Score         DG    S(hbond)    S(metal)    S(lipo)     H(rot)  DE(clash)    DE(int)     intcor
     13.49     -14.70       0.83        0.00      90.57       1.63       0.06       1.15       ----

> <Gold.Chemscore.Fitness>
13.4913

> <Gold.Chemscore.DG>
-14.6999

> <Gold.Chemscore.ZeroCoef>
-5.4800

> <Gold.Chemscore.Hbond>
0.8350

> <Gold.Chemscore.Metal>
0.0000

> <Gold.Chemscore.Lipo>
90.5718

> <Gold.Chemscore.Internal_Hbond>
0.0000

> <Gold.Chemscore.DEClash>
0.0617

> <Gold.Chemscore.DEInternal>
1.1469

> <Gold.Chemscore.Rot>
1.6273

> <Gold.Chemscore.Internal.Correction>
   9.000000E+99

> <Gold.Chemscore.Hbonds>
donor molecule, donor type, donor heavy atom, donor atom, acceptor molecule, acceptor atom, score
      P1  H  7997  8010       L1    11  0.12

> <Gold.Chemscore.Hbond.Weighted>
-2.7889

> <Gold.Chemscore.Metal.Weighted>
-0.0000

> <Gold.Chemscore.Lipo.Weighted>
-10.5969

> <Gold.Chemscore.Internal_Hbond.Weighted>
0.0000

> <Gold.Chemscore.DEClash.Weighted>
0.0617

> <Gold.Chemscore.DEInternal.Weighted>
1.1469

> <Gold.Chemscore.Rot.Weighted>
4.1658

> <Gold.Chemscore.Internal.Correction.Weighted>
   9.000000E+99

> <Gold.Protein.RotatedTorsions>
[ 6907 6896 6895 6894 ] final   44.80 input  -60.11 | X-H torsion
[ 7974 7965 7964 7962 ] final   78.84 input  175.53 | X-H torsion
[ 8008 7997 7996 7995 ] final   18.57 input   59.86 | X-H torsion
[ 10167 10162 10161 10158 ] final  -82.42 input  -65.29 | X-H torsion
[ 10718 10713 10712 10709 ] final  -58.11 input   66.30 | X-H torsion
[ 10763 10752 10751 10750 ] final  -81.97 input  -60.55 | X-H torsion
[ 11005 11000 10999 10996 ] final  -37.91 input  -57.11 | X-H torsion

> <Gold.Protein.ActiveResidues>
 VAL166  LYS551  ARG553  GLY616  TRP617  ASP618  TYR619  PRO620  LYS621  CYS622 
 ASP623  PHE694  ASN695  SER759  ASP760  ASP761  ALA762  ILE779  LEU786  VAL792 
 PHE793  MET794  SER795  GLU796  ALA797  LYS798  CYS799  TRP800  GLU811  SER814 

> <Gold.Protein.RotatedAtoms>
  152.2369  134.8267  160.0465 H   0  0  0  0  0  0  0  0  0  0  0  0  # atno 6907 bound_to 6896
  151.8996  133.3530  159.3834 H   0  0  0  0  0  0  0  0  0  0  0  0  # atno 6908 bound_to 6896
  150.7042  134.4768  159.5495 H   0  0  0  0  0  0  0  0  0  0  0  0  # atno 6909 bound_to 6896
  145.6720  139.2499  143.1863 H   0  0  0  0  0  0  0  0  0  0  0  0  # atno 7974 bound_to 7965
  154.9080  140.3010  155.5281 H   0  0  0  0  0  0  0  0  0  0  0  0  # atno 8008 bound_to 7997
  156.3016  140.2394  156.4051 H   0  0  0  0  0  0  0  0  0  0  0  0  # atno 8009 bound_to 7997
  154.8454  140.0412  157.1558 H   0  0  0  0  0  0  0  0  0  0  0  0  # atno 8010 bound_to 7997
  140.4322  143.2544  151.8744 H   0  0  0  0  0  0  0  0  0  0  0  0  # atno 10167 bound_to 10162
  156.1160  130.4170  150.0532 H   0  0  0  0  0  0  0  0  0  0  0  0  # atno 10718 bound_to 10713
  154.5701  135.5607  153.7087 H   0  0  0  0  0  0  0  0  0  0  0  0  # atno 10763 bound_to 10752
  153.0046  135.6295  154.2126 H   0  0  0  0  0  0  0  0  0  0  0  0  # atno 10764 bound_to 10752
  154.2065  135.2875  155.2953 H   0  0  0  0  0  0  0  0  0  0  0  0  # atno 10765 bound_to 10752
  140.9988  133.6966  156.1983 H   0  0  0  0  0  0  0  0  0  0  0  0  # atno 11005 bound_to 11000
  146.1037  140.7512  142.9536 LP  0  0  0  0  0  0  0  0  0  0  0  0  # atno 17320 bound_to 7965
  144.7054  140.3829  143.7122 LP  0  0  0  0  0  0  0  0  0  0  0  0  # atno 17321 bound_to 7965
  139.4785  144.5322  151.8650 LP  0  0  0  0  0  0  0  0  0  0  0  0  # atno 17342 bound_to 10162
  140.4414  144.1980  150.5891 LP  0  0  0  0  0  0  0  0  0  0  0  0  # atno 17343 bound_to 10162
  156.8483  130.9450  151.3627 LP  0  0  0  0  0  0  0  0  0  0  0  0  # atno 17370 bound_to 10713
  157.6343  130.8754  149.9330 LP  0  0  0  0  0  0  0  0  0  0  0  0  # atno 17371 bound_to 10713
  140.6923  134.4652  157.5588 LP  0  0  0  0  0  0  0  0  0  0  0  0  # atno 17394 bound_to 11000
  139.9028  134.8517  156.1826 LP  0  0  0  0  0  0  0  0  0  0  0  0  # atno 17395 bound_to 11000

$$$$
