#       Name:                AV-unprocessed.smi:160
#       Creating user name   scv26
#       Creation time:       Thu Mar 26 19:05:05 2020


#       File generated by GOLD software.
#

@<TRIPOS>MOLECULE
AV-unprocessed.smi:160
    41    42     1
SMALL
NO_CHARGES


@<TRIPOS>ATOM
      1 ****        -3.4725   2.1645   0.1849 N.am           1 S1                 0.0000
      2 ****        -3.9375   0.9702  -0.1960 C.2            1 S1                 0.0000
      3 ****        -5.1391   0.7416  -0.3257 O.2            1 S1                 0.0000
      4 ****        -2.9039  -0.0871  -0.4699 C.2            1 S1                 0.0000
      5 ****        -3.2609  -1.3200  -0.9375 N.2            1 S1                 0.0000
      6 ****        -2.0558  -1.8690  -1.0184 C.2            1 S1                 0.0000
      7 ****        -1.0596  -1.0642  -0.6347 N.pl3          1 S1                 0.0000
      8 ****         0.4168  -1.3248  -0.5850 C.3            1 S1                 0.0000
      9 ****         1.0827  -0.1860  -1.0434 O.3            1 S1                 0.0000
     10 ****         1.6130   0.5375   0.0622 C.3            1 S1                 0.0000
     11 ****         2.7295   1.4991  -0.3807 C.3            1 S1                 0.0000
     12 ****         2.1686   2.7041  -0.8565 O.3            1 S1                 0.0000
     13 ****         2.0407  -0.5852   1.0176 C.3            1 S1                 0.0000
     14 ****         3.2958  -1.1231   0.6408 O.3            1 S1                 0.0000
     15 ****         0.9423  -1.6284   0.8399 C.3            1 S1                 0.0000
     16 ****        -0.0286  -1.4949   1.8639 O.3            1 S1                 0.0000
     17 ****        -1.6027   0.1234  -0.2653 N.2            1 S1                 0.0000
     18 ****         0.5693  -2.1478  -1.2842 H              1 S1                 0.0000
     19 ****         0.8106   1.1009   0.5419 H              1 S1                 0.0000
     20 ****         2.1225  -0.2319   2.0467 H              1 S1                 0.0000
     21 ****         1.3344  -2.6460   0.8738 H              1 S1                 0.0000
     22 ****        -4.1161   2.9170   0.3808 H              1 S1                 0.0000
     23 ****        -2.4762   2.3057   0.2712 H              1 S1                 0.0000
     24 ****        -1.8956  -2.8805  -1.3619 H              1 S1                 0.0000
     25 ****         3.3671   1.7499   0.4676 H              1 S1                 0.0000
     26 ****         3.3641   1.0500  -1.1453 H              1 S1                 0.0000
     27 ****         2.8701   3.2793  -1.1213 H              1 S1                 0.0000
     28 ****         3.9531  -0.4516   0.7406 H              1 S1                 0.0000
     29 ****        -0.7318  -2.1026   1.6935 H              1 S1                 0.0000
     30 ****        -5.8077   1.4627  -0.1442 LP             1 S1                 0.0000
     31 ****        -5.4474  -0.1654  -0.6127 LP             1 S1                 0.0000
     32 ****        -4.1617  -1.6964  -1.1541 LP             1 S1                 0.0000
     33 ****         0.4412   0.3952  -1.5441 LP             1 S1                 0.0000
     34 ****         1.8288  -0.4591  -1.6506 LP             1 S1                 0.0000
     35 ****         1.6341   3.1367  -0.1304 LP             1 S1                 0.0000
     36 ****         1.5755   2.5138  -1.6388 LP             1 S1                 0.0000
     37 ****         3.2617  -1.4223  -0.3128 LP             1 S1                 0.0000
     38 ****         3.5182  -1.9022   1.2269 LP             1 S1                 0.0000
     39 ****        -0.3849  -0.5606   1.8706 LP             1 S1                 0.0000
     40 ****         0.3863  -1.6997   2.7504 LP             1 S1                 0.0000
     41 ****        -1.1449   0.9454   0.0734 LP             1 S1                 0.0000
@<TRIPOS>BOND
    1    1    2 am    
    2    1   22 1     
    3    1   23 1     
    4    2    3 2     
    5    2    4 1     
    6    4   17 2     
    7    4    5 1     
    8    5    6 2     
    9    6    7 1     
   10    6   24 1     
   11    7    8 1     
   12    7   17 1     
   13    8   18 1     
   14    8   15 1     
   15    8    9 1     
   16    9   10 1     
   17   10   19 1     
   18   10   11 1     
   19   10   13 1     
   20   11   12 1     
   21   11   25 1     
   22   11   26 1     
   23   12   27 1     
   24   13   20 1     
   25   13   14 1     
   26   13   15 1     
   27   14   28 1     
   28   15   21 1     
   29   15   16 1     
   30   16   29 1     
   31    3   30 1     
   32    3   31 1     
   33    5   32 1     
   34    9   33 1     
   35    9   34 1     
   36   12   35 1     
   37   12   36 1     
   38   14   37 1     
   39   14   38 1     
   40   16   39 1     
   41   16   40 1     
   42   17   41 1     
@<TRIPOS>SUBSTRUCTURE
      1 S1             1
@<TRIPOS>SET
LONE_PAIRS      STATIC     ATOMS    <user>   **** ""
12 30 31 32 33 34 35 36 37 38 39 40 41
DONOR_HYDROGENS      STATIC     ATOMS    <user>   **** ""
5 22 23 27 28 29
ATOM$BLUE        STATIC     ATOMS    COLORGROUP SYSTEM
12 30 31 32 33 34 35 36 37 38 39 40 41
ATOM$RED        STATIC     ATOMS    COLORGROUP SYSTEM
5 22 23 27 28 29
