AV-unprocessed.smi:1435|AV-procd|sdf|5858|dock10
  -GOLD-   22720 5533D 1   1.00000     0.00000
 Structure written by MMmdl.
 44 45  0  0  0  0  0  0  0  0  2 V2000
  144.3938  134.6242  156.6618 O   0  0  0  0  0  0  0  0  0  0  0  0
  145.4046  135.2325  156.3099 C   0  0  0  0  0  0  0  0  0  0  0  0
  146.2542  135.9724  157.3444 C   0  0  0  0  0  0  0  0  0  0  0  0
  147.0412  135.0124  158.2540 C   0  0  0  0  0  0  0  0  0  0  0  0
  148.0032  135.9244  159.5432 S   0  0  0  0  0  0  0  0  0  0  0  0
  149.4272  135.5975  159.3736 O   0  0  0  0  0  0  0  0  0  0  0  0
  147.5834  137.3343  159.5179 O   0  0  0  0  0  0  0  0  0  0  0  0
  147.3967  135.1399  161.1107 C   0  0  0  0  0  0  0  0  0  0  0  0
  145.8969  135.3804  161.3263 C   0  0  0  0  0  0  0  0  0  0  0  0
  145.7793  136.7045  162.0965 C   0  0  0  0  0  0  0  0  0  0  0  0
  147.1832  137.0291  162.6279 C   0  0  0  0  0  0  0  0  0  0  0  0
  148.0387  135.7938  162.3371 C   0  0  0  0  0  0  0  0  0  0  0  0
  145.8131  135.3091  155.0345 N   0  0  0  0  0  0  0  0  0  0  0  0
  145.0967  134.7481  153.8963 C   0  0  0  0  0  0  0  0  0  0  0  0
  145.9981  133.8097  153.0766 C   0  0  0  0  0  0  0  0  0  0  0  0
  145.3487  133.3853  151.7745 C   0  0  0  0  0  0  0  0  0  0  0  0
  146.0597  132.6052  150.8362 C   0  0  0  0  0  0  0  0  0  0  0  0
  145.4273  132.2232  149.6347 C   0  0  0  0  0  0  0  0  0  0  0  0
  144.0980  132.6301  149.3989 C   0  0  0  0  0  0  0  0  0  0  0  0
  143.4494  133.3756  150.3204 N   0  3  0  0  0  0  0  0  0  0  0  0
  144.0198  133.7618  151.4830 C   0  0  0  0  0  0  0  0  0  0  0  0
  146.9538  136.6087  156.8019 H   0  0  0  0  0  0  0  0  0  0  0  0
  145.6353  136.6406  157.9449 H   0  0  0  0  0  0  0  0  0  0  0  0
  146.3800  134.2982  158.7447 H   0  0  0  0  0  0  0  0  0  0  0  0
  147.7499  134.4381  157.6579 H   0  0  0  0  0  0  0  0  0  0  0  0
  147.6352  134.0774  161.0591 H   0  0  0  0  0  0  0  0  0  0  0  0
  145.3261  135.3918  160.3982 H   0  0  0  0  0  0  0  0  0  0  0  0
  145.4922  134.5743  161.9396 H   0  0  0  0  0  0  0  0  0  0  0  0
  145.4308  137.5046  161.4423 H   0  0  0  0  0  0  0  0  0  0  0  0
  145.0581  136.6133  162.9094 H   0  0  0  0  0  0  0  0  0  0  0  0
  147.5862  137.8914  162.0954 H   0  0  0  0  0  0  0  0  0  0  0  0
  147.1761  137.2781  163.6895 H   0  0  0  0  0  0  0  0  0  0  0  0
  147.9781  135.1076  163.1828 H   0  0  0  0  0  0  0  0  0  0  0  0
  149.0915  136.0375  162.1915 H   0  0  0  0  0  0  0  0  0  0  0  0
  146.6553  135.8298  154.8357 H   0  0  0  0  0  0  0  0  0  0  0  0
  144.2331  134.2003  154.2744 H   0  0  0  0  0  0  0  0  0  0  0  0
  144.7064  135.5515  153.2690 H   0  0  0  0  0  0  0  0  0  0  0  0
  146.9476  134.2972  152.8504 H   0  0  0  0  0  0  0  0  0  0  0  0
  146.2435  132.9214  153.6603 H   0  0  0  0  0  0  0  0  0  0  0  0
  147.0776  132.3015  151.0341 H   0  0  0  0  0  0  0  0  0  0  0  0
  145.9547  131.6263  148.9047 H   0  0  0  0  0  0  0  0  0  0  0  0
  143.5380  132.3834  148.5087 H   0  0  0  0  0  0  0  0  0  0  0  0
  143.4002  134.3552  152.1400 H   0  0  0  0  0  0  0  0  0  0  0  0
  142.4878  133.6588  150.1301 H   0  0  0  0  0  0  0  0  0  0  0  0
  1  2  2  0  0  0  0
  2  3  1  0  0  0  0
  2 13  1  0  0  0  0
  3  4  1  0  0  0  0
  3 22  1  0  0  0  0
  3 23  1  0  0  0  0
  4  5  1  0  0  0  0
  4 24  1  0  0  0  0
  4 25  1  0  0  0  0
  5  6  2  0  0  0  0
  5  7  2  0  0  0  0
  5  8  1  0  0  0  0
  8 12  1  0  0  0  0
  8  9  1  0  0  0  0
  8 26  1  0  0  0  0
  9 10  1  0  0  0  0
  9 27  1  0  0  0  0
  9 28  1  0  0  0  0
 10 11  1  0  0  0  0
 10 29  1  0  0  0  0
 10 30  1  0  0  0  0
 11 12  1  0  0  0  0
 11 31  1  0  0  0  0
 11 32  1  0  0  0  0
 12 33  1  0  0  0  0
 12 34  1  0  0  0  0
 13 14  1  0  0  0  0
 13 35  1  0  0  0  0
 14 15  1  0  0  0  0
 14 36  1  0  0  0  0
 14 37  1  0  0  0  0
 15 16  1  0  0  0  0
 15 38  1  0  0  0  0
 15 39  1  0  0  0  0
 16 21  1  0  0  0  0
 16 17  2  0  0  0  0
 17 18  1  0  0  0  0
 17 40  1  0  0  0  0
 18 19  2  0  0  0  0
 18 41  1  0  0  0  0
 19 20  1  0  0  0  0
 19 42  1  0  0  0  0
 20 21  2  0  0  0  0
 20 44  1  0  0  0  0
 21 43  1  0  0  0  0
M  CHG  1  20   1
M  END
> <s_m_source_file>
AV-unprocessed.smi

> <i_m_source_file_index>
1435

> <i_lp_mmshare_version>
43012

> <i_f3d_flags>
0

> <s_epik_input>
W0NIMl0xW0NIMl1bQ0gyXVtDSDJdW0NIXTFTKD1PKSg9TylbQ0gyXVtDSDJdQyg9TylbTkhdW0NIMl1bQ0gyXWMyW2NIXVtjSF1bY0hdbltjSF0y

> <s_epik_cmdline>
J2VwaWtfcHl0aG9uJywgJy1waCcsICc3LjAnLCAnLXRuJywgJzgnLCAnLW1hJywgJzIwMCcsICctbWV0YWxfYmluZGluZycsICctaW1hZScsICc8aW5maWxlLm1hZT4nLCAnLW9tYWUnLCAnPG91dGZpbGUubWFlPic=

> <r_epik_Ionization_Penalty>
2.2792

> <r_epik_Ionization_Penalty_Charging>
2.2792

> <r_epik_Ionization_Penalty_Neutral>
6.52611e-08

> <r_epik_State_Penalty>
2.42836

> <r_epik_Charging_Adjusted_Penalty>
4.70756

> <i_epik_Tot_Q>
1

> <i_epik_Tot_abs_Q>
1

> <r_epik_Metal_State_Penalty>
2.44099

> <b_epik_Metal_Only>
0

> <s_lp_Force_Field>
OPLS_2005

> <r_lp_Energy>
17.5712

> <b_lp_Chiralities_Consistent>
1

> <s_lp_Variant>
AV-unprocessed.smi:1435-2

> <Gold.Version>
5.8.1

> <Gold.Id.Protein>
6NUR|6NUR_protein|mol2

> <Gold.PLP.Fitness>
45.4849

> <Gold.PLP.PLP>
-34.1836

> <Gold.PLP.part.hbond>
-3.0000

> <Gold.PLP.part.metal>
0.0000

> <Gold.PLP.part.buried>
-6.5844

> <Gold.PLP.part.nonpolar>
-25.2265

> <Gold.PLP.part.repulsive>
0.0939

> <Gold.PLP.ligand.clash>
0.0000

> <Gold.PLP.ligand.torsion>
0.3168

> <Gold.PLP.Chemscore.Hbond>
3.8800

> <Gold.PLP.Chemscore.CHOScore>
0.0000

> <Gold.PLP.Chemscore.Metal>
0.0000

> <Gold.Chemscore.Hbonds>
donor molecule, donor type, donor heavy atom, donor atom, acceptor molecule, acceptor atom, score
      L1  H    20    44       P1 10186  2.00
      P1  H  6896  6909       L1     6  1.00
      P1  H  6934  6947       L1     7  0.40

> <Gold.PLP.Chemscore.Internal.Correction>
0.2948

> <Gold.Rescore>
     Score         DG    S(hbond)    S(metal)    S(lipo)     H(rot)  DE(clash)    DE(int)     intcor
     19.23     -19.78       2.92        0.00      85.62       2.14       0.02       0.53       ----

> <Gold.Chemscore.Fitness>
19.2318

> <Gold.Chemscore.DG>
-19.7815

> <Gold.Chemscore.ZeroCoef>
-5.4800

> <Gold.Chemscore.Hbond>
2.9234

> <Gold.Chemscore.Metal>
0.0000

> <Gold.Chemscore.Lipo>
85.6218

> <Gold.Chemscore.Internal_Hbond>
0.0000

> <Gold.Chemscore.DEClash>
0.0202

> <Gold.Chemscore.DEInternal>
0.5294

> <Gold.Chemscore.Rot>
2.1408

> <Gold.Chemscore.Internal.Correction>
   9.000000E+99

> <Gold.Chemscore.Hbonds>
donor molecule, donor type, donor heavy atom, donor atom, acceptor molecule, acceptor atom, score
      L1  H    20    44       P1 10186  1.00
      P1  H  6896  6909       L1     6  0.99
      P1  H  6934  6947       L1     7  0.39

> <Gold.Chemscore.Hbond.Weighted>
-9.7642

> <Gold.Chemscore.Metal.Weighted>
-0.0000

> <Gold.Chemscore.Lipo.Weighted>
-10.0177

> <Gold.Chemscore.Internal_Hbond.Weighted>
0.0000

> <Gold.Chemscore.DEClash.Weighted>
0.0202

> <Gold.Chemscore.DEInternal.Weighted>
0.5294

> <Gold.Chemscore.Rot.Weighted>
5.4805

> <Gold.Chemscore.Internal.Correction.Weighted>
   9.000000E+99

> <Gold.Protein.RotatedTorsions>
[ 6907 6896 6895 6894 ] final   51.12 input  -60.11 | X-H torsion
[ 7974 7965 7964 7962 ] final -114.45 input  175.53 | X-H torsion
[ 8008 7997 7996 7995 ] final  -74.32 input   59.86 | X-H torsion
[ 10167 10162 10161 10158 ] final    4.67 input  -65.29 | X-H torsion
[ 10718 10713 10712 10709 ] final  -37.86 input   66.30 | X-H torsion
[ 10763 10752 10751 10750 ] final  -55.54 input  -60.55 | X-H torsion
[ 11005 11000 10999 10996 ] final  179.58 input  -57.11 | X-H torsion

> <Gold.Protein.ActiveResidues>
 VAL166  LYS551  ARG553  GLY616  TRP617  ASP618  TYR619  PRO620  LYS621  CYS622 
 ASP623  PHE694  ASN695  SER759  ASP760  ASP761  ALA762  ILE779  LEU786  VAL792 
 PHE793  MET794  SER795  GLU796  ALA797  LYS798  CYS799  TRP800  GLU811  SER814 

> <Gold.Protein.RotatedAtoms>
  152.3093  134.7517  160.0339 H   0  0  0  0  0  0  0  0  0  0  0  0  # atno 6907 bound_to 6896
  151.8004  133.3364  159.3533 H   0  0  0  0  0  0  0  0  0  0  0  0  # atno 6908 bound_to 6896
  150.7312  134.5689  159.5925 H   0  0  0  0  0  0  0  0  0  0  0  0  # atno 6909 bound_to 6896
  145.1200  140.8663  143.3819 H   0  0  0  0  0  0  0  0  0  0  0  0  # atno 7974 bound_to 7965
  154.5320  140.0763  156.8362 H   0  0  0  0  0  0  0  0  0  0  0  0  # atno 8008 bound_to 7997
  155.3354  140.3404  155.4221 H   0  0  0  0  0  0  0  0  0  0  0  0  # atno 8009 bound_to 7997
  156.1791  140.1646  156.8294 H   0  0  0  0  0  0  0  0  0  0  0  0  # atno 8010 bound_to 7997
  140.6522  143.7516  150.7594 H   0  0  0  0  0  0  0  0  0  0  0  0  # atno 10167 bound_to 10162
  156.3103  130.4252  149.8056 H   0  0  0  0  0  0  0  0  0  0  0  0  # atno 10718 bound_to 10713
  154.1925  135.6425  153.5064 H   0  0  0  0  0  0  0  0  0  0  0  0  # atno 10763 bound_to 10752
  153.0031  135.5432  154.6400 H   0  0  0  0  0  0  0  0  0  0  0  0  # atno 10764 bound_to 10752
  154.5793  135.2924  155.0722 H   0  0  0  0  0  0  0  0  0  0  0  0  # atno 10765 bound_to 10752
  140.4077  134.6720  157.4597 H   0  0  0  0  0  0  0  0  0  0  0  0  # atno 11005 bound_to 11000
  145.0750  139.3002  143.5812 LP  0  0  0  0  0  0  0  0  0  0  0  0  # atno 17320 bound_to 7965
  146.3521  140.0238  142.8656 LP  0  0  0  0  0  0  0  0  0  0  0  0  # atno 17321 bound_to 7965
  140.1169  143.4648  152.2337 LP  0  0  0  0  0  0  0  0  0  0  0  0  # atno 17342 bound_to 10162
  139.5739  144.7477  151.3817 LP  0  0  0  0  0  0  0  0  0  0  0  0  # atno 17343 bound_to 10162
  156.5402  130.8296  151.3266 LP  0  0  0  0  0  0  0  0  0  0  0  0  # atno 17370 bound_to 10713
  157.7389  130.9822  150.2283 LP  0  0  0  0  0  0  0  0  0  0  0  0  # atno 17371 bound_to 10713
  140.0290  134.6435  155.9133 LP  0  0  0  0  0  0  0  0  0  0  0  0  # atno 17394 bound_to 11000
  141.1833  133.6550  156.5110 LP  0  0  0  0  0  0  0  0  0  0  0  0  # atno 17395 bound_to 11000

$$$$
