AV-unprocessed.smi:1116|AV-procd|sdf|4807|dock5
  -GOLD-   22720 3353D 1   1.00000     0.00000
 Structure written by MMmdl.
 36 37  0  0  0  0  0  0  0  0  1 V2000
  153.3707  142.2486  162.2761 C   0  0  0  0  0  0  0  0  0  0  0  0
  152.7276  143.0857  161.2241 C   0  0  0  0  0  0  0  0  0  0  0  0
  152.5021  142.6635  159.9772 N   0  0  0  0  0  0  0  0  0  0  0  0
  151.8931  143.6383  159.1803 C   0  0  0  0  0  0  0  0  0  0  0  0
  151.5746  143.3435  157.7460 C   0  0  0  0  0  0  0  0  0  0  0  0
  150.5192  142.2337  157.6038 C   0  0  0  0  0  0  0  0  0  0  0  0
  149.9090  142.2283  156.2791 N   0  0  0  0  0  0  0  0  0  0  0  0
  149.8738  141.1761  155.4472 C   0  0  0  0  0  0  0  0  0  0  0  0
  150.3611  140.0801  155.7232 O   0  0  0  0  0  0  0  0  0  0  0  0
  149.1903  141.3998  154.0956 C   0  0  0  0  0  0  0  0  0  0  0  0
  147.7262  140.9203  154.0868 C   0  0  0  0  0  0  0  0  0  0  0  0
  147.5872  139.4045  153.8439 C   0  0  2  0  0  0  0  0  0  0  0  0
  147.7436  139.0408  152.4456 N   0  0  0  0  0  0  0  0  0  0  0  0
  146.6562  138.4370  151.9478 C   0  0  0  0  0  0  0  0  0  0  0  0
  146.5221  138.0256  150.7980 O   0  0  0  0  0  0  0  0  0  0  0  0
  145.7434  138.3621  152.9222 N   0  0  0  0  0  0  0  0  0  0  0  0
  146.1715  138.9005  154.0628 C   0  0  0  0  0  0  0  0  0  0  0  0
  145.5489  138.9886  155.1193 O   0  0  0  0  0  0  0  0  0  0  0  0
  151.6522  144.8117  159.8510 C   0  0  0  0  0  0  0  0  0  0  0  0
  152.1885  144.7362  161.5068 S   0  0  0  0  0  0  0  0  0  0  0  0
  153.7353  141.3119  161.8534 H   0  0  0  0  0  0  0  0  0  0  0  0
  152.6506  142.0215  163.0624 H   0  0  0  0  0  0  0  0  0  0  0  0
  154.2125  142.7843  162.7154 H   0  0  0  0  0  0  0  0  0  0  0  0
  151.2260  144.2515  157.2525 H   0  0  0  0  0  0  0  0  0  0  0  0
  152.4829  143.0483  157.2193 H   0  0  0  0  0  0  0  0  0  0  0  0
  150.9847  141.2601  157.7597 H   0  0  0  0  0  0  0  0  0  0  0  0
  149.7482  142.3356  158.3697 H   0  0  0  0  0  0  0  0  0  0  0  0
  149.4871  143.0917  155.9692 H   0  0  0  0  0  0  0  0  0  0  0  0
  149.2379  142.4585  153.8362 H   0  0  0  0  0  0  0  0  0  0  0  0
  149.7594  140.8669  153.3333 H   0  0  0  0  0  0  0  0  0  0  0  0
  147.2583  141.1656  155.0417 H   0  0  0  0  0  0  0  0  0  0  0  0
  147.1685  141.4701  153.3261 H   0  0  0  0  0  0  0  0  0  0  0  0
  148.2861  138.8360  154.4587 H   0  0  0  0  0  0  0  0  0  0  0  0
  148.5877  139.2208  151.9218 H   0  0  0  0  0  0  0  0  0  0  0  0
  144.8287  137.9517  152.8033 H   0  0  0  0  0  0  0  0  0  0  0  0
  151.1953  145.7138  159.4723 H   0  0  0  0  0  0  0  0  0  0  0  0
  1  2  1  0  0  0  0
  1 21  1  0  0  0  0
  1 22  1  0  0  0  0
  1 23  1  0  0  0  0
  2 20  1  0  0  0  0
  2  3  2  0  0  0  0
  3  4  1  0  0  0  0
  4  5  1  0  0  0  0
  4 19  2  0  0  0  0
  5  6  1  0  0  0  0
  5 24  1  0  0  0  0
  5 25  1  0  0  0  0
  6  7  1  0  0  0  0
  6 26  1  0  0  0  0
  6 27  1  0  0  0  0
  7  8  1  0  0  0  0
  7 28  1  0  0  0  0
  8  9  2  0  0  0  0
  8 10  1  0  0  0  0
 10 11  1  0  0  0  0
 10 29  1  0  0  0  0
 10 30  1  0  0  0  0
 11 12  1  0  0  0  0
 11 31  1  0  0  0  0
 11 32  1  0  0  0  0
 12 17  1  0  0  0  0
 12 13  1  0  0  0  0
 12 33  1  0  0  0  0
 13 14  1  0  0  0  0
 13 34  1  0  0  0  0
 14 15  2  0  0  0  0
 14 16  1  0  0  0  0
 16 17  1  0  0  0  0
 16 35  1  0  0  0  0
 17 18  2  0  0  0  0
 19 20  1  0  0  0  0
 19 36  1  0  0  0  0
M  END
> <s_m_source_file>
AV-unprocessed.smi

> <i_m_source_file_index>
1116

> <i_lp_mmshare_version>
43012

> <i_f3d_flags>
0

> <s_epik_input>
W0NIM11jMW5jKFtjSF1zMSlbQ0gyXVtDSDJdW05IXUMoPU8pW0NIMl1bQ0gyXVtDQEBIXTJbTkhdQyg9TylbTkhdQzI9Tw==

> <s_epik_cmdline>
J2VwaWtfcHl0aG9uJywgJy1waCcsICc3LjAnLCAnLXRuJywgJzgnLCAnLW1hJywgJzIwMCcsICctbWV0YWxfYmluZGluZycsICctaW1hZScsICc8aW5maWxlLm1hZT4nLCAnLW9tYWUnLCAnPG91dGZpbGUubWFlPic=

> <r_lp_tautomer_probability>
1

> <r_epik_Ionization_Penalty>
0.00889251

> <r_epik_Ionization_Penalty_Charging>
0

> <r_epik_Ionization_Penalty_Neutral>
0.00889251

> <r_epik_State_Penalty>
0.00583796

> <r_epik_Charging_Adjusted_Penalty>
0.00583796

> <i_epik_Tot_Q>
0

> <i_epik_Tot_abs_Q>
0

> <r_epik_Metal_State_Penalty>
0.408839

> <b_epik_Metal_Only>
0

> <s_lp_Force_Field>
OPLS_2005

> <r_lp_Energy>
12.4074

> <b_lp_Chiralities_Consistent>
1

> <s_lp_Variant>
AV-unprocessed.smi:1116-1

> <Gold.Version>
5.8.1

> <Gold.Id.Protein>
6NUR|6NUR_protein|mol2

> <Gold.PLP.Fitness>
47.9305

> <Gold.PLP.PLP>
-40.1646

> <Gold.PLP.part.hbond>
-4.6905

> <Gold.PLP.part.metal>
0.0000

> <Gold.PLP.part.buried>
-3.0038

> <Gold.PLP.part.nonpolar>
-34.3294

> <Gold.PLP.part.repulsive>
2.2151

> <Gold.PLP.ligand.clash>
0.0000

> <Gold.PLP.ligand.torsion>
0.6525

> <Gold.PLP.Chemscore.Hbond>
3.0000

> <Gold.PLP.Chemscore.CHOScore>
0.0000

> <Gold.PLP.Chemscore.Metal>
0.0000

> <Gold.Chemscore.Hbonds>
donor molecule, donor type, donor heavy atom, donor atom, acceptor molecule, acceptor atom, score
      L1  H     7    28       P1  8028  1.00
      L1  H    13    34       P1  7957  0.89
      P1  H  7954  7966       L1    15  1.00

> <Gold.PLP.Chemscore.Internal.Correction>
0.0708

> <Gold.Rescore>
     Score         DG    S(hbond)    S(metal)    S(lipo)     H(rot)  DE(clash)    DE(int)     intcor
     16.57     -19.33       2.88        0.00      97.97       2.83       2.14       0.62       ----

> <Gold.Chemscore.Fitness>
16.5688

> <Gold.Chemscore.DG>
-19.3260

> <Gold.Chemscore.ZeroCoef>
-5.4800

> <Gold.Chemscore.Hbond>
2.8845

> <Gold.Chemscore.Metal>
0.0000

> <Gold.Chemscore.Lipo>
97.9713

> <Gold.Chemscore.Internal_Hbond>
0.0000

> <Gold.Chemscore.DEClash>
2.1406

> <Gold.Chemscore.DEInternal>
0.6167

> <Gold.Chemscore.Rot>
2.8324

> <Gold.Chemscore.Internal.Correction>
   9.000000E+99

> <Gold.Chemscore.Hbonds>
donor molecule, donor type, donor heavy atom, donor atom, acceptor molecule, acceptor atom, score
      L1  H     7    28       P1  8028  1.00
      L1  H    13    34       P1  7957  0.85
      P1  H  7954  7966       L1    15  0.83

> <Gold.Chemscore.Hbond.Weighted>
-9.6343

> <Gold.Chemscore.Metal.Weighted>
-0.0000

> <Gold.Chemscore.Lipo.Weighted>
-11.4626

> <Gold.Chemscore.Internal_Hbond.Weighted>
0.0000

> <Gold.Chemscore.DEClash.Weighted>
2.1406

> <Gold.Chemscore.DEInternal.Weighted>
0.6167

> <Gold.Chemscore.Rot.Weighted>
7.2510

> <Gold.Chemscore.Internal.Correction.Weighted>
   9.000000E+99

> <Gold.Protein.RotatedTorsions>
[ 6907 6896 6895 6894 ] final  164.20 input  -60.11 | X-H torsion
[ 7974 7965 7964 7962 ] final  149.72 input  175.53 | X-H torsion
[ 8008 7997 7996 7995 ] final -110.02 input   59.86 | X-H torsion
[ 10167 10162 10161 10158 ] final   50.11 input  -65.29 | X-H torsion
[ 10718 10713 10712 10709 ] final   89.37 input   66.30 | X-H torsion
[ 10763 10752 10751 10750 ] final -161.22 input  -60.55 | X-H torsion
[ 11005 11000 10999 10996 ] final  -95.92 input  -57.11 | X-H torsion

> <Gold.Protein.ActiveResidues>
 VAL166  LYS551  ARG553  GLY616  TRP617  ASP618  TYR619  PRO620  LYS621  CYS622 
 ASP623  PHE694  ASN695  SER759  ASP760  ASP761  ALA762  ILE779  LEU786  VAL792 
 PHE793  MET794  SER795  GLU796  ALA797  LYS798  CYS799  TRP800  GLU811  SER814 

> <Gold.Protein.RotatedAtoms>
  151.9134  133.3567  159.3871 H   0  0  0  0  0  0  0  0  0  0  0  0  # atno 6907 bound_to 6896
  150.7053  134.4708  159.5434 H   0  0  0  0  0  0  0  0  0  0  0  0  # atno 6908 bound_to 6896
  152.2319  134.8314  160.0523 H   0  0  0  0  0  0  0  0  0  0  0  0  # atno 6909 bound_to 6896
  144.8417  139.6317  143.6013 H   0  0  0  0  0  0  0  0  0  0  0  0  # atno 7974 bound_to 7965
  154.9681  140.0398  157.2221 H   0  0  0  0  0  0  0  0  0  0  0  0  # atno 8008 bound_to 7997
  154.7826  140.2821  155.6029 H   0  0  0  0  0  0  0  0  0  0  0  0  # atno 8009 bound_to 7997
  156.2938  140.2588  156.2655 H   0  0  0  0  0  0  0  0  0  0  0  0  # atno 8010 bound_to 7997
  140.2759  144.3212  150.6277 H   0  0  0  0  0  0  0  0  0  0  0  0  # atno 10167 bound_to 10162
  157.6955  131.0330  150.3416 H   0  0  0  0  0  0  0  0  0  0  0  0  # atno 10718 bound_to 10713
  154.7322  135.3049  154.8872 H   0  0  0  0  0  0  0  0  0  0  0  0  # atno 10763 bound_to 10752
  153.9711  135.6741  153.4751 H   0  0  0  0  0  0  0  0  0  0  0  0  # atno 10764 bound_to 10752
  153.0929  135.4950  154.8645 H   0  0  0  0  0  0  0  0  0  0  0  0  # atno 10765 bound_to 10752
  141.1427  133.8061  157.0501 H   0  0  0  0  0  0  0  0  0  0  0  0  # atno 11005 bound_to 11000
  146.2708  139.6631  142.9297 LP  0  0  0  0  0  0  0  0  0  0  0  0  # atno 17320 bound_to 7965
  145.4681  141.0435  143.2714 LP  0  0  0  0  0  0  0  0  0  0  0  0  # atno 17321 bound_to 7965
  140.5852  143.2170  151.7356 LP  0  0  0  0  0  0  0  0  0  0  0  0  # atno 17342 bound_to 10162
  139.4976  144.4022  152.0169 LP  0  0  0  0  0  0  0  0  0  0  0  0  # atno 17343 bound_to 10162
  156.3876  130.3892  149.7054 LP  0  0  0  0  0  0  0  0  0  0  0  0  # atno 17370 bound_to 10713
  156.4415  130.7863  151.2884 LP  0  0  0  0  0  0  0  0  0  0  0  0  # atno 17371 bound_to 10713
  140.0637  134.9741  157.1349 LP  0  0  0  0  0  0  0  0  0  0  0  0  # atno 17394 bound_to 11000
  140.3811  134.2286  155.7171 LP  0  0  0  0  0  0  0  0  0  0  0  0  # atno 17395 bound_to 11000

$$$$
