AV-unprocessed.smi:2038|AV-procd|sdf|8280|dock7
  -GOLD-   2272010553D 1   1.00000     0.00000
 Structure written by MMmdl.
 33 34  0  0  0  0  0  0  0  0  1 V2000
  151.0871  140.7593  155.0552 O   0  0  0  0  0  0  0  0  0  0  0  0
  150.2272  141.2717  155.7722 C   0  0  0  0  0  0  0  0  0  0  0  0
  150.3215  141.3912  157.1093 N   0  0  0  0  0  0  0  0  0  0  0  0
  151.3903  140.9944  157.9572 C   0  0  0  0  0  0  0  0  0  0  0  0
  151.5283  141.6438  159.2004 C   0  0  0  0  0  0  0  0  0  0  0  0
  152.5913  141.2826  160.0495 C   0  0  0  0  0  0  0  0  0  0  0  0
  153.4933  140.2880  159.6229 C   0  0  0  0  0  0  0  0  0  0  0  0
  154.5328  139.9374  160.4592 O   0  0  0  0  0  0  0  0  0  0  0  0
  154.4815  140.3573  161.8204 C   0  0  0  0  0  0  0  0  0  0  0  0
  155.3873  139.4522  162.6634 C   0  0  0  0  0  0  0  0  0  0  0  0
  156.6309  139.5074  162.1877 F   0  0  0  0  0  0  0  0  0  0  0  0
  155.3962  139.8616  163.9317 F   0  0  0  0  0  0  0  0  0  0  0  0
  154.9626  138.1904  162.6032 F   0  0  0  0  0  0  0  0  0  0  0  0
  153.3795  139.6689  158.4219 N   0  0  0  0  0  0  0  0  0  0  0  0
  152.3564  140.0179  157.6128 C   0  0  0  0  0  0  0  0  0  0  0  0
  148.9385  141.8155  155.1444 C   0  0  2  0  0  0  0  0  0  0  0  0
  147.6647  141.0793  155.6002 C   0  0  0  0  0  0  0  0  0  0  0  0
  147.2397  140.3016  154.3705 C   0  0  0  0  0  0  0  0  0  0  0  0
  147.7551  141.1905  153.2482 C   0  0  0  0  0  0  0  0  0  0  0  0
  149.0173  141.6212  153.7331 O   0  0  0  0  0  0  0  0  0  0  0  0
  149.5047  141.7546  157.5788 H   0  0  0  0  0  0  0  0  0  0  0  0
  150.8266  142.4064  159.5053 H   0  0  0  0  0  0  0  0  0  0  0  0
  152.7134  141.7607  161.0102 H   0  0  0  0  0  0  0  0  0  0  0  0
  154.8138  141.3931  161.9097 H   0  0  0  0  0  0  0  0  0  0  0  0
  153.4575  140.3016  162.1941 H   0  0  0  0  0  0  0  0  0  0  0  0
  152.3395  139.5089  156.6617 H   0  0  0  0  0  0  0  0  0  0  0  0
  148.8382  142.8827  155.3506 H   0  0  0  0  0  0  0  0  0  0  0  0
  147.8089  140.4297  156.4651 H   0  0  0  0  0  0  0  0  0  0  0  0
  146.8962  141.8066  155.8652 H   0  0  0  0  0  0  0  0  0  0  0  0
  147.7454  139.3354  154.3438 H   0  0  0  0  0  0  0  0  0  0  0  0
  146.1643  140.1293  154.3216 H   0  0  0  0  0  0  0  0  0  0  0  0
  147.8473  140.6627  152.2987 H   0  0  0  0  0  0  0  0  0  0  0  0
  147.1041  142.0542  153.1042 H   0  0  0  0  0  0  0  0  0  0  0  0
  1  2  2  0  0  0  0
  2  3  1  0  0  0  0
  2 16  1  0  0  0  0
  3  4  1  0  0  0  0
  3 21  1  0  0  0  0
  4 15  1  0  0  0  0
  4  5  2  0  0  0  0
  5  6  1  0  0  0  0
  5 22  1  0  0  0  0
  6  7  2  0  0  0  0
  6 23  1  0  0  0  0
  7  8  1  0  0  0  0
  7 14  1  0  0  0  0
  8  9  1  0  0  0  0
  9 10  1  0  0  0  0
  9 24  1  0  0  0  0
  9 25  1  0  0  0  0
 10 11  1  0  0  0  0
 10 12  1  0  0  0  0
 10 13  1  0  0  0  0
 14 15  2  0  0  0  0
 15 26  1  0  0  0  0
 16 20  1  0  0  0  0
 16 17  1  0  0  0  0
 16 27  1  0  0  0  0
 17 18  1  0  0  0  0
 17 28  1  0  0  0  0
 17 29  1  0  0  0  0
 18 19  1  0  0  0  0
 18 30  1  0  0  0  0
 18 31  1  0  0  0  0
 19 20  1  0  0  0  0
 19 32  1  0  0  0  0
 19 33  1  0  0  0  0
M  END
> <s_m_source_file>
AV-unprocessed.smi

> <i_m_source_file_index>
2038

> <i_lp_mmshare_version>
43012

> <i_f3d_flags>
0

> <s_epik_input>
TzFbQ0gyXVtDSDJdW0NIMl1bQ0BIXTFDKD1PKVtOSF1jMltjSF1bY0hdYyhuW2NIXTIpT1tDSDJdQyhGKShGKUY=

> <s_epik_cmdline>
J2VwaWtfcHl0aG9uJywgJy1waCcsICc3LjAnLCAnLXRuJywgJzgnLCAnLW1hJywgJzIwMCcsICctbWV0YWxfYmluZGluZycsICctaW1hZScsICc8aW5maWxlLm1hZT4nLCAnLW9tYWUnLCAnPG91dGZpbGUubWFlPic=

> <r_lp_tautomer_probability>
1

> <r_epik_Ionization_Penalty>
2.73305e-06

> <r_epik_Ionization_Penalty_Charging>
0

> <r_epik_Ionization_Penalty_Neutral>
2.73305e-06

> <r_epik_State_Penalty>
-0

> <r_epik_Charging_Adjusted_Penalty>
0

> <i_epik_Tot_Q>
0

> <i_epik_Tot_abs_Q>
0

> <r_epik_Metal_State_Penalty>
-0

> <b_epik_Metal_Only>
0

> <s_lp_Force_Field>
OPLS_2005

> <r_lp_Energy>
22.8429

> <b_lp_Chiralities_Consistent>
1

> <s_lp_Variant>
AV-unprocessed.smi:2038-1

> <Gold.Version>
5.8.1

> <Gold.Id.Protein>
6NUR|6NUR_protein|mol2

> <Gold.PLP.Fitness>
38.5877

> <Gold.PLP.PLP>
-31.0560

> <Gold.PLP.part.hbond>
-3.4009

> <Gold.PLP.part.metal>
0.0000

> <Gold.PLP.part.buried>
-1.5377

> <Gold.PLP.part.nonpolar>
-25.8926

> <Gold.PLP.part.repulsive>
0.8213

> <Gold.PLP.ligand.clash>
0.0000

> <Gold.PLP.ligand.torsion>
0.4085

> <Gold.PLP.Chemscore.Hbond>
2.7760

> <Gold.PLP.Chemscore.CHOScore>
0.0000

> <Gold.PLP.Chemscore.Metal>
0.0000

> <Gold.Chemscore.Hbonds>
donor molecule, donor type, donor heavy atom, donor atom, acceptor molecule, acceptor atom, score
      P1  H  7989  7998       L1     1  0.83
      P1  H  7997  8009       L1    14  0.96
      P1  H  8011  8017       L1    20  0.69

> <Gold.PLP.Chemscore.Internal.Correction>
0.0208

> <Gold.Rescore>
     Score         DG    S(hbond)    S(metal)    S(lipo)     H(rot)  DE(clash)    DE(int)     intcor
     11.53     -13.66       1.65        0.00      59.94       1.69       0.39       1.73       ----

> <Gold.Chemscore.Fitness>
11.5349

> <Gold.Chemscore.DG>
-13.6579

> <Gold.Chemscore.ZeroCoef>
-5.4800

> <Gold.Chemscore.Hbond>
1.6455

> <Gold.Chemscore.Metal>
0.0000

> <Gold.Chemscore.Lipo>
59.9440

> <Gold.Chemscore.Internal_Hbond>
0.0000

> <Gold.Chemscore.DEClash>
0.3936

> <Gold.Chemscore.DEInternal>
1.7294

> <Gold.Chemscore.Rot>
1.6919

> <Gold.Chemscore.Internal.Correction>
   9.000000E+99

> <Gold.Chemscore.Hbonds>
donor molecule, donor type, donor heavy atom, donor atom, acceptor molecule, acceptor atom, score
      P1  H  7989  7998       L1     1  0.83
      P1  H  7997  8009       L1    14  0.22
      P1  H  8011  8017       L1    20  0.35

> <Gold.Chemscore.Hbond.Weighted>
-5.4958

> <Gold.Chemscore.Metal.Weighted>
-0.0000

> <Gold.Chemscore.Lipo.Weighted>
-7.0134

> <Gold.Chemscore.Internal_Hbond.Weighted>
0.0000

> <Gold.Chemscore.DEClash.Weighted>
0.3936

> <Gold.Chemscore.DEInternal.Weighted>
1.7294

> <Gold.Chemscore.Rot.Weighted>
4.3313

> <Gold.Chemscore.Internal.Correction.Weighted>
   9.000000E+99

> <Gold.Protein.RotatedTorsions>
[ 6907 6896 6895 6894 ] final   17.81 input  -60.11 | X-H torsion
[ 7974 7965 7964 7962 ] final  133.79 input  175.53 | X-H torsion
[ 8008 7997 7996 7995 ] final  130.37 input   59.86 | X-H torsion
[ 10167 10162 10161 10158 ] final   95.61 input  -65.29 | X-H torsion
[ 10718 10713 10712 10709 ] final   55.13 input   66.30 | X-H torsion
[ 10763 10752 10751 10750 ] final -110.75 input  -60.55 | X-H torsion
[ 11005 11000 10999 10996 ] final   77.56 input  -57.11 | X-H torsion

> <Gold.Protein.ActiveResidues>
 VAL166  LYS551  ARG553  GLY616  TRP617  ASP618  TYR619  PRO620  LYS621  CYS622 
 ASP623  PHE694  ASN695  SER759  ASP760  ASP761  ALA762  ILE779  LEU786  VAL792 
 PHE793  MET794  SER795  GLU796  ALA797  LYS798  CYS799  TRP800  GLU811  SER814 

> <Gold.Protein.RotatedAtoms>
  151.8555  135.0543  160.0463 H   0  0  0  0  0  0  0  0  0  0  0  0  # atno 6907 bound_to 6896
  152.2703  133.5372  159.5444 H   0  0  0  0  0  0  0  0  0  0  0  0  # atno 6908 bound_to 6896
  150.7149  134.0622  159.3877 H   0  0  0  0  0  0  0  0  0  0  0  0  # atno 6909 bound_to 6896
  144.9829  139.4486  143.5377 H   0  0  0  0  0  0  0  0  0  0  0  0  # atno 7974 bound_to 7965
  156.2953  140.2597  156.2751 H   0  0  0  0  0  0  0  0  0  0  0  0  # atno 8008 bound_to 7997
  154.9657  140.0392  157.2229 H   0  0  0  0  0  0  0  0  0  0  0  0  # atno 8009 bound_to 7997
  154.7905  140.2811  155.6000 H   0  0  0  0  0  0  0  0  0  0  0  0  # atno 8010 bound_to 7997
  139.7972  144.6828  150.9813 H   0  0  0  0  0  0  0  0  0  0  0  0  # atno 10167 bound_to 10162
  157.5318  130.8636  149.8698 H   0  0  0  0  0  0  0  0  0  0  0  0  # atno 10718 bound_to 10713
  154.8265  135.4552  154.0934 H   0  0  0  0  0  0  0  0  0  0  0  0  # atno 10763 bound_to 10752
  153.2244  135.6898  153.7969 H   0  0  0  0  0  0  0  0  0  0  0  0  # atno 10764 bound_to 10752
  153.7374  135.3317  155.3274 H   0  0  0  0  0  0  0  0  0  0  0  0  # atno 10765 bound_to 10752
  139.9249  134.7693  156.1537 H   0  0  0  0  0  0  0  0  0  0  0  0  # atno 11005 bound_to 11000
  146.3412  139.9113  142.8780 LP  0  0  0  0  0  0  0  0  0  0  0  0  # atno 17320 bound_to 7965
  145.2395  141.0004  143.3944 LP  0  0  0  0  0  0  0  0  0  0  0  0  # atno 17321 bound_to 7965
  140.7820  143.4319  151.0682 LP  0  0  0  0  0  0  0  0  0  0  0  0  # atno 17342 bound_to 10162
  139.7993  143.8107  152.3161 LP  0  0  0  0  0  0  0  0  0  0  0  0  # atno 17343 bound_to 10162
  156.0428  130.3735  150.1392 LP  0  0  0  0  0  0  0  0  0  0  0  0  # atno 17370 bound_to 10713
  156.9576  130.9794  151.3486 LP  0  0  0  0  0  0  0  0  0  0  0  0  # atno 17371 bound_to 10713
  141.0799  133.6759  156.2315 LP  0  0  0  0  0  0  0  0  0  0  0  0  # atno 17394 bound_to 11000
  140.6364  134.5210  157.5565 LP  0  0  0  0  0  0  0  0  0  0  0  0  # atno 17395 bound_to 11000

$$$$
