#       Name:                AV-unprocessed.smi:1401
#       Creating user name   scv26
#       Creation time:       Fri Mar 27 05:31:38 2020


#       File generated by GOLD software.
#

@<TRIPOS>MOLECULE
AV-unprocessed.smi:1401
    54    56     1
SMALL
NO_CHARGES


@<TRIPOS>ATOM
      1 ****        -2.4687   1.9995   1.8391 C.3            1 S1                 0.0000
      2 ****        -1.8128   0.6841   2.1606 C.2            1 S1                 0.0000
      3 ****        -0.5574   0.7212   2.4639 N.2            1 S1                 0.0000
      4 ****         0.1500  -0.4310   2.7515 N.am           1 S1                 0.0000
      5 ****         1.5897  -0.2011   2.9638 C.3            1 S1                 0.0000
      6 ****         2.4074  -0.1378   1.6613 C.2            1 S1                 0.0000
      7 ****         3.5372   0.3490   1.6791 O.2            1 S1                 0.0000
      8 ****         1.8213  -0.5857   0.5387 N.am           1 S1                 0.0000
      9 ****         2.3264  -0.4452  -0.8213 C.3            1 S1                 0.0000
     10 ****         3.3778  -1.5287  -1.1161 C.3            1 S1                 0.0000
     11 ****         1.1366  -0.5094  -1.8088 C.3            1 S1                 0.0000
     12 ****         1.4595  -0.0385  -3.2440 C.3            1 S1                 0.0000
     13 ****         0.3256   0.9613  -3.5425 C.3            1 S1                 0.0000
     14 ****         0.5713   2.2574  -2.7474 C.3            1 S1                 0.0000
     15 ****         0.2460   1.8356  -1.3029 C.3            1 S1                 0.0000
     16 ****        -0.1102   0.3433  -1.4573 C.3            1 S1                 0.0000
     17 ****        -0.8507   0.3503  -2.7900 C.3            1 S1                 0.0000
     18 ****        -0.3853  -1.6860   2.7651 C.2            1 S1                 0.0000
     19 ****         0.2852  -2.6900   3.0085 O.2            1 S1                 0.0000
     20 ****        -1.8125  -1.7187   2.4366 C.2            1 S1                 0.0000
     21 ****        -2.4123  -3.0140   2.4363 C.1            1 S1                 0.0000
     22 ****        -2.9161  -4.0561   2.4284 N.1            1 S1                 0.0000
     23 ****        -2.5128  -0.5955   2.1391 C.2            1 S1                 0.0000
     24 ****        -3.9908  -0.5769   1.7746 C.3            1 S1                 0.0000
     25 ****        -3.2821   2.2071   2.5346 H              1 S1                 0.0000
     26 ****        -2.8791   1.9893   0.8292 H              1 S1                 0.0000
     27 ****        -1.7639   2.8305   1.8974 H              1 S1                 0.0000
     28 ****         1.7268   0.7403   3.4991 H              1 S1                 0.0000
     29 ****         2.0244  -0.9646   3.6107 H              1 S1                 0.0000
     30 ****         0.8978  -0.9834   0.6299 H              1 S1                 0.0000
     31 ****         2.8070   0.5303  -0.9114 H              1 S1                 0.0000
     32 ****         3.7709  -1.4313  -2.1282 H              1 S1                 0.0000
     33 ****         2.9553  -2.5293  -1.0188 H              1 S1                 0.0000
     34 ****         4.2233  -1.4576  -0.4315 H              1 S1                 0.0000
     35 ****         0.8043  -1.5481  -1.8590 H              1 S1                 0.0000
     36 ****         2.4418   0.4273  -3.3312 H              1 S1                 0.0000
     37 ****         1.4319  -0.8807  -3.9364 H              1 S1                 0.0000
     38 ****         0.1577   1.1271  -4.6070 H              1 S1                 0.0000
     39 ****         1.5939   2.6214  -2.8545 H              1 S1                 0.0000
     40 ****        -0.1022   3.0502  -3.0753 H              1 S1                 0.0000
     41 ****         1.0712   2.0140  -0.6142 H              1 S1                 0.0000
     42 ****        -0.6132   2.3941  -0.9293 H              1 S1                 0.0000
     43 ****        -0.6915  -0.0547  -0.6252 H              1 S1                 0.0000
     44 ****        -1.7404   0.9827  -2.7884 H              1 S1                 0.0000
     45 ****        -1.1210  -0.6465  -3.1432 H              1 S1                 0.0000
     46 ****        -4.4361  -1.5711   1.8015 H              1 S1                 0.0000
     47 ****        -4.1297  -0.1828   0.7670 H              1 S1                 0.0000
     48 ****        -4.5496   0.0503   2.4701 H              1 S1                 0.0000
     49 ****        -0.0870   1.6032   2.4911 LP             1 S1                 0.0000
     50 ****         3.9171   0.6995   2.5351 LP             1 S1                 0.0000
     51 ****         4.0755   0.3941   0.8375 LP             1 S1                 0.0000
     52 ****         1.2615  -2.6033   3.2063 LP             1 S1                 0.0000
     53 ****        -0.1468  -3.5919   3.0082 LP             1 S1                 0.0000
     54 ****        -3.3514  -4.9564   2.4215 LP             1 S1                 0.0000
@<TRIPOS>BOND
    1    1    2 1     
    2    1   25 1     
    3    1   26 1     
    4    1   27 1     
    5    2   23 1     
    6    2    3 2     
    7    3    4 1     
    8    4    5 1     
    9    4   18 am    
   10    5    6 1     
   11    5   28 1     
   12    5   29 1     
   13    6    7 2     
   14    6    8 am    
   15    8    9 1     
   16    8   30 1     
   17    9   10 1     
   18    9   11 1     
   19    9   31 1     
   20   10   32 1     
   21   10   33 1     
   22   10   34 1     
   23   11   16 1     
   24   11   12 1     
   25   11   35 1     
   26   12   13 1     
   27   12   36 1     
   28   12   37 1     
   29   13   17 1     
   30   13   14 1     
   31   13   38 1     
   32   14   15 1     
   33   14   39 1     
   34   14   40 1     
   35   15   16 1     
   36   15   41 1     
   37   15   42 1     
   38   16   17 1     
   39   16   43 1     
   40   17   44 1     
   41   17   45 1     
   42   18   19 2     
   43   18   20 1     
   44   20   21 1     
   45   20   23 2     
   46   21   22 3     
   47   23   24 1     
   48   24   46 1     
   49   24   47 1     
   50   24   48 1     
   51    3   49 1     
   52    7   50 1     
   53    7   51 1     
   54   19   52 1     
   55   19   53 1     
   56   22   54 1     
@<TRIPOS>SUBSTRUCTURE
      1 S1             1
@<TRIPOS>SET
LONE_PAIRS      STATIC     ATOMS    <user>   **** ""
6 49 50 51 52 53 54
DONOR_HYDROGENS      STATIC     ATOMS    <user>   **** ""
1 30
ATOM$BLUE        STATIC     ATOMS    COLORGROUP SYSTEM
6 49 50 51 52 53 54
ATOM$RED        STATIC     ATOMS    COLORGROUP SYSTEM
1 30
