AV-unprocessed.smi:2095|AV-procd|sdf|8559|dock7
  -GOLD-   2272011283D 1   1.00000     0.00000
 Structure written by MMmdl.
 42 43  0  0  0  0  0  0  0  0  2 V2000
  145.9915  137.2417  152.2135 C   0  0  0  0  0  0  0  0  0  0  0  0
  145.2082  135.9900  152.6483 C   0  0  1  0  0  0  0  0  0  0  0  0
  144.7422  135.1387  151.4555 C   0  0  0  0  0  0  0  0  0  0  0  0
  145.9168  134.3726  150.8376 C   0  0  0  0  0  0  0  0  0  0  0  0
  146.6481  133.5480  151.9062 C   0  0  0  0  0  0  0  0  0  0  0  0
  147.1322  134.4032  153.0274 N   0  3  2  0  0  0  0  0  0  0  0  0
  148.0423  133.6477  153.9512 C   0  0  1  0  0  0  0  0  0  0  0  0
  149.0989  132.8893  153.1178 C   0  0  0  0  0  0  0  0  0  0  0  0
  148.7188  134.5191  155.0458 C   0  0  0  0  0  0  0  0  0  0  0  0
  149.3925  135.6945  154.4973 N   0  0  0  0  0  0  0  0  0  0  0  0
  150.0456  136.6248  155.2119 C   0  0  0  0  0  0  0  0  0  0  0  0
  150.1373  136.5931  156.4391 O   0  0  0  0  0  0  0  0  0  0  0  0
  150.6809  137.7712  154.4209 C   0  0  0  0  0  0  0  0  0  0  0  0
  152.0836  137.9347  154.7560 N   0  0  0  0  0  0  0  0  0  0  0  0
  152.9833  138.8336  154.3512 C   0  0  0  0  0  0  0  0  0  0  0  0
  154.1681  138.6231  154.9037 N   0  0  0  0  0  0  0  0  0  0  0  0
  153.9507  137.5107  155.6996 N   0  0  0  0  0  0  0  0  0  0  0  0
  152.7154  137.0984  155.6169 N   0  0  0  0  0  0  0  0  0  0  0  0
  145.9949  135.1330  153.6640 C   0  0  0  0  0  0  0  0  0  0  0  0
  146.9310  136.9859  151.7235 H   0  0  0  0  0  0  0  0  0  0  0  0
  146.2303  137.8714  153.0710 H   0  0  0  0  0  0  0  0  0  0  0  0
  145.4084  137.8459  151.5179 H   0  0  0  0  0  0  0  0  0  0  0  0
  144.3125  136.3526  153.1543 H   0  0  0  0  0  0  0  0  0  0  0  0
  143.9896  134.4254  151.7942 H   0  0  0  0  0  0  0  0  0  0  0  0
  144.2567  135.7619  150.7036 H   0  0  0  0  0  0  0  0  0  0  0  0
  145.5526  133.7148  150.0479 H   0  0  0  0  0  0  0  0  0  0  0  0
  146.6122  135.0649  150.3621 H   0  0  0  0  0  0  0  0  0  0  0  0
  145.9823  132.7784  152.3002 H   0  0  0  0  0  0  0  0  0  0  0  0
  147.4760  133.0242  151.4309 H   0  0  0  0  0  0  0  0  0  0  0  0
  147.4339  132.9107  154.4783 H   0  0  0  0  0  0  0  0  0  0  0  0
  149.6945  132.2182  153.7360 H   0  0  0  0  0  0  0  0  0  0  0  0
  149.7836  133.5831  152.6287 H   0  0  0  0  0  0  0  0  0  0  0  0
  148.6537  132.2695  152.3411 H   0  0  0  0  0  0  0  0  0  0  0  0
  147.9926  134.8111  155.8065 H   0  0  0  0  0  0  0  0  0  0  0  0
  149.4960  133.9517  155.5580 H   0  0  0  0  0  0  0  0  0  0  0  0
  149.3668  135.8053  153.4937 H   0  0  0  0  0  0  0  0  0  0  0  0
  150.6005  137.5932  153.3475 H   0  0  0  0  0  0  0  0  0  0  0  0
  150.1462  138.6977  154.6350 H   0  0  0  0  0  0  0  0  0  0  0  0
  152.7722  139.6336  153.6571 H   0  0  0  0  0  0  0  0  0  0  0  0
  146.3453  135.8033  154.4480 H   0  0  0  0  0  0  0  0  0  0  0  0
  145.3275  134.4106  154.1368 H   0  0  0  0  0  0  0  0  0  0  0  0
  147.7069  135.1237  152.6136 H   0  0  0  0  0  0  0  0  0  0  0  0
  1  2  1  0  0  0  0
  1 20  1  0  0  0  0
  1 21  1  0  0  0  0
  1 22  1  0  0  0  0
  2 19  1  0  0  0  0
  2  3  1  0  0  0  0
  2 23  1  0  0  0  0
  3  4  1  0  0  0  0
  3 24  1  0  0  0  0
  3 25  1  0  0  0  0
  4  5  1  0  0  0  0
  4 26  1  0  0  0  0
  4 27  1  0  0  0  0
  5  6  1  0  0  0  0
  5 28  1  0  0  0  0
  5 29  1  0  0  0  0
  6  7  1  0  0  0  0
  6 19  1  0  0  0  0
  6 42  1  0  0  0  0
  7  8  1  0  0  0  0
  7  9  1  0  0  0  0
  7 30  1  0  0  0  0
  8 31  1  0  0  0  0
  8 32  1  0  0  0  0
  8 33  1  0  0  0  0
  9 10  1  0  0  0  0
  9 34  1  0  0  0  0
  9 35  1  0  0  0  0
 10 11  1  0  0  0  0
 10 36  1  0  0  0  0
 11 12  2  0  0  0  0
 11 13  1  0  0  0  0
 13 14  1  0  0  0  0
 13 37  1  0  0  0  0
 13 38  1  0  0  0  0
 14 18  1  0  0  0  0
 14 15  1  0  0  0  0
 15 16  2  0  0  0  0
 15 39  1  0  0  0  0
 16 17  1  0  0  0  0
 17 18  2  0  0  0  0
 19 40  1  0  0  0  0
 19 41  1  0  0  0  0
M  CHG  1   6   1
M  END
> <s_m_source_file>
AV-unprocessed.smi

> <i_m_source_file_index>
2095

> <i_lp_mmshare_version>
43012

> <i_f3d_flags>
0

> <s_epik_input>
W0NIM11bQ0BASF0xW0NIMl1bQ0gyXVtDSDJdTihbQ0gyXTEpW0NASF0oW0NIM10pW0NIMl1bTkhdQyg9TylbQ0gyXW4yW2NIXW5ubjI=

> <s_epik_cmdline>
J2VwaWtfcHl0aG9uJywgJy1waCcsICc3LjAnLCAnLXRuJywgJzgnLCAnLW1hJywgJzIwMCcsICctbWV0YWxfYmluZGluZycsICctaW1hZScsICc8aW5maWxlLm1hZT4nLCAnLW9tYWUnLCAnPG91dGZpbGUubWFlPic=

> <r_lp_tautomer_probability>
1

> <r_epik_Ionization_Penalty>
0.00268321

> <r_epik_Ionization_Penalty_Charging>
0.00267875

> <r_epik_Ionization_Penalty_Neutral>
4.46125e-06

> <r_epik_State_Penalty>
0.00186642

> <r_epik_Charging_Adjusted_Penalty>
0.00454517

> <i_epik_Tot_Q>
1

> <i_epik_Tot_abs_Q>
1

> <r_epik_Metal_State_Penalty>
-0

> <b_epik_Metal_Only>
0

> <s_lp_Force_Field>
OPLS_2005

> <r_lp_Energy>
29.9009

> <b_lp_Chiralities_Consistent>
1

> <s_lp_Variant>
AV-unprocessed.smi:2095-6

> <Gold.Version>
5.8.1

> <Gold.Id.Protein>
6NUR|6NUR_protein|mol2

> <Gold.PLP.Fitness>
43.6241

> <Gold.PLP.PLP>
-30.8704

> <Gold.PLP.part.hbond>
-4.9437

> <Gold.PLP.part.metal>
0.0000

> <Gold.PLP.part.buried>
-4.2213

> <Gold.PLP.part.nonpolar>
-21.2969

> <Gold.PLP.part.repulsive>
0.0347

> <Gold.PLP.ligand.clash>
0.0000

> <Gold.PLP.ligand.torsion>
0.1685

> <Gold.PLP.Chemscore.Hbond>
4.3408

> <Gold.PLP.Chemscore.CHOScore>
0.0000

> <Gold.PLP.Chemscore.Metal>
0.0000

> <Gold.Chemscore.Hbonds>
donor molecule, donor type, donor heavy atom, donor atom, acceptor molecule, acceptor atom, score
      L1  H     6    42       P1  7948  2.00
      L1  H    10    36       P1  7948  1.00
      P1  H  7997  8008       L1    16  0.62
      P1  H 10752 10765       L1    18  0.53

> <Gold.PLP.Chemscore.Internal.Correction>
0.0683

> <Gold.Rescore>
     Score         DG    S(hbond)    S(metal)    S(lipo)     H(rot)  DE(clash)    DE(int)     intcor
     11.50     -13.80       2.78        0.00      49.50       2.64       0.68       1.62       ----

> <Gold.Chemscore.Fitness>
11.4955

> <Gold.Chemscore.DG>
-13.7971

> <Gold.Chemscore.ZeroCoef>
-5.4800

> <Gold.Chemscore.Hbond>
2.7826

> <Gold.Chemscore.Metal>
0.0000

> <Gold.Chemscore.Lipo>
49.5016

> <Gold.Chemscore.Internal_Hbond>
0.0000

> <Gold.Chemscore.DEClash>
0.6850

> <Gold.Chemscore.DEInternal>
1.6166

> <Gold.Chemscore.Rot>
2.6439

> <Gold.Chemscore.Internal.Correction>
   9.000000E+99

> <Gold.Chemscore.Hbonds>
donor molecule, donor type, donor heavy atom, donor atom, acceptor molecule, acceptor atom, score
      L1  H     6    42       P1  7948  0.99
      L1  H    10    36       P1  7948  0.45
      P1  H  7997  8008       L1    16  0.24
      P1  H 10752 10765       L1    18  0.07

> <Gold.Chemscore.Hbond.Weighted>
-9.2939

> <Gold.Chemscore.Metal.Weighted>
-0.0000

> <Gold.Chemscore.Lipo.Weighted>
-5.7917

> <Gold.Chemscore.Internal_Hbond.Weighted>
0.0000

> <Gold.Chemscore.DEClash.Weighted>
0.6850

> <Gold.Chemscore.DEInternal.Weighted>
1.6166

> <Gold.Chemscore.Rot.Weighted>
6.7685

> <Gold.Chemscore.Internal.Correction.Weighted>
   9.000000E+99

> <Gold.Protein.RotatedTorsions>
[ 6907 6896 6895 6894 ] final -122.47 input  -60.11 | X-H torsion
[ 7974 7965 7964 7962 ] final  147.86 input  175.53 | X-H torsion
[ 8008 7997 7996 7995 ] final  -15.17 input   59.86 | X-H torsion
[ 10167 10162 10161 10158 ] final   76.75 input  -65.29 | X-H torsion
[ 10718 10713 10712 10709 ] final    5.47 input   66.30 | X-H torsion
[ 10763 10752 10751 10750 ] final -165.53 input  -60.55 | X-H torsion
[ 11005 11000 10999 10996 ] final  -81.65 input  -57.11 | X-H torsion

> <Gold.Protein.ActiveResidues>
 VAL166  LYS551  ARG553  GLY616  TRP617  ASP618  TYR619  PRO620  LYS621  CYS622 
 ASP623  PHE694  ASN695  SER759  ASP760  ASP761  ALA762  ILE779  LEU786  VAL792 
 PHE793  MET794  SER795  GLU796  ALA797  LYS798  CYS799  TRP800  GLU811  SER814 

> <Gold.Protein.RotatedAtoms>
  150.8579  133.7687  159.3002 H   0  0  0  0  0  0  0  0  0  0  0  0  # atno 6907 bound_to 6896
  151.5338  135.1067  159.9919 H   0  0  0  0  0  0  0  0  0  0  0  0  # atno 6908 bound_to 6896
  152.4604  133.7767  159.6884 H   0  0  0  0  0  0  0  0  0  0  0  0  # atno 6909 bound_to 6896
  144.8558  139.6082  143.5953 H   0  0  0  0  0  0  0  0  0  0  0  0  # atno 7974 bound_to 7965
  154.5151  140.2203  155.9081 H   0  0  0  0  0  0  0  0  0  0  0  0  # atno 8008 bound_to 7997
  156.1598  140.3144  155.8754 H   0  0  0  0  0  0  0  0  0  0  0  0  # atno 8009 bound_to 7997
  155.3774  140.0470  157.3035 H   0  0  0  0  0  0  0  0  0  0  0  0  # atno 8010 bound_to 7997
  139.9889  144.5772  150.7835 H   0  0  0  0  0  0  0  0  0  0  0  0  # atno 10167 bound_to 10162
  156.9079  130.5745  149.5647 H   0  0  0  0  0  0  0  0  0  0  0  0  # atno 10718 bound_to 10713
  154.6922  135.2973  154.9462 H   0  0  0  0  0  0  0  0  0  0  0  0  # atno 10763 bound_to 10752
  154.0422  135.6656  153.4795 H   0  0  0  0  0  0  0  0  0  0  0  0  # atno 10764 bound_to 10752
  153.0620  135.5110  154.8021 H   0  0  0  0  0  0  0  0  0  0  0  0  # atno 10765 bound_to 10752
  141.1666  133.7206  156.8454 H   0  0  0  0  0  0  0  0  0  0  0  0  # atno 11005 bound_to 11000
  146.2822  139.6907  142.9221 LP  0  0  0  0  0  0  0  0  0  0  0  0  # atno 17320 bound_to 7965
  145.4409  141.0422  143.2858 LP  0  0  0  0  0  0  0  0  0  0  0  0  # atno 17321 bound_to 7965
  140.7462  143.2887  151.3391 LP  0  0  0  0  0  0  0  0  0  0  0  0  # atno 17342 bound_to 10162
  139.6355  144.0639  152.2512 LP  0  0  0  0  0  0  0  0  0  0  0  0  # atno 17343 bound_to 10162
  156.0550  130.5613  150.9072 LP  0  0  0  0  0  0  0  0  0  0  0  0  # atno 17370 bound_to 10713
  157.5986  131.0942  150.8999 LP  0  0  0  0  0  0  0  0  0  0  0  0  # atno 17371 bound_to 10713
  140.1954  134.8936  157.3108 LP  0  0  0  0  0  0  0  0  0  0  0  0  # atno 17394 bound_to 11000
  140.2245  134.3983  155.7550 LP  0  0  0  0  0  0  0  0  0  0  0  0  # atno 17395 bound_to 11000

$$$$
