#       Name:                AV-unprocessed.smi:966
#       Creating user name   scv26
#       Creation time:       Fri Mar 27 02:19:02 2020


#       File generated by GOLD software.
#

@<TRIPOS>MOLECULE
AV-unprocessed.smi:966
    35    36     1
SMALL
NO_CHARGES


@<TRIPOS>ATOM
      1 ****        -4.5799   0.4953  -0.9826 C.3            1 S1                 0.0000
      2 ****        -3.0637   0.4408  -0.9342 C.2            1 S1                 0.0000
      3 ****        -2.3105   1.6725  -0.8632 C.2            1 S1                 0.0000
      4 ****        -0.9309   1.6084  -0.8312 C.2            1 S1                 0.0000
      5 ****        -0.0954   2.5398  -0.7549 O.co2          1 S1                -1.0000
      6 ****        -0.2535   0.3436  -0.8729 N.am           1 S1                 0.0000
      7 ****         1.2361   0.2529  -0.8590 C.3            1 S1                 0.0000
      8 ****         1.8041   0.3011   0.5738 C.3            1 S1                 0.0000
      9 ****         3.3306   0.3556   0.6219 C.3            1 S1                 0.0000
     10 ****         3.6166  -0.2294   1.9856 C.3            1 S1                 0.0000
     11 ****         2.5698  -1.3350   2.0667 C.3            1 S1                 0.0000
     12 ****         1.4557  -0.8709   1.3096 O.3            1 S1                 0.0000
     13 ****        -0.9474  -0.8387  -0.9074 C.2            1 S1                 0.0000
     14 ****        -0.3799  -1.9341  -0.9046 O.2            1 S1                 0.0000
     15 ****        -2.4093  -0.7387  -0.9505 C.2            1 S1                 0.0000
     16 ****        -3.1113  -1.9818  -1.0127 C.1            1 S1                 0.0000
     17 ****        -3.7006  -2.9775  -1.0662 N.1            1 S1                 0.0000
     18 ****        -4.9382   1.5251  -0.9742 H              1 S1                 0.0000
     19 ****        -5.0073  -0.0174  -0.1203 H              1 S1                 0.0000
     20 ****        -4.9508   0.0168  -1.8894 H              1 S1                 0.0000
     21 ****        -2.8174   2.6258  -0.8256 H              1 S1                 0.0000
     22 ****         1.5982  -0.6479  -1.3569 H              1 S1                 0.0000
     23 ****         1.6851   1.0435  -1.4619 H              1 S1                 0.0000
     24 ****         1.4071   1.1604   1.1160 H              1 S1                 0.0000
     25 ****         3.7639  -0.2794  -0.1524 H              1 S1                 0.0000
     26 ****         3.7229   1.3651   0.4967 H              1 S1                 0.0000
     27 ****         4.6374  -0.5973   2.0922 H              1 S1                 0.0000
     28 ****         3.4374   0.5177   2.7599 H              1 S1                 0.0000
     29 ****         2.9446  -2.2483   1.6032 H              1 S1                 0.0000
     30 ****         2.2874  -1.5675   3.0936 H              1 S1                 0.0000
     31 ****         1.1699  -1.5866   0.6724 LP             1 S1                 0.0000
     32 ****         0.7017  -0.6573   1.9309 LP             1 S1                 0.0000
     33 ****         0.6186  -1.9798  -0.8765 LP             1 S1                 0.0000
     34 ****        -0.9185  -2.7763  -0.9304 LP             1 S1                 0.0000
     35 ****        -4.2094  -3.8372  -1.1124 LP             1 S1                 0.0000
@<TRIPOS>BOND
    1    1    2 1     
    2    1   18 1     
    3    1   19 1     
    4    1   20 1     
    5    2   15 2     
    6    2    3 1     
    7    3    4 2     
    8    3   21 1     
    9    4    5 ar    
   10    4    6 1     
   11    6    7 1     
   12    6   13 am    
   13    7    8 1     
   14    7   22 1     
   15    7   23 1     
   16    8   12 1     
   17    8    9 1     
   18    8   24 1     
   19    9   10 1     
   20    9   25 1     
   21    9   26 1     
   22   10   11 1     
   23   10   27 1     
   24   10   28 1     
   25   11   12 1     
   26   11   29 1     
   27   11   30 1     
   28   13   14 2     
   29   13   15 1     
   30   15   16 1     
   31   16   17 3     
   32   12   31 1     
   33   12   32 1     
   34   14   33 1     
   35   14   34 1     
   36   17   35 1     
@<TRIPOS>SUBSTRUCTURE
      1 S1             1
@<TRIPOS>SET
LONE_PAIRS      STATIC     ATOMS    <user>   **** ""
6 5 31 32 33 34 35
ATOM$BLUE        STATIC     ATOMS    COLORGROUP SYSTEM
6 5 31 32 33 34 35
