AV-unprocessed.smi:1900|AV-procd|sdf|7712|dock2
  -GOLD-   22720 9453D 1   1.00000     0.00000
 Structure written by MMmdl.
 44 45  0  0  0  0  0  0  0  0  2 V2000
  152.1551  141.0517  158.5955 C   0  0  0  0  0  0  0  0  0  0  0  0
  151.5128  140.1823  157.5087 C   0  0  1  0  0  0  0  0  0  0  0  0
  150.5939  140.9999  156.5830 C   0  0  0  0  0  0  0  0  0  0  0  0
  150.0625  140.1480  155.4938 N   0  3  1  0  0  0  0  0  0  0  0  0
  149.0904  140.8688  154.6339 C   0  0  0  0  0  0  0  0  0  0  0  0
  148.6272  140.0257  153.4332 C   0  0  0  0  0  0  0  0  0  0  0  0
  147.2968  139.3043  153.7073 C   0  0  0  0  0  0  0  0  0  0  0  0
  147.1460  138.1100  152.8832 N   0  0  0  0  0  0  0  0  0  0  0  0
  145.9989  137.4377  152.7089 C   0  0  0  0  0  0  0  0  0  0  0  0
  144.9284  137.7803  153.2115 O   0  0  0  0  0  0  0  0  0  0  0  0
  146.1760  136.3590  151.9284 N   0  0  0  0  0  0  0  0  0  0  0  0
  145.1990  135.4061  151.5431 C   0  0  0  0  0  0  0  0  0  0  0  0
  144.9244  134.1999  152.2432 C   0  0  0  0  0  0  0  0  0  0  0  0
  143.9613  133.5064  151.6529 N   0  0  0  0  0  0  0  0  0  0  0  0
  143.6209  134.2567  150.5809 N   0  0  0  0  0  0  0  0  0  0  0  0
  144.3485  135.4213  150.4734 C   0  0  0  0  0  0  0  0  0  0  0  0
  151.1783  139.5284  154.7368 C   0  0  0  0  0  0  0  0  0  0  0  0
  152.1255  138.7545  155.6744 C   0  0  2  0  0  0  0  0  0  0  0  0
  151.5371  137.4261  156.1826 C   0  0  0  0  0  0  0  0  0  0  0  0
  152.5613  139.5972  156.7410 O   0  0  0  0  0  0  0  0  0  0  0  0
  142.8970  133.9647  149.9396 H   0  0  0  0  0  0  0  0  0  0  0  0
  151.3970  141.5209  159.2232 H   0  0  0  0  0  0  0  0  0  0  0  0
  152.7660  141.8429  158.1594 H   0  0  0  0  0  0  0  0  0  0  0  0
  152.7976  140.4541  159.2425 H   0  0  0  0  0  0  0  0  0  0  0  0
  150.9355  139.3996  158.0010 H   0  0  0  0  0  0  0  0  0  0  0  0
  149.7688  141.4141  157.1642 H   0  0  0  0  0  0  0  0  0  0  0  0
  151.1379  141.8428  156.1535 H   0  0  0  0  0  0  0  0  0  0  0  0
  148.2106  141.1215  155.2273 H   0  0  0  0  0  0  0  0  0  0  0  0
  149.5198  141.8150  154.3007 H   0  0  0  0  0  0  0  0  0  0  0  0
  148.5130  140.6591  152.5540 H   0  0  0  0  0  0  0  0  0  0  0  0
  149.3942  139.2902  153.1867 H   0  0  0  0  0  0  0  0  0  0  0  0
  147.2468  139.0009  154.7536 H   0  0  0  0  0  0  0  0  0  0  0  0
  146.4548  139.9780  153.5396 H   0  0  0  0  0  0  0  0  0  0  0  0
  147.9777  137.7576  152.4321 H   0  0  0  0  0  0  0  0  0  0  0  0
  147.1113  136.1906  151.5881 H   0  0  0  0  0  0  0  0  0  0  0  0
  145.3803  133.8138  153.1431 H   0  0  0  0  0  0  0  0  0  0  0  0
  144.1949  136.1269  149.6705 H   0  0  0  0  0  0  0  0  0  0  0  0
  150.8020  138.8559  153.9667 H   0  0  0  0  0  0  0  0  0  0  0  0
  151.7361  140.3124  154.2220 H   0  0  0  0  0  0  0  0  0  0  0  0
  153.0210  138.5030  155.1055 H   0  0  0  0  0  0  0  0  0  0  0  0
  151.3377  136.7494  155.3513 H   0  0  0  0  0  0  0  0  0  0  0  0
  150.5982  137.5652  156.7174 H   0  0  0  0  0  0  0  0  0  0  0  0
  152.2344  136.9244  156.8540 H   0  0  0  0  0  0  0  0  0  0  0  0
  149.5538  139.3992  155.9420 H   0  0  0  0  0  0  0  0  0  0  0  0
  1  2  1  0  0  0  0
  1 22  1  0  0  0  0
  1 23  1  0  0  0  0
  1 24  1  0  0  0  0
  2 20  1  0  0  0  0
  2  3  1  0  0  0  0
  2 25  1  0  0  0  0
  3  4  1  0  0  0  0
  3 26  1  0  0  0  0
  3 27  1  0  0  0  0
  4  5  1  0  0  0  0
  4 17  1  0  0  0  0
  4 44  1  0  0  0  0
  5  6  1  0  0  0  0
  5 28  1  0  0  0  0
  5 29  1  0  0  0  0
  6  7  1  0  0  0  0
  6 30  1  0  0  0  0
  6 31  1  0  0  0  0
  7  8  1  0  0  0  0
  7 32  1  0  0  0  0
  7 33  1  0  0  0  0
  8  9  1  0  0  0  0
  8 34  1  0  0  0  0
  9 10  2  0  0  0  0
  9 11  1  0  0  0  0
 11 12  1  0  0  0  0
 11 35  1  0  0  0  0
 12 16  2  0  0  0  0
 12 13  1  0  0  0  0
 13 14  2  0  0  0  0
 13 36  1  0  0  0  0
 14 15  1  0  0  0  0
 15 21  1  0  0  0  0
 15 16  1  0  0  0  0
 16 37  1  0  0  0  0
 17 18  1  0  0  0  0
 17 38  1  0  0  0  0
 17 39  1  0  0  0  0
 18 19  1  0  0  0  0
 18 20  1  0  0  0  0
 18 40  1  0  0  0  0
 19 41  1  0  0  0  0
 19 42  1  0  0  0  0
 19 43  1  0  0  0  0
M  CHG  1   4   1
M  END
> <s_m_source_file>
AV-unprocessed.smi

> <i_m_source_file_index>
1900

> <i_lp_mmshare_version>
43012

> <i_f3d_flags>
0

> <s_epik_input>
W0NIM11bQ0BASF0xW0NIMl1OKFtDSDJdW0NASF0oTzEpW0NIM10pW0NIMl1bQ0gyXVtDSDJdW05IXUMoPU8pW05IXWMyW2NIXW5bbkhdW2NIXTI=

> <s_epik_cmdline>
J2VwaWtfcHl0aG9uJywgJy1waCcsICc3LjAnLCAnLXRuJywgJzgnLCAnLW1hJywgJzIwMCcsICctbWV0YWxfYmluZGluZycsICctaW1hZScsICc8aW5maWxlLm1hZT4nLCAnLW9tYWUnLCAnPG91dGZpbGUubWFlPic=

> <r_lp_tautomer_probability>
0.5

> <r_epik_Ionization_Penalty>
0.270543

> <r_epik_Ionization_Penalty_Charging>
0.270496

> <r_epik_Ionization_Penalty_Neutral>
4.67091e-05

> <r_epik_State_Penalty>
0.262618

> <r_epik_Charging_Adjusted_Penalty>
0.533114

> <i_epik_Tot_Q>
1

> <i_epik_Tot_abs_Q>
1

> <r_epik_Metal_State_Penalty>
0.262618

> <b_epik_Metal_Only>
0

> <s_lp_Force_Field>
OPLS_2005

> <r_lp_Energy>
21.5788

> <b_lp_Chiralities_Consistent>
1

> <s_lp_Variant>
AV-unprocessed.smi:1900-4

> <Gold.Version>
5.8.1

> <Gold.Id.Protein>
6NUR|6NUR_protein|mol2

> <Gold.PLP.Fitness>
39.9872

> <Gold.PLP.PLP>
-28.2614

> <Gold.PLP.part.hbond>
-4.0000

> <Gold.PLP.part.metal>
0.0000

> <Gold.PLP.part.buried>
0.8106

> <Gold.PLP.part.nonpolar>
-26.3491

> <Gold.PLP.part.repulsive>
0.8732

> <Gold.PLP.ligand.clash>
0.0000

> <Gold.PLP.ligand.torsion>
1.2487

> <Gold.PLP.Chemscore.Hbond>
3.7280

> <Gold.PLP.Chemscore.CHOScore>
1.0000

> <Gold.PLP.Chemscore.Metal>
0.0000

> <Gold.Chemscore.Hbonds>
donor molecule, donor type, donor heavy atom, donor atom, acceptor molecule, acceptor atom, score
      L1  H     8    34       P1  7948  0.96
      L1  H    11    35       P1  7948  1.00
      L1  H    15    21       P1 10186  0.75
      P1  H  7997  8008       L1    20  1.00
      L1  C    16    37       P1 10171  1.00

> <Gold.PLP.Chemscore.Internal.Correction>
0.0392

> <Gold.Rescore>
     Score         DG    S(hbond)    S(metal)    S(lipo)     H(rot)  DE(clash)    DE(int)     intcor
     18.10     -21.80       3.67        0.00      77.19       1.93       2.41       1.29       ----

> <Gold.Chemscore.Fitness>
18.1007

> <Gold.Chemscore.DG>
-21.8031

> <Gold.Chemscore.ZeroCoef>
-5.4800

> <Gold.Chemscore.Hbond>
3.6662

> <Gold.Chemscore.Metal>
0.0000

> <Gold.Chemscore.Lipo>
77.1861

> <Gold.Chemscore.Internal_Hbond>
0.0000

> <Gold.Chemscore.DEClash>
2.4102

> <Gold.Chemscore.DEInternal>
1.2922

> <Gold.Chemscore.Rot>
1.9347

> <Gold.Chemscore.Internal.Correction>
   9.000000E+99

> <Gold.Chemscore.Hbonds>
donor molecule, donor type, donor heavy atom, donor atom, acceptor molecule, acceptor atom, score
      L1  H     8    34       P1  7948  0.92
      L1  H    11    35       P1  7948  0.95
      L1  H    15    21       P1 10186  0.74
      P1  H  7997  8008       L1    20  0.49

> <Gold.Chemscore.Hbond.Weighted>
-12.2452

> <Gold.Chemscore.Metal.Weighted>
-0.0000

> <Gold.Chemscore.Lipo.Weighted>
-9.0308

> <Gold.Chemscore.Internal_Hbond.Weighted>
0.0000

> <Gold.Chemscore.DEClash.Weighted>
2.4102

> <Gold.Chemscore.DEInternal.Weighted>
1.2922

> <Gold.Chemscore.Rot.Weighted>
4.9528

> <Gold.Chemscore.Internal.Correction.Weighted>
   9.000000E+99

> <Gold.Protein.RotatedTorsions>
[ 6907 6896 6895 6894 ] final  158.41 input  -60.11 | X-H torsion
[ 7974 7965 7964 7962 ] final -177.24 input  175.53 | X-H torsion
[ 8008 7997 7996 7995 ] final  -37.31 input   59.86 | X-H torsion
[ 10167 10162 10161 10158 ] final   68.33 input  -65.29 | X-H torsion
[ 10718 10713 10712 10709 ] final -120.34 input   66.30 | X-H torsion
[ 10763 10752 10751 10750 ] final  -66.23 input  -60.55 | X-H torsion
[ 11005 11000 10999 10996 ] final -162.49 input  -57.11 | X-H torsion

> <Gold.Protein.ActiveResidues>
 VAL166  LYS551  ARG553  GLY616  TRP617  ASP618  TYR619  PRO620  LYS621  CYS622 
 ASP623  PHE694  ASN695  SER759  ASP760  ASP761  ALA762  ILE779  LEU786  VAL792 
 PHE793  MET794  SER795  GLU796  ALA797  LYS798  CYS799  TRP800  GLU811  SER814 

> <Gold.Protein.RotatedAtoms>
  152.0009  133.3825  159.4180 H   0  0  0  0  0  0  0  0  0  0  0  0  # atno 6907 bound_to 6896
  150.6910  134.3835  159.5054 H   0  0  0  0  0  0  0  0  0  0  0  0  # atno 6908 bound_to 6896
  152.1582  134.8933  160.0594 H   0  0  0  0  0  0  0  0  0  0  0  0  # atno 6909 bound_to 6896
  144.7127  140.1049  143.6414 H   0  0  0  0  0  0  0  0  0  0  0  0  # atno 7974 bound_to 7965
  154.4056  140.1607  156.2515 H   0  0  0  0  0  0  0  0  0  0  0  0  # atno 8008 bound_to 7997
  155.9115  140.3427  155.6079 H   0  0  0  0  0  0  0  0  0  0  0  0  # atno 8009 bound_to 7997
  155.7331  140.0783  157.2271 H   0  0  0  0  0  0  0  0  0  0  0  0  # atno 8010 bound_to 7997
  140.0798  144.5080  150.7169 H   0  0  0  0  0  0  0  0  0  0  0  0  # atno 10167 bound_to 10162
  156.1251  130.6353  150.9528 H   0  0  0  0  0  0  0  0  0  0  0  0  # atno 10718 bound_to 10713
  154.3567  135.6125  153.5670 H   0  0  0  0  0  0  0  0  0  0  0  0  # atno 10763 bound_to 10752
  152.9795  135.5805  154.4680 H   0  0  0  0  0  0  0  0  0  0  0  0  # atno 10764 bound_to 10752
  154.4411  135.2850  155.1824 H   0  0  0  0  0  0  0  0  0  0  0  0  # atno 10765 bound_to 10752
  140.6087  134.4872  157.5213 H   0  0  0  0  0  0  0  0  0  0  0  0  # atno 11005 bound_to 11000
  145.9506  139.2731  143.1215 LP  0  0  0  0  0  0  0  0  0  0  0  0  # atno 17320 bound_to 7965
  145.9327  140.9036  143.0348 LP  0  0  0  0  0  0  0  0  0  0  0  0  # atno 17321 bound_to 7965
  140.7083  143.2485  151.4659 LP  0  0  0  0  0  0  0  0  0  0  0  0  # atno 17342 bound_to 10162
  139.5786  144.1761  152.1937 LP  0  0  0  0  0  0  0  0  0  0  0  0  # atno 17343 bound_to 10162
  157.6433  131.0907  150.8207 LP  0  0  0  0  0  0  0  0  0  0  0  0  # atno 17370 bound_to 10713
  156.8298  130.5012  149.5333 LP  0  0  0  0  0  0  0  0  0  0  0  0  # atno 17371 bound_to 10713
  139.9201  134.8165  156.1238 LP  0  0  0  0  0  0  0  0  0  0  0  0  # atno 17394 bound_to 11000
  141.0823  133.6749  156.2362 LP  0  0  0  0  0  0  0  0  0  0  0  0  # atno 17395 bound_to 11000

$$$$
