#       Name:                AV-unprocessed.smi:1715
#       Creating user name   scv26
#       Creation time:       Fri Mar 27 08:11:18 2020


#       File generated by GOLD software.
#

@<TRIPOS>MOLECULE
AV-unprocessed.smi:1715
    46    47     1
SMALL
NO_CHARGES


@<TRIPOS>ATOM
      1 ****        -4.3603   2.3421  -1.3442 C.3            1 S1                 0.0000
      2 ****        -3.7154   1.0370  -0.8665 C.3            1 S1                 0.0000
      3 ****        -2.1780   1.1110  -0.8825 C.3            1 S1                 0.0000
      4 ****        -1.5659  -0.1566  -0.5052 N.3            1 S1                 0.0000
      5 ****        -0.1083  -0.0475  -0.4907 C.3            1 S1                 0.0000
      6 ****         0.6265  -1.2522   0.1264 C.3            1 S1                 0.0000
      7 ****         2.0692  -1.0451   0.1358 N.am           1 S1                 0.0000
      8 ****         2.7391  -0.3244   1.0458 C.2            1 S1                 0.0000
      9 ****         2.1988   0.2576   1.9866 O.2            1 S1                 0.0000
     10 ****         4.0577  -0.3238   0.7911 N.am           1 S1                 0.0000
     11 ****         5.0801   0.3071   1.5436 C.2            1 S1                 0.0000
     12 ****         6.4628   0.2735   1.2164 C.2            1 S1                 0.0000
     13 ****         7.1853   0.9467   2.1003 N.2            1 S1                 0.0000
     14 ****         6.2771   1.4090   2.9889 N.pl3          1 S1                 0.0000
     15 ****         4.9827   1.0448   2.6900 C.2            1 S1                 0.0000
     16 ****        -2.0408  -1.2003  -1.4117 C.3            1 S1                 0.0000
     17 ****        -3.5791  -1.2942  -1.4627 C.3            1 S1                 0.0000
     18 ****        -4.1925  -1.9382  -0.2078 C.3            1 S1                 0.0000
     19 ****        -4.1471  -0.0115  -1.7316 O.3            1 S1                 0.0000
     20 ****         6.5530   1.9650   3.7857 H              1 S1                 0.0000
     21 ****        -4.0745   3.1778  -0.7052 H              1 S1                 0.0000
     22 ****        -5.4479   2.2672  -1.3276 H              1 S1                 0.0000
     23 ****        -4.0585   2.5815  -2.3643 H              1 S1                 0.0000
     24 ****        -4.0605   0.8354   0.1479 H              1 S1                 0.0000
     25 ****        -1.8367   1.4032  -1.8770 H              1 S1                 0.0000
     26 ****        -1.8511   1.8954  -0.1987 H              1 S1                 0.0000
     27 ****         0.2579   0.1252  -1.5039 H              1 S1                 0.0000
     28 ****         0.1681   0.8394   0.0814 H              1 S1                 0.0000
     29 ****         0.2665  -1.4426   1.1389 H              1 S1                 0.0000
     30 ****         0.4381  -2.1586  -0.4475 H              1 S1                 0.0000
     31 ****         2.5960  -1.4862  -0.6038 H              1 S1                 0.0000
     32 ****         4.3643  -0.8371  -0.0223 H              1 S1                 0.0000
     33 ****         6.9559  -0.2074   0.3845 H              1 S1                 0.0000
     34 ****         4.1433   1.3358   3.3041 H              1 S1                 0.0000
     35 ****        -1.6681  -1.0009  -2.4177 H              1 S1                 0.0000
     36 ****        -1.6405  -2.1714  -1.1229 H              1 S1                 0.0000
     37 ****        -3.8468  -1.9294  -2.3076 H              1 S1                 0.0000
     38 ****        -3.8324  -2.9594  -0.0812 H              1 S1                 0.0000
     39 ****        -5.2791  -1.9783  -0.2837 H              1 S1                 0.0000
     40 ****        -3.9406  -1.3903   0.6999 H              1 S1                 0.0000
     41 ****        -1.8360  -0.4033   0.4255 LP             1 S1                 0.0000
     42 ****         1.2069   0.2070   2.1026 LP             1 S1                 0.0000
     43 ****         2.7519   0.7810   2.6348 LP             1 S1                 0.0000
     44 ****         8.1761   1.0819   2.1082 LP             1 S1                 0.0000
     45 ****        -3.9080   0.2425  -2.6688 LP             1 S1                 0.0000
     46 ****        -5.1407  -0.0900  -1.6507 LP             1 S1                 0.0000
@<TRIPOS>BOND
    1    1    2 1     
    2    1   21 1     
    3    1   22 1     
    4    1   23 1     
    5    2   19 1     
    6    2    3 1     
    7    2   24 1     
    8    3    4 1     
    9    3   25 1     
   10    3   26 1     
   11    4    5 1     
   12    4   16 1     
   13    5    6 1     
   14    5   27 1     
   15    5   28 1     
   16    6    7 1     
   17    6   29 1     
   18    6   30 1     
   19    7    8 am    
   20    7   31 1     
   21    8    9 2     
   22    8   10 am    
   23   10   11 1     
   24   10   32 1     
   25   11   15 2     
   26   11   12 1     
   27   12   13 2     
   28   12   33 1     
   29   13   14 1     
   30   14   20 1     
   31   14   15 1     
   32   15   34 1     
   33   16   17 1     
   34   16   35 1     
   35   16   36 1     
   36   17   18 1     
   37   17   19 1     
   38   17   37 1     
   39   18   38 1     
   40   18   39 1     
   41   18   40 1     
   42    4   41 1     
   43    9   42 1     
   44    9   43 1     
   45   13   44 1     
   46   19   45 1     
   47   19   46 1     
@<TRIPOS>SUBSTRUCTURE
      1 S1             1
@<TRIPOS>SET
LONE_PAIRS      STATIC     ATOMS    <user>   **** ""
6 41 42 43 44 45 46
DONOR_HYDROGENS      STATIC     ATOMS    <user>   **** ""
3 31 32 20
ATOM$BLUE        STATIC     ATOMS    COLORGROUP SYSTEM
6 41 42 43 44 45 46
ATOM$RED        STATIC     ATOMS    COLORGROUP SYSTEM
3 31 32 20
