AV-unprocessed.smi:480|AV-procd|sdf|2677|dock4
  -GOLD-   2262023103D 1   1.00000     0.00000
 Structure written by MMmdl.
 46 48  0  0  0  0  0  0  0  0  1 V2000
  144.3675  140.1527  155.9014 C   0  0  0  0  0  0  0  0  0  0  0  0
  145.5859  139.2751  155.5931 C   0  0  0  0  0  0  0  0  0  0  0  0
  145.3369  138.3173  154.4668 C   0  0  0  0  0  0  0  0  0  0  0  0
  144.3172  137.4583  154.4936 N   0  0  0  0  0  0  0  0  0  0  0  0
  144.4411  136.7996  153.2862 C   0  0  0  0  0  0  0  0  0  0  0  0
  143.6628  135.7649  152.7196 C   0  0  0  0  0  0  0  0  0  0  0  0
  143.9838  135.2444  151.4488 C   0  0  0  0  0  0  0  0  0  0  0  0
  145.0849  135.7499  150.7277 C   0  0  0  0  0  0  0  0  0  0  0  0
  145.8736  136.7805  151.2742 C   0  0  0  0  0  0  0  0  0  0  0  0
  145.5496  137.2955  152.5437 C   0  0  0  0  0  0  0  0  0  0  0  0
  146.1054  138.2855  153.3476 N   0  0  0  0  0  0  0  0  0  0  0  0
  147.2648  139.1017  153.0112 C   0  0  0  0  0  0  0  0  0  0  0  0
  148.3519  139.0820  154.1056 C   0  0  1  0  0  0  0  0  0  0  0  0
  149.2146  138.0018  153.8152 O   0  0  0  0  0  0  0  0  0  0  0  0
  149.1944  140.3681  154.1763 C   0  0  0  0  0  0  0  0  0  0  0  0
  150.4507  140.0563  154.7631 O   0  0  0  0  0  0  0  0  0  0  0  0
  150.8191  140.7250  155.9106 C   0  0  0  0  0  0  0  0  0  0  0  0
  151.8119  140.1226  156.7106 C   0  0  0  0  0  0  0  0  0  0  0  0
  152.2528  140.7369  157.8981 C   0  0  0  0  0  0  0  0  0  0  0  0
  151.7010  141.9675  158.3033 C   0  0  0  0  0  0  0  0  0  0  0  0
  152.1797  142.6316  159.5773 C   0  0  0  0  0  0  0  0  0  0  0  0
  153.2172  141.8389  160.2541 C   0  0  0  0  0  0  0  0  0  0  0  0
  154.0333  141.2152  160.7868 N   0  0  0  0  0  0  0  0  0  0  0  0
  150.7062  142.5776  157.5143 C   0  0  0  0  0  0  0  0  0  0  0  0
  150.2660  141.9628  156.3259 C   0  0  0  0  0  0  0  0  0  0  0  0
  144.5760  140.8299  156.7296 H   0  0  0  0  0  0  0  0  0  0  0  0
  143.5054  139.5444  156.1769 H   0  0  0  0  0  0  0  0  0  0  0  0
  144.0880  140.7579  155.0388 H   0  0  0  0  0  0  0  0  0  0  0  0
  146.4558  139.8932  155.3734 H   0  0  0  0  0  0  0  0  0  0  0  0
  145.8495  138.7013  156.4824 H   0  0  0  0  0  0  0  0  0  0  0  0
  142.8164  135.3716  153.2632 H   0  0  0  0  0  0  0  0  0  0  0  0
  143.3815  134.4543  151.0248 H   0  0  0  0  0  0  0  0  0  0  0  0
  145.3234  135.3470  149.7543 H   0  0  0  0  0  0  0  0  0  0  0  0
  146.7172  137.1704  150.7246 H   0  0  0  0  0  0  0  0  0  0  0  0
  147.6770  138.7211  152.0756 H   0  0  0  0  0  0  0  0  0  0  0  0
  146.9497  140.1232  152.8009 H   0  0  0  0  0  0  0  0  0  0  0  0
  147.8802  138.9016  155.0725 H   0  0  0  0  0  0  0  0  0  0  0  0
  148.9451  137.6178  152.9945 H   0  0  0  0  0  0  0  0  0  0  0  0
  149.3089  140.8086  153.1841 H   0  0  0  0  0  0  0  0  0  0  0  0
  148.7028  141.1030  154.8141 H   0  0  0  0  0  0  0  0  0  0  0  0
  152.2429  139.1795  156.4081 H   0  0  0  0  0  0  0  0  0  0  0  0
  153.0174  140.2629  158.4959 H   0  0  0  0  0  0  0  0  0  0  0  0
  152.5868  143.6195  159.3600 H   0  0  0  0  0  0  0  0  0  0  0  0
  151.3437  142.7649  160.2640 H   0  0  0  0  0  0  0  0  0  0  0  0
  150.2784  143.5221  157.8173 H   0  0  0  0  0  0  0  0  0  0  0  0
  149.5021  142.4628  155.7501 H   0  0  0  0  0  0  0  0  0  0  0  0
  1  2  1  0  0  0  0
  1 26  1  0  0  0  0
  1 27  1  0  0  0  0
  1 28  1  0  0  0  0
  2  3  1  0  0  0  0
  2 29  1  0  0  0  0
  2 30  1  0  0  0  0
  3 11  1  0  0  0  0
  3  4  2  0  0  0  0
  4  5  1  0  0  0  0
  5 10  2  0  0  0  0
  5  6  1  0  0  0  0
  6  7  2  0  0  0  0
  6 31  1  0  0  0  0
  7  8  1  0  0  0  0
  7 32  1  0  0  0  0
  8  9  2  0  0  0  0
  8 33  1  0  0  0  0
  9 10  1  0  0  0  0
  9 34  1  0  0  0  0
 10 11  1  0  0  0  0
 11 12  1  0  0  0  0
 12 13  1  0  0  0  0
 12 35  1  0  0  0  0
 12 36  1  0  0  0  0
 13 14  1  0  0  0  0
 13 15  1  0  0  0  0
 13 37  1  0  0  0  0
 14 38  1  0  0  0  0
 15 16  1  0  0  0  0
 15 39  1  0  0  0  0
 15 40  1  0  0  0  0
 16 17  1  0  0  0  0
 17 25  1  0  0  0  0
 17 18  2  0  0  0  0
 18 19  1  0  0  0  0
 18 41  1  0  0  0  0
 19 20  2  0  0  0  0
 19 42  1  0  0  0  0
 20 21  1  0  0  0  0
 20 24  1  0  0  0  0
 21 22  1  0  0  0  0
 21 43  1  0  0  0  0
 21 44  1  0  0  0  0
 22 23  3  0  0  0  0
 24 25  2  0  0  0  0
 24 45  1  0  0  0  0
 25 46  1  0  0  0  0
M  END
> <s_m_source_file>
AV-unprocessed.smi

> <i_m_source_file_index>
480

> <i_lp_mmshare_version>
43012

> <i_f3d_flags>
0

> <s_epik_input>
W2NIXTFbY0hdW2NIXVtjSF1jKGMxMiluKGMobjIpW0NIMl1bQ0gzXSlbQ0gyXVtDQEhdKFtPSF0pW0NIMl1PYzNbY0hdW2NIXWMoW0NIMl1DI04pW2NIXVtjSF0z

> <s_epik_cmdline>
J2VwaWtfcHl0aG9uJywgJy1waCcsICc3LjAnLCAnLXRuJywgJzgnLCAnLW1hJywgJzIwMCcsICctbWV0YWxfYmluZGluZycsICctaW1hZScsICc8aW5maWxlLm1hZT4nLCAnLW9tYWUnLCAnPG91dGZpbGUubWFlPic=

> <r_lp_tautomer_probability>
1

> <r_epik_Ionization_Penalty>
0.114213

> <r_epik_Ionization_Penalty_Charging>
0

> <r_epik_Ionization_Penalty_Neutral>
0.114213

> <r_epik_State_Penalty>
0.103875

> <r_epik_Charging_Adjusted_Penalty>
0.103875

> <i_epik_Tot_Q>
0

> <i_epik_Tot_abs_Q>
0

> <r_epik_Metal_State_Penalty>
0.000113526

> <b_epik_Metal_Only>
0

> <s_lp_Force_Field>
OPLS_2005

> <r_lp_Energy>
15.7981

> <b_lp_Chiralities_Consistent>
1

> <s_lp_Variant>
AV-unprocessed.smi:480-2

> <Gold.Version>
5.8.1

> <Gold.Id.Protein>
6NUR|6NUR_protein|mol2

> <Gold.PLP.Fitness>
45.4158

> <Gold.PLP.PLP>
-41.9728

> <Gold.PLP.part.hbond>
-2.0000

> <Gold.PLP.part.metal>
0.0000

> <Gold.PLP.part.buried>
-1.6579

> <Gold.PLP.part.nonpolar>
-38.8677

> <Gold.PLP.part.repulsive>
0.1428

> <Gold.PLP.ligand.clash>
0.0000

> <Gold.PLP.ligand.torsion>
1.3473

> <Gold.PLP.Chemscore.Hbond>
2.0000

> <Gold.PLP.Chemscore.CHOScore>
0.0000

> <Gold.PLP.Chemscore.Metal>
0.0000

> <Gold.Chemscore.Hbonds>
donor molecule, donor type, donor heavy atom, donor atom, acceptor molecule, acceptor atom, score
      L1  H    14    38       P1  7948  0.99
      P1  H  7989  7998       L1    16  1.00

> <Gold.PLP.Chemscore.Internal.Correction>
0.1377

> <Gold.Rescore>
     Score         DG    S(hbond)    S(metal)    S(lipo)     H(rot)  DE(clash)    DE(int)     intcor
     12.88     -14.88       0.99        0.00     108.46       2.58       0.89       1.12       ----

> <Gold.Chemscore.Fitness>
12.8757

> <Gold.Chemscore.DG>
-14.8824

> <Gold.Chemscore.ZeroCoef>
-5.4800

> <Gold.Chemscore.Hbond>
0.9900

> <Gold.Chemscore.Metal>
0.0000

> <Gold.Chemscore.Lipo>
108.4619

> <Gold.Chemscore.Internal_Hbond>
0.0000

> <Gold.Chemscore.DEClash>
0.8851

> <Gold.Chemscore.DEInternal>
1.1216

> <Gold.Chemscore.Rot>
2.5759

> <Gold.Chemscore.Internal.Correction>
   9.000000E+99

> <Gold.Chemscore.Hbonds>
donor molecule, donor type, donor heavy atom, donor atom, acceptor molecule, acceptor atom, score
      L1  H    14    38       P1  7948  0.94
      P1  H  7989  7998       L1    16  0.07

> <Gold.Chemscore.Hbond.Weighted>
-3.3067

> <Gold.Chemscore.Metal.Weighted>
-0.0000

> <Gold.Chemscore.Lipo.Weighted>
-12.6900

> <Gold.Chemscore.Internal_Hbond.Weighted>
0.0000

> <Gold.Chemscore.DEClash.Weighted>
0.8851

> <Gold.Chemscore.DEInternal.Weighted>
1.1216

> <Gold.Chemscore.Rot.Weighted>
6.5943

> <Gold.Chemscore.Internal.Correction.Weighted>
   9.000000E+99

> <Gold.Protein.RotatedTorsions>
[ 6907 6896 6895 6894 ] final -104.19 input  -60.11 | X-H torsion
[ 7974 7965 7964 7962 ] final -116.02 input  175.53 | X-H torsion
[ 8008 7997 7996 7995 ] final -124.16 input   59.86 | X-H torsion
[ 10167 10162 10161 10158 ] final   58.21 input  -65.29 | X-H torsion
[ 10718 10713 10712 10709 ] final   11.99 input   66.30 | X-H torsion
[ 10763 10752 10751 10750 ] final  -25.12 input  -60.55 | X-H torsion
[ 11005 11000 10999 10996 ] final  -22.27 input  -57.11 | X-H torsion

> <Gold.Protein.ActiveResidues>
 VAL166  LYS551  ARG553  GLY616  TRP617  ASP618  TYR619  PRO620  LYS621  CYS622 
 ASP623  PHE694  ASN695  SER759  ASP760  ASP761  ALA762  ILE779  LEU786  VAL792 
 PHE793  MET794  SER795  GLU796  ALA797  LYS798  CYS799  TRP800  GLU811  SER814 

> <Gold.Protein.RotatedAtoms>
  150.7275  134.0315  159.3734 H   0  0  0  0  0  0  0  0  0  0  0  0  # atno 6907 bound_to 6896
  151.8285  135.0627  160.0443 H   0  0  0  0  0  0  0  0  0  0  0  0  # atno 6908 bound_to 6896
  152.2951  133.5564  159.5619 H   0  0  0  0  0  0  0  0  0  0  0  0  # atno 6909 bound_to 6896
  145.1016  140.8555  143.3923 H   0  0  0  0  0  0  0  0  0  0  0  0  # atno 7974 bound_to 7965
  155.1923  140.0413  157.2902 H   0  0  0  0  0  0  0  0  0  0  0  0  # atno 8008 bound_to 7997
  154.6130  140.2481  155.7616 H   0  0  0  0  0  0  0  0  0  0  0  0  # atno 8009 bound_to 7997
  156.2390  140.2910  156.0402 H   0  0  0  0  0  0  0  0  0  0  0  0  # atno 8010 bound_to 7997
  140.1897  144.4098  150.6577 H   0  0  0  0  0  0  0  0  0  0  0  0  # atno 10167 bound_to 10162
  157.0036  130.6089  149.5699 H   0  0  0  0  0  0  0  0  0  0  0  0  # atno 10718 bound_to 10713
  153.6948  135.6959  153.5080 H   0  0  0  0  0  0  0  0  0  0  0  0  # atno 10763 bound_to 10752
  153.2386  135.4313  155.0673 H   0  0  0  0  0  0  0  0  0  0  0  0  # atno 10764 bound_to 10752
  154.8362  135.3502  154.6488 H   0  0  0  0  0  0  0  0  0  0  0  0  # atno 10765 bound_to 10752
  140.8641  133.7767  156.0109 H   0  0  0  0  0  0  0  0  0  0  0  0  # atno 11005 bound_to 11000
  145.0949  139.2863  143.5716 LP  0  0  0  0  0  0  0  0  0  0  0  0  # atno 17320 bound_to 7965
  146.3529  140.0498  142.8637 LP  0  0  0  0  0  0  0  0  0  0  0  0  # atno 17321 bound_to 7965
  140.6464  143.2214  151.6176 LP  0  0  0  0  0  0  0  0  0  0  0  0  # atno 17342 bound_to 10162
  139.5261  144.3055  152.1037 LP  0  0  0  0  0  0  0  0  0  0  0  0  # atno 17343 bound_to 10162
  156.0162  130.5256  150.8140 LP  0  0  0  0  0  0  0  0  0  0  0  0  # atno 17370 bound_to 10713
  157.5372  131.0939  150.9876 LP  0  0  0  0  0  0  0  0  0  0  0  0  # atno 17371 bound_to 10713
  140.8649  134.2796  157.5218 LP  0  0  0  0  0  0  0  0  0  0  0  0  # atno 17394 bound_to 11000
  139.8708  134.9537  156.4154 LP  0  0  0  0  0  0  0  0  0  0  0  0  # atno 17395 bound_to 11000

$$$$
