AV-unprocessed.smi:160|AV-procd|sdf|1360|dock6
  -GOLD-   2262019 73D 1   1.00000     0.00000
 Structure written by MMmdl.
 28 29  0  0  0  0  0  0  0  0  2 V2000
  153.1549  136.2258  160.1580 N   0  5  0  0  0  0  0  0  0  0  0  0
  153.5649  137.4019  159.6354 C   0  0  0  0  0  0  0  0  0  0  0  0
  154.4981  138.0930  160.0427 O   0  0  0  0  0  0  0  0  0  0  0  0
  152.7688  137.8689  158.4399 C   0  0  0  0  0  0  0  0  0  0  0  0
  151.8702  137.0348  157.8330 N   0  0  0  0  0  0  0  0  0  0  0  0
  151.4390  137.8464  156.8772 C   0  0  0  0  0  0  0  0  0  0  0  0
  152.0114  139.0535  156.8825 N   0  0  0  0  0  0  0  0  0  0  0  0
  151.7869  140.2222  155.9699 C   0  0  1  0  0  0  0  0  0  0  0  0
  150.8833  139.8398  154.9754 O   0  0  0  0  0  0  0  0  0  0  0  0
  149.6006  140.3944  155.2498 C   0  0  2  0  0  0  0  0  0  0  0  0
  148.7739  140.4611  153.9564 C   0  0  0  0  0  0  0  0  0  0  0  0
  148.7977  139.2126  153.2983 O   0  0  0  0  0  0  0  0  0  0  0  0
  149.9803  141.7683  155.8054 C   0  0  1  0  0  0  0  0  0  0  0  0
  148.9194  142.3961  156.5014 O   0  0  0  0  0  0  0  0  0  0  0  0
  151.1933  141.4619  156.6823 C   0  0  1  0  0  0  0  0  0  0  0  0
  150.8460  141.2486  158.0423 O   0  0  0  0  0  0  0  0  0  0  0  0
  152.8913  139.0918  157.9142 N   0  0  0  0  0  0  0  0  0  0  0  0
  152.7649  140.4090  155.5251 H   0  0  0  0  0  0  0  0  0  0  0  0
  149.0904  139.8095  156.0179 H   0  0  0  0  0  0  0  0  0  0  0  0
  150.2931  142.4155  154.9844 H   0  0  0  0  0  0  0  0  0  0  0  0
  151.9161  142.2772  156.6429 H   0  0  0  0  0  0  0  0  0  0  0  0
  153.5319  135.9384  161.0691 H   0  0  0  0  0  0  0  0  0  0  0  0
  150.6919  137.5529  156.1547 H   0  0  0  0  0  0  0  0  0  0  0  0
  147.7328  140.6870  154.1882 H   0  0  0  0  0  0  0  0  0  0  0  0
  149.1360  141.2472  153.2933 H   0  0  0  0  0  0  0  0  0  0  0  0
  149.1996  139.3262  152.4510 H   0  0  0  0  0  0  0  0  0  0  0  0
  148.7912  143.2584  156.1373 H   0  0  0  0  0  0  0  0  0  0  0  0
  151.1097  140.3758  158.2897 H   0  0  0  0  0  0  0  0  0  0  0  0
  1  2  1  0  0  0  0
  1 22  1  0  0  0  0
  2  3  2  0  0  0  0
  2  4  1  0  0  0  0
  4 17  2  0  0  0  0
  4  5  1  0  0  0  0
  5  6  2  0  0  0  0
  6  7  1  0  0  0  0
  6 23  1  0  0  0  0
  7  8  1  0  0  0  0
  7 17  1  0  0  0  0
  8 18  1  0  0  0  0
  8 15  1  0  0  0  0
  8  9  1  0  0  0  0
  9 10  1  0  0  0  0
 10 19  1  0  0  0  0
 10 11  1  0  0  0  0
 10 13  1  0  0  0  0
 11 12  1  0  0  0  0
 11 24  1  0  0  0  0
 11 25  1  0  0  0  0
 12 26  1  0  0  0  0
 13 20  1  0  0  0  0
 13 14  1  0  0  0  0
 13 15  1  0  0  0  0
 14 27  1  0  0  0  0
 15 21  1  0  0  0  0
 15 16  1  0  0  0  0
 16 28  1  0  0  0  0
M  CHG  1   1  -1
M  END
> <s_m_source_file>
AV-unprocessed.smi

> <i_m_source_file_index>
160

> <i_lp_mmshare_version>
43012

> <i_f3d_flags>
0

> <s_epik_input>
W05IMl1DKD1PKWMxbltjSF1uKG4xKVtDQEBIXTJPW0NASF0oW0NIMl1bT0hdKVtDQEBIXShbT0hdKVtDQEhdMltPSF0=

> <s_epik_cmdline>
J2VwaWtfcHl0aG9uJywgJy1waCcsICc3LjAnLCAnLXRuJywgJzgnLCAnLW1hJywgJzIwMCcsICctbWV0YWxfYmluZGluZycsICctaW1hZScsICc8aW5maWxlLm1hZT4nLCAnLW9tYWUnLCAnPG91dGZpbGUubWFlPic=

> <r_lp_tautomer_probability>
1

> <r_epik_Ionization_Penalty>
6.6993

> <r_epik_Ionization_Penalty_Charging>
6.6993

> <r_epik_Ionization_Penalty_Neutral>
6.01698e-06

> <r_epik_State_Penalty>
6.69929

> <r_epik_Charging_Adjusted_Penalty>
13.3986

> <i_epik_Tot_Q>
-1

> <i_epik_Tot_abs_Q>
1

> <r_epik_Metal_State_Penalty>
2.62798

> <b_epik_Metal_Only>
1

> <s_epik_Chemistry_Notes>
This compound contains an acetal/aminal-like group ( X-CH(R)-Y where X, Y are N, S, or O) that may be acid/base labile, releasing an aldehyde.

> <s_lp_Force_Field>
OPLS_2005

> <r_lp_Energy>
50.1609

> <b_lp_Chiralities_Consistent>
1

> <s_lp_Variant>
AV-unprocessed.smi:160-18

> <Gold.Version>
5.8.1

> <Gold.Id.Protein>
6NUR|6NUR_protein|mol2

> <Gold.PLP.Fitness>
38.5987

> <Gold.PLP.PLP>
-21.5330

> <Gold.PLP.part.hbond>
-5.9404

> <Gold.PLP.part.metal>
0.0000

> <Gold.PLP.part.buried>
-3.0174

> <Gold.PLP.part.nonpolar>
-14.0537

> <Gold.PLP.part.repulsive>
0.0504

> <Gold.PLP.ligand.clash>
0.0000

> <Gold.PLP.ligand.torsion>
0.1749

> <Gold.PLP.Chemscore.Hbond>
5.8000

> <Gold.PLP.Chemscore.CHOScore>
0.0000

> <Gold.PLP.Chemscore.Metal>
0.0000

> <Gold.Chemscore.Hbonds>
donor molecule, donor type, donor heavy atom, donor atom, acceptor molecule, acceptor atom, score
      L1  H    12    26       P1  7957  0.98
      L1  H    14    27       P1  8028  1.00
      P1  H  6896  6908       L1     1  1.60
      P1  H  7989  7998       L1     9  0.90
      P1  H  7997  8010       L1    17  0.73

> <Gold.PLP.Chemscore.Internal.Correction>
0.0155

> <Gold.Rescore>
     Score         DG    S(hbond)    S(metal)    S(lipo)     H(rot)  DE(clash)    DE(int)     intcor
      8.81      -9.82       3.53        0.00      24.77       4.04       0.00       1.01       ----

> <Gold.Chemscore.Fitness>
8.8071

> <Gold.Chemscore.DG>
-9.8165

> <Gold.Chemscore.ZeroCoef>
-5.4800

> <Gold.Chemscore.Hbond>
3.5273

> <Gold.Chemscore.Metal>
0.0000

> <Gold.Chemscore.Lipo>
24.7724

> <Gold.Chemscore.Internal_Hbond>
0.0000

> <Gold.Chemscore.DEClash>
0.0038

> <Gold.Chemscore.DEInternal>
1.0057

> <Gold.Chemscore.Rot>
4.0403

> <Gold.Chemscore.Internal.Correction>
   9.000000E+99

> <Gold.Chemscore.Hbonds>
donor molecule, donor type, donor heavy atom, donor atom, acceptor molecule, acceptor atom, score
      L1  H    12    26       P1  7957  0.92
      L1  H    14    27       P1  8028  0.93
      P1  H  6896  6908       L1     1  0.12
      P1  H  7989  7998       L1     9  0.11
      P1  H  7997  8010       L1    17  0.17

> <Gold.Chemscore.Hbond.Weighted>
-11.7813

> <Gold.Chemscore.Metal.Weighted>
-0.0000

> <Gold.Chemscore.Lipo.Weighted>
-2.8984

> <Gold.Chemscore.Internal_Hbond.Weighted>
0.0000

> <Gold.Chemscore.DEClash.Weighted>
0.0038

> <Gold.Chemscore.DEInternal.Weighted>
1.0057

> <Gold.Chemscore.Rot.Weighted>
10.3431

> <Gold.Chemscore.Internal.Correction.Weighted>
   9.000000E+99

> <Gold.Protein.RotatedTorsions>
[ 6907 6896 6895 6894 ] final  -93.15 input  -60.11 | X-H torsion
[ 7974 7965 7964 7962 ] final -105.39 input  175.53 | X-H torsion
[ 8008 7997 7996 7995 ] final   40.79 input   59.86 | X-H torsion
[ 10167 10162 10161 10158 ] final   38.98 input  -65.29 | X-H torsion
[ 10718 10713 10712 10709 ] final -162.63 input   66.30 | X-H torsion
[ 10763 10752 10751 10750 ] final  156.65 input  -60.55 | X-H torsion
[ 11005 11000 10999 10996 ] final   47.12 input  -57.11 | X-H torsion

> <Gold.Protein.ActiveResidues>
 VAL166  LYS551  ARG553  GLY616  TRP617  ASP618  TYR619  PRO620  LYS621  CYS622 
 ASP623  PHE694  ASN695  SER759  ASP760  ASP761  ALA762  ILE779  LEU786  VAL792 
 PHE793  MET794  SER795  GLU796  ALA797  LYS798  CYS799  TRP800  GLU811  SER814 

> <Gold.Protein.RotatedAtoms>
  150.6917  134.2012  159.4322 H   0  0  0  0  0  0  0  0  0  0  0  0  # atno 6907 bound_to 6896
  151.9978  134.9942  160.0573 H   0  0  0  0  0  0  0  0  0  0  0  0  # atno 6908 bound_to 6896
  152.1607  133.4545  159.4896 H   0  0  0  0  0  0  0  0  0  0  0  0  # atno 6909 bound_to 6896
  145.2310  140.9170  143.3204 H   0  0  0  0  0  0  0  0  0  0  0  0  # atno 7974 bound_to 7965
  155.2590  140.3358  155.4275 H   0  0  0  0  0  0  0  0  0  0  0  0  # atno 8008 bound_to 7997
  156.2183  140.1798  156.7580 H   0  0  0  0  0  0  0  0  0  0  0  0  # atno 8009 bound_to 7997
  154.5786  140.0657  156.9056 H   0  0  0  0  0  0  0  0  0  0  0  0  # atno 8010 bound_to 7997
  140.3884  144.1886  150.6130 H   0  0  0  0  0  0  0  0  0  0  0  0  # atno 10167 bound_to 10162
  156.6131  130.8859  151.2941 H   0  0  0  0  0  0  0  0  0  0  0  0  # atno 10718 bound_to 10713
  154.1877  135.2796  155.3032 H   0  0  0  0  0  0  0  0  0  0  0  0  # atno 10763 bound_to 10752
  154.5953  135.5547  153.7323 H   0  0  0  0  0  0  0  0  0  0  0  0  # atno 10764 bound_to 10752
  153.0121  135.6378  154.2016 H   0  0  0  0  0  0  0  0  0  0  0  0  # atno 10765 bound_to 10752
  140.1308  134.4708  155.8523 H   0  0  0  0  0  0  0  0  0  0  0  0  # atno 11005 bound_to 11000
  144.9676  139.3913  143.6325 LP  0  0  0  0  0  0  0  0  0  0  0  0  # atno 17320 bound_to 7965
  146.3353  139.8759  142.8832 LP  0  0  0  0  0  0  0  0  0  0  0  0  # atno 17321 bound_to 7965
  140.4865  143.2361  151.8880 LP  0  0  0  0  0  0  0  0  0  0  0  0  # atno 17342 bound_to 10162
  139.4790  144.5212  151.8798 LP  0  0  0  0  0  0  0  0  0  0  0  0  # atno 17343 bound_to 10162
  157.7248  130.9608  150.1590 LP  0  0  0  0  0  0  0  0  0  0  0  0  # atno 17370 bound_to 10713
  156.2373  130.3687  149.8377 LP  0  0  0  0  0  0  0  0  0  0  0  0  # atno 17371 bound_to 10713
  141.2170  133.6795  156.7065 LP  0  0  0  0  0  0  0  0  0  0  0  0  # atno 17394 bound_to 11000
  140.2845  134.8290  157.3962 LP  0  0  0  0  0  0  0  0  0  0  0  0  # atno 17395 bound_to 11000

$$$$
