#       Name:                AV-unprocessed.smi:999
#       Creating user name   scv26
#       Creation time:       Fri Mar 27 02:25:21 2020


#       File generated by GOLD software.
#

@<TRIPOS>MOLECULE
AV-unprocessed.smi:999
    44    45     1
SMALL
NO_CHARGES


@<TRIPOS>ATOM
      1 ****        -2.9576  -2.2542   1.7979 C.3            1 S1                 0.0000
      2 ****        -2.3485  -1.3878   0.6762 C.3            1 S1                 0.0000
      3 ****        -0.8273  -1.2162   0.8145 C.2            1 S1                 0.0000
      4 ****        -0.1546  -2.0362   1.4408 O.2            1 S1                 0.0000
      5 ****        -0.3001  -0.1328   0.2226 N.am           1 S1                 0.0000
      6 ****         1.1125   0.2324   0.2230 C.3            1 S1                 0.0000
      7 ****         1.4748   0.9833   1.5212 C.3            1 S1                 0.0000
      8 ****         2.9342   1.4755   1.5000 C.3            1 S1                 0.0000
      9 ****         3.2422   2.3573   0.2649 C.3            1 S1                 0.0000
     10 ****         2.5662   3.7470   0.3373 C.2            1 S1                 0.0000
     11 ****         2.3322   4.3384  -0.7401 O.co2          1 S1                 0.0000
     12 ****         2.3179   4.2193   1.4689 O.co2          1 S1                -1.0000
     13 ****         2.8762   1.5835  -1.0253 C.3            1 S1                 0.0000
     14 ****         1.4170   1.0901  -1.0202 C.3            1 S1                 0.0000
     15 ****        -2.6826  -1.8850  -0.6539 N.pl3          1 S1                 0.0000
     16 ****        -3.0636  -1.1529  -1.7605 C.2            1 S1                 0.0000
     17 ****        -3.2337  -2.0282  -2.7944 C.2            1 S1                 0.0000
     18 ****        -2.9148  -3.2912  -2.2233 C.2            1 S1                 0.0000
     19 ****        -2.5769  -3.2022  -0.9476 N.2            1 S1                 0.0000
     20 ****        -2.7536  -1.8241   2.7792 H              1 S1                 0.0000
     21 ****        -2.5611  -3.2704   1.7948 H              1 S1                 0.0000
     22 ****        -4.0407  -2.3224   1.6908 H              1 S1                 0.0000
     23 ****        -2.7931  -0.3951   0.7652 H              1 S1                 0.0000
     24 ****        -0.9262   0.4905  -0.2660 H              1 S1                 0.0000
     25 ****         1.7172  -0.6746   0.1617 H              1 S1                 0.0000
     26 ****         0.8015   1.8303   1.6594 H              1 S1                 0.0000
     27 ****         1.3254   0.3335   2.3840 H              1 S1                 0.0000
     28 ****         3.1641   2.0022   2.4269 H              1 S1                 0.0000
     29 ****         3.5975   0.6100   1.4883 H              1 S1                 0.0000
     30 ****         4.3149   2.5534   0.2492 H              1 S1                 0.0000
     31 ****         3.0616   2.1887  -1.9135 H              1 S1                 0.0000
     32 ****         3.5395   0.7232  -1.1193 H              1 S1                 0.0000
     33 ****         1.2262   0.5117  -1.9249 H              1 S1                 0.0000
     34 ****         0.7399   1.9448  -1.0570 H              1 S1                 0.0000
     35 ****        -3.1805  -0.0797  -1.7200 H              1 S1                 0.0000
     36 ****        -3.5340  -1.8007  -3.8063 H              1 S1                 0.0000
     37 ****        -2.9139  -4.2624  -2.6956 H              1 S1                 0.0000
     38 ****        -0.5973  -2.8252   1.8668 LP             1 S1                 0.0000
     39 ****         0.8344  -1.9129   1.5234 LP             1 S1                 0.0000
     40 ****         1.9203   5.2496  -0.7311 LP             1 S1                 0.0000
     41 ****         2.5572   3.9000  -1.6102 LP             1 S1                 0.0000
     42 ****         1.9055   5.1265   1.5526 LP             1 S1                 0.0000
     43 ****         2.5319   3.6897   2.2897 LP             1 S1                 0.0000
     44 ****        -2.3036  -3.9441  -0.3353 LP             1 S1                 0.0000
@<TRIPOS>BOND
    1    1    2 1     
    2    1   20 1     
    3    1   21 1     
    4    1   22 1     
    5    2    3 1     
    6    2   15 1     
    7    2   23 1     
    8    3    4 2     
    9    3    5 am    
   10    5    6 1     
   11    5   24 1     
   12    6   14 1     
   13    6    7 1     
   14    6   25 1     
   15    7    8 1     
   16    7   26 1     
   17    7   27 1     
   18    8    9 1     
   19    8   28 1     
   20    8   29 1     
   21    9   10 1     
   22    9   13 1     
   23    9   30 1     
   24   10   11 ar    
   25   10   12 ar    
   26   13   14 1     
   27   13   31 1     
   28   13   32 1     
   29   14   33 1     
   30   14   34 1     
   31   15   19 1     
   32   15   16 1     
   33   16   17 2     
   34   16   35 1     
   35   17   18 1     
   36   17   36 1     
   37   18   19 2     
   38   18   37 1     
   39    4   38 1     
   40    4   39 1     
   41   11   40 1     
   42   11   41 1     
   43   12   42 1     
   44   12   43 1     
   45   19   44 1     
@<TRIPOS>SUBSTRUCTURE
      1 S1             1
@<TRIPOS>SET
LONE_PAIRS      STATIC     ATOMS    <user>   **** ""
7 38 39 40 41 42 43 44
DONOR_HYDROGENS      STATIC     ATOMS    <user>   **** ""
1 24
ATOM$BLUE        STATIC     ATOMS    COLORGROUP SYSTEM
7 38 39 40 41 42 43 44
ATOM$RED        STATIC     ATOMS    COLORGROUP SYSTEM
1 24
