AV-unprocessed.smi:903|AV-procd|sdf|4095|dock10
  -GOLD-   22720 1583D 1   1.00000     0.00000
 Structure written by MMmdl.
 28 29  0  0  0  0  0  0  0  0  2 V2000
  153.5269  138.8382  154.9624 O   0  0  0  0  0  0  0  0  0  0  0  0
  152.3201  138.5282  155.0631 C   0  0  0  0  0  0  0  0  0  0  0  0
  151.9334  137.3599  154.8285 O   0  5  0  0  0  0  0  0  0  0  0  0
  151.2901  139.5599  155.4726 C   0  0  0  0  0  0  0  0  0  0  0  0
  151.6952  140.4232  156.4378 N   0  0  0  0  0  0  0  0  0  0  0  0
  150.8554  141.3871  156.8817 C   0  0  0  0  0  0  0  0  0  0  0  0
  151.2906  142.2511  157.8654 O   0  0  0  0  0  0  0  0  0  0  0  0
  152.4635  141.9080  158.5976 C   0  0  0  0  0  0  0  0  0  0  0  0
  152.8031  143.0574  159.5540 C   0  0  2  0  0  0  0  0  0  0  0  0
  152.2219  142.8784  160.9546 C   0  0  0  0  0  0  0  0  0  0  0  0
  152.1870  144.3050  161.4530 C   0  0  0  0  0  0  0  0  0  0  0  0
  151.7931  145.0711  160.1926 C   0  0  0  0  0  0  0  0  0  0  0  0
  152.2333  144.2791  159.0914 O   0  0  0  0  0  0  0  0  0  0  0  0
  149.5532  141.5405  156.3762 C   0  0  0  0  0  0  0  0  0  0  0  0
  149.1161  140.6553  155.3763 C   0  0  0  0  0  0  0  0  0  0  0  0
  149.9818  139.6471  154.9076 C   0  0  0  0  0  0  0  0  0  0  0  0
  149.3709  138.5953  153.6741 Cl  0  0  0  0  0  0  0  0  0  0  0  0
  152.3243  140.9816  159.1576 H   0  0  0  0  0  0  0  0  0  0  0  0
  153.2916  141.7598  157.9022 H   0  0  0  0  0  0  0  0  0  0  0  0
  153.8844  143.1836  159.6304 H   0  0  0  0  0  0  0  0  0  0  0  0
  151.2092  142.4757  160.9030 H   0  0  0  0  0  0  0  0  0  0  0  0
  152.8212  142.2194  161.5833 H   0  0  0  0  0  0  0  0  0  0  0  0
  151.4920  144.4558  162.2794 H   0  0  0  0  0  0  0  0  0  0  0  0
  153.1816  144.6093  161.7819 H   0  0  0  0  0  0  0  0  0  0  0  0
  150.7095  145.1767  160.1303 H   0  0  0  0  0  0  0  0  0  0  0  0
  152.2324  146.0685  160.1637 H   0  0  0  0  0  0  0  0  0  0  0  0
  148.9033  142.3186  156.7479 H   0  0  0  0  0  0  0  0  0  0  0  0
  148.1192  140.7498  154.9711 H   0  0  0  0  0  0  0  0  0  0  0  0
  1  2  2  0  0  0  0
  2  3  1  0  0  0  0
  2  4  1  0  0  0  0
  4 16  1  0  0  0  0
  4  5  2  0  0  0  0
  5  6  1  0  0  0  0
  6  7  1  0  0  0  0
  6 14  2  0  0  0  0
  7  8  1  0  0  0  0
  8  9  1  0  0  0  0
  8 18  1  0  0  0  0
  8 19  1  0  0  0  0
  9 13  1  0  0  0  0
  9 10  1  0  0  0  0
  9 20  1  0  0  0  0
 10 11  1  0  0  0  0
 10 21  1  0  0  0  0
 10 22  1  0  0  0  0
 11 12  1  0  0  0  0
 11 23  1  0  0  0  0
 11 24  1  0  0  0  0
 12 13  1  0  0  0  0
 12 25  1  0  0  0  0
 12 26  1  0  0  0  0
 14 15  1  0  0  0  0
 14 27  1  0  0  0  0
 15 16  2  0  0  0  0
 15 28  1  0  0  0  0
 16 17  1  0  0  0  0
M  CHG  1   3  -1
M  END
> <s_m_source_file>
AV-unprocessed.smi

> <i_m_source_file_index>
903

> <i_lp_mmshare_version>
43012

> <i_f3d_flags>
0

> <s_epik_input>
Tz1DKFtPSF0pYzFuYyhbY0hdW2NIXWMxQ2wpT1tDSDJdW0NAQEhdMltDSDJdW0NIMl1bQ0gyXU8y

> <s_epik_cmdline>
J2VwaWtfcHl0aG9uJywgJy1waCcsICc3LjAnLCAnLXRuJywgJzgnLCAnLW1hJywgJzIwMCcsICctbWV0YWxfYmluZGluZycsICctaW1hZScsICc8aW5maWxlLm1hZT4nLCAnLW9tYWUnLCAnPG91dGZpbGUubWFlPic=

> <r_lp_tautomer_probability>
1

> <r_epik_Ionization_Penalty>
1.22588e-05

> <r_epik_Ionization_Penalty_Charging>
1.01343e-05

> <r_epik_Ionization_Penalty_Neutral>
2.12445e-06

> <r_epik_State_Penalty>
-0

> <r_epik_Charging_Adjusted_Penalty>
1.01343e-05

> <i_epik_Tot_Q>
-1

> <i_epik_Tot_abs_Q>
1

> <r_epik_Metal_State_Penalty>
-0

> <b_epik_Metal_Only>
0

> <s_lp_Force_Field>
OPLS_2005

> <r_lp_Energy>
26.032

> <b_lp_Chiralities_Consistent>
1

> <s_lp_Variant>
AV-unprocessed.smi:903-1

> <Gold.Version>
5.8.1

> <Gold.Id.Protein>
6NUR|6NUR_protein|mol2

> <Gold.PLP.Fitness>
43.2792

> <Gold.PLP.PLP>
-34.1851

> <Gold.PLP.part.hbond>
-2.0000

> <Gold.PLP.part.metal>
0.0000

> <Gold.PLP.part.buried>
-2.6895

> <Gold.PLP.part.nonpolar>
-30.3983

> <Gold.PLP.part.repulsive>
0.1591

> <Gold.PLP.ligand.clash>
0.0000

> <Gold.PLP.ligand.torsion>
1.2644

> <Gold.PLP.Chemscore.Hbond>
3.8720

> <Gold.PLP.Chemscore.CHOScore>
0.0000

> <Gold.PLP.Chemscore.Metal>
0.0000

> <Gold.Chemscore.Hbonds>
donor molecule, donor type, donor heavy atom, donor atom, acceptor molecule, acceptor atom, score
      P1  H  7997  8010       L1     1  2.00
      P1  H 10752 10765       L1     3  1.79

> <Gold.PLP.Chemscore.Internal.Correction>
0.0069

> <Gold.Rescore>
     Score         DG    S(hbond)    S(metal)    S(lipo)     H(rot)  DE(clash)    DE(int)     intcor
     15.92     -18.36       1.81        0.00      91.50       1.51       1.04       1.40       ----

> <Gold.Chemscore.Fitness>
15.9216

> <Gold.Chemscore.DG>
-18.3637

> <Gold.Chemscore.ZeroCoef>
-5.4800

> <Gold.Chemscore.Hbond>
1.8091

> <Gold.Chemscore.Metal>
0.0000

> <Gold.Chemscore.Lipo>
91.4989

> <Gold.Chemscore.Internal_Hbond>
0.0000

> <Gold.Chemscore.DEClash>
1.0414

> <Gold.Chemscore.DEInternal>
1.4007

> <Gold.Chemscore.Rot>
1.5094

> <Gold.Chemscore.Internal.Correction>
   9.000000E+99

> <Gold.Chemscore.Hbonds>
donor molecule, donor type, donor heavy atom, donor atom, acceptor molecule, acceptor atom, score
      P1  H  7997  8010       L1     1  0.95
      P1  H 10752 10765       L1     3  0.82

> <Gold.Chemscore.Hbond.Weighted>
-6.0424

> <Gold.Chemscore.Metal.Weighted>
-0.0000

> <Gold.Chemscore.Lipo.Weighted>
-10.7054

> <Gold.Chemscore.Internal_Hbond.Weighted>
0.0000

> <Gold.Chemscore.DEClash.Weighted>
1.0414

> <Gold.Chemscore.DEInternal.Weighted>
1.4007

> <Gold.Chemscore.Rot.Weighted>
3.8641

> <Gold.Chemscore.Internal.Correction.Weighted>
   9.000000E+99

> <Gold.Protein.RotatedTorsions>
[ 6907 6896 6895 6894 ] final -117.66 input  -60.11 | X-H torsion
[ 7974 7965 7964 7962 ] final  -50.57 input  175.53 | X-H torsion
[ 8008 7997 7996 7995 ] final  106.06 input   59.86 | X-H torsion
[ 10167 10162 10161 10158 ] final  -76.84 input  -65.29 | X-H torsion
[ 10718 10713 10712 10709 ] final  -30.02 input   66.30 | X-H torsion
[ 10763 10752 10751 10750 ] final  179.02 input  -60.55 | X-H torsion
[ 11005 11000 10999 10996 ] final  113.90 input  -57.11 | X-H torsion

> <Gold.Protein.ActiveResidues>
 VAL166  LYS551  ARG553  GLY616  TRP617  ASP618  TYR619  PRO620  LYS621  CYS622 
 ASP623  PHE694  ASN695  SER759  ASP760  ASP761  ALA762  ILE779  LEU786  VAL792 
 PHE793  MET794  SER795  GLU796  ALA797  LYS798  CYS799  TRP800  GLU811  SER814 

> <Gold.Protein.RotatedAtoms>
  150.8155  133.8345  159.3162 H   0  0  0  0  0  0  0  0  0  0  0  0  # atno 6907 bound_to 6896
  151.6119  135.1038  160.0092 H   0  0  0  0  0  0  0  0  0  0  0  0  # atno 6908 bound_to 6896
  152.4246  133.7133  159.6548 H   0  0  0  0  0  0  0  0  0  0  0  0  # atno 6909 bound_to 6896
  145.9284  140.7771  142.9612 H   0  0  0  0  0  0  0  0  0  0  0  0  # atno 7974 bound_to 7965
  156.1712  140.3119  155.8977 H   0  0  0  0  0  0  0  0  0  0  0  0  # atno 8008 bound_to 7997
  155.3583  140.0475  157.3063 H   0  0  0  0  0  0  0  0  0  0  0  0  # atno 8009 bound_to 7997
  154.5243  140.2209  155.8929 H   0  0  0  0  0  0  0  0  0  0  0  0  # atno 8010 bound_to 7997
  140.4822  143.2399  151.8040 H   0  0  0  0  0  0  0  0  0  0  0  0  # atno 10167 bound_to 10162
  156.4051  130.4397  149.7293 H   0  0  0  0  0  0  0  0  0  0  0  0  # atno 10718 bound_to 10713
  154.5153  135.2791  155.1308 H   0  0  0  0  0  0  0  0  0  0  0  0  # atno 10763 bound_to 10752
  154.2888  135.6271  153.5380 H   0  0  0  0  0  0  0  0  0  0  0  0  # atno 10764 bound_to 10752
  152.9926  135.5669  154.5628 H   0  0  0  0  0  0  0  0  0  0  0  0  # atno 10765 bound_to 10752
  139.8965  134.9558  156.6809 H   0  0  0  0  0  0  0  0  0  0  0  0  # atno 11005 bound_to 11000
  144.6761  140.2087  143.7379 LP  0  0  0  0  0  0  0  0  0  0  0  0  # atno 17320 bound_to 7965
  145.8459  139.2152  143.1800 LP  0  0  0  0  0  0  0  0  0  0  0  0  # atno 17321 bound_to 7965
  139.4835  144.4758  151.9368 LP  0  0  0  0  0  0  0  0  0  0  0  0  # atno 17342 bound_to 10162
  140.3844  144.2696  150.5905 LP  0  0  0  0  0  0  0  0  0  0  0  0  # atno 17343 bound_to 10162
  156.4294  130.7807  151.2827 LP  0  0  0  0  0  0  0  0  0  0  0  0  # atno 17370 bound_to 10713
  157.7505  131.0158  150.3521 LP  0  0  0  0  0  0  0  0  0  0  0  0  # atno 17371 bound_to 10713
  140.7300  133.9067  155.8204 LP  0  0  0  0  0  0  0  0  0  0  0  0  # atno 17394 bound_to 11000
  141.0161  134.0954  157.4170 LP  0  0  0  0  0  0  0  0  0  0  0  0  # atno 17395 bound_to 11000

$$$$
