AV-unprocessed.smi:3278|AV-procd|sdf|12543|dock2
  -GOLD-   2272018453D 1   1.00000     0.00000
 Structure written by MMmdl.
 39 40  0  0  0  0  0  0  0  0  2 V2000
  146.2224  136.7271  153.3330 C   0  0  0  0  0  0  0  0  0  0  0  0
  146.6339  137.9620  153.9655 N   0  0  0  0  0  0  0  0  0  0  0  0
  147.6758  138.7967  153.6268 C   0  0  0  0  0  0  0  0  0  0  0  0
  147.6742  139.8427  154.5089 C   0  0  0  0  0  0  0  0  0  0  0  0
  148.6082  141.0335  154.5590 C   0  0  2  0  0  0  0  0  0  0  0  0
  147.7975  142.3388  154.4835 C   0  0  0  0  0  0  0  0  0  0  0  0
  149.4919  141.0595  153.4532 O   0  0  0  0  0  0  0  0  0  0  0  0
  149.4731  141.0046  155.8378 C   0  0  0  0  0  0  0  0  0  0  0  0
  150.2769  142.2401  155.9821 N   0  3  0  0  0  0  0  0  0  0  0  0
  150.7003  142.5703  157.3605 C   0  0  1  0  0  0  0  0  0  0  0  0
  151.4724  141.3951  158.0009 C   0  0  0  0  0  0  0  0  0  0  0  0
  151.8918  141.6765  159.4535 C   0  0  0  0  0  0  0  0  0  0  0  0
  152.8190  142.8931  159.5748 C   0  0  0  0  0  0  0  0  0  0  0  0
  151.9920  144.4010  159.0038 S   0  0  0  0  0  0  0  0  0  0  0  0
  151.5570  143.8489  157.3323 C   0  0  0  0  0  0  0  0  0  0  0  0
  146.5754  139.5394  155.3662 C   0  0  0  0  0  0  0  0  0  0  0  0
  145.9538  138.4200  155.0351 N   0  0  0  0  0  0  0  0  0  0  0  0
  146.8719  136.5065  152.4853 H   0  0  0  0  0  0  0  0  0  0  0  0
  145.1952  136.8178  152.9784 H   0  0  0  0  0  0  0  0  0  0  0  0
  146.2839  135.9071  154.0492 H   0  0  0  0  0  0  0  0  0  0  0  0
  148.3261  138.5823  152.7914 H   0  0  0  0  0  0  0  0  0  0  0  0
  147.1032  142.4246  155.3203 H   0  0  0  0  0  0  0  0  0  0  0  0
  147.2105  142.3878  153.5653 H   0  0  0  0  0  0  0  0  0  0  0  0
  148.4463  143.2153  154.5068 H   0  0  0  0  0  0  0  0  0  0  0  0
  149.2325  140.3877  152.8406 H   0  0  0  0  0  0  0  0  0  0  0  0
  148.8450  140.8765  156.7208 H   0  0  0  0  0  0  0  0  0  0  0  0
  150.1404  140.1437  155.8021 H   0  0  0  0  0  0  0  0  0  0  0  0
  151.0954  142.1734  155.3940 H   0  0  0  0  0  0  0  0  0  0  0  0
  149.8047  142.7782  157.9481 H   0  0  0  0  0  0  0  0  0  0  0  0
  150.8612  140.4931  157.9954 H   0  0  0  0  0  0  0  0  0  0  0  0
  152.3564  141.1644  157.4047 H   0  0  0  0  0  0  0  0  0  0  0  0
  151.0056  141.8270  160.0712 H   0  0  0  0  0  0  0  0  0  0  0  0
  152.3982  140.7991  159.8568 H   0  0  0  0  0  0  0  0  0  0  0  0
  153.1252  143.0333  160.6117 H   0  0  0  0  0  0  0  0  0  0  0  0
  153.7273  142.7408  158.9908 H   0  0  0  0  0  0  0  0  0  0  0  0
  152.4745  143.6858  156.7655 H   0  0  0  0  0  0  0  0  0  0  0  0
  151.0172  144.6581  156.8392 H   0  0  0  0  0  0  0  0  0  0  0  0
  146.2085  140.1013  156.2128 H   0  0  0  0  0  0  0  0  0  0  0  0
  149.7062  143.0015  155.6428 H   0  0  0  0  0  0  0  0  0  0  0  0
  1  2  1  0  0  0  0
  1 18  1  0  0  0  0
  1 19  1  0  0  0  0
  1 20  1  0  0  0  0
  2 17  1  0  0  0  0
  2  3  1  0  0  0  0
  3  4  2  0  0  0  0
  3 21  1  0  0  0  0
  4  5  1  0  0  0  0
  4 16  1  0  0  0  0
  5  6  1  0  0  0  0
  5  7  1  0  0  0  0
  5  8  1  0  0  0  0
  6 22  1  0  0  0  0
  6 23  1  0  0  0  0
  6 24  1  0  0  0  0
  7 25  1  0  0  0  0
  8  9  1  0  0  0  0
  8 26  1  0  0  0  0
  8 27  1  0  0  0  0
  9 10  1  0  0  0  0
  9 28  1  0  0  0  0
  9 39  1  0  0  0  0
 10 15  1  0  0  0  0
 10 11  1  0  0  0  0
 10 29  1  0  0  0  0
 11 12  1  0  0  0  0
 11 30  1  0  0  0  0
 11 31  1  0  0  0  0
 12 13  1  0  0  0  0
 12 32  1  0  0  0  0
 12 33  1  0  0  0  0
 13 14  1  0  0  0  0
 13 34  1  0  0  0  0
 13 35  1  0  0  0  0
 14 15  1  0  0  0  0
 15 36  1  0  0  0  0
 15 37  1  0  0  0  0
 16 17  2  0  0  0  0
 16 38  1  0  0  0  0
M  CHG  1   9   1
M  END
> <s_m_source_file>
AV-unprocessed.smi

> <i_m_source_file_index>
3278

> <i_lp_mmshare_version>
43012

> <i_f3d_flags>
0

> <s_epik_input>
W0NIM11uMVtjSF1jKFtjSF1uMSlbQ0BAXShbQ0gzXSkoW09IXSlbQ0gyXVtOSF1bQ0BASF0yW0NIMl1bQ0gyXVtDSDJdU1tDSDJdMg==

> <s_epik_cmdline>
J2VwaWtfcHl0aG9uJywgJy1waCcsICc3LjAnLCAnLXRuJywgJzgnLCAnLW1hJywgJzIwMCcsICctbWV0YWxfYmluZGluZycsICctaW1hZScsICc8aW5maWxlLm1hZT4nLCAnLW9tYWUnLCAnPG91dGZpbGUubWFlPic=

> <r_lp_tautomer_probability>
1

> <r_epik_Ionization_Penalty>
0.0185703

> <r_epik_Ionization_Penalty_Charging>
0.0185619

> <r_epik_Ionization_Penalty_Neutral>
8.47286e-06

> <r_epik_State_Penalty>
0.0147768

> <r_epik_Charging_Adjusted_Penalty>
0.0333386

> <i_epik_Tot_Q>
1

> <i_epik_Tot_abs_Q>
1

> <r_epik_Metal_State_Penalty>
0.0147782

> <b_epik_Metal_Only>
0

> <s_lp_Force_Field>
OPLS_2005

> <r_lp_Energy>
8.58851

> <b_lp_Chiralities_Consistent>
1

> <s_lp_Variant>
AV-unprocessed.smi:3278-4

> <Gold.Version>
5.8.1

> <Gold.Id.Protein>
6NUR|6NUR_protein|mol2

> <Gold.PLP.Fitness>
48.1661

> <Gold.PLP.PLP>
-31.3952

> <Gold.PLP.part.hbond>
-3.8915

> <Gold.PLP.part.metal>
0.0000

> <Gold.PLP.part.buried>
-0.9779

> <Gold.PLP.part.nonpolar>
-26.6891

> <Gold.PLP.part.repulsive>
0.1801

> <Gold.PLP.ligand.clash>
0.0000

> <Gold.PLP.ligand.torsion>
0.2554

> <Gold.PLP.Chemscore.Hbond>
3.8748

> <Gold.PLP.Chemscore.CHOScore>
1.8744

> <Gold.PLP.Chemscore.Metal>
0.0000

> <Gold.Chemscore.Hbonds>
donor molecule, donor type, donor heavy atom, donor atom, acceptor molecule, acceptor atom, score
      L1  H     7    25       P1  7957  0.69
      L1  H     9    39       P1  8028  2.00
      P1  H  7989  7998       L1     7  0.18
      P1  H  8011  8017       L1     7  1.00
      L1  C     3    21       P1  7948  0.85
      L1  C     3    21       P1  7957  1.00

> <Gold.PLP.Chemscore.Internal.Correction>
0.0340

> <Gold.Rescore>
     Score         DG    S(hbond)    S(metal)    S(lipo)     H(rot)  DE(clash)    DE(int)     intcor
     18.12     -18.47       2.26        0.00      90.44       2.00       0.08       0.26       ----

> <Gold.Chemscore.Fitness>
18.1182

> <Gold.Chemscore.DG>
-18.4652

> <Gold.Chemscore.ZeroCoef>
-5.4800

> <Gold.Chemscore.Hbond>
2.2555

> <Gold.Chemscore.Metal>
0.0000

> <Gold.Chemscore.Lipo>
90.4409

> <Gold.Chemscore.Internal_Hbond>
0.0000

> <Gold.Chemscore.DEClash>
0.0835

> <Gold.Chemscore.DEInternal>
0.2635

> <Gold.Chemscore.Rot>
2.0038

> <Gold.Chemscore.Internal.Correction>
   9.000000E+99

> <Gold.Chemscore.Hbonds>
donor molecule, donor type, donor heavy atom, donor atom, acceptor molecule, acceptor atom, score
      L1  H     7    25       P1  7957  0.68
      L1  H     9    39       P1  8028  0.99
      P1  H  7989  7998       L1     7  0.07
      P1  H  8011  8017       L1     7  0.25

> <Gold.Chemscore.Hbond.Weighted>
-7.5333

> <Gold.Chemscore.Metal.Weighted>
-0.0000

> <Gold.Chemscore.Lipo.Weighted>
-10.5816

> <Gold.Chemscore.Internal_Hbond.Weighted>
0.0000

> <Gold.Chemscore.DEClash.Weighted>
0.0835

> <Gold.Chemscore.DEInternal.Weighted>
0.2635

> <Gold.Chemscore.Rot.Weighted>
5.1296

> <Gold.Chemscore.Internal.Correction.Weighted>
   9.000000E+99

> <Gold.Protein.RotatedTorsions>
[ 6907 6896 6895 6894 ] final  -43.78 input  -60.11 | X-H torsion
[ 7974 7965 7964 7962 ] final   84.30 input  175.53 | X-H torsion
[ 8008 7997 7996 7995 ] final  100.71 input   59.86 | X-H torsion
[ 10167 10162 10161 10158 ] final  -61.99 input  -65.29 | X-H torsion
[ 10718 10713 10712 10709 ] final -148.15 input   66.30 | X-H torsion
[ 10763 10752 10751 10750 ] final   88.01 input  -60.55 | X-H torsion
[ 11005 11000 10999 10996 ] final  178.62 input  -57.11 | X-H torsion

> <Gold.Protein.ActiveResidues>
 VAL166  LYS551  ARG553  GLY616  TRP617  ASP618  TYR619  PRO620  LYS621  CYS622 
 ASP623  PHE694  ASN695  SER759  ASP760  ASP761  ALA762  ILE779  LEU786  VAL792 
 PHE793  MET794  SER795  GLU796  ALA797  LYS798  CYS799  TRP800  GLU811  SER814 

> <Gold.Protein.RotatedAtoms>
  150.9401  134.8811  159.7606 H   0  0  0  0  0  0  0  0  0  0  0  0  # atno 6907 bound_to 6896
  152.5076  134.3954  159.9408 H   0  0  0  0  0  0  0  0  0  0  0  0  # atno 6908 bound_to 6896
  151.3976  133.3728  159.2763 H   0  0  0  0  0  0  0  0  0  0  0  0  # atno 6909 bound_to 6896
  145.6006  139.2352  143.2248 H   0  0  0  0  0  0  0  0  0  0  0  0  # atno 7974 bound_to 7965
  156.1230  140.3209  155.8235 H   0  0  0  0  0  0  0  0  0  0  0  0  # atno 8008 bound_to 7997
  155.4471  140.0529  157.3022 H   0  0  0  0  0  0  0  0  0  0  0  0  # atno 8009 bound_to 7997
  154.4841  140.2065  155.9709 H   0  0  0  0  0  0  0  0  0  0  0  0  # atno 8010 bound_to 7997
  140.5969  143.2353  151.6015 H   0  0  0  0  0  0  0  0  0  0  0  0  # atno 10167 bound_to 10162
  156.4166  130.8008  151.2228 H   0  0  0  0  0  0  0  0  0  0  0  0  # atno 10718 bound_to 10713
  153.1725  135.4523  154.9921 H   0  0  0  0  0  0  0  0  0  0  0  0  # atno 10763 bound_to 10752
  154.7975  135.3243  154.7632 H   0  0  0  0  0  0  0  0  0  0  0  0  # atno 10764 bound_to 10752
  153.8107  135.6955  153.4896 H   0  0  0  0  0  0  0  0  0  0  0  0  # atno 10765 bound_to 10752
  140.3971  134.6811  157.4540 H   0  0  0  0  0  0  0  0  0  0  0  0  # atno 11005 bound_to 11000
  146.1579  140.6831  142.9291 LP  0  0  0  0  0  0  0  0  0  0  0  0  # atno 17320 bound_to 7965
  144.7312  140.4675  143.6937 LP  0  0  0  0  0  0  0  0  0  0  0  0  # atno 17321 bound_to 7965
  139.5264  144.3046  152.1045 LP  0  0  0  0  0  0  0  0  0  0  0  0  # atno 17342 bound_to 10162
  140.2220  144.4457  150.6338 LP  0  0  0  0  0  0  0  0  0  0  0  0  # atno 17343 bound_to 10162
  157.7508  131.0241  150.3862 LP  0  0  0  0  0  0  0  0  0  0  0  0  # atno 17370 bound_to 10713
  156.4171  130.3945  149.6851 LP  0  0  0  0  0  0  0  0  0  0  0  0  # atno 17371 bound_to 10713
  140.0364  134.6331  155.9038 LP  0  0  0  0  0  0  0  0  0  0  0  0  # atno 17394 bound_to 11000
  141.1870  133.6559  156.5264 LP  0  0  0  0  0  0  0  0  0  0  0  0  # atno 17395 bound_to 11000

$$$$
