AV-unprocessed.smi:1232|AV-procd|sdf|5168|dock4
  -GOLD-   22720 4243D 1   1.00000     0.00000
 Structure written by MMmdl.
 53 54  0  0  0  0  0  0  0  0  1 V2000
  148.3762  135.5115  163.0347 C   0  0  0  0  0  0  0  0  0  0  0  0
  148.0312  135.7935  161.5760 C   0  0  0  0  0  0  0  0  0  0  0  0
  148.2034  136.9226  161.1203 O   0  0  0  0  0  0  0  0  0  0  0  0
  147.5415  134.7587  160.8690 N   0  0  0  0  0  0  0  0  0  0  0  0
  147.1550  134.7117  159.4513 C   0  0  1  0  0  0  0  0  0  0  0  0
  148.3605  134.9978  158.5370 C   0  0  0  0  0  0  0  0  0  0  0  0
  149.3022  134.2065  158.4818 O   0  0  0  0  0  0  0  0  0  0  0  0
  148.3061  136.1239  157.8071 N   0  0  0  0  0  0  0  0  0  0  0  0
  149.3260  136.5806  156.8688 C   0  0  0  0  0  0  0  0  0  0  0  0
  149.9178  137.9295  157.2418 C   0  0  0  0  0  0  0  0  0  0  0  0
  149.9357  138.9901  156.3150 C   0  0  0  0  0  0  0  0  0  0  0  0
  150.4994  140.2223  156.6970 C   0  0  0  0  0  0  0  0  0  0  0  0
  151.0380  140.3626  157.9986 C   0  0  0  0  0  0  0  0  0  0  0  0
  151.6172  141.5864  158.4002 N   0  0  0  0  0  0  0  0  0  0  0  0
  151.0309  142.8238  157.8884 C   0  0  0  0  0  0  0  0  0  0  0  0
  151.9479  144.0190  158.1967 C   0  0  0  0  0  0  0  0  0  0  0  0
  152.2160  144.0701  159.5942 O   0  0  0  0  0  0  0  0  0  0  0  0
  152.8904  142.9024  160.0544 C   0  0  1  0  0  0  0  0  0  0  0  0
  153.2146  143.0881  161.5405 C   0  0  0  0  0  0  0  0  0  0  0  0
  151.9989  141.6698  159.8079 C   0  0  0  0  0  0  0  0  0  0  0  0
  151.0134  139.3399  158.8891 N   0  0  0  0  0  0  0  0  0  0  0  0
  150.4732  138.1604  158.5175 C   0  0  0  0  0  0  0  0  0  0  0  0
  146.2928  133.4704  159.0593 C   0  0  0  0  0  0  0  0  0  0  0  0
  147.0054  132.1328  159.3415 C   0  0  0  0  0  0  0  0  0  0  0  0
  145.8567  133.5096  157.5815 C   0  0  0  0  0  0  0  0  0  0  0  0
  147.9711  134.5541  163.3651 H   0  0  0  0  0  0  0  0  0  0  0  0
  147.9685  136.2923  163.6772 H   0  0  0  0  0  0  0  0  0  0  0  0
  149.4581  135.4905  163.1655 H   0  0  0  0  0  0  0  0  0  0  0  0
  147.4358  133.8887  161.3702 H   0  0  0  0  0  0  0  0  0  0  0  0
  146.4951  135.5744  159.3444 H   0  0  0  0  0  0  0  0  0  0  0  0
  147.4904  136.7105  157.9081 H   0  0  0  0  0  0  0  0  0  0  0  0
  150.1326  135.8513  156.7796 H   0  0  0  0  0  0  0  0  0  0  0  0
  148.8665  136.6431  155.8820 H   0  0  0  0  0  0  0  0  0  0  0  0
  149.5208  138.8674  155.3253 H   0  0  0  0  0  0  0  0  0  0  0  0
  150.5007  141.0432  155.9954 H   0  0  0  0  0  0  0  0  0  0  0  0
  150.8800  142.7538  156.8105 H   0  0  0  0  0  0  0  0  0  0  0  0
  150.0528  142.9776  158.3464 H   0  0  0  0  0  0  0  0  0  0  0  0
  152.8825  143.9480  157.6376 H   0  0  0  0  0  0  0  0  0  0  0  0
  151.4664  144.9488  157.8937 H   0  0  0  0  0  0  0  0  0  0  0  0
  153.8280  142.7919  159.5067 H   0  0  0  0  0  0  0  0  0  0  0  0
  153.7445  142.2219  161.9377 H   0  0  0  0  0  0  0  0  0  0  0  0
  152.3067  143.2239  162.1288 H   0  0  0  0  0  0  0  0  0  0  0  0
  153.8460  143.9632  161.6952 H   0  0  0  0  0  0  0  0  0  0  0  0
  151.0925  141.7353  160.4110 H   0  0  0  0  0  0  0  0  0  0  0  0
  152.5310  140.7773  160.1339 H   0  0  0  0  0  0  0  0  0  0  0  0
  150.4896  137.3795  159.2629 H   0  0  0  0  0  0  0  0  0  0  0  0
  145.3884  133.4620  159.6669 H   0  0  0  0  0  0  0  0  0  0  0  0
  147.9581  132.0717  158.8147 H   0  0  0  0  0  0  0  0  0  0  0  0
  146.3949  131.2886  159.0197 H   0  0  0  0  0  0  0  0  0  0  0  0
  147.1997  131.9918  160.4050 H   0  0  0  0  0  0  0  0  0  0  0  0
  146.7197  133.5255  156.9154 H   0  0  0  0  0  0  0  0  0  0  0  0
  145.2483  134.3853  157.3577 H   0  0  0  0  0  0  0  0  0  0  0  0
  145.2577  132.6351  157.3258 H   0  0  0  0  0  0  0  0  0  0  0  0
  1  2  1  0  0  0  0
  1 26  1  0  0  0  0
  1 27  1  0  0  0  0
  1 28  1  0  0  0  0
  2  3  2  0  0  0  0
  2  4  1  0  0  0  0
  4  5  1  0  0  0  0
  4 29  1  0  0  0  0
  5  6  1  0  0  0  0
  5 23  1  0  0  0  0
  5 30  1  0  0  0  0
  6  7  2  0  0  0  0
  6  8  1  0  0  0  0
  8  9  1  0  0  0  0
  8 31  1  0  0  0  0
  9 10  1  0  0  0  0
  9 32  1  0  0  0  0
  9 33  1  0  0  0  0
 10 22  1  0  0  0  0
 10 11  2  0  0  0  0
 11 12  1  0  0  0  0
 11 34  1  0  0  0  0
 12 13  2  0  0  0  0
 12 35  1  0  0  0  0
 13 14  1  0  0  0  0
 13 21  1  0  0  0  0
 14 20  1  0  0  0  0
 14 15  1  0  0  0  0
 15 16  1  0  0  0  0
 15 36  1  0  0  0  0
 15 37  1  0  0  0  0
 16 17  1  0  0  0  0
 16 38  1  0  0  0  0
 16 39  1  0  0  0  0
 17 18  1  0  0  0  0
 18 19  1  0  0  0  0
 18 20  1  0  0  0  0
 18 40  1  0  0  0  0
 19 41  1  0  0  0  0
 19 42  1  0  0  0  0
 19 43  1  0  0  0  0
 20 44  1  0  0  0  0
 20 45  1  0  0  0  0
 21 22  2  0  0  0  0
 22 46  1  0  0  0  0
 23 24  1  0  0  0  0
 23 25  1  0  0  0  0
 23 47  1  0  0  0  0
 24 48  1  0  0  0  0
 24 49  1  0  0  0  0
 24 50  1  0  0  0  0
 25 51  1  0  0  0  0
 25 52  1  0  0  0  0
 25 53  1  0  0  0  0
M  END
> <s_m_source_file>
AV-unprocessed.smi

> <i_m_source_file_index>
1232

> <i_lp_mmshare_version>
43012

> <i_f3d_flags>
0

> <s_epik_input>
W0NIM11DKD1PKVtOSF1bQ0BASF0oW0NIXShbQ0gzXSlbQ0gzXSlDKD1PKVtOSF1bQ0gyXWMxW2NIXVtjSF1jKG5bY0hdMSlOMltDSDJdW0NIMl1PW0NAQEhdKFtDSDNdKVtDSDJdMg==

> <s_epik_cmdline>
J2VwaWtfcHl0aG9uJywgJy1waCcsICc3LjAnLCAnLXRuJywgJzgnLCAnLW1hJywgJzIwMCcsICctbWV0YWxfYmluZGluZycsICctaW1hZScsICc8aW5maWxlLm1hZT4nLCAnLW9tYWUnLCAnPG91dGZpbGUubWFlPic=

> <r_lp_tautomer_probability>
1

> <r_epik_Ionization_Penalty>
0.00557618

> <r_epik_Ionization_Penalty_Charging>
0

> <r_epik_Ionization_Penalty_Neutral>
0.00557618

> <r_epik_State_Penalty>
0.00408363

> <r_epik_Charging_Adjusted_Penalty>
0.00408363

> <i_epik_Tot_Q>
0

> <i_epik_Tot_abs_Q>
0

> <r_epik_Metal_State_Penalty>
-0

> <b_epik_Metal_Only>
0

> <s_lp_Force_Field>
OPLS_2005

> <r_lp_Energy>
20.4044

> <b_lp_Chiralities_Consistent>
1

> <s_lp_Variant>
AV-unprocessed.smi:1232-2

> <Gold.Version>
5.8.1

> <Gold.Id.Protein>
6NUR|6NUR_protein|mol2

> <Gold.PLP.Fitness>
43.2258

> <Gold.PLP.PLP>
-35.7083

> <Gold.PLP.part.hbond>
-3.0000

> <Gold.PLP.part.metal>
0.0000

> <Gold.PLP.part.buried>
-6.0842

> <Gold.PLP.part.nonpolar>
-27.1139

> <Gold.PLP.part.repulsive>
0.0656

> <Gold.PLP.ligand.clash>
0.0000

> <Gold.PLP.ligand.torsion>
0.6616

> <Gold.PLP.Chemscore.Hbond>
2.7280

> <Gold.PLP.Chemscore.CHOScore>
0.0000

> <Gold.PLP.Chemscore.Metal>
0.0000

> <Gold.Chemscore.Hbonds>
donor molecule, donor type, donor heavy atom, donor atom, acceptor molecule, acceptor atom, score
      P1  H  6896  6907       L1     7  1.00
      P1  H  6931  6943       L1     3  1.00
      P1  H  6934  6947       L1     3  0.17

> <Gold.PLP.Chemscore.Internal.Correction>
0.6568

> <Gold.Rescore>
     Score         DG    S(hbond)    S(metal)    S(lipo)     H(rot)  DE(clash)    DE(int)     intcor
     18.47     -19.03       2.71        0.00      85.12       2.13       0.02       0.55       ----

> <Gold.Chemscore.Fitness>
18.4693

> <Gold.Chemscore.DG>
-19.0350

> <Gold.Chemscore.ZeroCoef>
-5.4800

> <Gold.Chemscore.Hbond>
2.7107

> <Gold.Chemscore.Metal>
0.0000

> <Gold.Chemscore.Lipo>
85.1158

> <Gold.Chemscore.Internal_Hbond>
0.0000

> <Gold.Chemscore.DEClash>
0.0202

> <Gold.Chemscore.DEInternal>
0.5455

> <Gold.Chemscore.Rot>
2.1317

> <Gold.Chemscore.Internal.Correction>
   9.000000E+99

> <Gold.Chemscore.Hbonds>
donor molecule, donor type, donor heavy atom, donor atom, acceptor molecule, acceptor atom, score
      P1  H  6896  6907       L1     7  0.99
      P1  H  6931  6943       L1     3  0.99
      P1  H  6934  6947       L1     3  0.17

> <Gold.Chemscore.Hbond.Weighted>
-9.0536

> <Gold.Chemscore.Metal.Weighted>
-0.0000

> <Gold.Chemscore.Lipo.Weighted>
-9.9585

> <Gold.Chemscore.Internal_Hbond.Weighted>
0.0000

> <Gold.Chemscore.DEClash.Weighted>
0.0202

> <Gold.Chemscore.DEInternal.Weighted>
0.5455

> <Gold.Chemscore.Rot.Weighted>
5.4572

> <Gold.Chemscore.Internal.Correction.Weighted>
   9.000000E+99

> <Gold.Protein.RotatedTorsions>
[ 6907 6896 6895 6894 ] final  -95.80 input  -60.11 | X-H torsion
[ 7974 7965 7964 7962 ] final   96.77 input  175.53 | X-H torsion
[ 8008 7997 7996 7995 ] final  -30.77 input   59.86 | X-H torsion
[ 10167 10162 10161 10158 ] final  -37.94 input  -65.29 | X-H torsion
[ 10718 10713 10712 10709 ] final   17.66 input   66.30 | X-H torsion
[ 10763 10752 10751 10750 ] final -131.12 input  -60.55 | X-H torsion
[ 11005 11000 10999 10996 ] final -165.03 input  -57.11 | X-H torsion

> <Gold.Protein.ActiveResidues>
 VAL166  LYS551  ARG553  GLY616  TRP617  ASP618  TYR619  PRO620  LYS621  CYS622 
 ASP623  PHE694  ASN695  SER759  ASP760  ASP761  ALA762  ILE779  LEU786  VAL792 
 PHE793  MET794  SER795  GLU796  ALA797  LYS798  CYS799  TRP800  GLU811  SER814 

> <Gold.Protein.RotatedAtoms>
  150.6972  134.1601  159.4172 H   0  0  0  0  0  0  0  0  0  0  0  0  # atno 6907 bound_to 6896
  151.9582  135.0134  160.0555 H   0  0  0  0  0  0  0  0  0  0  0  0  # atno 6908 bound_to 6896
  152.1950  133.4765  159.5065 H   0  0  0  0  0  0  0  0  0  0  0  0  # atno 6909 bound_to 6896
  145.4344  139.2307  143.3126 H   0  0  0  0  0  0  0  0  0  0  0  0  # atno 7974 bound_to 7965
  154.4238  140.1782  156.1460 H   0  0  0  0  0  0  0  0  0  0  0  0  # atno 8008 bound_to 7997
  155.9954  140.3365  155.6768 H   0  0  0  0  0  0  0  0  0  0  0  0  # atno 8009 bound_to 7997
  155.6316  140.0670  157.2638 H   0  0  0  0  0  0  0  0  0  0  0  0  # atno 8010 bound_to 7997
  140.7105  143.3309  151.2571 H   0  0  0  0  0  0  0  0  0  0  0  0  # atno 10167 bound_to 10162
  157.0852  130.6404  149.5836 H   0  0  0  0  0  0  0  0  0  0  0  0  # atno 10718 bound_to 10713
  154.8752  135.3840  154.4195 H   0  0  0  0  0  0  0  0  0  0  0  0  # atno 10763 bound_to 10752
  153.4900  135.7030  153.5894 H   0  0  0  0  0  0  0  0  0  0  0  0  # atno 10764 bound_to 10752
  153.4272  135.3887  155.2115 H   0  0  0  0  0  0  0  0  0  0  0  0  # atno 10765 bound_to 10752
  140.5803  134.5148  157.5177 H   0  0  0  0  0  0  0  0  0  0  0  0  # atno 11005 bound_to 11000
  146.2590  140.5085  142.8861 LP  0  0  0  0  0  0  0  0  0  0  0  0  # atno 17320 bound_to 7965
  144.8162  140.6471  143.6383 LP  0  0  0  0  0  0  0  0  0  0  0  0  # atno 17321 bound_to 7965
  139.6791  143.9886  152.2798 LP  0  0  0  0  0  0  0  0  0  0  0  0  # atno 17342 bound_to 10162
  139.9510  144.6620  150.8172 LP  0  0  0  0  0  0  0  0  0  0  0  0  # atno 17343 bound_to 10162
  155.9913  130.4967  150.7292 LP  0  0  0  0  0  0  0  0  0  0  0  0  # atno 17370 bound_to 10713
  157.4767  131.0898  151.0582 LP  0  0  0  0  0  0  0  0  0  0  0  0  # atno 17371 bound_to 10713
  139.9320  134.7945  156.0904 LP  0  0  0  0  0  0  0  0  0  0  0  0  # atno 17394 bound_to 11000
  141.1000  133.6681  156.2733 LP  0  0  0  0  0  0  0  0  0  0  0  0  # atno 17395 bound_to 11000

$$$$
