AV-unprocessed.smi:177|AV-procd|sdf|1443|dock9
  -GOLD-   2262019233D 1   1.00000     0.00000
 Structure written by MMmdl.
 61 65  0  0  0  0  0  0  0  0  1 V2000
  152.8833  144.6829  157.9277 C   0  0  0  0  0  0  0  0  0  0  0  0
  153.1569  144.1256  159.2042 O   0  0  0  0  0  0  0  0  0  0  0  0
  152.0308  143.5503  159.8598 C   0  0  2  0  0  0  0  0  0  0  0  0
  152.4084  143.3294  161.3364 C   0  0  0  0  0  0  0  0  0  0  0  0
  153.4769  142.2346  161.5006 C   0  0  0  0  0  0  0  0  0  0  0  0
  153.0349  140.9242  160.8313 C   0  0  2  0  0  0  0  0  0  0  0  0
  154.0776  139.9624  160.9559 O   0  0  0  0  0  0  0  0  0  0  0  0
  153.7002  138.6983  160.4210 C   0  0  0  0  0  0  0  0  0  0  0  0
  153.3909  138.8457  158.9226 C   0  0  0  0  0  0  0  0  0  0  0  0
  152.3737  139.8697  158.7115 N   0  0  0  0  0  0  0  0  0  0  0  0
  151.9749  139.8997  157.4192 C   0  0  0  0  0  0  0  0  0  0  0  0
  152.8225  139.3656  156.5060 N   0  0  0  0  0  0  0  0  0  0  0  0
  152.4877  139.3485  155.2126 C   0  0  0  0  0  0  0  0  0  0  0  0
  151.3788  139.8103  154.6314 N   0  0  0  0  0  0  0  0  0  0  0  0
  150.5316  140.3674  155.5438 C   0  0  0  0  0  0  0  0  0  0  0  0
  150.7491  140.4534  156.9482 C   0  0  0  0  0  0  0  0  0  0  0  0
  149.6681  141.0809  157.5544 N   0  0  0  0  0  0  0  0  0  0  0  0
  148.8527  141.3365  156.5694 C   0  0  0  0  0  0  0  0  0  0  0  0
  149.2993  140.9604  155.3223 N   0  0  0  0  0  0  0  0  0  0  0  0
  148.5913  141.1259  154.0597 C   0  0  0  0  0  0  0  0  0  0  0  0
  147.0627  140.8053  154.1082 C   0  0  0  0  0  0  0  0  0  0  0  0
  146.2595  142.0417  154.5918 C   0  0  0  0  0  0  0  0  0  0  0  0
  144.8816  141.7606  154.7379 O   0  0  0  0  0  0  0  0  0  0  0  0
  146.5598  140.3807  152.7051 C   0  0  0  0  0  0  0  0  0  0  0  0
  147.0567  138.9837  152.2861 C   0  0  0  0  0  0  0  0  0  0  0  0
  146.6886  138.0177  153.2624 O   0  0  0  0  0  0  0  0  0  0  0  0
  147.2537  138.2791  154.5404 C   0  0  0  0  0  0  0  0  0  0  0  0
  146.7404  139.6308  155.0671 C   0  0  0  0  0  0  0  0  0  0  0  0
  152.7195  141.1502  159.3351 C   0  0  1  0  0  0  0  0  0  0  0  0
  151.6087  142.2186  159.2023 C   0  0  0  0  0  0  0  0  0  0  0  0
  153.7866  145.1540  157.5409 H   0  0  0  0  0  0  0  0  0  0  0  0
  152.1080  145.4476  157.9862 H   0  0  0  0  0  0  0  0  0  0  0  0
  152.5767  143.9259  157.2065 H   0  0  0  0  0  0  0  0  0  0  0  0
  151.1994  144.2562  159.8238 H   0  0  0  0  0  0  0  0  0  0  0  0
  152.7598  144.2630  161.7766 H   0  0  0  0  0  0  0  0  0  0  0  0
  151.5167  143.0443  161.8962 H   0  0  0  0  0  0  0  0  0  0  0  0
  154.4177  142.5718  161.0635 H   0  0  0  0  0  0  0  0  0  0  0  0
  153.6719  142.0641  162.5597 H   0  0  0  0  0  0  0  0  0  0  0  0
  152.1469  140.5517  161.3462 H   0  0  0  0  0  0  0  0  0  0  0  0
  154.5169  137.9917  160.5690 H   0  0  0  0  0  0  0  0  0  0  0  0
  152.8366  138.3048  160.9594 H   0  0  0  0  0  0  0  0  0  0  0  0
  154.2982  139.1186  158.3811 H   0  0  0  0  0  0  0  0  0  0  0  0
  153.0519  137.8896  158.5208 H   0  0  0  0  0  0  0  0  0  0  0  0
  153.2113  138.8998  154.5482 H   0  0  0  0  0  0  0  0  0  0  0  0
  147.8988  141.8173  156.7284 H   0  0  0  0  0  0  0  0  0  0  0  0
  148.7503  142.1488  153.7164 H   0  0  0  0  0  0  0  0  0  0  0  0
  149.0982  140.5005  153.3265 H   0  0  0  0  0  0  0  0  0  0  0  0
  146.6298  142.3874  155.5577 H   0  0  0  0  0  0  0  0  0  0  0  0
  146.3769  142.8793  153.9042 H   0  0  0  0  0  0  0  0  0  0  0  0
  144.5545  141.4218  153.9186 H   0  0  0  0  0  0  0  0  0  0  0  0
  145.4690  140.3673  152.6988 H   0  0  0  0  0  0  0  0  0  0  0  0
  146.8561  141.1136  151.9537 H   0  0  0  0  0  0  0  0  0  0  0  0
  146.6057  138.7024  151.3343 H   0  0  0  0  0  0  0  0  0  0  0  0
  148.1358  138.9692  152.1310 H   0  0  0  0  0  0  0  0  0  0  0  0
  146.9575  137.4801  155.2201 H   0  0  0  0  0  0  0  0  0  0  0  0
  148.3422  138.2541  154.4845 H   0  0  0  0  0  0  0  0  0  0  0  0
  147.1256  139.8186  156.0684 H   0  0  0  0  0  0  0  0  0  0  0  0
  145.6589  139.5482  155.1867 H   0  0  0  0  0  0  0  0  0  0  0  0
  153.6267  141.5257  158.8617 H   0  0  0  0  0  0  0  0  0  0  0  0
  150.6994  141.8539  159.6817 H   0  0  0  0  0  0  0  0  0  0  0  0
  151.3407  142.3881  158.1609 H   0  0  0  0  0  0  0  0  0  0  0  0
  1  2  1  0  0  0  0
  1 31  1  0  0  0  0
  1 32  1  0  0  0  0
  1 33  1  0  0  0  0
  2  3  1  0  0  0  0
  3 30  1  0  0  0  0
  3  4  1  0  0  0  0
  3 34  1  0  0  0  0
  4  5  1  0  0  0  0
  4 35  1  0  0  0  0
  4 36  1  0  0  0  0
  5  6  1  0  0  0  0
  5 37  1  0  0  0  0
  5 38  1  0  0  0  0
  6 29  1  0  0  0  0
  6  7  1  0  0  0  0
  6 39  1  0  0  0  0
  7  8  1  0  0  0  0
  8  9  1  0  0  0  0
  8 40  1  0  0  0  0
  8 41  1  0  0  0  0
  9 10  1  0  0  0  0
  9 42  1  0  0  0  0
  9 43  1  0  0  0  0
 10 11  1  0  0  0  0
 10 29  1  0  0  0  0
 11 16  1  0  0  0  0
 11 12  2  0  0  0  0
 12 13  1  0  0  0  0
 13 14  2  0  0  0  0
 13 44  1  0  0  0  0
 14 15  1  0  0  0  0
 15 19  1  0  0  0  0
 15 16  2  0  0  0  0
 16 17  1  0  0  0  0
 17 18  2  0  0  0  0
 18 19  1  0  0  0  0
 18 45  1  0  0  0  0
 19 20  1  0  0  0  0
 20 21  1  0  0  0  0
 20 46  1  0  0  0  0
 20 47  1  0  0  0  0
 21 28  1  0  0  0  0
 21 22  1  0  0  0  0
 21 24  1  0  0  0  0
 22 23  1  0  0  0  0
 22 48  1  0  0  0  0
 22 49  1  0  0  0  0
 23 50  1  0  0  0  0
 24 25  1  0  0  0  0
 24 51  1  0  0  0  0
 24 52  1  0  0  0  0
 25 26  1  0  0  0  0
 25 53  1  0  0  0  0
 25 54  1  0  0  0  0
 26 27  1  0  0  0  0
 27 28  1  0  0  0  0
 27 55  1  0  0  0  0
 27 56  1  0  0  0  0
 28 57  1  0  0  0  0
 28 58  1  0  0  0  0
 29 30  1  0  0  0  0
 29 59  1  0  0  0  0
 30 60  1  0  0  0  0
 30 61  1  0  0  0  0
M  END
> <s_m_source_file>
AV-unprocessed.smi

> <i_m_source_file_index>
177

> <i_lp_mmshare_version>
43012

> <i_f3d_flags>
0

> <s_epik_input>
W0NIM11PW0NASF0oW0NIMl1bQ0gyXTEpW0NIMl1bQ0BIXShbQ0BASF0xMilOKFtDSDJdW0NIMl1PMiljKG5bY0hdbjMpYyhjMzQpbltjSF1uNFtDSDJdQzUoW0NIMl1bT0hdKVtDSDJdW0NIMl1PW0NIMl1bQ0gyXTU=

> <s_epik_cmdline>
J2VwaWtfcHl0aG9uJywgJy1waCcsICc3LjAnLCAnLXRuJywgJzgnLCAnLW1hJywgJzIwMCcsICctbWV0YWxfYmluZGluZycsICctaW1hZScsICc8aW5maWxlLm1hZT4nLCAnLW9tYWUnLCAnPG91dGZpbGUubWFlPic=

> <r_lp_tautomer_probability>
1

> <r_epik_Ionization_Penalty>
0.0065899

> <r_epik_Ionization_Penalty_Charging>
0

> <r_epik_Ionization_Penalty_Neutral>
0.0065899

> <r_epik_State_Penalty>
0.00470042

> <r_epik_Charging_Adjusted_Penalty>
0.00470042

> <i_epik_Tot_Q>
0

> <i_epik_Tot_abs_Q>
0

> <r_epik_Metal_State_Penalty>
-0

> <b_epik_Metal_Only>
0

> <s_lp_Force_Field>
OPLS_2005

> <r_lp_Energy>
42.7066

> <b_lp_Chiralities_Consistent>
1

> <s_lp_Variant>
AV-unprocessed.smi:177-7

> <Gold.Version>
5.8.1

> <Gold.Id.Protein>
6NUR|6NUR_protein|mol2

> <Gold.PLP.Fitness>
56.2893

> <Gold.PLP.PLP>
-49.7543

> <Gold.PLP.part.hbond>
-3.0000

> <Gold.PLP.part.metal>
0.0000

> <Gold.PLP.part.buried>
-1.8711

> <Gold.PLP.part.nonpolar>
-46.2250

> <Gold.PLP.part.repulsive>
0.3365

> <Gold.PLP.ligand.clash>
0.3559

> <Gold.PLP.ligand.torsion>
1.1351

> <Gold.PLP.Chemscore.Hbond>
3.0000

> <Gold.PLP.Chemscore.CHOScore>
0.0000

> <Gold.PLP.Chemscore.Metal>
0.0000

> <Gold.Chemscore.Hbonds>
donor molecule, donor type, donor heavy atom, donor atom, acceptor molecule, acceptor atom, score
      L1  H    23    50       P1 10175  1.00
      P1  H  7989  7998       L1    14  1.00
      P1  H  7997  8010       L1    12  1.00

> <Gold.PLP.Chemscore.Internal.Correction>
0.1610

> <Gold.Rescore>
     Score         DG    S(hbond)    S(metal)    S(lipo)     H(rot)  DE(clash)    DE(int)     intcor
     15.79     -20.82       2.07        0.00     128.43       2.58       1.59       3.44       ----

> <Gold.Chemscore.Fitness>
15.7915

> <Gold.Chemscore.DG>
-20.8176

> <Gold.Chemscore.ZeroCoef>
-5.4800

> <Gold.Chemscore.Hbond>
2.0710

> <Gold.Chemscore.Metal>
0.0000

> <Gold.Chemscore.Lipo>
128.4345

> <Gold.Chemscore.Internal_Hbond>
0.0000

> <Gold.Chemscore.DEClash>
1.5855

> <Gold.Chemscore.DEInternal>
3.4406

> <Gold.Chemscore.Rot>
2.5806

> <Gold.Chemscore.Internal.Correction>
   9.000000E+99

> <Gold.Chemscore.Hbonds>
donor molecule, donor type, donor heavy atom, donor atom, acceptor molecule, acceptor atom, score
      L1  H    23    50       P1 10175  0.30
      P1  H  7989  7998       L1    14  0.60
      P1  H  7997  8010       L1    12  0.51

> <Gold.Chemscore.Hbond.Weighted>
-6.9170

> <Gold.Chemscore.Metal.Weighted>
-0.0000

> <Gold.Chemscore.Lipo.Weighted>
-15.0268

> <Gold.Chemscore.Internal_Hbond.Weighted>
0.0000

> <Gold.Chemscore.DEClash.Weighted>
1.5855

> <Gold.Chemscore.DEInternal.Weighted>
3.4406

> <Gold.Chemscore.Rot.Weighted>
6.6062

> <Gold.Chemscore.Internal.Correction.Weighted>
   9.000000E+99

> <Gold.Protein.RotatedTorsions>
[ 6907 6896 6895 6894 ] final  -98.28 input  -60.11 | X-H torsion
[ 7974 7965 7964 7962 ] final   21.55 input  175.53 | X-H torsion
[ 8008 7997 7996 7995 ] final   59.22 input   59.86 | X-H torsion
[ 10167 10162 10161 10158 ] final   98.83 input  -65.29 | X-H torsion
[ 10718 10713 10712 10709 ] final  -44.81 input   66.30 | X-H torsion
[ 10763 10752 10751 10750 ] final   73.11 input  -60.55 | X-H torsion
[ 11005 11000 10999 10996 ] final  145.19 input  -57.11 | X-H torsion

> <Gold.Protein.ActiveResidues>
 VAL166  LYS551  ARG553  GLY616  TRP617  ASP618  TYR619  PRO620  LYS621  CYS622 
 ASP623  PHE694  ASN695  SER759  ASP760  ASP761  ALA762  ILE779  LEU786  VAL792 
 PHE793  MET794  SER795  GLU796  ALA797  LYS798  CYS799  TRP800  GLU811  SER814 

> <Gold.Protein.RotatedAtoms>
  150.7042  134.1219  159.4037 H   0  0  0  0  0  0  0  0  0  0  0  0  # atno 6907 bound_to 6896
  151.9206  135.0298  160.0531 H   0  0  0  0  0  0  0  0  0  0  0  0  # atno 6908 bound_to 6896
  152.2260  133.4985  159.5225 H   0  0  0  0  0  0  0  0  0  0  0  0  # atno 6909 bound_to 6896
  146.2066  139.8011  142.8721 H   0  0  0  0  0  0  0  0  0  0  0  0  # atno 7974 bound_to 7965
  155.5626  140.3488  155.4495 H   0  0  0  0  0  0  0  0  0  0  0  0  # atno 8008 bound_to 7997
  156.0503  140.1316  157.0083 H   0  0  0  0  0  0  0  0  0  0  0  0  # atno 8009 bound_to 7997
  154.4431  140.1006  156.6351 H   0  0  0  0  0  0  0  0  0  0  0  0  # atno 8010 bound_to 7997
  139.7673  144.6934  151.0206 H   0  0  0  0  0  0  0  0  0  0  0  0  # atno 10167 bound_to 10162
  156.2347  130.4175  149.8832 H   0  0  0  0  0  0  0  0  0  0  0  0  # atno 10718 bound_to 10713
  153.0501  135.5075  154.7844 H   0  0  0  0  0  0  0  0  0  0  0  0  # atno 10763 bound_to 10752
  154.6714  135.2953  154.9739 H   0  0  0  0  0  0  0  0  0  0  0  0  # atno 10764 bound_to 10752
  154.0557  135.6698  153.4858 H   0  0  0  0  0  0  0  0  0  0  0  0  # atno 10765 bound_to 10752
  140.0693  134.9161  157.1317 H   0  0  0  0  0  0  0  0  0  0  0  0  # atno 11005 bound_to 11000
  145.3295  141.0263  143.3454 LP  0  0  0  0  0  0  0  0  0  0  0  0  # atno 17320 bound_to 7965
  144.8809  139.4906  143.6723 LP  0  0  0  0  0  0  0  0  0  0  0  0  # atno 17321 bound_to 7965
  140.7811  143.4628  151.0253 LP  0  0  0  0  0  0  0  0  0  0  0  0  # atno 17342 bound_to 10162
  139.8313  143.7687  152.3180 LP  0  0  0  0  0  0  0  0  0  0  0  0  # atno 17343 bound_to 10162
  156.6434  130.8714  151.3518 LP  0  0  0  0  0  0  0  0  0  0  0  0  # atno 17370 bound_to 10713
  157.7149  130.9485  150.1219 LP  0  0  0  0  0  0  0  0  0  0  0  0  # atno 17371 bound_to 10713
  140.3652  134.2451  155.7183 LP  0  0  0  0  0  0  0  0  0  0  0  0  # atno 17394 bound_to 11000
  141.2005  133.7985  157.0485 LP  0  0  0  0  0  0  0  0  0  0  0  0  # atno 17395 bound_to 11000

$$$$
