AV-unprocessed.smi:1793|AV-procd|sdf|7225|dock10
  -GOLD-   22720 8473D 1   1.00000     0.00000
 Structure written by MMmdl.
 46 48  0  0  0  0  0  0  0  0  1 V2000
  152.7247  138.4981  154.4036 C   0  0  0  0  0  0  0  0  0  0  0  0
  151.2091  138.6963  154.2574 C   0  0  1  0  0  0  0  0  0  0  0  0
  150.5811  137.3982  154.0165 N   0  0  0  0  0  0  0  0  0  0  0  0
  150.7515  136.2914  154.7536 C   0  0  0  0  0  0  0  0  0  0  0  0
  151.4750  136.2340  155.7477 O   0  0  0  0  0  0  0  0  0  0  0  0
  150.0212  135.2740  154.2681 N   0  0  0  0  0  0  0  0  0  0  0  0
  149.8636  133.9670  154.8101 C   0  0  0  0  0  0  0  0  0  0  0  0
  150.7639  133.4530  155.7752 C   0  0  0  0  0  0  0  0  0  0  0  0
  150.6089  132.1324  156.2301 C   0  0  0  0  0  0  0  0  0  0  0  0
  149.5656  131.3624  155.6903 C   0  0  0  0  0  0  0  0  0  0  0  0
  148.7094  131.8314  154.7612 N   0  0  0  0  0  0  0  0  0  0  0  0
  148.8357  133.1086  154.3227 C   0  0  0  0  0  0  0  0  0  0  0  0
  147.8979  133.5454  153.3579 N   0  0  0  0  0  0  0  0  0  0  0  0
  147.9228  133.0050  152.0029 C   0  0  0  0  0  0  0  0  0  0  0  0
  146.5809  133.4010  151.3937 C   0  0  0  0  0  0  0  0  0  0  0  0
  145.6393  133.3041  152.5901 C   0  0  0  0  0  0  0  0  0  0  0  0
  146.5111  133.7366  153.7737 C   0  0  0  0  0  0  0  0  0  0  0  0
  150.5913  139.3580  155.5045 C   0  0  2  0  0  0  0  0  0  0  0  0
  151.0297  140.8026  155.7500 C   0  0  0  0  0  0  0  0  0  0  0  0
  150.8122  140.9883  157.2429 C   0  0  0  0  0  0  0  0  0  0  0  0
  150.7149  139.5594  157.7865 C   0  0  0  0  0  0  0  0  0  0  0  0
  151.0341  138.7143  156.6890 O   0  0  0  0  0  0  0  0  0  0  0  0
  153.2326  139.4505  154.5583 H   0  0  0  0  0  0  0  0  0  0  0  0
  153.1490  138.0431  153.5079 H   0  0  0  0  0  0  0  0  0  0  0  0
  152.9626  137.8534  155.2504 H   0  0  0  0  0  0  0  0  0  0  0  0
  151.0435  139.3579  153.4054 H   0  0  0  0  0  0  0  0  0  0  0  0
  149.9645  137.3409  153.2193 H   0  0  0  0  0  0  0  0  0  0  0  0
  149.4125  135.4950  153.4937 H   0  0  0  0  0  0  0  0  0  0  0  0
  151.5850  134.0408  156.1562 H   0  0  0  0  0  0  0  0  0  0  0  0
  151.2818  131.7160  156.9648 H   0  0  0  0  0  0  0  0  0  0  0  0
  149.4179  130.3407  156.0073 H   0  0  0  0  0  0  0  0  0  0  0  0
  148.7612  133.4030  151.4308 H   0  0  0  0  0  0  0  0  0  0  0  0
  148.0046  131.9174  152.0216 H   0  0  0  0  0  0  0  0  0  0  0  0
  146.6218  134.4300  151.0338 H   0  0  0  0  0  0  0  0  0  0  0  0
  146.2857  132.7606  150.5622 H   0  0  0  0  0  0  0  0  0  0  0  0
  144.7436  133.9154  152.4785 H   0  0  0  0  0  0  0  0  0  0  0  0
  145.3252  132.2683  152.7249 H   0  0  0  0  0  0  0  0  0  0  0  0
  146.2690  133.1713  154.6747 H   0  0  0  0  0  0  0  0  0  0  0  0
  146.3505  134.7944  153.9832 H   0  0  0  0  0  0  0  0  0  0  0  0
  149.5013  139.3064  155.4623 H   0  0  0  0  0  0  0  0  0  0  0  0
  152.0896  140.9174  155.5182 H   0  0  0  0  0  0  0  0  0  0  0  0
  150.4743  141.5220  155.1478 H   0  0  0  0  0  0  0  0  0  0  0  0
  151.6355  141.5420  157.6950 H   0  0  0  0  0  0  0  0  0  0  0  0
  149.8899  141.5347  157.4429 H   0  0  0  0  0  0  0  0  0  0  0  0
  151.3929  139.3832  158.6219 H   0  0  0  0  0  0  0  0  0  0  0  0
  149.6994  139.3452  158.1217 H   0  0  0  0  0  0  0  0  0  0  0  0
  1  2  1  0  0  0  0
  1 23  1  0  0  0  0
  1 24  1  0  0  0  0
  1 25  1  0  0  0  0
  2  3  1  0  0  0  0
  2 18  1  0  0  0  0
  2 26  1  0  0  0  0
  3  4  1  0  0  0  0
  3 27  1  0  0  0  0
  4  5  2  0  0  0  0
  4  6  1  0  0  0  0
  6  7  1  0  0  0  0
  6 28  1  0  0  0  0
  7 12  1  0  0  0  0
  7  8  2  0  0  0  0
  8  9  1  0  0  0  0
  8 29  1  0  0  0  0
  9 10  2  0  0  0  0
  9 30  1  0  0  0  0
 10 11  1  0  0  0  0
 10 31  1  0  0  0  0
 11 12  2  0  0  0  0
 12 13  1  0  0  0  0
 13 17  1  0  0  0  0
 13 14  1  0  0  0  0
 14 15  1  0  0  0  0
 14 32  1  0  0  0  0
 14 33  1  0  0  0  0
 15 16  1  0  0  0  0
 15 34  1  0  0  0  0
 15 35  1  0  0  0  0
 16 17  1  0  0  0  0
 16 36  1  0  0  0  0
 16 37  1  0  0  0  0
 17 38  1  0  0  0  0
 17 39  1  0  0  0  0
 18 22  1  0  0  0  0
 18 19  1  0  0  0  0
 18 40  1  0  0  0  0
 19 20  1  0  0  0  0
 19 41  1  0  0  0  0
 19 42  1  0  0  0  0
 20 21  1  0  0  0  0
 20 43  1  0  0  0  0
 20 44  1  0  0  0  0
 21 22  1  0  0  0  0
 21 45  1  0  0  0  0
 21 46  1  0  0  0  0
M  END
> <s_m_source_file>
AV-unprocessed.smi

> <i_m_source_file_index>
1793

> <i_lp_mmshare_version>
43012

> <i_f3d_flags>
0

> <s_epik_input>
TzFbQ0gyXVtDSDJdW0NIMl1bQ0BIXTFbQ0BIXShbQ0gzXSlbTkhdQyg9TylbTkhdYzJbY0hdW2NIXVtjSF1uYzJOM1tDSDJdW0NIMl1bQ0gyXVtDSDJdMw==

> <s_epik_cmdline>
J2VwaWtfcHl0aG9uJywgJy1waCcsICc3LjAnLCAnLXRuJywgJzgnLCAnLW1hJywgJzIwMCcsICctbWV0YWxfYmluZGluZycsICctaW1hZScsICc8aW5maWxlLm1hZT4nLCAnLW9tYWUnLCAnPG91dGZpbGUubWFlPic=

> <r_lp_tautomer_probability>
1

> <r_epik_Ionization_Penalty>
0.0992086

> <r_epik_Ionization_Penalty_Charging>
0

> <r_epik_Ionization_Penalty_Neutral>
0.0992086

> <r_epik_State_Penalty>
0.0887141

> <r_epik_Charging_Adjusted_Penalty>
0.0887141

> <i_epik_Tot_Q>
0

> <i_epik_Tot_abs_Q>
0

> <r_epik_Metal_State_Penalty>
0.075945

> <b_epik_Metal_Only>
0

> <s_lp_Force_Field>
OPLS_2005

> <r_lp_Energy>
46.0011

> <b_lp_Chiralities_Consistent>
1

> <s_lp_Variant>
AV-unprocessed.smi:1793-2

> <Gold.Version>
5.8.1

> <Gold.Id.Protein>
6NUR|6NUR_protein|mol2

> <Gold.PLP.Fitness>
43.5436

> <Gold.PLP.PLP>
-35.1208

> <Gold.PLP.part.hbond>
-4.4589

> <Gold.PLP.part.metal>
0.0000

> <Gold.PLP.part.buried>
-4.3505

> <Gold.PLP.part.nonpolar>
-27.3128

> <Gold.PLP.part.repulsive>
0.3345

> <Gold.PLP.ligand.clash>
0.0000

> <Gold.PLP.ligand.torsion>
0.4204

> <Gold.PLP.Chemscore.Hbond>
2.9680

> <Gold.PLP.Chemscore.CHOScore>
0.0000

> <Gold.PLP.Chemscore.Metal>
0.0000

> <Gold.Chemscore.Hbonds>
donor molecule, donor type, donor heavy atom, donor atom, acceptor molecule, acceptor atom, score
      L1  H     3    27       P1  7948  0.99
      L1  H     6    28       P1  7948  0.95
      P1  H 10752 10763       L1     5  0.90

> <Gold.PLP.Chemscore.Internal.Correction>
0.3596

> <Gold.Rescore>
     Score         DG    S(hbond)    S(metal)    S(lipo)     H(rot)  DE(clash)    DE(int)     intcor
     13.24     -17.88       2.11        0.00      75.57       1.36       0.06       4.58       ----

> <Gold.Chemscore.Fitness>
13.2376

> <Gold.Chemscore.DG>
-17.8761

> <Gold.Chemscore.ZeroCoef>
-5.4800

> <Gold.Chemscore.Hbond>
2.1054

> <Gold.Chemscore.Metal>
0.0000

> <Gold.Chemscore.Lipo>
75.5650

> <Gold.Chemscore.Internal_Hbond>
0.0000

> <Gold.Chemscore.DEClash>
0.0604

> <Gold.Chemscore.DEInternal>
4.5781

> <Gold.Chemscore.Rot>
1.3582

> <Gold.Chemscore.Internal.Correction>
   9.000000E+99

> <Gold.Chemscore.Hbonds>
donor molecule, donor type, donor heavy atom, donor atom, acceptor molecule, acceptor atom, score
      L1  H     3    27       P1  7948  0.28
      L1  H     6    28       P1  7948  0.21
      P1  H 10752 10763       L1     5  0.18

> <Gold.Chemscore.Hbond.Weighted>
-7.0320

> <Gold.Chemscore.Metal.Weighted>
-0.0000

> <Gold.Chemscore.Lipo.Weighted>
-8.8411

> <Gold.Chemscore.Internal_Hbond.Weighted>
0.0000

> <Gold.Chemscore.DEClash.Weighted>
0.0604

> <Gold.Chemscore.DEInternal.Weighted>
4.5781

> <Gold.Chemscore.Rot.Weighted>
3.4771

> <Gold.Chemscore.Internal.Correction.Weighted>
   9.000000E+99

> <Gold.Protein.RotatedTorsions>
[ 6907 6896 6895 6894 ] final -156.07 input  -60.11 | X-H torsion
[ 7974 7965 7964 7962 ] final  -77.08 input  175.53 | X-H torsion
[ 8008 7997 7996 7995 ] final -174.31 input   59.86 | X-H torsion
[ 10167 10162 10161 10158 ] final -118.43 input  -65.29 | X-H torsion
[ 10718 10713 10712 10709 ] final -105.60 input   66.30 | X-H torsion
[ 10763 10752 10751 10750 ] final   79.24 input  -60.55 | X-H torsion
[ 11005 11000 10999 10996 ] final   76.27 input  -57.11 | X-H torsion

> <Gold.Protein.ActiveResidues>
 VAL166  LYS551  ARG553  GLY616  TRP617  ASP618  TYR619  PRO620  LYS621  CYS622 
 ASP623  PHE694  ASN695  SER759  ASP760  ASP761  ALA762  ILE779  LEU786  VAL792 
 PHE793  MET794  SER795  GLU796  ALA797  LYS798  CYS799  TRP800  GLU811  SER814 

> <Gold.Protein.RotatedAtoms>
  151.2820  133.4205  159.2627 H   0  0  0  0  0  0  0  0  0  0  0  0  # atno 6907 bound_to 6896
  151.0352  134.9568  159.8142 H   0  0  0  0  0  0  0  0  0  0  0  0  # atno 6908 bound_to 6896
  152.5354  134.2780  159.9049 H   0  0  0  0  0  0  0  0  0  0  0  0  # atno 6909 bound_to 6896
  145.6045  140.9401  143.1223 H   0  0  0  0  0  0  0  0  0  0  0  0  # atno 7974 bound_to 7965
  155.9684  140.1158  157.0834 H   0  0  0  0  0  0  0  0  0  0  0  0  # atno 8008 bound_to 7997
  154.4150  140.1168  156.5341 H   0  0  0  0  0  0  0  0  0  0  0  0  # atno 8009 bound_to 7997
  155.6628  140.3473  155.4791 H   0  0  0  0  0  0  0  0  0  0  0  0  # atno 8010 bound_to 7997
  140.0575  143.4999  152.2049 H   0  0  0  0  0  0  0  0  0  0  0  0  # atno 10167 bound_to 10162
  156.0353  130.5572  150.7562 H   0  0  0  0  0  0  0  0  0  0  0  0  # atno 10718 bound_to 10713
  153.0937  135.4847  154.8737 H   0  0  0  0  0  0  0  0  0  0  0  0  # atno 10763 bound_to 10752
  154.7299  135.3058  154.8911 H   0  0  0  0  0  0  0  0  0  0  0  0  # atno 10764 bound_to 10752
  153.9550  135.6819  153.4797 H   0  0  0  0  0  0  0  0  0  0  0  0  # atno 10765 bound_to 10752
  139.9306  134.7587  156.1375 H   0  0  0  0  0  0  0  0  0  0  0  0  # atno 11005 bound_to 11000
  144.7296  139.7767  143.7352 LP  0  0  0  0  0  0  0  0  0  0  0  0  # atno 17320 bound_to 7965
  146.1551  139.4647  143.0024 LP  0  0  0  0  0  0  0  0  0  0  0  0  # atno 17321 bound_to 7965
  139.5914  144.7551  151.3391 LP  0  0  0  0  0  0  0  0  0  0  0  0  # atno 17342 bound_to 10162
  140.7187  143.7194  150.7707 LP  0  0  0  0  0  0  0  0  0  0  0  0  # atno 17343 bound_to 10162
  157.5094  131.0924  151.0217 LP  0  0  0  0  0  0  0  0  0  0  0  0  # atno 17370 bound_to 10713
  157.0577  130.5812  149.5380 LP  0  0  0  0  0  0  0  0  0  0  0  0  # atno 17371 bound_to 10713
  141.0891  133.6721  156.2502 LP  0  0  0  0  0  0  0  0  0  0  0  0  # atno 17394 bound_to 11000
  140.6214  134.5358  157.5548 LP  0  0  0  0  0  0  0  0  0  0  0  0  # atno 17395 bound_to 11000

$$$$
