AV-unprocessed.smi:999|AV-procd|sdf|4354|dock1
  -GOLD-   22720 2253D 1   1.00000     0.00000
 Structure written by MMmdl.
 37 38  0  0  0  0  0  0  0  0  2 V2000
  152.5115  142.8982  162.0782 C   0  0  0  0  0  0  0  0  0  0  0  0
  153.1892  142.9241  160.6926 C   0  0  1  0  0  0  0  0  0  0  0  0
  153.6037  141.5265  160.2052 C   0  0  0  0  0  0  0  0  0  0  0  0
  153.2028  141.0908  159.1251 O   0  0  0  0  0  0  0  0  0  0  0  0
  154.4093  140.8316  161.0238 N   0  0  0  0  0  0  0  0  0  0  0  0
  154.9267  139.4912  160.7697 C   0  0  2  0  0  0  0  0  0  0  0  0
  155.7627  139.4730  159.4731 C   0  0  0  0  0  0  0  0  0  0  0  0
  156.2307  138.0478  159.1233 C   0  0  0  0  0  0  0  0  0  0  0  0
  155.0525  137.0485  159.0176 C   0  0  2  0  0  0  0  0  0  0  0  0
  154.1788  137.2830  157.7625 C   0  0  0  0  0  0  0  0  0  0  0  0
  153.6449  138.4061  157.6253 O   0  0  0  0  0  0  0  0  0  0  0  0
  154.0271  136.3287  156.9679 O   0  5  0  0  0  0  0  0  0  0  0  0
  154.2307  137.0795  160.3295 C   0  0  0  0  0  0  0  0  0  0  0  0
  153.7511  138.4986  160.6886 C   0  0  0  0  0  0  0  0  0  0  0  0
  152.3697  143.5887  159.6852 N   0  0  0  0  0  0  0  0  0  0  0  0
  152.7072  143.8844  158.3797 C   0  0  0  0  0  0  0  0  0  0  0  0
  151.6198  144.4679  157.7957 C   0  0  0  0  0  0  0  0  0  0  0  0
  150.6436  144.4739  158.8301 C   0  0  0  0  0  0  0  0  0  0  0  0
  151.0905  143.9399  159.9547 N   0  0  0  0  0  0  0  0  0  0  0  0
  153.1711  142.4602  162.8284 H   0  0  0  0  0  0  0  0  0  0  0  0
  151.5872  142.3191  162.0739 H   0  0  0  0  0  0  0  0  0  0  0  0
  152.2666  143.9080  162.4093 H   0  0  0  0  0  0  0  0  0  0  0  0
  154.1028  143.5118  160.7971 H   0  0  0  0  0  0  0  0  0  0  0  0
  154.6855  141.2635  161.8935 H   0  0  0  0  0  0  0  0  0  0  0  0
  155.5644  139.1893  161.6029 H   0  0  0  0  0  0  0  0  0  0  0  0
  155.1769  139.8819  158.6488 H   0  0  0  0  0  0  0  0  0  0  0  0
  156.6320  140.1228  159.5787 H   0  0  0  0  0  0  0  0  0  0  0  0
  156.8180  138.0626  158.2045 H   0  0  0  0  0  0  0  0  0  0  0  0
  156.9163  137.7023  159.8979 H   0  0  0  0  0  0  0  0  0  0  0  0
  155.4686  136.0470  158.9024 H   0  0  0  0  0  0  0  0  0  0  0  0
  153.3788  136.4007  160.2767 H   0  0  0  0  0  0  0  0  0  0  0  0
  154.8513  136.7004  161.1419 H   0  0  0  0  0  0  0  0  0  0  0  0
  153.2220  138.4726  161.6419 H   0  0  0  0  0  0  0  0  0  0  0  0
  153.0267  138.8402  159.9477 H   0  0  0  0  0  0  0  0  0  0  0  0
  153.6842  143.6567  157.9790 H   0  0  0  0  0  0  0  0  0  0  0  0
  151.5323  144.8297  156.7821 H   0  0  0  0  0  0  0  0  0  0  0  0
  149.6293  144.8431  158.7962 H   0  0  0  0  0  0  0  0  0  0  0  0
  1  2  1  0  0  0  0
  1 20  1  0  0  0  0
  1 21  1  0  0  0  0
  1 22  1  0  0  0  0
  2  3  1  0  0  0  0
  2 15  1  0  0  0  0
  2 23  1  0  0  0  0
  3  4  2  0  0  0  0
  3  5  1  0  0  0  0
  5  6  1  0  0  0  0
  5 24  1  0  0  0  0
  6 14  1  0  0  0  0
  6  7  1  0  0  0  0
  6 25  1  0  0  0  0
  7  8  1  0  0  0  0
  7 26  1  0  0  0  0
  7 27  1  0  0  0  0
  8  9  1  0  0  0  0
  8 28  1  0  0  0  0
  8 29  1  0  0  0  0
  9 10  1  0  0  0  0
  9 13  1  0  0  0  0
  9 30  1  0  0  0  0
 10 11  2  0  0  0  0
 10 12  1  0  0  0  0
 13 14  1  0  0  0  0
 13 31  1  0  0  0  0
 13 32  1  0  0  0  0
 14 33  1  0  0  0  0
 14 34  1  0  0  0  0
 15 19  1  0  0  0  0
 15 16  1  0  0  0  0
 16 17  2  0  0  0  0
 16 35  1  0  0  0  0
 17 18  1  0  0  0  0
 17 36  1  0  0  0  0
 18 19  2  0  0  0  0
 18 37  1  0  0  0  0
M  CHG  1  12  -1
M  END
> <s_m_source_file>
AV-unprocessed.smi

> <i_m_source_file_index>
999

> <i_lp_mmshare_version>
43012

> <i_f3d_flags>
0

> <s_epik_input>
bjFbY0hdW2NIXVtjSF1uMVtDQEhdKFtDSDNdKUMoPU8pW05IXVtDQEBIXTJbQ0gyXVtDSDJdW0NAQEhdKEMoPU8pW09IXSlbQ0gyXVtDSDJdMg==

> <s_epik_cmdline>
J2VwaWtfcHl0aG9uJywgJy1waCcsICc3LjAnLCAnLXRuJywgJzgnLCAnLW1hJywgJzIwMCcsICctbWV0YWxfYmluZGluZycsICctaW1hZScsICc8aW5maWxlLm1hZT4nLCAnLW9tYWUnLCAnPG91dGZpbGUubWFlPic=

> <r_lp_tautomer_probability>
1

> <r_epik_Ionization_Penalty>
0.00221712

> <r_epik_Ionization_Penalty_Charging>
0.00217268

> <r_epik_Ionization_Penalty_Neutral>
4.44343e-05

> <r_epik_State_Penalty>
0.0014925

> <r_epik_Charging_Adjusted_Penalty>
0.00366518

> <i_epik_Tot_Q>
-1

> <i_epik_Tot_abs_Q>
1

> <r_epik_Metal_State_Penalty>
-0

> <b_epik_Metal_Only>
0

> <s_lp_Force_Field>
OPLS_2005

> <r_lp_Energy>
8.81329

> <b_lp_Chiralities_Consistent>
1

> <s_lp_Variant>
AV-unprocessed.smi:999-4

> <Gold.Version>
5.8.1

> <Gold.Id.Protein>
6NUR|6NUR_protein|mol2

> <Gold.PLP.Fitness>
51.2070

> <Gold.PLP.PLP>
-36.3449

> <Gold.PLP.part.hbond>
-2.0000

> <Gold.PLP.part.metal>
0.0000

> <Gold.PLP.part.buried>
-4.9070

> <Gold.PLP.part.nonpolar>
-29.6187

> <Gold.PLP.part.repulsive>
0.0935

> <Gold.PLP.ligand.clash>
0.0000

> <Gold.PLP.ligand.torsion>
0.1399

> <Gold.PLP.Chemscore.Hbond>
4.0000

> <Gold.PLP.Chemscore.CHOScore>
0.9994

> <Gold.PLP.Chemscore.Metal>
0.0000

> <Gold.Chemscore.Hbonds>
donor molecule, donor type, donor heavy atom, donor atom, acceptor molecule, acceptor atom, score
      P1  H  7997  8008       L1    11  2.00
      P1  H 10752 10763       L1    12  2.00
      L1  C    18    37       P1  8029  0.95

> <Gold.PLP.Chemscore.Internal.Correction>
0.1436

> <Gold.Rescore>
     Score         DG    S(hbond)    S(metal)    S(lipo)     H(rot)  DE(clash)    DE(int)     intcor
     15.18     -17.91       1.94        0.00      94.19       1.98       0.06       2.67       ----

> <Gold.Chemscore.Fitness>
15.1758

> <Gold.Chemscore.DG>
-17.9063

> <Gold.Chemscore.ZeroCoef>
-5.4800

> <Gold.Chemscore.Hbond>
1.9364

> <Gold.Chemscore.Metal>
0.0000

> <Gold.Chemscore.Lipo>
94.1935

> <Gold.Chemscore.Internal_Hbond>
0.0000

> <Gold.Chemscore.DEClash>
0.0634

> <Gold.Chemscore.DEInternal>
2.6671

> <Gold.Chemscore.Rot>
1.9774

> <Gold.Chemscore.Internal.Correction>
   9.000000E+99

> <Gold.Chemscore.Hbonds>
donor molecule, donor type, donor heavy atom, donor atom, acceptor molecule, acceptor atom, score
      P1  H  7997  8008       L1    11  0.95
      P1  H 10752 10763       L1    12  0.96

> <Gold.Chemscore.Hbond.Weighted>
-6.4676

> <Gold.Chemscore.Metal.Weighted>
-0.0000

> <Gold.Chemscore.Lipo.Weighted>
-11.0206

> <Gold.Chemscore.Internal_Hbond.Weighted>
0.0000

> <Gold.Chemscore.DEClash.Weighted>
0.0634

> <Gold.Chemscore.DEInternal.Weighted>
2.6671

> <Gold.Chemscore.Rot.Weighted>
5.0620

> <Gold.Chemscore.Internal.Correction.Weighted>
   9.000000E+99

> <Gold.Protein.RotatedTorsions>
[ 6907 6896 6895 6894 ] final  -52.92 input  -60.11 | X-H torsion
[ 7974 7965 7964 7962 ] final -146.44 input  175.53 | X-H torsion
[ 8008 7997 7996 7995 ] final  -82.14 input   59.86 | X-H torsion
[ 10167 10162 10161 10158 ] final  168.87 input  -65.29 | X-H torsion
[ 10718 10713 10712 10709 ] final   18.24 input   66.30 | X-H torsion
[ 10763 10752 10751 10750 ] final  150.28 input  -60.55 | X-H torsion
[ 11005 11000 10999 10996 ] final -138.84 input  -57.11 | X-H torsion

> <Gold.Protein.ActiveResidues>
 VAL166  LYS551  ARG553  GLY616  TRP617  ASP618  TYR619  PRO620  LYS621  CYS622 
 ASP623  PHE694  ASN695  SER759  ASP760  ASP761  ALA762  ILE779  LEU786  VAL792 
 PHE793  MET794  SER795  GLU796  ALA797  LYS798  CYS799  TRP800  GLU811  SER814 

> <Gold.Protein.RotatedAtoms>
  150.8474  134.7787  159.6980 H   0  0  0  0  0  0  0  0  0  0  0  0  # atno 6907 bound_to 6896
  152.4547  134.5314  159.9822 H   0  0  0  0  0  0  0  0  0  0  0  0  # atno 6908 bound_to 6896
  151.5442  133.3390  159.2976 H   0  0  0  0  0  0  0  0  0  0  0  0  # atno 6909 bound_to 6896
  144.8159  140.5455  143.5611 H   0  0  0  0  0  0  0  0  0  0  0  0  # atno 7974 bound_to 7965
  154.6055  140.0637  156.9425 H   0  0  0  0  0  0  0  0  0  0  0  0  # atno 8008 bound_to 7997
  155.2060  140.3319  155.4317 H   0  0  0  0  0  0  0  0  0  0  0  0  # atno 8009 bound_to 7997
  156.2345  140.1856  156.7140 H   0  0  0  0  0  0  0  0  0  0  0  0  # atno 8010 bound_to 7997
  139.4978  144.3768  151.9666 H   0  0  0  0  0  0  0  0  0  0  0  0  # atno 10167 bound_to 10162
  157.0935  130.6438  149.5854 H   0  0  0  0  0  0  0  0  0  0  0  0  # atno 10718 bound_to 10713
  154.0849  135.2856  155.3283 H   0  0  0  0  0  0  0  0  0  0  0  0  # atno 10763 bound_to 10752
  154.6659  135.5317  153.8080 H   0  0  0  0  0  0  0  0  0  0  0  0  # atno 10764 bound_to 10752
  153.0435  135.6545  154.1021 H   0  0  0  0  0  0  0  0  0  0  0  0  # atno 10765 bound_to 10752
  140.8577  134.2207  157.4725 H   0  0  0  0  0  0  0  0  0  0  0  0  # atno 11005 bound_to 11000
  145.5215  139.1476  143.3549 LP  0  0  0  0  0  0  0  0  0  0  0  0  # atno 17320 bound_to 7965
  146.2462  140.5356  142.8913 LP  0  0  0  0  0  0  0  0  0  0  0  0  # atno 17321 bound_to 7965
  140.3204  144.3435  150.6011 LP  0  0  0  0  0  0  0  0  0  0  0  0  # atno 17342 bound_to 10162
  140.5727  143.2179  151.7570 LP  0  0  0  0  0  0  0  0  0  0  0  0  # atno 17343 bound_to 10162
  155.9892  130.4938  150.7203 LP  0  0  0  0  0  0  0  0  0  0  0  0  # atno 17370 bound_to 10713
  157.4701  131.0892  151.0652 LP  0  0  0  0  0  0  0  0  0  0  0  0  # atno 17371 bound_to 10713
  139.8706  134.9714  156.4737 LP  0  0  0  0  0  0  0  0  0  0  0  0  # atno 17394 bound_to 11000
  140.8718  133.7983  155.9372 LP  0  0  0  0  0  0  0  0  0  0  0  0  # atno 17395 bound_to 11000

$$$$
