AV-unprocessed.smi:2012|AV-procd|sdf|8156|dock5
  -GOLD-   2272010393D 1   1.00000     0.00000
 Structure written by MMmdl.
 50 51  0  0  0  0  0  0  0  0  1 V2000
  145.5583  136.4748  150.0749 C   0  0  0  0  0  0  0  0  0  0  0  0
  145.3781  136.8328  151.5463 C   0  0  0  0  0  0  0  0  0  0  0  0
  144.2873  137.2379  151.9438 O   0  0  0  0  0  0  0  0  0  0  0  0
  146.4637  136.6891  152.3277 N   0  0  0  0  0  0  0  0  0  0  0  0
  146.5977  136.9206  153.7731 C   0  0  1  0  0  0  0  0  0  0  0  0
  147.0959  138.3477  154.0632 C   0  0  0  0  0  0  0  0  0  0  0  0
  146.4397  139.1032  154.7807 O   0  0  0  0  0  0  0  0  0  0  0  0
  148.2753  138.6940  153.5234 N   0  0  0  0  0  0  0  0  0  0  0  0
  148.9410  139.9755  153.7289 C   0  0  0  0  0  0  0  0  0  0  0  0
  150.1080  139.8960  154.7002 C   0  0  0  0  0  0  0  0  0  0  0  0
  151.0743  138.8808  154.5703 C   0  0  0  0  0  0  0  0  0  0  0  0
  152.1390  138.8535  155.4883 C   0  0  0  0  0  0  0  0  0  0  0  0
  152.2770  139.7495  156.4875 N   0  0  0  0  0  0  0  0  0  0  0  0
  151.3518  140.7297  156.6331 C   0  0  0  0  0  0  0  0  0  0  0  0
  151.5558  141.6468  157.6916 N   0  0  0  0  0  0  0  0  0  0  0  0
  152.4383  141.2664  158.7926 C   0  0  0  0  0  0  0  0  0  0  0  0
  152.2702  142.2238  159.9842 C   0  0  0  0  0  0  0  0  0  0  0  0
  152.4592  143.5667  159.5552 O   0  0  0  0  0  0  0  0  0  0  0  0
  151.4868  143.9474  158.5894 C   0  0  0  0  0  0  0  0  0  0  0  0
  151.6223  143.0651  157.3369 C   0  0  0  0  0  0  0  0  0  0  0  0
  150.2443  140.8281  155.7518 C   0  0  0  0  0  0  0  0  0  0  0  0
  145.3707  136.4519  154.6174 C   0  0  0  0  0  0  0  0  0  0  0  0
  145.6070  136.5707  156.1359 C   0  0  0  0  0  0  0  0  0  0  0  0
  144.9539  135.0078  154.2786 C   0  0  0  0  0  0  0  0  0  0  0  0
  146.3635  135.7520  149.9385 H   0  0  0  0  0  0  0  0  0  0  0  0
  145.7958  137.3690  149.4983 H   0  0  0  0  0  0  0  0  0  0  0  0
  144.6420  136.0406  149.6738 H   0  0  0  0  0  0  0  0  0  0  0  0
  147.3015  136.3643  151.8680 H   0  0  0  0  0  0  0  0  0  0  0  0
  147.4182  136.2592  154.0566 H   0  0  0  0  0  0  0  0  0  0  0  0
  148.7565  138.0146  152.9524 H   0  0  0  0  0  0  0  0  0  0  0  0
  149.3195  140.3223  152.7672 H   0  0  0  0  0  0  0  0  0  0  0  0
  148.2186  140.7218  154.0641 H   0  0  0  0  0  0  0  0  0  0  0  0
  151.0088  138.1430  153.7842 H   0  0  0  0  0  0  0  0  0  0  0  0
  152.9021  138.0927  155.4184 H   0  0  0  0  0  0  0  0  0  0  0  0
  152.2104  140.2568  159.1332 H   0  0  0  0  0  0  0  0  0  0  0  0
  153.4721  141.2747  158.4450 H   0  0  0  0  0  0  0  0  0  0  0  0
  151.2839  142.1102  160.4374 H   0  0  0  0  0  0  0  0  0  0  0  0
  153.0027  141.9912  160.7572 H   0  0  0  0  0  0  0  0  0  0  0  0
  150.4846  143.8682  159.0139 H   0  0  0  0  0  0  0  0  0  0  0  0
  151.6382  144.9946  158.3275 H   0  0  0  0  0  0  0  0  0  0  0  0
  152.5753  143.2587  156.8438 H   0  0  0  0  0  0  0  0  0  0  0  0
  150.8370  143.3439  156.6347 H   0  0  0  0  0  0  0  0  0  0  0  0
  149.4946  141.5964  155.8618 H   0  0  0  0  0  0  0  0  0  0  0  0
  144.5210  137.0974  154.3977 H   0  0  0  0  0  0  0  0  0  0  0  0
  146.4914  136.0132  156.4458 H   0  0  0  0  0  0  0  0  0  0  0  0
  144.7572  136.1827  156.6981 H   0  0  0  0  0  0  0  0  0  0  0  0
  145.7373  137.6082  156.4435 H   0  0  0  0  0  0  0  0  0  0  0  0
  145.7648  134.3061  154.4755 H   0  0  0  0  0  0  0  0  0  0  0  0
  144.6684  134.9007  153.2325 H   0  0  0  0  0  0  0  0  0  0  0  0
  144.0956  134.6971  154.8749 H   0  0  0  0  0  0  0  0  0  0  0  0
  1  2  1  0  0  0  0
  1 25  1  0  0  0  0
  1 26  1  0  0  0  0
  1 27  1  0  0  0  0
  2  3  2  0  0  0  0
  2  4  1  0  0  0  0
  4  5  1  0  0  0  0
  4 28  1  0  0  0  0
  5  6  1  0  0  0  0
  5 22  1  0  0  0  0
  5 29  1  0  0  0  0
  6  7  2  0  0  0  0
  6  8  1  0  0  0  0
  8  9  1  0  0  0  0
  8 30  1  0  0  0  0
  9 10  1  0  0  0  0
  9 31  1  0  0  0  0
  9 32  1  0  0  0  0
 10 21  1  0  0  0  0
 10 11  2  0  0  0  0
 11 12  1  0  0  0  0
 11 33  1  0  0  0  0
 12 13  2  0  0  0  0
 12 34  1  0  0  0  0
 13 14  1  0  0  0  0
 14 15  1  0  0  0  0
 14 21  2  0  0  0  0
 15 20  1  0  0  0  0
 15 16  1  0  0  0  0
 16 17  1  0  0  0  0
 16 35  1  0  0  0  0
 16 36  1  0  0  0  0
 17 18  1  0  0  0  0
 17 37  1  0  0  0  0
 17 38  1  0  0  0  0
 18 19  1  0  0  0  0
 19 20  1  0  0  0  0
 19 39  1  0  0  0  0
 19 40  1  0  0  0  0
 20 41  1  0  0  0  0
 20 42  1  0  0  0  0
 21 43  1  0  0  0  0
 22 23  1  0  0  0  0
 22 24  1  0  0  0  0
 22 44  1  0  0  0  0
 23 45  1  0  0  0  0
 23 46  1  0  0  0  0
 23 47  1  0  0  0  0
 24 48  1  0  0  0  0
 24 49  1  0  0  0  0
 24 50  1  0  0  0  0
M  END
> <s_m_source_file>
AV-unprocessed.smi

> <i_m_source_file_index>
2012

> <i_lp_mmshare_version>
43012

> <i_f3d_flags>
0

> <s_epik_input>
W0NIM11DKD1PKVtOSF1bQ0BASF0oW0NIXShbQ0gzXSlbQ0gzXSlDKD1PKVtOSF1bQ0gyXWMxW2NIXVtjSF1uYyhbY0hdMSlOMltDSDJdW0NIMl1PW0NIMl1bQ0gyXTI=

> <s_epik_cmdline>
J2VwaWtfcHl0aG9uJywgJy1waCcsICc3LjAnLCAnLXRuJywgJzgnLCAnLW1hJywgJzIwMCcsICctbWV0YWxfYmluZGluZycsICctaW1hZScsICc8aW5maWxlLm1hZT4nLCAnLW9tYWUnLCAnPG91dGZpbGUubWFlPic=

> <r_lp_tautomer_probability>
1

> <r_epik_Ionization_Penalty>
0.00518786

> <r_epik_Ionization_Penalty_Charging>
0

> <r_epik_Ionization_Penalty_Neutral>
0.00518786

> <r_epik_State_Penalty>
0.00378052

> <r_epik_Charging_Adjusted_Penalty>
0.00378052

> <i_epik_Tot_Q>
0

> <i_epik_Tot_abs_Q>
0

> <r_epik_Metal_State_Penalty>
-0

> <b_epik_Metal_Only>
0

> <s_lp_Force_Field>
OPLS_2005

> <r_lp_Energy>
18.0004

> <b_lp_Chiralities_Consistent>
1

> <s_lp_Variant>
AV-unprocessed.smi:2012-2

> <Gold.Version>
5.8.1

> <Gold.Id.Protein>
6NUR|6NUR_protein|mol2

> <Gold.PLP.Fitness>
43.7065

> <Gold.PLP.PLP>
-35.8451

> <Gold.PLP.part.hbond>
-3.0000

> <Gold.PLP.part.metal>
0.0000

> <Gold.PLP.part.buried>
-4.7675

> <Gold.PLP.part.nonpolar>
-28.3761

> <Gold.PLP.part.repulsive>
0.1510

> <Gold.PLP.ligand.clash>
0.0000

> <Gold.PLP.ligand.torsion>
0.9936

> <Gold.PLP.Chemscore.Hbond>
3.0000

> <Gold.PLP.Chemscore.CHOScore>
0.0000

> <Gold.PLP.Chemscore.Metal>
0.0000

> <Gold.Chemscore.Hbonds>
donor molecule, donor type, donor heavy atom, donor atom, acceptor molecule, acceptor atom, score
      L1  H     4    28       P1  7948  1.00
      L1  H     8    30       P1  7948  0.89
      P1  H  7997  8009       L1    13  0.72

> <Gold.PLP.Chemscore.Internal.Correction>
0.8485

> <Gold.Rescore>
     Score         DG    S(hbond)    S(metal)    S(lipo)     H(rot)  DE(clash)    DE(int)     intcor
     15.63     -18.75       2.63        0.00      85.99       2.18       0.58       2.54       ----

> <Gold.Chemscore.Fitness>
15.6337

> <Gold.Chemscore.DG>
-18.7475

> <Gold.Chemscore.ZeroCoef>
-5.4800

> <Gold.Chemscore.Hbond>
2.6319

> <Gold.Chemscore.Metal>
0.0000

> <Gold.Chemscore.Lipo>
85.9916

> <Gold.Chemscore.Internal_Hbond>
0.0000

> <Gold.Chemscore.DEClash>
0.5761

> <Gold.Chemscore.DEInternal>
2.5377

> <Gold.Chemscore.Rot>
2.1813

> <Gold.Chemscore.Internal.Correction>
   9.000000E+99

> <Gold.Chemscore.Hbonds>
donor molecule, donor type, donor heavy atom, donor atom, acceptor molecule, acceptor atom, score
      L1  H     4    28       P1  7948  0.94
      L1  H     8    30       P1  7948  0.85
      P1  H  7997  8009       L1    13  0.14

> <Gold.Chemscore.Hbond.Weighted>
-8.7907

> <Gold.Chemscore.Metal.Weighted>
-0.0000

> <Gold.Chemscore.Lipo.Weighted>
-10.0610

> <Gold.Chemscore.Internal_Hbond.Weighted>
0.0000

> <Gold.Chemscore.DEClash.Weighted>
0.5761

> <Gold.Chemscore.DEInternal.Weighted>
2.5377

> <Gold.Chemscore.Rot.Weighted>
5.5842

> <Gold.Chemscore.Internal.Correction.Weighted>
   9.000000E+99

> <Gold.Protein.RotatedTorsions>
[ 6907 6896 6895 6894 ] final  -97.53 input  -60.11 | X-H torsion
[ 7974 7965 7964 7962 ] final  -11.57 input  175.53 | X-H torsion
[ 8008 7997 7996 7995 ] final -157.01 input   59.86 | X-H torsion
[ 10167 10162 10161 10158 ] final -118.41 input  -65.29 | X-H torsion
[ 10718 10713 10712 10709 ] final   18.56 input   66.30 | X-H torsion
[ 10763 10752 10751 10750 ] final    7.33 input  -60.55 | X-H torsion
[ 11005 11000 10999 10996 ] final  174.65 input  -57.11 | X-H torsion

> <Gold.Protein.ActiveResidues>
 VAL166  LYS551  ARG553  GLY616  TRP617  ASP618  TYR619  PRO620  LYS621  CYS622 
 ASP623  PHE694  ASN695  SER759  ASP760  ASP761  ALA762  ILE779  LEU786  VAL792 
 PHE793  MET794  SER795  GLU796  ALA797  LYS798  CYS799  TRP800  GLU811  SER814 

> <Gold.Protein.RotatedAtoms>
  150.7019  134.1335  159.4078 H   0  0  0  0  0  0  0  0  0  0  0  0  # atno 6907 bound_to 6896
  151.9320  135.0250  160.0539 H   0  0  0  0  0  0  0  0  0  0  0  0  # atno 6908 bound_to 6896
  152.2167  133.4917  159.5176 H   0  0  0  0  0  0  0  0  0  0  0  0  # atno 6909 bound_to 6896
  146.2183  140.2930  142.8370 H   0  0  0  0  0  0  0  0  0  0  0  0  # atno 7974 bound_to 7965
  155.7260  140.0796  157.2310 H   0  0  0  0  0  0  0  0  0  0  0  0  # atno 8008 bound_to 7997
  154.4039  140.1604  156.2510 H   0  0  0  0  0  0  0  0  0  0  0  0  # atno 8009 bound_to 7997
  155.9153  140.3401  155.6133 H   0  0  0  0  0  0  0  0  0  0  0  0  # atno 8010 bound_to 7997
  140.0578  143.4997  152.2048 H   0  0  0  0  0  0  0  0  0  0  0  0  # atno 10167 bound_to 10162
  157.0980  130.6456  149.5865 H   0  0  0  0  0  0  0  0  0  0  0  0  # atno 10718 bound_to 10713
  153.2375  135.6899  153.7820 H   0  0  0  0  0  0  0  0  0  0  0  0  # atno 10763 bound_to 10752
  153.6962  135.3305  155.3215 H   0  0  0  0  0  0  0  0  0  0  0  0  # atno 10764 bound_to 10752
  154.8341  135.4557  154.1284 H   0  0  0  0  0  0  0  0  0  0  0  0  # atno 10765 bound_to 10752
  140.3536  134.7174  157.4284 H   0  0  0  0  0  0  0  0  0  0  0  0  # atno 11005 bound_to 11000
  144.9112  140.7760  143.5806 LP  0  0  0  0  0  0  0  0  0  0  0  0  # atno 17320 bound_to 7965
  145.2861  139.1900  143.4765 LP  0  0  0  0  0  0  0  0  0  0  0  0  # atno 17321 bound_to 7965
  139.5912  144.7551  151.3395 LP  0  0  0  0  0  0  0  0  0  0  0  0  # atno 17342 bound_to 10162
  140.7186  143.7198  150.7705 LP  0  0  0  0  0  0  0  0  0  0  0  0  # atno 17343 bound_to 10162
  155.9881  130.4923  150.7154 LP  0  0  0  0  0  0  0  0  0  0  0  0  # atno 17370 bound_to 10713
  157.4665  131.0888  151.0689 LP  0  0  0  0  0  0  0  0  0  0  0  0  # atno 17371 bound_to 10713
  140.0683  134.5898  155.8670 LP  0  0  0  0  0  0  0  0  0  0  0  0  # atno 17394 bound_to 11000
  141.2005  133.6613  156.5899 LP  0  0  0  0  0  0  0  0  0  0  0  0  # atno 17395 bound_to 11000

$$$$
