#       Name:                AV-unprocessed.smi:2160
#       Creating user name   scv26
#       Creation time:       Fri Mar 27 11:58:22 2020


#       File generated by GOLD software.
#

@<TRIPOS>MOLECULE
AV-unprocessed.smi:2160
    50    52     1
SMALL
NO_CHARGES


@<TRIPOS>ATOM
      1 ****        -6.4871   3.3949   0.8702 C.3            1 S1                 0.0000
      2 ****        -5.6906   2.4060   0.2343 O.3            1 S1                 0.0000
      3 ****        -4.3201   2.5448   0.2863 C.ar           1 S1                 0.0000
      4 ****        -3.6509   3.6162   0.9298 C.ar           1 S1                 0.0000
      5 ****        -2.2437   3.6794   0.9327 C.ar           1 S1                 0.0000
      6 ****        -1.4832   2.6743   0.3023 C.ar           1 S1                 0.0000
      7 ****         0.0315   2.7624   0.2962 C.3            1 S1                 0.0000
      8 ****         0.6428   1.4824   0.2901 O.3            1 S1                 0.0000
      9 ****         2.0590   1.5482   0.2712 C.3            1 S1                 0.0000
     10 ****         2.6218   0.1211   0.2205 C.3            1 S1                 0.0000
     11 ****         4.0234   0.1787   0.3952 O.3            1 S1                 0.0000
     12 ****         2.2945  -0.5932  -1.1059 C.3            1 S1                 0.0000
     13 ****         2.7992  -1.9713  -1.1470 N.pl3          1 S1                 0.0000
     14 ****         3.9176  -2.4796  -1.7319 C.2            1 S1                 0.0000
     15 ****         3.9402  -3.8182  -1.4807 N.pl3          1 S1                 1.0000
     16 ****         2.8201  -4.1699  -0.7243 C.ar           1 S1                 0.0000
     17 ****         2.4060  -5.4009  -0.2252 C.ar           1 S1                 0.0000
     18 ****         1.2054  -5.4119   0.5154 C.ar           1 S1                 0.0000
     19 ****         0.4663  -4.2310   0.7352 C.ar           1 S1                 0.0000
     20 ****         0.8952  -2.9884   0.2237 C.ar           1 S1                 0.0000
     21 ****         2.0827  -2.9871  -0.5067 C.ar           1 S1                 0.0000
     22 ****        -2.1443   1.6121  -0.3480 C.ar           1 S1                 0.0000
     23 ****        -3.5509   1.5495  -0.3504 C.ar           1 S1                 0.0000
     24 ****        -7.5402   3.1441   0.7434 H              1 S1                 0.0000
     25 ****        -6.3274   4.3799   0.4294 H              1 S1                 0.0000
     26 ****        -6.2851   3.4404   1.9412 H              1 S1                 0.0000
     27 ****        -4.1946   4.4047   1.4273 H              1 S1                 0.0000
     28 ****        -1.7491   4.5050   1.4232 H              1 S1                 0.0000
     29 ****         0.3384   3.3260  -0.5859 H              1 S1                 0.0000
     30 ****         0.3635   3.3214   1.1726 H              1 S1                 0.0000
     31 ****         2.4056   2.1257  -0.5875 H              1 S1                 0.0000
     32 ****         2.4068   2.0568   1.1720 H              1 S1                 0.0000
     33 ****         2.2132  -0.4475   1.0565 H              1 S1                 0.0000
     34 ****         4.3898   0.7110  -0.2943 H              1 S1                 0.0000
     35 ****         1.2186  -0.6180  -1.2842 H              1 S1                 0.0000
     36 ****         2.7349  -0.0558  -1.9471 H              1 S1                 0.0000
     37 ****         4.6556  -1.9220  -2.2902 H              1 S1                 0.0000
     38 ****         2.9704  -6.3069  -0.3919 H              1 S1                 0.0000
     39 ****         0.8446  -6.3450   0.9233 H              1 S1                 0.0000
     40 ****        -0.4485  -4.2786   1.3081 H              1 S1                 0.0000
     41 ****         0.3240  -2.0882   0.3979 H              1 S1                 0.0000
     42 ****        -1.5778   0.8405  -0.8484 H              1 S1                 0.0000
     43 ****        -4.0456   0.7291  -0.8492 H              1 S1                 0.0000
     44 ****         4.6689  -4.4427  -1.8013 H              1 S1                 0.0000
     45 ****        -5.9512   2.3904  -0.7310 LP             1 S1                 0.0000
     46 ****        -5.9163   1.5273   0.6548 LP             1 S1                 0.0000
     47 ****         0.3354   0.9858  -0.5216 LP             1 S1                 0.0000
     48 ****         0.3571   0.9883   1.1113 LP             1 S1                 0.0000
     49 ****         4.4072  -0.7435   0.3496 LP             1 S1                 0.0000
     50 ****         4.2362   0.5847   1.2840 LP             1 S1                 0.0000
@<TRIPOS>BOND
    1    1    2 1     
    2    1   24 1     
    3    1   25 1     
    4    1   26 1     
    5    2    3 1     
    6    3   23 ar    
    7    3    4 ar    
    8    4    5 ar    
    9    4   27 1     
   10    5    6 ar    
   11    5   28 1     
   12    6    7 1     
   13    6   22 ar    
   14    7    8 1     
   15    7   29 1     
   16    7   30 1     
   17    8    9 1     
   18    9   10 1     
   19    9   31 1     
   20    9   32 1     
   21   10   11 1     
   22   10   12 1     
   23   10   33 1     
   24   11   34 1     
   25   12   13 1     
   26   12   35 1     
   27   12   36 1     
   28   13   21 1     
   29   13   14 1     
   30   14   15 2     
   31   14   37 1     
   32   15   16 1     
   33   15   44 1     
   34   16   21 ar    
   35   16   17 ar    
   36   17   18 ar    
   37   17   38 1     
   38   18   19 ar    
   39   18   39 1     
   40   19   20 ar    
   41   19   40 1     
   42   20   21 ar    
   43   20   41 1     
   44   22   23 ar    
   45   22   42 1     
   46   23   43 1     
   47    2   45 1     
   48    2   46 1     
   49    8   47 1     
   50    8   48 1     
   51   11   49 1     
   52   11   50 1     
@<TRIPOS>SUBSTRUCTURE
      1 S1             1
@<TRIPOS>SET
LONE_PAIRS      STATIC     ATOMS    <user>   **** ""
6 45 46 47 48 49 50
DONOR_HYDROGENS      STATIC     ATOMS    <user>   **** ""
2 34 44
ATOM$BLUE        STATIC     ATOMS    COLORGROUP SYSTEM
6 45 46 47 48 49 50
ATOM$RED        STATIC     ATOMS    COLORGROUP SYSTEM
2 34 44
