AV-unprocessed.smi:2051|AV-procd|sdf|8326|dock10
  -GOLD-   2272010593D 1   1.00000     0.00000
 Structure written by MMmdl.
 33 34  0  0  0  0  0  0  0  0  1 V2000
  149.8698  140.1621  156.7497 O   0  0  0  0  0  0  0  0  0  0  0  0
  149.7807  141.3422  156.4087 C   0  0  0  0  0  0  0  0  0  0  0  0
  151.0396  142.2046  156.2438 C   0  0  0  0  0  0  0  0  0  0  0  0
  151.5562  142.7167  157.5239 N   0  0  0  0  0  0  0  0  0  0  0  0
  151.5598  144.1142  157.7038 C   0  0  0  0  0  0  0  0  0  0  0  0
  152.0114  144.6837  158.8324 C   0  0  0  0  0  0  0  0  0  0  0  0
  152.5040  143.8230  159.8815 C   0  0  0  0  0  0  0  0  0  0  0  0
  152.5081  142.4850  159.7189 C   0  0  0  0  0  0  0  0  0  0  0  0
  152.0171  141.8583  158.4861 C   0  0  0  0  0  0  0  0  0  0  0  0
  152.0199  140.6369  158.3278 O   0  0  0  0  0  0  0  0  0  0  0  0
  148.6122  141.9491  156.1514 N   0  0  0  0  0  0  0  0  0  0  0  0
  147.2939  141.3373  156.2825 C   0  0  0  0  0  0  0  0  0  0  0  0
  146.3583  141.7537  155.1343 C   0  0  2  0  0  0  0  0  0  0  0  0
  147.0471  142.4130  153.9383 C   0  0  0  0  0  0  0  0  0  0  0  0
  145.9111  143.2063  153.3355 C   0  0  0  0  0  0  0  0  0  0  0  0
  145.1808  143.6991  154.5817 C   0  0  0  0  0  0  0  0  0  0  0  0
  145.4161  142.7200  155.5916 O   0  0  0  0  0  0  0  0  0  0  0  0
  151.7951  141.6067  155.7326 H   0  0  0  0  0  0  0  0  0  0  0  0
  150.8299  143.0382  155.5704 H   0  0  0  0  0  0  0  0  0  0  0  0
  151.1820  144.6876  156.8698 H   0  0  0  0  0  0  0  0  0  0  0  0
  152.0101  145.7571  158.9510 H   0  0  0  0  0  0  0  0  0  0  0  0
  152.8723  144.2542  160.8008 H   0  0  0  0  0  0  0  0  0  0  0  0
  152.8814  141.8568  160.5143 H   0  0  0  0  0  0  0  0  0  0  0  0
  148.6353  142.9181  155.8687 H   0  0  0  0  0  0  0  0  0  0  0  0
  147.4276  140.2555  156.2665 H   0  0  0  0  0  0  0  0  0  0  0  0
  146.8436  141.5733  157.2481 H   0  0  0  0  0  0  0  0  0  0  0  0
  145.7915  140.8886  154.7862 H   0  0  0  0  0  0  0  0  0  0  0  0
  147.8362  143.0883  154.2718 H   0  0  0  0  0  0  0  0  0  0  0  0
  147.4823  141.6926  153.2446 H   0  0  0  0  0  0  0  0  0  0  0  0
  146.2475  144.0169  152.6888 H   0  0  0  0  0  0  0  0  0  0  0  0
  145.2637  142.5490  152.7536 H   0  0  0  0  0  0  0  0  0  0  0  0
  145.5994  144.6481  154.9184 H   0  0  0  0  0  0  0  0  0  0  0  0
  144.1143  143.8426  154.4067 H   0  0  0  0  0  0  0  0  0  0  0  0
  1  2  2  0  0  0  0
  2  3  1  0  0  0  0
  2 11  1  0  0  0  0
  3  4  1  0  0  0  0
  3 18  1  0  0  0  0
  3 19  1  0  0  0  0
  4  9  1  0  0  0  0
  4  5  1  0  0  0  0
  5  6  2  0  0  0  0
  5 20  1  0  0  0  0
  6  7  1  0  0  0  0
  6 21  1  0  0  0  0
  7  8  2  0  0  0  0
  7 22  1  0  0  0  0
  8  9  1  0  0  0  0
  8 23  1  0  0  0  0
  9 10  2  0  0  0  0
 11 12  1  0  0  0  0
 11 24  1  0  0  0  0
 12 13  1  0  0  0  0
 12 25  1  0  0  0  0
 12 26  1  0  0  0  0
 13 17  1  0  0  0  0
 13 14  1  0  0  0  0
 13 27  1  0  0  0  0
 14 15  1  0  0  0  0
 14 28  1  0  0  0  0
 14 29  1  0  0  0  0
 15 16  1  0  0  0  0
 15 30  1  0  0  0  0
 15 31  1  0  0  0  0
 16 17  1  0  0  0  0
 16 32  1  0  0  0  0
 16 33  1  0  0  0  0
M  END
> <s_m_source_file>
AV-unprocessed.smi

> <i_m_source_file_index>
2051

> <i_lp_mmshare_version>
43012

> <i_f3d_flags>
0

> <s_epik_input>
TzFbQ0gyXVtDSDJdW0NIMl1bQ0BIXTFbQ0gyXVtOSF1DKD1PKVtDSDJdbjJbY0hdW2NIXVtjSF1bY0hdYzI9Tw==

> <s_epik_cmdline>
J2VwaWtfcHl0aG9uJywgJy1waCcsICc3LjAnLCAnLXRuJywgJzgnLCAnLW1hJywgJzIwMCcsICctbWV0YWxfYmluZGluZycsICctaW1hZScsICc8aW5maWxlLm1hZT4nLCAnLW9tYWUnLCAnPG91dGZpbGUubWFlPic=

> <r_lp_tautomer_probability>
1

> <r_epik_Ionization_Penalty>
3.94187e-07

> <r_epik_Ionization_Penalty_Charging>
3.67328e-07

> <r_epik_Ionization_Penalty_Neutral>
2.6859e-08

> <r_epik_State_Penalty>
-0

> <r_epik_Charging_Adjusted_Penalty>
3.67328e-07

> <i_epik_Tot_Q>
0

> <i_epik_Tot_abs_Q>
0

> <r_epik_Metal_State_Penalty>
-0

> <b_epik_Metal_Only>
0

> <s_lp_Force_Field>
OPLS_2005

> <r_lp_Energy>
26.4026

> <b_lp_Chiralities_Consistent>
1

> <s_lp_Variant>
AV-unprocessed.smi:2051-1

> <Gold.Version>
5.8.1

> <Gold.Id.Protein>
6NUR|6NUR_protein|mol2

> <Gold.PLP.Fitness>
41.8066

> <Gold.PLP.PLP>
-37.9706

> <Gold.PLP.part.hbond>
-1.0000

> <Gold.PLP.part.metal>
0.0000

> <Gold.PLP.part.buried>
-6.1475

> <Gold.PLP.part.nonpolar>
-32.2236

> <Gold.PLP.part.repulsive>
0.1751

> <Gold.PLP.ligand.clash>
0.0000

> <Gold.PLP.ligand.torsion>
1.0803

> <Gold.PLP.Chemscore.Hbond>
1.0000

> <Gold.PLP.Chemscore.CHOScore>
0.9981

> <Gold.PLP.Chemscore.Metal>
0.0000

> <Gold.Chemscore.Hbonds>
donor molecule, donor type, donor heavy atom, donor atom, acceptor molecule, acceptor atom, score
      L1  H    11    24       P1  8028  1.00
      L1  C     5    20       P1  8028  0.94

> <Gold.PLP.Chemscore.Internal.Correction>
0.0022

> <Gold.Rescore>
     Score         DG    S(hbond)    S(metal)    S(lipo)     H(rot)  DE(clash)    DE(int)     intcor
     12.93     -14.46       1.00        0.00      85.21       1.69       0.14       1.40       ----

> <Gold.Chemscore.Fitness>
12.9254

> <Gold.Chemscore.DG>
-14.4573

> <Gold.Chemscore.ZeroCoef>
-5.4800

> <Gold.Chemscore.Hbond>
1.0009

> <Gold.Chemscore.Metal>
0.0000

> <Gold.Chemscore.Lipo>
85.2148

> <Gold.Chemscore.Internal_Hbond>
0.0000

> <Gold.Chemscore.DEClash>
0.1369

> <Gold.Chemscore.DEInternal>
1.3950

> <Gold.Chemscore.Rot>
1.6936

> <Gold.Chemscore.Internal.Correction>
   9.000000E+99

> <Gold.Chemscore.Hbonds>
donor molecule, donor type, donor heavy atom, donor atom, acceptor molecule, acceptor atom, score
      L1  H    11    24       P1  8028  1.00

> <Gold.Chemscore.Hbond.Weighted>
-3.3429

> <Gold.Chemscore.Metal.Weighted>
-0.0000

> <Gold.Chemscore.Lipo.Weighted>
-9.9701

> <Gold.Chemscore.Internal_Hbond.Weighted>
0.0000

> <Gold.Chemscore.DEClash.Weighted>
0.1369

> <Gold.Chemscore.DEInternal.Weighted>
1.3950

> <Gold.Chemscore.Rot.Weighted>
4.3357

> <Gold.Chemscore.Internal.Correction.Weighted>
   9.000000E+99

> <Gold.Protein.RotatedTorsions>
[ 6907 6896 6895 6894 ] final   24.54 input  -60.11 | X-H torsion
[ 7974 7965 7964 7962 ] final  -53.80 input  175.53 | X-H torsion
[ 8008 7997 7996 7995 ] final -107.10 input   59.86 | X-H torsion
[ 10167 10162 10161 10158 ] final   24.72 input  -65.29 | X-H torsion
[ 10718 10713 10712 10709 ] final   19.53 input   66.30 | X-H torsion
[ 10763 10752 10751 10750 ] final -160.32 input  -60.55 | X-H torsion
[ 11005 11000 10999 10996 ] final   29.97 input  -57.11 | X-H torsion

> <Gold.Protein.ActiveResidues>
 VAL166  LYS551  ARG553  GLY616  TRP617  ASP618  TYR619  PRO620  LYS621  CYS622 
 ASP623  PHE694  ASN695  SER759  ASP760  ASP761  ALA762  ILE779  LEU786  VAL792 
 PHE793  MET794  SER795  GLU796  ALA797  LYS798  CYS799  TRP800  GLU811  SER814 

> <Gold.Protein.RotatedAtoms>
  151.9591  135.0132  160.0546 H   0  0  0  0  0  0  0  0  0  0  0  0  # atno 6907 bound_to 6896
  152.1885  133.4752  159.5004 H   0  0  0  0  0  0  0  0  0  0  0  0  # atno 6908 bound_to 6896
  150.6930  134.1660  159.4237 H   0  0  0  0  0  0  0  0  0  0  0  0  # atno 6909 bound_to 6896
  145.8928  140.8057  142.9783 H   0  0  0  0  0  0  0  0  0  0  0  0  # atno 7974 bound_to 7965
  154.9243  140.0406  157.2014 H   0  0  0  0  0  0  0  0  0  0  0  0  # atno 8008 bound_to 7997
  154.8223  140.2885  155.5757 H   0  0  0  0  0  0  0  0  0  0  0  0  # atno 8009 bound_to 7997
  156.2981  140.2516  156.3132 H   0  0  0  0  0  0  0  0  0  0  0  0  # atno 8010 bound_to 7997
  140.5165  144.0074  150.6396 H   0  0  0  0  0  0  0  0  0  0  0  0  # atno 10167 bound_to 10162
  157.1117  130.6511  149.5899 H   0  0  0  0  0  0  0  0  0  0  0  0  # atno 10718 bound_to 10713
  154.7400  135.3066  154.8744 H   0  0  0  0  0  0  0  0  0  0  0  0  # atno 10763 bound_to 10752
  153.9561  135.6758  153.4748 H   0  0  0  0  0  0  0  0  0  0  0  0  # atno 10764 bound_to 10752
  153.1000  135.4916  154.8774 H   0  0  0  0  0  0  0  0  0  0  0  0  # atno 10765 bound_to 10752
  140.2993  134.2775  155.7757 H   0  0  0  0  0  0  0  0  0  0  0  0  # atno 11005 bound_to 11000
  144.6731  140.1556  143.7426 LP  0  0  0  0  0  0  0  0  0  0  0  0  # atno 17320 bound_to 7965
  145.8887  139.2364  143.1562 LP  0  0  0  0  0  0  0  0  0  0  0  0  # atno 17321 bound_to 7965
  140.3411  143.3019  152.0587 LP  0  0  0  0  0  0  0  0  0  0  0  0  # atno 17342 bound_to 10162
  139.4910  144.6441  151.6814 LP  0  0  0  0  0  0  0  0  0  0  0  0  # atno 17343 bound_to 10162
  155.9849  130.4876  150.7005 LP  0  0  0  0  0  0  0  0  0  0  0  0  # atno 17370 bound_to 10713
  157.4553  131.0877  151.0803 LP  0  0  0  0  0  0  0  0  0  0  0  0  # atno 17371 bound_to 10713
  141.2131  133.7635  156.9742 LP  0  0  0  0  0  0  0  0  0  0  0  0  # atno 17394 bound_to 11000
  140.1124  134.9468  157.2085 LP  0  0  0  0  0  0  0  0  0  0  0  0  # atno 17395 bound_to 11000

$$$$
