AV-unprocessed.smi:47|AV-procd|sdf|442|dock3
  -GOLD-   2262016313D 1   1.00000     0.00000
 Structure written by MMmdl.
 32 34  0  0  0  0  0  0  0  0  2 V2000
  146.6444  140.1506  152.4884 O   0  0  0  0  0  0  0  0  0  0  0  0
  147.0050  140.4705  153.8159 C   0  0  2  0  0  0  0  0  0  0  0  0
  146.8420  141.9739  154.0840 C   0  0  0  0  0  0  0  0  0  0  0  0
  147.9788  142.3440  154.9397 N   0  3  0  0  0  0  0  0  0  0  0  0
  149.1044  141.4948  154.5163 C   0  0  1  0  0  0  0  0  0  0  0  0
  150.0236  141.4248  155.6988 C   0  0  0  0  0  0  0  0  0  0  0  0
  150.8553  140.4193  155.9828 N   0  0  0  0  0  0  0  0  0  0  0  0
  151.5004  140.7972  157.1453 N   0  0  0  0  0  0  0  0  0  0  0  0
  151.0154  142.0029  157.4763 C   0  0  0  0  0  0  0  0  0  0  0  0
  151.4403  142.7653  158.6523 C   0  0  0  0  0  0  0  0  0  0  0  0
  152.2079  142.1487  159.6678 C   0  0  0  0  0  0  0  0  0  0  0  0
  152.6131  142.8808  160.8009 C   0  0  0  0  0  0  0  0  0  0  0  0
  152.2536  144.2351  160.9317 C   0  0  0  0  0  0  0  0  0  0  0  0
  151.4884  144.8573  159.9279 C   0  0  0  0  0  0  0  0  0  0  0  0
  151.0840  144.1268  158.7938 C   0  0  0  0  0  0  0  0  0  0  0  0
  150.0919  142.4209  156.5922 N   0  0  0  0  0  0  0  0  0  0  0  0
  148.4851  140.1571  154.0912 C   0  0  0  0  0  0  0  0  0  0  0  0
  146.3761  139.9005  154.5011 H   0  0  0  0  0  0  0  0  0  0  0  0
  149.6028  141.9711  153.6705 H   0  0  0  0  0  0  0  0  0  0  0  0
  149.5763  143.2889  156.6004 H   0  0  0  0  0  0  0  0  0  0  0  0
  145.7215  140.3219  152.3745 H   0  0  0  0  0  0  0  0  0  0  0  0
  146.9226  142.5443  153.1570 H   0  0  0  0  0  0  0  0  0  0  0  0
  145.8871  142.2206  154.5489 H   0  0  0  0  0  0  0  0  0  0  0  0
  148.2024  143.3265  154.8717 H   0  0  0  0  0  0  0  0  0  0  0  0
  152.4962  141.1109  159.5891 H   0  0  0  0  0  0  0  0  0  0  0  0
  153.2005  142.4027  161.5712 H   0  0  0  0  0  0  0  0  0  0  0  0
  152.5636  144.7959  161.8011 H   0  0  0  0  0  0  0  0  0  0  0  0
  151.2100  145.8962  160.0276 H   0  0  0  0  0  0  0  0  0  0  0  0
  150.4954  144.6239  158.0366 H   0  0  0  0  0  0  0  0  0  0  0  0
  148.5459  139.4281  154.9009 H   0  0  0  0  0  0  0  0  0  0  0  0
  149.0088  139.7292  153.2353 H   0  0  0  0  0  0  0  0  0  0  0  0
  147.7515  142.1083  155.8955 H   0  0  0  0  0  0  0  0  0  0  0  0
  1  2  1  0  0  0  0
  1 21  1  0  0  0  0
  2 18  1  0  0  0  0
  2 17  1  0  0  0  0
  2  3  1  0  0  0  0
  3  4  1  0  0  0  0
  3 22  1  0  0  0  0
  3 23  1  0  0  0  0
  4  5  1  0  0  0  0
  4 24  1  0  0  0  0
  4 32  1  0  0  0  0
  5 19  1  0  0  0  0
  5 17  1  0  0  0  0
  5  6  1  0  0  0  0
  6  7  2  0  0  0  0
  6 16  1  0  0  0  0
  7  8  1  0  0  0  0
  8  9  2  0  0  0  0
  9 16  1  0  0  0  0
  9 10  1  0  0  0  0
 10 15  1  0  0  0  0
 10 11  2  0  0  0  0
 11 12  1  0  0  0  0
 11 25  1  0  0  0  0
 12 13  2  0  0  0  0
 12 26  1  0  0  0  0
 13 14  1  0  0  0  0
 13 27  1  0  0  0  0
 14 15  2  0  0  0  0
 14 28  1  0  0  0  0
 15 29  1  0  0  0  0
 16 20  1  0  0  0  0
 17 30  1  0  0  0  0
 17 31  1  0  0  0  0
M  CHG  1   4   1
M  END
> <s_m_source_file>
AV-unprocessed.smi

> <i_m_source_file_index>
47

> <i_lp_mmshare_version>
43012

> <i_f3d_flags>
0

> <s_epik_input>
W09IXVtDQEhdMVtDSDJdW05IXVtDQEBIXShbQ0gyXTEpYzJuW25IXWMobjIpLWMzW2NIXVtjSF1bY0hdW2NIXVtjSF0z

> <s_epik_cmdline>
J2VwaWtfcHl0aG9uJywgJy1waCcsICc3LjAnLCAnLXRuJywgJzgnLCAnLW1hJywgJzIwMCcsICctbWV0YWxfYmluZGluZycsICctaW1hZScsICc8aW5maWxlLm1hZT4nLCAnLW9tYWUnLCAnPG91dGZpbGUubWFlPic=

> <r_lp_tautomer_probability>
0.0517155

> <r_epik_Ionization_Penalty>
2.45729

> <r_epik_Ionization_Penalty_Charging>
0.0688988

> <r_epik_Ionization_Penalty_Neutral>
2.3884

> <r_epik_State_Penalty>
2.69236

> <r_epik_Charging_Adjusted_Penalty>
2.76126

> <i_epik_Tot_Q>
1

> <i_epik_Tot_abs_Q>
1

> <r_epik_Metal_State_Penalty>
3.18974

> <b_epik_Metal_Only>
0

> <s_lp_Force_Field>
OPLS_2005

> <r_lp_Energy>
30.5678

> <b_lp_Chiralities_Consistent>
1

> <s_lp_Variant>
AV-unprocessed.smi:47-20

> <Gold.Version>
5.8.1

> <Gold.Id.Protein>
6NUR|6NUR_protein|mol2

> <Gold.PLP.Fitness>
50.5505

> <Gold.PLP.PLP>
-40.3536

> <Gold.PLP.part.hbond>
-3.3670

> <Gold.PLP.part.metal>
0.0000

> <Gold.PLP.part.buried>
-6.7031

> <Gold.PLP.part.nonpolar>
-31.9753

> <Gold.PLP.part.repulsive>
0.2199

> <Gold.PLP.ligand.clash>
0.0000

> <Gold.PLP.ligand.torsion>
0.7874

> <Gold.PLP.Chemscore.Hbond>
3.9193

> <Gold.PLP.Chemscore.CHOScore>
0.0000

> <Gold.PLP.Chemscore.Metal>
0.0000

> <Gold.Chemscore.Hbonds>
donor molecule, donor type, donor heavy atom, donor atom, acceptor molecule, acceptor atom, score
      L1  H     1    21       P1 10175  0.99
      L1  H     4    24       P1  8028  1.92
      L1  H    16    20       P1  8028  0.98

> <Gold.PLP.Chemscore.Internal.Correction>
0.0140

> <Gold.Rescore>
     Score         DG    S(hbond)    S(metal)    S(lipo)     H(rot)  DE(clash)    DE(int)     intcor
     21.20     -21.97       2.82        0.00      93.29       1.50       0.01       0.76       ----

> <Gold.Chemscore.Fitness>
21.2002

> <Gold.Chemscore.DG>
-21.9736

> <Gold.Chemscore.ZeroCoef>
-5.4800

> <Gold.Chemscore.Hbond>
2.8174

> <Gold.Chemscore.Metal>
0.0000

> <Gold.Chemscore.Lipo>
93.2890

> <Gold.Chemscore.Internal_Hbond>
0.0000

> <Gold.Chemscore.DEClash>
0.0149

> <Gold.Chemscore.DEInternal>
0.7585

> <Gold.Chemscore.Rot>
1.4966

> <Gold.Chemscore.Internal.Correction>
   9.000000E+99

> <Gold.Chemscore.Hbonds>
donor molecule, donor type, donor heavy atom, donor atom, acceptor molecule, acceptor atom, score
      L1  H     1    21       P1 10175  0.56
      L1  H     4    24       P1  8028  0.88
      L1  H    16    20       P1  8028  0.93

> <Gold.Chemscore.Hbond.Weighted>
-9.4100

> <Gold.Chemscore.Metal.Weighted>
-0.0000

> <Gold.Chemscore.Lipo.Weighted>
-10.9148

> <Gold.Chemscore.Internal_Hbond.Weighted>
0.0000

> <Gold.Chemscore.DEClash.Weighted>
0.0149

> <Gold.Chemscore.DEInternal.Weighted>
0.7585

> <Gold.Chemscore.Rot.Weighted>
3.8312

> <Gold.Chemscore.Internal.Correction.Weighted>
   9.000000E+99

> <Gold.Protein.RotatedTorsions>
[ 6907 6896 6895 6894 ] final -130.38 input  -60.11 | X-H torsion
[ 7974 7965 7964 7962 ] final   70.33 input  175.53 | X-H torsion
[ 8008 7997 7996 7995 ] final  -10.54 input   59.86 | X-H torsion
[ 10167 10162 10161 10158 ] final -167.04 input  -65.29 | X-H torsion
[ 10718 10713 10712 10709 ] final -135.59 input   66.30 | X-H torsion
[ 10763 10752 10751 10750 ] final   81.71 input  -60.55 | X-H torsion
[ 11005 11000 10999 10996 ] final  -13.38 input  -57.11 | X-H torsion

> <Gold.Protein.ActiveResidues>
 VAL166  LYS551  ARG553  GLY616  TRP617  ASP618  TYR619  PRO620  LYS621  CYS622 
 ASP623  PHE694  ASN695  SER759  ASP760  ASP761  ALA762  ILE779  LEU786  VAL792 
 PHE793  MET794  SER795  GLU796  ALA797  LYS798  CYS799  TRP800  GLU811  SER814 

> <Gold.Protein.RotatedAtoms>
  150.9390  133.6678  159.2794 H   0  0  0  0  0  0  0  0  0  0  0  0  # atno 6907 bound_to 6896
  151.4073  135.0979  159.9584 H   0  0  0  0  0  0  0  0  0  0  0  0  # atno 6908 bound_to 6896
  152.5061  133.8871  159.7430 H   0  0  0  0  0  0  0  0  0  0  0  0  # atno 6909 bound_to 6896
  145.7795  139.2881  143.1274 H   0  0  0  0  0  0  0  0  0  0  0  0  # atno 7974 bound_to 7965
  154.5545  140.2326  155.8431 H   0  0  0  0  0  0  0  0  0  0  0  0  # atno 8008 bound_to 7997
  156.1976  140.3061  155.9420 H   0  0  0  0  0  0  0  0  0  0  0  0  # atno 8009 bound_to 7997
  155.3006  140.0431  157.3020 H   0  0  0  0  0  0  0  0  0  0  0  0  # atno 8010 bound_to 7997
  139.6075  144.0882  152.1808 H   0  0  0  0  0  0  0  0  0  0  0  0  # atno 10167 bound_to 10162
  156.2678  130.7248  151.1204 H   0  0  0  0  0  0  0  0  0  0  0  0  # atno 10718 bound_to 10713
  153.1140  135.4755  154.9084 H   0  0  0  0  0  0  0  0  0  0  0  0  # atno 10763 bound_to 10752
  154.7510  135.3106  154.8560 H   0  0  0  0  0  0  0  0  0  0  0  0  # atno 10764 bound_to 10752
  153.9142  135.6862  153.4803 H   0  0  0  0  0  0  0  0  0  0  0  0  # atno 10765 bound_to 10752
  140.7755  133.8405  155.9244 H   0  0  0  0  0  0  0  0  0  0  0  0  # atno 11005 bound_to 11000
  146.0089  140.8453  142.9981 LP  0  0  0  0  0  0  0  0  0  0  0  0  # atno 17320 bound_to 7965
  144.6799  140.2460  143.7337 LP  0  0  0  0  0  0  0  0  0  0  0  0  # atno 17321 bound_to 7965
  140.0493  144.5946  150.7349 LP  0  0  0  0  0  0  0  0  0  0  0  0  # atno 17342 bound_to 10162
  140.7296  143.2674  151.4000 LP  0  0  0  0  0  0  0  0  0  0  0  0  # atno 17343 bound_to 10162
  157.7273  131.0640  150.5869 LP  0  0  0  0  0  0  0  0  0  0  0  0  # atno 17370 bound_to 10713
  156.5963  130.4342  149.5915 LP  0  0  0  0  0  0  0  0  0  0  0  0  # atno 17371 bound_to 10713
  140.9533  134.1750  157.4711 LP  0  0  0  0  0  0  0  0  0  0  0  0  # atno 17394 bound_to 11000
  139.8750  134.9917  156.5563 LP  0  0  0  0  0  0  0  0  0  0  0  0  # atno 17395 bound_to 11000

$$$$
