AV-unprocessed.smi:2282|AV-procd|sdf|9197|dock5
  -GOLD-   2272012413D 1   1.00000     0.00000
 Structure written by MMmdl.
 32 33  0  0  0  0  0  0  0  0  1 V2000
  150.8478  143.7139  158.2061 C   0  0  0  0  0  0  0  0  0  0  0  0
  151.6185  143.4354  159.4830 C   0  0  0  0  0  0  0  0  0  0  0  0
  151.6046  144.4256  160.4019 N   0  0  0  0  0  0  0  0  0  0  0  0
  152.2811  144.2332  161.5525 C   0  0  0  0  0  0  0  0  0  0  0  0
  152.9928  143.0541  161.8450 C   0  0  0  0  0  0  0  0  0  0  0  0
  152.9959  142.0078  160.8919 C   0  0  0  0  0  0  0  0  0  0  0  0
  153.6995  140.7853  161.0767 N   0  0  0  0  0  0  0  0  0  0  0  0
  154.7219  140.5185  161.9099 C   0  0  0  0  0  0  0  0  0  0  0  0
  155.2280  141.3339  162.6814 O   0  0  0  0  0  0  0  0  0  0  0  0
  155.2547  139.0817  161.8628 C   0  0  2  0  0  0  0  0  0  0  0  0
  154.4459  138.1425  160.9489 C   0  0  0  0  0  0  0  0  0  0  0  0
  153.7215  137.2343  161.9221 C   0  0  0  0  0  0  0  0  0  0  0  0
  154.6978  137.1897  163.0919 C   0  0  2  0  0  0  0  0  0  0  0  0
  154.0674  136.7523  164.4180 C   0  0  0  0  0  0  0  0  0  0  0  0
  155.1554  138.5310  163.1751 O   0  0  0  0  0  0  0  0  0  0  0  0
  152.3020  142.2117  159.6759 C   0  0  0  0  0  0  0  0  0  0  0  0
  152.2828  140.9870  158.4509 Cl  0  0  0  0  0  0  0  0  0  0  0  0
  150.0619  142.9713  158.0683 H   0  0  0  0  0  0  0  0  0  0  0  0
  151.5149  143.6751  157.3448 H   0  0  0  0  0  0  0  0  0  0  0  0
  150.3804  144.6992  158.2256 H   0  0  0  0  0  0  0  0  0  0  0  0
  152.2610  145.0481  162.2608 H   0  0  0  0  0  0  0  0  0  0  0  0
  153.5282  142.9832  162.7789 H   0  0  0  0  0  0  0  0  0  0  0  0
  153.3338  139.9969  160.5626 H   0  0  0  0  0  0  0  0  0  0  0  0
  156.3017  139.0781  161.5544 H   0  0  0  0  0  0  0  0  0  0  0  0
  153.7573  138.6561  160.2767 H   0  0  0  0  0  0  0  0  0  0  0  0
  155.1271  137.5571  160.3300 H   0  0  0  0  0  0  0  0  0  0  0  0
  152.7797  137.6925  162.2276 H   0  0  0  0  0  0  0  0  0  0  0  0
  153.5055  136.2494  161.5074 H   0  0  0  0  0  0  0  0  0  0  0  0
  155.5441  136.5460  162.8455 H   0  0  0  0  0  0  0  0  0  0  0  0
  153.6852  135.7336  164.3517 H   0  0  0  0  0  0  0  0  0  0  0  0
  153.2389  137.4045  164.6961 H   0  0  0  0  0  0  0  0  0  0  0  0
  154.7993  136.7821  165.2253 H   0  0  0  0  0  0  0  0  0  0  0  0
  1  2  1  0  0  0  0
  1 18  1  0  0  0  0
  1 19  1  0  0  0  0
  1 20  1  0  0  0  0
  2 16  1  0  0  0  0
  2  3  2  0  0  0  0
  3  4  1  0  0  0  0
  4  5  2  0  0  0  0
  4 21  1  0  0  0  0
  5  6  1  0  0  0  0
  5 22  1  0  0  0  0
  6  7  1  0  0  0  0
  6 16  2  0  0  0  0
  7  8  1  0  0  0  0
  7 23  1  0  0  0  0
  8  9  2  0  0  0  0
  8 10  1  0  0  0  0
 10 15  1  0  0  0  0
 10 11  1  0  0  0  0
 10 24  1  0  0  0  0
 11 12  1  0  0  0  0
 11 25  1  0  0  0  0
 11 26  1  0  0  0  0
 12 13  1  0  0  0  0
 12 27  1  0  0  0  0
 12 28  1  0  0  0  0
 13 14  1  0  0  0  0
 13 15  1  0  0  0  0
 13 29  1  0  0  0  0
 14 30  1  0  0  0  0
 14 31  1  0  0  0  0
 14 32  1  0  0  0  0
 16 17  1  0  0  0  0
M  END
> <s_m_source_file>
AV-unprocessed.smi

> <i_m_source_file_index>
2282

> <i_lp_mmshare_version>
43012

> <i_f3d_flags>
0

> <s_epik_input>
W0NIM11jMW5bY0hdW2NIXWMoYzFDbClbTkhdQyg9TylbQ0BASF0yW0NIMl1bQ0gyXVtDQEhdKE8yKVtDSDNd

> <s_epik_cmdline>
J2VwaWtfcHl0aG9uJywgJy1waCcsICc3LjAnLCAnLXRuJywgJzgnLCAnLW1hJywgJzIwMCcsICctbWV0YWxfYmluZGluZycsICctaW1hZScsICc8aW5maWxlLm1hZT4nLCAnLW9tYWUnLCAnPG91dGZpbGUubWFlPic=

> <r_epik_Ionization_Penalty>
0.00037231

> <r_epik_Ionization_Penalty_Charging>
0

> <r_epik_Ionization_Penalty_Neutral>
0.00037231

> <r_epik_State_Penalty>
0.000225113

> <r_epik_Charging_Adjusted_Penalty>
0.000225113

> <i_epik_Tot_Q>
0

> <i_epik_Tot_abs_Q>
0

> <r_epik_Metal_State_Penalty>
-0

> <b_epik_Metal_Only>
0

> <s_lp_Force_Field>
OPLS_2005

> <r_lp_Energy>
23.9667

> <b_lp_Chiralities_Consistent>
1

> <s_lp_Variant>
AV-unprocessed.smi:2282-3

> <Gold.Version>
5.8.1

> <Gold.Id.Protein>
6NUR|6NUR_protein|mol2

> <Gold.PLP.Fitness>
40.3536

> <Gold.PLP.PLP>
-40.6360

> <Gold.PLP.part.hbond>
-1.0000

> <Gold.PLP.part.metal>
0.0000

> <Gold.PLP.part.buried>
-5.3229

> <Gold.PLP.part.nonpolar>
-33.9744

> <Gold.PLP.part.repulsive>
0.1403

> <Gold.PLP.ligand.clash>
0.0290

> <Gold.PLP.ligand.torsion>
0.1305

> <Gold.PLP.Chemscore.Hbond>
0.0000

> <Gold.PLP.Chemscore.CHOScore>
0.0000

> <Gold.PLP.Chemscore.Metal>
0.0000

> <Gold.PLP.Chemscore.Internal.Correction>
0.0077

> <Gold.Rescore>
     Score         DG    S(hbond)    S(metal)    S(lipo)     H(rot)  DE(clash)    DE(int)     intcor
     13.15     -14.56       0.00        0.00      99.52       1.00       0.09       1.32       ----

> <Gold.Chemscore.Fitness>
13.1510

> <Gold.Chemscore.DG>
-14.5638

> <Gold.Chemscore.ZeroCoef>
-5.4800

> <Gold.Chemscore.Hbond>
0.0000

> <Gold.Chemscore.Metal>
0.0000

> <Gold.Chemscore.Lipo>
99.5195

> <Gold.Chemscore.Internal_Hbond>
0.0000

> <Gold.Chemscore.DEClash>
0.0890

> <Gold.Chemscore.DEInternal>
1.3238

> <Gold.Chemscore.Rot>
1.0000

> <Gold.Chemscore.Internal.Correction>
   9.000000E+99

> <Gold.Chemscore.Hbond.Weighted>
-0.0000

> <Gold.Chemscore.Metal.Weighted>
-0.0000

> <Gold.Chemscore.Lipo.Weighted>
-11.6438

> <Gold.Chemscore.Internal_Hbond.Weighted>
0.0000

> <Gold.Chemscore.DEClash.Weighted>
0.0890

> <Gold.Chemscore.DEInternal.Weighted>
1.3238

> <Gold.Chemscore.Rot.Weighted>
2.5600

> <Gold.Chemscore.Internal.Correction.Weighted>
   9.000000E+99

> <Gold.Protein.RotatedTorsions>
[ 6907 6896 6895 6894 ] final  -84.95 input  -60.11 | X-H torsion
[ 7974 7965 7964 7962 ] final -174.81 input  175.53 | X-H torsion
[ 8008 7997 7996 7995 ] final  162.71 input   59.86 | X-H torsion
[ 10167 10162 10161 10158 ] final  -99.79 input  -65.29 | X-H torsion
[ 10718 10713 10712 10709 ] final  -24.54 input   66.30 | X-H torsion
[ 10763 10752 10751 10750 ] final  -28.78 input  -60.55 | X-H torsion
[ 11005 11000 10999 10996 ] final   42.76 input  -57.11 | X-H torsion

> <Gold.Protein.ActiveResidues>
 VAL166  LYS551  ARG553  GLY616  TRP617  ASP618  TYR619  PRO620  LYS621  CYS622 
 ASP623  PHE694  ASN695  SER759  ASP760  ASP761  ALA762  ILE779  LEU786  VAL792 
 PHE793  MET794  SER795  GLU796  ALA797  LYS798  CYS799  TRP800  GLU811  SER814 

> <Gold.Protein.RotatedAtoms>
  150.6873  134.3280  159.4814 H   0  0  0  0  0  0  0  0  0  0  0  0  # atno 6907 bound_to 6896
  152.1148  134.9246  160.0574 H   0  0  0  0  0  0  0  0  0  0  0  0  # atno 6908 bound_to 6896
  152.0474  133.3969  159.4399 H   0  0  0  0  0  0  0  0  0  0  0  0  # atno 6909 bound_to 6896
  144.7130  140.1415  143.6391 H   0  0  0  0  0  0  0  0  0  0  0  0  # atno 7974 bound_to 7965
  156.2011  140.1743  156.7897 H   0  0  0  0  0  0  0  0  0  0  0  0  # atno 8008 bound_to 7997
  154.5593  140.0702  156.8824 H   0  0  0  0  0  0  0  0  0  0  0  0  # atno 8009 bound_to 7997
  155.2879  140.3353  155.4256 H   0  0  0  0  0  0  0  0  0  0  0  0  # atno 8010 bound_to 7997
  140.2588  143.3422  152.0646 H   0  0  0  0  0  0  0  0  0  0  0  0  # atno 10167 bound_to 10162
  156.4763  130.4535  149.6839 H   0  0  0  0  0  0  0  0  0  0  0  0  # atno 10718 bound_to 10713
  153.7538  135.6924  153.4940 H   0  0  0  0  0  0  0  0  0  0  0  0  # atno 10763 bound_to 10752
  153.1985  135.4445  155.0236 H   0  0  0  0  0  0  0  0  0  0  0  0  # atno 10764 bound_to 10752
  154.8177  135.3407  154.7058 H   0  0  0  0  0  0  0  0  0  0  0  0  # atno 10765 bound_to 10752
  140.1708  134.4224  155.8258 H   0  0  0  0  0  0  0  0  0  0  0  0  # atno 11005 bound_to 11000
  145.9197  139.2538  143.1388 LP  0  0  0  0  0  0  0  0  0  0  0  0  # atno 17320 bound_to 7965
  145.9632  140.8819  143.0200 LP  0  0  0  0  0  0  0  0  0  0  0  0  # atno 17321 bound_to 7965
  139.5023  144.6732  151.6192 LP  0  0  0  0  0  0  0  0  0  0  0  0  # atno 17342 bound_to 10162
  140.5983  143.9657  150.6369 LP  0  0  0  0  0  0  0  0  0  0  0  0  # atno 17343 bound_to 10162
  156.3567  130.7460  151.2427 LP  0  0  0  0  0  0  0  0  0  0  0  0  # atno 17370 bound_to 10713
  157.7487  131.0362  150.4397 LP  0  0  0  0  0  0  0  0  0  0  0  0  # atno 17371 bound_to 10713
  141.2217  133.6955  156.7760 LP  0  0  0  0  0  0  0  0  0  0  0  0  # atno 17394 bound_to 11000
  140.2379  134.8636  157.3544 LP  0  0  0  0  0  0  0  0  0  0  0  0  # atno 17395 bound_to 11000

$$$$
