AV-unprocessed.smi:1|AV-procd|sdf|20|dock10
  -GOLD-   2262015123D 1   1.00000     0.00000
 Structure written by MMmdl.
 56 61  0  0  0  0  0  0  0  0  2 V2000
  150.9099  141.7983  156.0927 O   0  0  0  0  0  0  0  0  0  0  0  0
  151.8520  141.3732  156.7650 C   0  0  0  0  0  0  0  0  0  0  0  0
  152.5703  140.2386  156.5679 N   0  5  0  0  0  0  0  0  0  0  0  0
  152.0258  139.2158  155.8909 C   0  0  0  0  0  0  0  0  0  0  0  0
  152.1748  139.1276  154.5447 N   0  0  0  0  0  0  0  0  0  0  0  0
  151.6376  138.1045  153.8709 C   0  0  0  0  0  0  0  0  0  0  0  0
  150.9233  137.0754  154.3361 N   0  0  0  0  0  0  0  0  0  0  0  0
  150.7541  137.1571  155.6878 C   0  0  0  0  0  0  0  0  0  0  0  0
  151.2666  138.1926  156.5231 C   0  0  0  0  0  0  0  0  0  0  0  0
  150.9108  137.9795  157.8461 N   0  0  0  0  0  0  0  0  0  0  0  0
  150.2182  136.8465  157.7584 C   0  0  0  0  0  0  0  0  0  0  0  0
  150.0845  136.2900  156.5379 N   0  0  0  0  0  0  0  0  0  0  0  0
  149.3533  135.0299  156.2016 C   0  0  1  0  0  0  0  0  0  0  0  0
  150.2362  134.1329  155.5953 O   0  0  0  0  0  0  0  0  0  0  0  0
  150.4042  132.9698  156.4017 C   0  0  2  0  0  0  0  0  0  0  0  0
  150.7005  131.7391  155.5378 C   0  0  0  0  0  0  0  0  0  0  0  0
  149.6206  131.5434  154.6404 O   0  0  0  0  0  0  0  0  0  0  0  0
  149.4327  130.3453  154.0568 C   0  0  0  0  0  0  0  0  0  0  0  0
  150.1947  129.3875  154.2041 O   0  0  0  0  0  0  0  0  0  0  0  0
  148.2045  130.3000  153.2120 C   0  0  0  0  0  0  0  0  0  0  0  0
  147.8537  129.0937  152.5623 C   0  0  0  0  0  0  0  0  0  0  0  0
  146.6985  129.0207  151.7599 C   0  0  0  0  0  0  0  0  0  0  0  0
  145.8799  130.1533  151.5971 C   0  0  0  0  0  0  0  0  0  0  0  0
  146.2182  131.3596  152.2375 C   0  0  0  0  0  0  0  0  0  0  0  0
  147.3730  131.4346  153.0405 C   0  0  0  0  0  0  0  0  0  0  0  0
  149.1092  132.8862  157.2069 C   0  0  2  0  0  0  0  0  0  0  0  0
  148.0609  132.3124  156.4432 O   0  0  0  0  0  0  0  0  0  0  0  0
  146.6748  133.2108  156.6937 S   0  0  0  0  0  0  0  0  0  0  0  0
  146.1921  133.6854  155.3879 O   0  0  0  0  0  0  0  0  0  0  0  0
  145.8165  132.4826  157.6403 O   0  0  0  0  0  0  0  0  0  0  0  0
  147.3634  134.5021  157.5010 O   0  0  0  0  0  0  0  0  0  0  0  0
  148.7718  134.3590  157.4557 C   0  0  2  0  0  0  0  0  0  0  0  0
  152.2602  142.1291  158.0009 C   0  0  0  0  0  0  0  0  0  0  0  0
  152.8073  141.4296  159.1007 C   0  0  0  0  0  0  0  0  0  0  0  0
  153.1699  142.1147  160.2768 C   0  0  0  0  0  0  0  0  0  0  0  0
  152.9798  143.5061  160.3695 C   0  0  0  0  0  0  0  0  0  0  0  0
  152.4235  144.2114  159.2861 C   0  0  0  0  0  0  0  0  0  0  0  0
  152.0611  143.5272  158.1094 C   0  0  0  0  0  0  0  0  0  0  0  0
  151.8075  138.1096  152.8045 H   0  0  0  0  0  0  0  0  0  0  0  0
  149.7857  136.3912  158.6370 H   0  0  0  0  0  0  0  0  0  0  0  0
  148.5936  135.3305  155.4788 H   0  0  0  0  0  0  0  0  0  0  0  0
  151.2293  133.1337  157.0944 H   0  0  0  0  0  0  0  0  0  0  0  0
  151.6137  131.9009  154.9634 H   0  0  0  0  0  0  0  0  0  0  0  0
  150.8514  130.8560  156.1601 H   0  0  0  0  0  0  0  0  0  0  0  0
  148.4667  128.2111  152.6731 H   0  0  0  0  0  0  0  0  0  0  0  0
  146.4409  128.0940  151.2688 H   0  0  0  0  0  0  0  0  0  0  0  0
  144.9940  130.0969  150.9819 H   0  0  0  0  0  0  0  0  0  0  0  0
  145.5909  132.2301  152.1143 H   0  0  0  0  0  0  0  0  0  0  0  0
  147.6026  132.3756  153.5186 H   0  0  0  0  0  0  0  0  0  0  0  0
  149.2275  132.3221  158.1326 H   0  0  0  0  0  0  0  0  0  0  0  0
  149.2493  134.7307  158.3628 H   0  0  0  0  0  0  0  0  0  0  0  0
  152.9573  140.3610  159.0464 H   0  0  0  0  0  0  0  0  0  0  0  0
  153.5926  141.5709  161.1086 H   0  0  0  0  0  0  0  0  0  0  0  0
  153.2566  144.0312  161.2715 H   0  0  0  0  0  0  0  0  0  0  0  0
  152.2703  145.2781  159.3578 H   0  0  0  0  0  0  0  0  0  0  0  0
  151.6251  144.0855  157.2934 H   0  0  0  0  0  0  0  0  0  0  0  0
  1  2  2  0  0  0  0
  2  3  1  0  0  0  0
  2 33  1  0  0  0  0
  3  4  1  0  0  0  0
  4  9  1  0  0  0  0
  4  5  2  0  0  0  0
  5  6  1  0  0  0  0
  6  7  2  0  0  0  0
  6 39  1  0  0  0  0
  7  8  1  0  0  0  0
  8 12  1  0  0  0  0
  8  9  2  0  0  0  0
  9 10  1  0  0  0  0
 10 11  2  0  0  0  0
 11 12  1  0  0  0  0
 11 40  1  0  0  0  0
 12 13  1  0  0  0  0
 13 32  1  0  0  0  0
 13 14  1  0  0  0  0
 13 41  1  0  0  0  0
 14 15  1  0  0  0  0
 15 16  1  0  0  0  0
 15 26  1  0  0  0  0
 15 42  1  0  0  0  0
 16 17  1  0  0  0  0
 16 43  1  0  0  0  0
 16 44  1  0  0  0  0
 17 18  1  0  0  0  0
 18 19  2  0  0  0  0
 18 20  1  0  0  0  0
 20 25  1  0  0  0  0
 20 21  2  0  0  0  0
 21 22  1  0  0  0  0
 21 45  1  0  0  0  0
 22 23  2  0  0  0  0
 22 46  1  0  0  0  0
 23 24  1  0  0  0  0
 23 47  1  0  0  0  0
 24 25  2  0  0  0  0
 24 48  1  0  0  0  0
 25 49  1  0  0  0  0
 26 32  1  0  0  0  0
 26 27  1  0  0  0  0
 26 50  1  0  0  0  0
 27 28  1  0  0  0  0
 28 29  2  0  0  0  0
 28 30  2  0  0  0  0
 28 31  1  0  0  0  0
 31 32  1  0  0  0  0
 32 51  1  0  0  0  0
 33 38  1  0  0  0  0
 33 34  2  0  0  0  0
 34 35  1  0  0  0  0
 34 52  1  0  0  0  0
 35 36  2  0  0  0  0
 35 53  1  0  0  0  0
 36 37  1  0  0  0  0
 36 54  1  0  0  0  0
 37 38  2  0  0  0  0
 37 55  1  0  0  0  0
 38 56  1  0  0  0  0
M  CHG  1   3  -1
M  END
> <s_m_source_file>
AV-unprocessed.smi

> <i_m_source_file_index>
1

> <i_lp_mmshare_version>
43012

> <i_f3d_flags>
0

> <s_epik_input>
W2NIXTFbY0hdW2NIXVtjSF1bY0hdYzFDKD1PKVtOSF1jKG5bY0hdbjIpYyhjMjMpbltjSF1uM1tDQEBIXShbQ0BIXShbQ0BIXTQ1KU9TKE81KSg9Tyk9TylPW0NASF00W0NIMl1PQyg9TyljNltjSF1bY0hdW2NIXVtjSF1bY0hdNg==

> <s_epik_cmdline>
J2VwaWtfcHl0aG9uJywgJy1waCcsICc3LjAnLCAnLXRuJywgJzgnLCAnLW1hJywgJzIwMCcsICctbWV0YWxfYmluZGluZycsICctaW1hZScsICc8aW5maWxlLm1hZT4nLCAnLW9tYWUnLCAnPG91dGZpbGUubWFlPic=

> <r_lp_tautomer_probability>
1

> <r_epik_Ionization_Penalty>
4.39121

> <r_epik_Ionization_Penalty_Charging>
3.39398

> <r_epik_Ionization_Penalty_Neutral>
0.997232

> <r_epik_State_Penalty>
3.39839

> <r_epik_Charging_Adjusted_Penalty>
6.79237

> <i_epik_Tot_Q>
-1

> <i_epik_Tot_abs_Q>
1

> <r_epik_Metal_State_Penalty>
0.497663

> <b_epik_Metal_Only>
1

> <s_epik_Chemistry_Notes>
This compound has an ester and may undergo hydrolysis at high or low pH. This compound contains an acetal/aminal-like group ( X-CH(R)-Y where X, Y are N, S, or O) that may be acid/base labile, releasing an aldehyde.

> <s_lp_Force_Field>
OPLS_2005

> <r_lp_Energy>
42.8802

> <b_lp_Chiralities_Consistent>
1

> <s_lp_Variant>
AV-unprocessed.smi:1-20

> <Gold.Version>
5.8.1

> <Gold.Id.Protein>
6NUR|6NUR_protein|mol2

> <Gold.PLP.Fitness>
59.5745

> <Gold.PLP.PLP>
-51.2658

> <Gold.PLP.part.hbond>
-1.9482

> <Gold.PLP.part.metal>
0.0000

> <Gold.PLP.part.buried>
-8.2125

> <Gold.PLP.part.nonpolar>
-40.4605

> <Gold.PLP.part.repulsive>
0.6203

> <Gold.PLP.ligand.clash>
0.0000

> <Gold.PLP.ligand.torsion>
1.3437

> <Gold.PLP.Chemscore.Hbond>
2.7137

> <Gold.PLP.Chemscore.CHOScore>
0.7398

> <Gold.PLP.Chemscore.Metal>
0.0000

> <Gold.Chemscore.Hbonds>
donor molecule, donor type, donor heavy atom, donor atom, acceptor molecule, acceptor atom, score
      P1  H  7989  7998       L1     5  0.70
      P1  H  7997  8009       L1     3  2.00
      L1  C     6    39       P1  7949  0.70

> <Gold.PLP.Chemscore.Internal.Correction>
0.6358

> <Gold.Rescore>
     Score         DG    S(hbond)    S(metal)    S(lipo)     H(rot)  DE(clash)    DE(int)     intcor
     16.82     -20.34       1.44        0.00     132.18       2.11       0.54       2.98       ----

> <Gold.Chemscore.Fitness>
16.8218

> <Gold.Chemscore.DG>
-20.3445

> <Gold.Chemscore.ZeroCoef>
-5.4800

> <Gold.Chemscore.Hbond>
1.4401

> <Gold.Chemscore.Metal>
0.0000

> <Gold.Chemscore.Lipo>
132.1837

> <Gold.Chemscore.Internal_Hbond>
0.0000

> <Gold.Chemscore.DEClash>
0.5377

> <Gold.Chemscore.DEInternal>
2.9850

> <Gold.Chemscore.Rot>
2.1136

> <Gold.Chemscore.Internal.Correction>
   9.000000E+99

> <Gold.Chemscore.Hbonds>
donor molecule, donor type, donor heavy atom, donor atom, acceptor molecule, acceptor atom, score
      P1  H  7989  7998       L1     5  0.34
      P1  H  7997  8009       L1     3  0.68

> <Gold.Chemscore.Hbond.Weighted>
-4.8098

> <Gold.Chemscore.Metal.Weighted>
-0.0000

> <Gold.Chemscore.Lipo.Weighted>
-15.4655

> <Gold.Chemscore.Internal_Hbond.Weighted>
0.0000

> <Gold.Chemscore.DEClash.Weighted>
0.5377

> <Gold.Chemscore.DEInternal.Weighted>
2.9850

> <Gold.Chemscore.Rot.Weighted>
5.4107

> <Gold.Chemscore.Internal.Correction.Weighted>
   9.000000E+99

> <Gold.Protein.RotatedTorsions>
[ 6907 6896 6895 6894 ] final  120.90 input  -60.11 | X-H torsion
[ 7974 7965 7964 7962 ] final  -47.32 input  175.53 | X-H torsion
[ 8008 7997 7996 7995 ] final -170.17 input   59.86 | X-H torsion
[ 10167 10162 10161 10158 ] final  168.78 input  -65.29 | X-H torsion
[ 10718 10713 10712 10709 ] final   51.32 input   66.30 | X-H torsion
[ 10763 10752 10751 10750 ] final  118.99 input  -60.55 | X-H torsion
[ 11005 11000 10999 10996 ] final  -92.68 input  -57.11 | X-H torsion

> <Gold.Protein.ActiveResidues>
 VAL166  LYS551  ARG553  GLY616  TRP617  ASP618  TYR619  PRO620  LYS621  CYS622 
 ASP623  PHE694  ASN695  SER759  ASP760  ASP761  ALA762  ILE779  LEU786  VAL792 
 PHE793  MET794  SER795  GLU796  ALA797  LYS798  CYS799  TRP800  GLU811  SER814 

> <Gold.Protein.RotatedAtoms>
  152.4363  133.7366  159.6616 H   0  0  0  0  0  0  0  0  0  0  0  0  # atno 6907 bound_to 6896
  150.8247  133.8182  159.3130 H   0  0  0  0  0  0  0  0  0  0  0  0  # atno 6908 bound_to 6896
  151.5854  135.1058  160.0078 H   0  0  0  0  0  0  0  0  0  0  0  0  # atno 6909 bound_to 6896
  145.9628  140.7462  142.9449 H   0  0  0  0  0  0  0  0  0  0  0  0  # atno 7974 bound_to 7965
  155.9148  140.1064  157.1252 H   0  0  0  0  0  0  0  0  0  0  0  0  # atno 8008 bound_to 7997
  154.4045  140.1267  156.4668 H   0  0  0  0  0  0  0  0  0  0  0  0  # atno 8009 bound_to 7997
  155.7267  140.3469  155.5043 H   0  0  0  0  0  0  0  0  0  0  0  0  # atno 8010 bound_to 7997
  139.4976  144.3777  151.9656 H   0  0  0  0  0  0  0  0  0  0  0  0  # atno 10167 bound_to 10162
  157.4969  130.8412  149.8269 H   0  0  0  0  0  0  0  0  0  0  0  0  # atno 10718 bound_to 10713
  153.5761  135.3493  155.2857 H   0  0  0  0  0  0  0  0  0  0  0  0  # atno 10763 bound_to 10752
  154.8675  135.4171  154.2672 H   0  0  0  0  0  0  0  0  0  0  0  0  # atno 10764 bound_to 10752
  153.3448  135.7052  153.6907 H   0  0  0  0  0  0  0  0  0  0  0  0  # atno 10765 bound_to 10752
  141.1516  133.7837  157.0054 H   0  0  0  0  0  0  0  0  0  0  0  0  # atno 11005 bound_to 11000
  144.6819  140.2619  143.7318 LP  0  0  0  0  0  0  0  0  0  0  0  0  # atno 17320 bound_to 7965
  145.8016  139.1966  143.2045 LP  0  0  0  0  0  0  0  0  0  0  0  0  # atno 17321 bound_to 7965
  140.3213  144.3424  150.6009 LP  0  0  0  0  0  0  0  0  0  0  0  0  # atno 17342 bound_to 10162
  140.5720  143.2180  151.7582 LP  0  0  0  0  0  0  0  0  0  0  0  0  # atno 17343 bound_to 10162
  156.0206  130.3797  150.1974 LP  0  0  0  0  0  0  0  0  0  0  0  0  # atno 17370 bound_to 10713
  157.0164  130.9966  151.3352 LP  0  0  0  0  0  0  0  0  0  0  0  0  # atno 17371 bound_to 10713
  140.0912  134.9591  157.1779 LP  0  0  0  0  0  0  0  0  0  0  0  0  # atno 17394 bound_to 11000
  140.3443  134.2669  155.7207 LP  0  0  0  0  0  0  0  0  0  0  0  0  # atno 17395 bound_to 11000

$$$$
