AV-unprocessed.smi:1424|AV-procd|sdf|5802|dock6
  -GOLD-   22720 5453D 1   1.00000     0.00000
 Structure written by MMmdl.
 46 48  0  0  0  0  0  0  0  0  2 V2000
  153.7664  139.0216  158.1592 O   0  0  0  0  0  0  0  0  0  0  0  0
  153.1746  139.5650  159.0918 C   0  0  0  0  0  0  0  0  0  0  0  0
  153.5049  139.3943  160.3795 N   0  0  0  0  0  0  0  0  0  0  0  0
  154.5901  138.5439  160.8576 C   0  0  0  0  0  0  0  0  0  0  0  0
  154.5956  138.4204  162.3939 C   0  0  1  0  0  0  0  0  0  0  0  0
  153.8171  137.1858  162.8873 C   0  0  0  0  0  0  0  0  0  0  0  0
  154.1028  136.9943  164.3797 C   0  0  0  0  0  0  0  0  0  0  0  0
  155.8413  137.5172  164.6179 S   0  0  0  0  0  0  0  0  0  0  0  0
  155.9000  138.5134  165.6980 O   0  0  0  0  0  0  0  0  0  0  0  0
  156.7122  136.3321  164.6314 O   0  0  0  0  0  0  0  0  0  0  0  0
  156.0099  138.3586  162.9975 C   0  0  0  0  0  0  0  0  0  0  0  0
  152.1119  140.3770  158.9641 N   0  0  0  0  0  0  0  0  0  0  0  0
  151.4502  140.7736  157.7671 C   0  0  0  0  0  0  0  0  0  0  0  0
  151.2367  139.8544  156.7076 C   0  0  0  0  0  0  0  0  0  0  0  0
  150.5623  140.2668  155.5430 C   0  0  0  0  0  0  0  0  0  0  0  0
  150.1145  141.5953  155.4516 C   0  0  0  0  0  0  0  0  0  0  0  0
  150.3507  142.4515  156.4670 N   0  3  0  0  0  0  0  0  0  0  0  0
  151.0067  142.1193  157.6072 C   0  0  0  0  0  0  0  0  0  0  0  0
  151.1890  143.1301  158.5789 N   0  0  0  0  0  0  0  0  0  0  0  0
  150.0805  143.9979  158.9599 C   0  0  0  0  0  0  0  0  0  0  0  0
  150.7237  145.1433  159.7371 C   0  0  0  0  0  0  0  0  0  0  0  0
  152.0576  145.3192  159.0180 C   0  0  0  0  0  0  0  0  0  0  0  0
  152.4314  143.8958  158.5910 C   0  0  0  0  0  0  0  0  0  0  0  0
  152.9641  139.8774  161.0818 H   0  0  0  0  0  0  0  0  0  0  0  0
  154.5184  137.5567  160.3975 H   0  0  0  0  0  0  0  0  0  0  0  0
  155.5314  138.9738  160.5141 H   0  0  0  0  0  0  0  0  0  0  0  0
  154.0988  139.2951  162.8164 H   0  0  0  0  0  0  0  0  0  0  0  0
  152.7477  137.2791  162.6963 H   0  0  0  0  0  0  0  0  0  0  0  0
  154.1615  136.3031  162.3467 H   0  0  0  0  0  0  0  0  0  0  0  0
  153.4689  137.6462  164.9814 H   0  0  0  0  0  0  0  0  0  0  0  0
  153.9666  135.9661  164.7145 H   0  0  0  0  0  0  0  0  0  0  0  0
  156.6765  137.7565  162.3795 H   0  0  0  0  0  0  0  0  0  0  0  0
  156.4568  139.3435  163.1330 H   0  0  0  0  0  0  0  0  0  0  0  0
  151.6672  140.6635  159.8238 H   0  0  0  0  0  0  0  0  0  0  0  0
  151.5864  138.8347  156.7673 H   0  0  0  0  0  0  0  0  0  0  0  0
  150.3911  139.5722  154.7335 H   0  0  0  0  0  0  0  0  0  0  0  0
  149.5859  141.9997  154.6004 H   0  0  0  0  0  0  0  0  0  0  0  0
  149.5829  144.3920  158.0726 H   0  0  0  0  0  0  0  0  0  0  0  0
  149.3435  143.4644  159.5610 H   0  0  0  0  0  0  0  0  0  0  0  0
  150.1165  146.0488  159.7404 H   0  0  0  0  0  0  0  0  0  0  0  0
  150.8949  144.8438  160.7722 H   0  0  0  0  0  0  0  0  0  0  0  0
  151.9167  145.9429  158.1342 H   0  0  0  0  0  0  0  0  0  0  0  0
  152.8192  145.7884  159.6415 H   0  0  0  0  0  0  0  0  0  0  0  0
  153.1082  143.4543  159.3231 H   0  0  0  0  0  0  0  0  0  0  0  0
  152.9283  143.8908  157.6200 H   0  0  0  0  0  0  0  0  0  0  0  0
  150.0216  143.4117  156.3661 H   0  0  0  0  0  0  0  0  0  0  0  0
  1  2  2  0  0  0  0
  2  3  1  0  0  0  0
  2 12  1  0  0  0  0
  3  4  1  0  0  0  0
  3 24  1  0  0  0  0
  4  5  1  0  0  0  0
  4 25  1  0  0  0  0
  4 26  1  0  0  0  0
  5 11  1  0  0  0  0
  5  6  1  0  0  0  0
  5 27  1  0  0  0  0
  6  7  1  0  0  0  0
  6 28  1  0  0  0  0
  6 29  1  0  0  0  0
  7  8  1  0  0  0  0
  7 30  1  0  0  0  0
  7 31  1  0  0  0  0
  8  9  2  0  0  0  0
  8 10  2  0  0  0  0
  8 11  1  0  0  0  0
 11 32  1  0  0  0  0
 11 33  1  0  0  0  0
 12 13  1  0  0  0  0
 12 34  1  0  0  0  0
 13 18  1  0  0  0  0
 13 14  2  0  0  0  0
 14 15  1  0  0  0  0
 14 35  1  0  0  0  0
 15 16  2  0  0  0  0
 15 36  1  0  0  0  0
 16 17  1  0  0  0  0
 16 37  1  0  0  0  0
 17 18  2  0  0  0  0
 17 46  1  0  0  0  0
 18 19  1  0  0  0  0
 19 23  1  0  0  0  0
 19 20  1  0  0  0  0
 20 21  1  0  0  0  0
 20 38  1  0  0  0  0
 20 39  1  0  0  0  0
 21 22  1  0  0  0  0
 21 40  1  0  0  0  0
 21 41  1  0  0  0  0
 22 23  1  0  0  0  0
 22 42  1  0  0  0  0
 22 43  1  0  0  0  0
 23 44  1  0  0  0  0
 23 45  1  0  0  0  0
M  CHG  1  17   1
M  END
> <s_m_source_file>
AV-unprocessed.smi

> <i_m_source_file_index>
1424

> <i_lp_mmshare_version>
43012

> <i_f3d_flags>
0

> <s_epik_input>
Tz1TMSg9TylbQ0gyXVtDSDJdW0NASF0oW0NIMl0xKVtDSDJdW05IXUMoPU8pW05IXWMyW2NIXVtjSF1bY0hdbmMyTjNbQ0gyXVtDSDJdW0NIMl1bQ0gyXTM=

> <s_epik_cmdline>
J2VwaWtfcHl0aG9uJywgJy1waCcsICc3LjAnLCAnLXRuJywgJzgnLCAnLW1hJywgJzIwMCcsICctbWV0YWxfYmluZGluZycsICctaW1hZScsICc8aW5maWxlLm1hZT4nLCAnLW9tYWUnLCAnPG91dGZpbGUubWFlPic=

> <r_lp_tautomer_probability>
0.999994

> <r_epik_Ionization_Penalty>
1.12573

> <r_epik_Ionization_Penalty_Charging>
1.12571

> <r_epik_Ionization_Penalty_Neutral>
1.92863e-05

> <r_epik_State_Penalty>
1.18495

> <r_epik_Charging_Adjusted_Penalty>
2.31065

> <i_epik_Tot_Q>
1

> <i_epik_Tot_abs_Q>
1

> <r_epik_Metal_State_Penalty>
1.26881

> <b_epik_Metal_Only>
0

> <s_lp_Force_Field>
OPLS_2005

> <r_lp_Energy>
39.7192

> <b_lp_Chiralities_Consistent>
1

> <s_lp_Variant>
AV-unprocessed.smi:1424-4

> <Gold.Version>
5.8.1

> <Gold.Id.Protein>
6NUR|6NUR_protein|mol2

> <Gold.PLP.Fitness>
50.1867

> <Gold.PLP.PLP>
-43.4172

> <Gold.PLP.part.hbond>
-2.0000

> <Gold.PLP.part.metal>
0.0000

> <Gold.PLP.part.buried>
-6.1913

> <Gold.PLP.part.nonpolar>
-35.2802

> <Gold.PLP.part.repulsive>
0.4819

> <Gold.PLP.ligand.clash>
0.0000

> <Gold.PLP.ligand.torsion>
1.3176

> <Gold.PLP.Chemscore.Hbond>
3.0000

> <Gold.PLP.Chemscore.CHOScore>
0.0000

> <Gold.PLP.Chemscore.Metal>
0.0000

> <Gold.Chemscore.Hbonds>
donor molecule, donor type, donor heavy atom, donor atom, acceptor molecule, acceptor atom, score
      L1  H    17    46       P1  8028  2.00
      P1  H  7997  8009       L1     1  1.00

> <Gold.PLP.Chemscore.Internal.Correction>
0.4046

> <Gold.Rescore>
     Score         DG    S(hbond)    S(metal)    S(lipo)     H(rot)  DE(clash)    DE(int)     intcor
     18.14     -20.11       1.85        0.00     104.95       1.50       0.01       1.95       ----

> <Gold.Chemscore.Fitness>
18.1438

> <Gold.Chemscore.DG>
-20.1093

> <Gold.Chemscore.ZeroCoef>
-5.4800

> <Gold.Chemscore.Hbond>
1.8505

> <Gold.Chemscore.Metal>
0.0000

> <Gold.Chemscore.Lipo>
104.9483

> <Gold.Chemscore.Internal_Hbond>
0.0000

> <Gold.Chemscore.DEClash>
0.0149

> <Gold.Chemscore.DEInternal>
1.9507

> <Gold.Chemscore.Rot>
1.4962

> <Gold.Chemscore.Internal.Correction>
   9.000000E+99

> <Gold.Chemscore.Hbonds>
donor molecule, donor type, donor heavy atom, donor atom, acceptor molecule, acceptor atom, score
      L1  H    17    46       P1  8028  0.98
      P1  H  7997  8009       L1     1  0.96

> <Gold.Chemscore.Hbond.Weighted>
-6.1807

> <Gold.Chemscore.Metal.Weighted>
-0.0000

> <Gold.Chemscore.Lipo.Weighted>
-12.2789

> <Gold.Chemscore.Internal_Hbond.Weighted>
0.0000

> <Gold.Chemscore.DEClash.Weighted>
0.0149

> <Gold.Chemscore.DEInternal.Weighted>
1.9507

> <Gold.Chemscore.Rot.Weighted>
3.8303

> <Gold.Chemscore.Internal.Correction.Weighted>
   9.000000E+99

> <Gold.Protein.RotatedTorsions>
[ 6907 6896 6895 6894 ] final  126.02 input  -60.11 | X-H torsion
[ 7974 7965 7964 7962 ] final   -0.03 input  175.53 | X-H torsion
[ 8008 7997 7996 7995 ] final  143.49 input   59.86 | X-H torsion
[ 10167 10162 10161 10158 ] final  -91.40 input  -65.29 | X-H torsion
[ 10718 10713 10712 10709 ] final  179.33 input   66.30 | X-H torsion
[ 10763 10752 10751 10750 ] final  -46.42 input  -60.55 | X-H torsion
[ 11005 11000 10999 10996 ] final   89.60 input  -57.11 | X-H torsion

> <Gold.Protein.ActiveResidues>
 VAL166  LYS551  ARG553  GLY616  TRP617  ASP618  TYR619  PRO620  LYS621  CYS622 
 ASP623  PHE694  ASN695  SER759  ASP760  ASP761  ALA762  ILE779  LEU786  VAL792 
 PHE793  MET794  SER795  GLU796  ALA797  LYS798  CYS799  TRP800  GLU811  SER814 

> <Gold.Protein.RotatedAtoms>
  152.3940  133.6720  159.6260 H   0  0  0  0  0  0  0  0  0  0  0  0  # atno 6907 bound_to 6896
  150.7843  133.8906  159.3321 H   0  0  0  0  0  0  0  0  0  0  0  0  # atno 6908 bound_to 6896
  151.6686  135.0981  160.0245 H   0  0  0  0  0  0  0  0  0  0  0  0  # atno 6909 bound_to 6896
  146.2431  140.1208  142.8340 H   0  0  0  0  0  0  0  0  0  0  0  0  # atno 7974 bound_to 7965
  156.2929  140.2261  156.4899 H   0  0  0  0  0  0  0  0  0  0  0  0  # atno 8008 bound_to 7997
  154.7780  140.0462  157.1125 H   0  0  0  0  0  0  0  0  0  0  0  0  # atno 8009 bound_to 7997
  154.9793  140.3076  155.4956 H   0  0  0  0  0  0  0  0  0  0  0  0  # atno 8010 bound_to 7997
  140.3453  143.2920  151.9789 H   0  0  0  0  0  0  0  0  0  0  0  0  # atno 10167 bound_to 10162
  156.8773  130.9804  151.3066 H   0  0  0  0  0  0  0  0  0  0  0  0  # atno 10718 bound_to 10713
  154.0446  135.6639  153.4793 H   0  0  0  0  0  0  0  0  0  0  0  0  # atno 10763 bound_to 10752
  153.0488  135.5098  154.7809 H   0  0  0  0  0  0  0  0  0  0  0  0  # atno 10764 bound_to 10752
  154.6796  135.3043  154.9597 H   0  0  0  0  0  0  0  0  0  0  0  0  # atno 10765 bound_to 10752
  139.8872  134.8562  156.3165 H   0  0  0  0  0  0  0  0  0  0  0  0  # atno 11005 bound_to 11000
  145.0408  140.8943  143.5054 LP  0  0  0  0  0  0  0  0  0  0  0  0  # atno 17320 bound_to 7965
  145.1288  139.2645  143.5550 LP  0  0  0  0  0  0  0  0  0  0  0  0  # atno 17321 bound_to 7965
  139.4834  144.6122  151.7412 LP  0  0  0  0  0  0  0  0  0  0  0  0  # atno 17342 bound_to 10162
  140.5271  144.0789  150.6041 LP  0  0  0  0  0  0  0  0  0  0  0  0  # atno 17343 bound_to 10162
  157.6161  130.8619  149.9030 LP  0  0  0  0  0  0  0  0  0  0  0  0  # atno 17370 bound_to 10713
  156.0695  130.3687  150.0806 LP  0  0  0  0  0  0  0  0  0  0  0  0  # atno 17371 bound_to 10713
  140.9815  133.7264  156.0679 LP  0  0  0  0  0  0  0  0  0  0  0  0  # atno 17394 bound_to 11000
  140.7743  134.3797  157.5501 LP  0  0  0  0  0  0  0  0  0  0  0  0  # atno 17395 bound_to 11000

$$$$
