AV-unprocessed.smi:583|AV-procd|sdf|2998|dock6
  -GOLD-   2262023503D 1   1.00000     0.00000
 Structure written by MMmdl.
 35 36  0  0  0  0  0  0  0  0  1 V2000
  148.0811  139.9611  155.9143 O   0  0  0  0  0  0  0  0  0  0  0  0
  148.5301  141.0728  155.6316 C   0  0  0  0  0  0  0  0  0  0  0  0
  150.0142  141.2610  155.2849 C   0  0  0  0  0  0  0  0  0  0  0  0
  150.8903  141.3184  156.4675 N   0  0  0  0  0  0  0  0  0  0  0  0
  150.9282  142.5334  157.1798 C   0  0  0  0  0  0  0  0  0  0  0  0
  151.6757  142.7116  158.2861 C   0  0  0  0  0  0  0  0  0  0  0  0
  151.7372  144.0513  159.0033 C   0  0  0  0  0  0  0  0  0  0  0  0
  152.4539  143.9634  160.1240 F   0  0  0  0  0  0  0  0  0  0  0  0
  152.2854  144.9879  158.2278 F   0  0  0  0  0  0  0  0  0  0  0  0
  150.5073  144.4485  159.3269 F   0  0  0  0  0  0  0  0  0  0  0  0
  152.4854  141.5847  158.7059 C   0  0  0  0  0  0  0  0  0  0  0  0
  152.4656  140.4177  158.0327 C   0  0  0  0  0  0  0  0  0  0  0  0
  151.6294  140.2322  156.8447 C   0  0  0  0  0  0  0  0  0  0  0  0
  151.5959  139.1678  156.2262 O   0  0  0  0  0  0  0  0  0  0  0  0
  147.7805  142.1854  155.6215 N   0  0  0  0  0  0  0  0  0  0  0  0
  146.3523  142.2374  155.9181 C   0  0  1  0  0  0  0  0  0  0  0  0
  146.0546  142.9984  157.2267 C   0  0  0  0  0  0  0  0  0  0  0  0
  144.5587  143.3336  157.2721 C   0  0  0  0  0  0  0  0  0  0  0  0
  144.0282  143.5378  155.5294 S   0  0  0  0  0  0  0  0  0  0  0  0
  142.9478  142.5814  155.2455 O   0  0  0  0  0  0  0  0  0  0  0  0
  143.8727  144.9683  155.2247 O   0  0  0  0  0  0  0  0  0  0  0  0
  145.5886  142.9332  154.7831 C   0  0  0  0  0  0  0  0  0  0  0  0
  150.3340  140.4556  154.6210 H   0  0  0  0  0  0  0  0  0  0  0  0
  150.1111  142.1718  154.6925 H   0  0  0  0  0  0  0  0  0  0  0  0
  150.3052  143.3150  156.7698 H   0  0  0  0  0  0  0  0  0  0  0  0
  153.1153  141.6754  159.5786 H   0  0  0  0  0  0  0  0  0  0  0  0
  153.0793  139.5980  158.3761 H   0  0  0  0  0  0  0  0  0  0  0  0
  148.2305  143.0577  155.3846 H   0  0  0  0  0  0  0  0  0  0  0  0
  145.9625  141.2218  156.0120 H   0  0  0  0  0  0  0  0  0  0  0  0
  146.3615  142.4325  158.1068 H   0  0  0  0  0  0  0  0  0  0  0  0
  146.6207  143.9308  157.2353 H   0  0  0  0  0  0  0  0  0  0  0  0
  143.9902  142.5077  157.7007 H   0  0  0  0  0  0  0  0  0  0  0  0
  144.3427  144.2377  157.8417 H   0  0  0  0  0  0  0  0  0  0  0  0
  146.1343  143.8009  154.4109 H   0  0  0  0  0  0  0  0  0  0  0  0
  145.3727  142.2710  153.9444 H   0  0  0  0  0  0  0  0  0  0  0  0
  1  2  2  0  0  0  0
  2  3  1  0  0  0  0
  2 15  1  0  0  0  0
  3  4  1  0  0  0  0
  3 23  1  0  0  0  0
  3 24  1  0  0  0  0
  4 13  1  0  0  0  0
  4  5  1  0  0  0  0
  5  6  2  0  0  0  0
  5 25  1  0  0  0  0
  6  7  1  0  0  0  0
  6 11  1  0  0  0  0
  7  8  1  0  0  0  0
  7  9  1  0  0  0  0
  7 10  1  0  0  0  0
 11 12  2  0  0  0  0
 11 26  1  0  0  0  0
 12 13  1  0  0  0  0
 12 27  1  0  0  0  0
 13 14  2  0  0  0  0
 15 16  1  0  0  0  0
 15 28  1  0  0  0  0
 16 22  1  0  0  0  0
 16 17  1  0  0  0  0
 16 29  1  0  0  0  0
 17 18  1  0  0  0  0
 17 30  1  0  0  0  0
 17 31  1  0  0  0  0
 18 19  1  0  0  0  0
 18 32  1  0  0  0  0
 18 33  1  0  0  0  0
 19 20  2  0  0  0  0
 19 21  2  0  0  0  0
 19 22  1  0  0  0  0
 22 34  1  0  0  0  0
 22 35  1  0  0  0  0
M  END
> <s_m_source_file>
AV-unprocessed.smi

> <i_m_source_file_index>
583

> <i_lp_mmshare_version>
43012

> <i_f3d_flags>
0

> <s_epik_input>
Tz1TMSg9TylbQ0gyXVtDSDJdW0NASF0oW0NIMl0xKVtOSF1DKD1PKVtDSDJdbjJbY0hdYyhDKEYpKEYpRilbY0hdW2NIXWMyPU8=

> <s_epik_cmdline>
J2VwaWtfcHl0aG9uJywgJy1waCcsICc3LjAnLCAnLXRuJywgJzgnLCAnLW1hJywgJzIwMCcsICctbWV0YWxfYmluZGluZycsICctaW1hZScsICc8aW5maWxlLm1hZT4nLCAnLW9tYWUnLCAnPG91dGZpbGUubWFlPic=

> <r_lp_tautomer_probability>
1

> <r_epik_Ionization_Penalty>
1.22016e-07

> <r_epik_Ionization_Penalty_Charging>
1.48237e-08

> <r_epik_Ionization_Penalty_Neutral>
1.07193e-07

> <r_epik_State_Penalty>
-0

> <r_epik_Charging_Adjusted_Penalty>
1.48237e-08

> <i_epik_Tot_Q>
0

> <i_epik_Tot_abs_Q>
0

> <r_epik_Metal_State_Penalty>
-0

> <b_epik_Metal_Only>
0

> <s_lp_Force_Field>
OPLS_2005

> <r_lp_Energy>
16.0517

> <b_lp_Chiralities_Consistent>
1

> <s_lp_Variant>
AV-unprocessed.smi:583-2

> <Gold.Version>
5.8.1

> <Gold.Id.Protein>
6NUR|6NUR_protein|mol2

> <Gold.PLP.Fitness>
44.8080

> <Gold.PLP.PLP>
-40.2143

> <Gold.PLP.part.hbond>
-1.0000

> <Gold.PLP.part.metal>
0.0000

> <Gold.PLP.part.buried>
-4.3864

> <Gold.PLP.part.nonpolar>
-34.4091

> <Gold.PLP.part.repulsive>
0.3235

> <Gold.PLP.ligand.clash>
0.0000

> <Gold.PLP.ligand.torsion>
0.7258

> <Gold.PLP.Chemscore.Hbond>
1.0000

> <Gold.PLP.Chemscore.CHOScore>
1.0000

> <Gold.PLP.Chemscore.Metal>
0.0000

> <Gold.Chemscore.Hbonds>
donor molecule, donor type, donor heavy atom, donor atom, acceptor molecule, acceptor atom, score
      L1  H    15    28       P1  8028  1.00
      L1  C     5    25       P1  8028  1.00

> <Gold.PLP.Chemscore.Internal.Correction>
0.0453

> <Gold.Rescore>
     Score         DG    S(hbond)    S(metal)    S(lipo)     H(rot)  DE(clash)    DE(int)     intcor
     11.46     -12.01       0.96        0.00      66.36       1.73       0.03       0.53       ----

> <Gold.Chemscore.Fitness>
11.4576

> <Gold.Chemscore.DG>
-12.0124

> <Gold.Chemscore.ZeroCoef>
-5.4800

> <Gold.Chemscore.Hbond>
0.9583

> <Gold.Chemscore.Metal>
0.0000

> <Gold.Chemscore.Lipo>
66.3597

> <Gold.Chemscore.Internal_Hbond>
0.0000

> <Gold.Chemscore.DEClash>
0.0253

> <Gold.Chemscore.DEInternal>
0.5295

> <Gold.Chemscore.Rot>
1.7314

> <Gold.Chemscore.Internal.Correction>
   9.000000E+99

> <Gold.Chemscore.Hbonds>
donor molecule, donor type, donor heavy atom, donor atom, acceptor molecule, acceptor atom, score
      L1  H    15    28       P1  8028  0.95

> <Gold.Chemscore.Hbond.Weighted>
-3.2007

> <Gold.Chemscore.Metal.Weighted>
-0.0000

> <Gold.Chemscore.Lipo.Weighted>
-7.7641

> <Gold.Chemscore.Internal_Hbond.Weighted>
0.0000

> <Gold.Chemscore.DEClash.Weighted>
0.0253

> <Gold.Chemscore.DEInternal.Weighted>
0.5295

> <Gold.Chemscore.Rot.Weighted>
4.4324

> <Gold.Chemscore.Internal.Correction.Weighted>
   9.000000E+99

> <Gold.Protein.RotatedTorsions>
[ 6907 6896 6895 6894 ] final  -51.03 input  -60.11 | X-H torsion
[ 7974 7965 7964 7962 ] final  136.03 input  175.53 | X-H torsion
[ 8008 7997 7996 7995 ] final  -78.77 input   59.86 | X-H torsion
[ 10167 10162 10161 10158 ] final -110.47 input  -65.29 | X-H torsion
[ 10718 10713 10712 10709 ] final   40.97 input   66.30 | X-H torsion
[ 10763 10752 10751 10750 ] final  172.77 input  -60.55 | X-H torsion
[ 11005 11000 10999 10996 ] final  137.17 input  -57.11 | X-H torsion

> <Gold.Protein.ActiveResidues>
 VAL166  LYS551  ARG553  GLY616  TRP617  ASP618  TYR619  PRO620  LYS621  CYS622 
 ASP623  PHE694  ASN695  SER759  ASP760  ASP761  ALA762  ILE779  LEU786  VAL792 
 PHE793  MET794  SER795  GLU796  ALA797  LYS798  CYS799  TRP800  GLU811  SER814 

> <Gold.Protein.RotatedAtoms>
  150.8650  134.8011  159.7111 H   0  0  0  0  0  0  0  0  0  0  0  0  # atno 6907 bound_to 6896
  152.4675  134.5038  159.9742 H   0  0  0  0  0  0  0  0  0  0  0  0  # atno 6908 bound_to 6896
  151.5135  133.3442  159.2924 H   0  0  0  0  0  0  0  0  0  0  0  0  # atno 6909 bound_to 6896
  144.9605  139.4716  143.5482 H   0  0  0  0  0  0  0  0  0  0  0  0  # atno 7974 bound_to 7965
  154.5720  140.0689  156.8979 H   0  0  0  0  0  0  0  0  0  0  0  0  # atno 8008 bound_to 7997
  155.2616  140.3359  155.4254 H   0  0  0  0  0  0  0  0  0  0  0  0  # atno 8009 bound_to 7997
  156.2126  140.1765  156.7647 H   0  0  0  0  0  0  0  0  0  0  0  0  # atno 8010 bound_to 7997
  140.1441  143.4254  152.1541 H   0  0  0  0  0  0  0  0  0  0  0  0  # atno 10167 bound_to 10162
  157.3882  130.7792  149.7248 H   0  0  0  0  0  0  0  0  0  0  0  0  # atno 10718 bound_to 10713
  154.4307  135.2760  155.1914 H   0  0  0  0  0  0  0  0  0  0  0  0  # atno 10763 bound_to 10752
  154.3821  135.6085  153.5800 H   0  0  0  0  0  0  0  0  0  0  0  0  # atno 10764 bound_to 10752
  152.9836  135.5883  154.4618 H   0  0  0  0  0  0  0  0  0  0  0  0  # atno 10765 bound_to 10752
  140.0096  134.9445  157.0248 H   0  0  0  0  0  0  0  0  0  0  0  0  # atno 11005 bound_to 11000
  146.3351  139.8751  142.8833 LP  0  0  0  0  0  0  0  0  0  0  0  0  # atno 17320 bound_to 7965
  145.2708  141.0108  143.3773 LP  0  0  0  0  0  0  0  0  0  0  0  0  # atno 17321 bound_to 7965
  139.5457  144.7296  151.4590 LP  0  0  0  0  0  0  0  0  0  0  0  0  # atno 17342 bound_to 10162
  140.6742  143.8226  150.7037 LP  0  0  0  0  0  0  0  0  0  0  0  0  # atno 17343 bound_to 10162
  155.9792  130.4043  150.3602 LP  0  0  0  0  0  0  0  0  0  0  0  0  # atno 17370 bound_to 10713
  157.1715  131.0370  151.2793 LP  0  0  0  0  0  0  0  0  0  0  0  0  # atno 17371 bound_to 10713
  140.4579  134.1514  155.7188 LP  0  0  0  0  0  0  0  0  0  0  0  0  # atno 17394 bound_to 11000
  141.1701  133.8625  157.1596 LP  0  0  0  0  0  0  0  0  0  0  0  0  # atno 17395 bound_to 11000

$$$$
