AV-unprocessed.smi:2088|AV-procd|sdf|8527|dock5
  -GOLD-   2272011243D 1   1.00000     0.00000
 Structure written by MMmdl.
 33 34  0  0  0  0  0  0  0  0  1 V2000
  153.3163  138.4032  160.5774 O   0  0  0  0  0  0  0  0  0  0  0  0
  153.7637  139.1364  159.6960 C   0  0  0  0  0  0  0  0  0  0  0  0
  154.5866  140.3677  160.0718 C   0  0  0  0  0  0  0  0  0  0  0  0
  153.7340  141.5402  160.1476 N   0  0  0  0  0  0  0  0  0  0  0  0
  153.2407  142.1684  161.2708 C   0  0  0  0  0  0  0  0  0  0  0  0
  152.5145  143.2440  160.8471 C   0  0  0  0  0  0  0  0  0  0  0  0
  152.6213  143.1978  159.4265 C   0  0  0  0  0  0  0  0  0  0  0  0
  152.0297  144.1416  158.4131 C   0  0  0  0  0  0  0  0  0  0  0  0
  151.2014  143.4872  157.5992 F   0  0  0  0  0  0  0  0  0  0  0  0
  151.3486  145.1047  159.0340 F   0  0  0  0  0  0  0  0  0  0  0  0
  152.9994  144.6947  157.6846 F   0  0  0  0  0  0  0  0  0  0  0  0
  153.3523  142.1702  159.0155 N   0  0  0  0  0  0  0  0  0  0  0  0
  153.6059  138.9066  158.3832 N   0  0  0  0  0  0  0  0  0  0  0  0
  152.9961  137.7175  157.7991 C   0  0  0  0  0  0  0  0  0  0  0  0
  151.9056  138.0990  156.7839 C   0  0  1  0  0  0  0  0  0  0  0  0
  152.1620  139.3941  156.0112 C   0  0  0  0  0  0  0  0  0  0  0  0
  151.3302  139.1736  154.7694 C   0  0  0  0  0  0  0  0  0  0  0  0
  151.5505  137.6859  154.5090 C   0  0  0  0  0  0  0  0  0  0  0  0
  151.7832  137.0913  155.7838 O   0  0  0  0  0  0  0  0  0  0  0  0
  155.0880  140.2166  161.0291 H   0  0  0  0  0  0  0  0  0  0  0  0
  155.3615  140.5418  159.3241 H   0  0  0  0  0  0  0  0  0  0  0  0
  153.4510  141.8053  162.2661 H   0  0  0  0  0  0  0  0  0  0  0  0
  151.9894  143.9611  161.4604 H   0  0  0  0  0  0  0  0  0  0  0  0
  154.0091  139.5712  157.7386 H   0  0  0  0  0  0  0  0  0  0  0  0
  153.7443  137.0759  157.3312 H   0  0  0  0  0  0  0  0  0  0  0  0
  152.5547  137.1331  158.6067 H   0  0  0  0  0  0  0  0  0  0  0  0
  150.9410  138.1739  157.2890 H   0  0  0  0  0  0  0  0  0  0  0  0
  151.8739  140.2872  156.5671 H   0  0  0  0  0  0  0  0  0  0  0  0
  153.2160  139.4813  155.7435 H   0  0  0  0  0  0  0  0  0  0  0  0
  150.2785  139.3669  154.9848 H   0  0  0  0  0  0  0  0  0  0  0  0
  151.6304  139.8036  153.9315 H   0  0  0  0  0  0  0  0  0  0  0  0
  150.7030  137.2237  154.0028 H   0  0  0  0  0  0  0  0  0  0  0  0
  152.4368  137.5350  153.8919 H   0  0  0  0  0  0  0  0  0  0  0  0
  1  2  2  0  0  0  0
  2  3  1  0  0  0  0
  2 13  1  0  0  0  0
  3  4  1  0  0  0  0
  3 20  1  0  0  0  0
  3 21  1  0  0  0  0
  4 12  1  0  0  0  0
  4  5  1  0  0  0  0
  5  6  2  0  0  0  0
  5 22  1  0  0  0  0
  6  7  1  0  0  0  0
  6 23  1  0  0  0  0
  7  8  1  0  0  0  0
  7 12  2  0  0  0  0
  8  9  1  0  0  0  0
  8 10  1  0  0  0  0
  8 11  1  0  0  0  0
 13 14  1  0  0  0  0
 13 24  1  0  0  0  0
 14 15  1  0  0  0  0
 14 25  1  0  0  0  0
 14 26  1  0  0  0  0
 15 19  1  0  0  0  0
 15 16  1  0  0  0  0
 15 27  1  0  0  0  0
 16 17  1  0  0  0  0
 16 28  1  0  0  0  0
 16 29  1  0  0  0  0
 17 18  1  0  0  0  0
 17 30  1  0  0  0  0
 17 31  1  0  0  0  0
 18 19  1  0  0  0  0
 18 32  1  0  0  0  0
 18 33  1  0  0  0  0
M  END
> <s_m_source_file>
AV-unprocessed.smi

> <i_m_source_file_index>
2088

> <i_lp_mmshare_version>
43012

> <i_f3d_flags>
0

> <s_epik_input>
TzFbQ0gyXVtDSDJdW0NIMl1bQ0BIXTFbQ0gyXVtOSF1DKD1PKVtDSDJdbjJbY0hdW2NIXWMobjIpQyhGKShGKUY=

> <s_epik_cmdline>
J2VwaWtfcHl0aG9uJywgJy1waCcsICc3LjAnLCAnLXRuJywgJzgnLCAnLW1hJywgJzIwMCcsICctbWV0YWxfYmluZGluZycsICctaW1hZScsICc8aW5maWxlLm1hZT4nLCAnLW9tYWUnLCAnPG91dGZpbGUubWFlPic=

> <r_lp_tautomer_probability>
1

> <r_epik_Ionization_Penalty>
2.25732e-07

> <r_epik_Ionization_Penalty_Charging>
0

> <r_epik_Ionization_Penalty_Neutral>
2.25732e-07

> <r_epik_State_Penalty>
-0

> <r_epik_Charging_Adjusted_Penalty>
0

> <i_epik_Tot_Q>
0

> <i_epik_Tot_abs_Q>
0

> <r_epik_Metal_State_Penalty>
-0

> <b_epik_Metal_Only>
0

> <s_lp_Force_Field>
OPLS_2005

> <r_lp_Energy>
19.1857

> <b_lp_Chiralities_Consistent>
1

> <s_lp_Variant>
AV-unprocessed.smi:2088-2

> <Gold.Version>
5.8.1

> <Gold.Id.Protein>
6NUR|6NUR_protein|mol2

> <Gold.PLP.Fitness>
45.4100

> <Gold.PLP.PLP>
-44.6472

> <Gold.PLP.part.hbond>
-1.0000

> <Gold.PLP.part.metal>
0.0000

> <Gold.PLP.part.buried>
-3.7713

> <Gold.PLP.part.nonpolar>
-40.8722

> <Gold.PLP.part.repulsive>
1.5144

> <Gold.PLP.ligand.clash>
0.0000

> <Gold.PLP.ligand.torsion>
0.9859

> <Gold.PLP.Chemscore.Hbond>
0.9040

> <Gold.PLP.Chemscore.CHOScore>
0.0000

> <Gold.PLP.Chemscore.Metal>
0.0000

> <Gold.Chemscore.Hbonds>
donor molecule, donor type, donor heavy atom, donor atom, acceptor molecule, acceptor atom, score
      P1  H 10752 10763       L1    19  0.33

> <Gold.PLP.Chemscore.Internal.Correction>
0.0226

> <Gold.Rescore>
     Score         DG    S(hbond)    S(metal)    S(lipo)     H(rot)  DE(clash)    DE(int)     intcor
     10.16     -10.78       0.00        0.00      86.75       1.89       0.08       0.54       ----

> <Gold.Chemscore.Fitness>
10.1627

> <Gold.Chemscore.DG>
-10.7846

> <Gold.Chemscore.ZeroCoef>
-5.4800

> <Gold.Chemscore.Hbond>
0.0000

> <Gold.Chemscore.Metal>
0.0000

> <Gold.Chemscore.Lipo>
86.7530

> <Gold.Chemscore.Internal_Hbond>
0.0000

> <Gold.Chemscore.DEClash>
0.0807

> <Gold.Chemscore.DEInternal>
0.5412

> <Gold.Chemscore.Rot>
1.8928

> <Gold.Chemscore.Internal.Correction>
   9.000000E+99

> <Gold.Chemscore.Hbonds>
donor molecule, donor type, donor heavy atom, donor atom, acceptor molecule, acceptor atom, score
      P1  H 10752 10763       L1    19  0.02

> <Gold.Chemscore.Hbond.Weighted>
-0.0000

> <Gold.Chemscore.Metal.Weighted>
-0.0000

> <Gold.Chemscore.Lipo.Weighted>
-10.1501

> <Gold.Chemscore.Internal_Hbond.Weighted>
0.0000

> <Gold.Chemscore.DEClash.Weighted>
0.0807

> <Gold.Chemscore.DEInternal.Weighted>
0.5412

> <Gold.Chemscore.Rot.Weighted>
4.8455

> <Gold.Chemscore.Internal.Correction.Weighted>
   9.000000E+99

> <Gold.Protein.RotatedTorsions>
[ 6907 6896 6895 6894 ] final   45.11 input  -60.11 | X-H torsion
[ 7974 7965 7964 7962 ] final    3.70 input  175.53 | X-H torsion
[ 8008 7997 7996 7995 ] final   85.18 input   59.86 | X-H torsion
[ 10167 10162 10161 10158 ] final   81.72 input  -65.29 | X-H torsion
[ 10718 10713 10712 10709 ] final  -43.00 input   66.30 | X-H torsion
[ 10763 10752 10751 10750 ] final   77.01 input  -60.55 | X-H torsion
[ 11005 11000 10999 10996 ] final  127.86 input  -57.11 | X-H torsion

> <Gold.Protein.ActiveResidues>
 VAL166  LYS551  ARG553  GLY616  TRP617  ASP618  TYR619  PRO620  LYS621  CYS622 
 ASP623  PHE694  ASN695  SER759  ASP760  ASP761  ALA762  ILE779  LEU786  VAL792 
 PHE793  MET794  SER795  GLU796  ALA797  LYS798  CYS799  TRP800  GLU811  SER814 

> <Gold.Protein.RotatedAtoms>
  152.2406  134.8232  160.0460 H   0  0  0  0  0  0  0  0  0  0  0  0  # atno 6907 bound_to 6896
  151.8948  133.3519  159.3818 H   0  0  0  0  0  0  0  0  0  0  0  0  # atno 6908 bound_to 6896
  150.7052  134.4814  159.5516 H   0  0  0  0  0  0  0  0  0  0  0  0  # atno 6909 bound_to 6896
  146.2445  140.0646  142.8366 H   0  0  0  0  0  0  0  0  0  0  0  0  # atno 7974 bound_to 7965
  155.9467  140.3404  155.6373 H   0  0  0  0  0  0  0  0  0  0  0  0  # atno 8008 bound_to 7997
  155.6971  140.0756  157.2443 H   0  0  0  0  0  0  0  0  0  0  0  0  # atno 8009 bound_to 7997
  154.4113  140.1646  156.2138 H   0  0  0  0  0  0  0  0  0  0  0  0  # atno 8010 bound_to 7997
  139.9362  144.6119  150.8296 H   0  0  0  0  0  0  0  0  0  0  0  0  # atno 10167 bound_to 10162
  156.2537  130.4190  149.8621 H   0  0  0  0  0  0  0  0  0  0  0  0  # atno 10718 bound_to 10713
  153.0767  135.4930  154.8419 H   0  0  0  0  0  0  0  0  0  0  0  0  # atno 10763 bound_to 10752
  154.7097  135.3017  154.9218 H   0  0  0  0  0  0  0  0  0  0  0  0  # atno 10764 bound_to 10752
  153.9916  135.6777  153.4807 H   0  0  0  0  0  0  0  0  0  0  0  0  # atno 10765 bound_to 10752
  139.9529  134.9618  156.8916 H   0  0  0  0  0  0  0  0  0  0  0  0  # atno 11005 bound_to 11000
  145.0870  140.9259  143.4791 LP  0  0  0  0  0  0  0  0  0  0  0  0  # atno 17320 bound_to 7965
  145.0810  139.2959  143.5783 LP  0  0  0  0  0  0  0  0  0  0  0  0  # atno 17321 bound_to 7965
  140.7623  143.3196  151.2652 LP  0  0  0  0  0  0  0  0  0  0  0  0  # atno 17342 bound_to 10162
  139.6741  143.9968  152.2771 LP  0  0  0  0  0  0  0  0  0  0  0  0  # atno 17343 bound_to 10162
  156.6161  130.8607  151.3465 LP  0  0  0  0  0  0  0  0  0  0  0  0  # atno 17370 bound_to 10713
  157.7224  130.9576  150.1493 LP  0  0  0  0  0  0  0  0  0  0  0  0  # atno 17371 bound_to 10713
  140.5675  134.0475  155.7419 LP  0  0  0  0  0  0  0  0  0  0  0  0  # atno 17394 bound_to 11000
  141.1196  133.9483  157.2756 LP  0  0  0  0  0  0  0  0  0  0  0  0  # atno 17395 bound_to 11000

$$$$
