AV-unprocessed.smi:2776|AV-procd|sdf|10704|dock3
  -GOLD-   2272015143D 1   1.00000     0.00000
 Structure written by MMmdl.
 25 26  0  0  0  0  0  0  0  0  1 V2000
  148.0459  142.3061  156.6910 O   0  0  0  0  0  0  0  0  0  0  0  0
  148.3872  141.2875  155.7696 C   0  0  2  0  0  0  0  0  0  0  0  0
  149.8273  141.5080  155.2646 C   0  0  0  0  0  0  0  0  0  0  0  0
  150.8246  141.1912  156.2715 N   0  0  0  0  0  0  0  0  0  0  0  0
  151.6481  140.1257  156.2877 C   0  0  0  0  0  0  0  0  0  0  0  0
  152.4935  140.0243  157.3093 N   0  0  0  0  0  0  0  0  0  0  0  0
  152.1844  141.1575  158.0418 C   0  0  0  0  0  0  0  0  0  0  0  0
  152.7258  141.6424  159.2536 C   0  0  0  0  0  0  0  0  0  0  0  0
  152.2436  142.8389  159.8242 C   0  0  0  0  0  0  0  0  0  0  0  0
  152.7731  143.2887  160.9865 F   0  0  0  0  0  0  0  0  0  0  0  0
  151.2138  143.5674  159.1922 C   0  0  0  0  0  0  0  0  0  0  0  0
  150.7561  144.7148  159.7465 F   0  0  0  0  0  0  0  0  0  0  0  0
  150.6582  143.1034  157.9845 C   0  0  0  0  0  0  0  0  0  0  0  0
  151.1432  141.9098  157.4188 C   0  0  0  0  0  0  0  0  0  0  0  0
  147.3499  141.2647  154.6305 C   0  0  0  0  0  0  0  0  0  0  0  0
  146.1531  140.9193  155.1058 F   0  0  0  0  0  0  0  0  0  0  0  0
  147.2676  142.4549  154.0348 F   0  0  0  0  0  0  0  0  0  0  0  0
  147.7090  140.3579  153.7219 F   0  0  0  0  0  0  0  0  0  0  0  0
  148.5432  143.0811  156.4793 H   0  0  0  0  0  0  0  0  0  0  0  0
  148.3410  140.3366  156.3022 H   0  0  0  0  0  0  0  0  0  0  0  0
  150.0190  140.8859  154.3896 H   0  0  0  0  0  0  0  0  0  0  0  0
  149.9690  142.5418  154.9474 H   0  0  0  0  0  0  0  0  0  0  0  0
  151.6243  139.3814  155.5051 H   0  0  0  0  0  0  0  0  0  0  0  0
  153.5136  141.0924  159.7464 H   0  0  0  0  0  0  0  0  0  0  0  0
  149.8676  143.6576  157.5006 H   0  0  0  0  0  0  0  0  0  0  0  0
  1  2  1  0  0  0  0
  1 19  1  0  0  0  0
  2  3  1  0  0  0  0
  2 15  1  0  0  0  0
  2 20  1  0  0  0  0
  3  4  1  0  0  0  0
  3 21  1  0  0  0  0
  3 22  1  0  0  0  0
  4 14  1  0  0  0  0
  4  5  1  0  0  0  0
  5  6  2  0  0  0  0
  5 23  1  0  0  0  0
  6  7  1  0  0  0  0
  7 14  2  0  0  0  0
  7  8  1  0  0  0  0
  8  9  2  0  0  0  0
  8 24  1  0  0  0  0
  9 10  1  0  0  0  0
  9 11  1  0  0  0  0
 11 12  1  0  0  0  0
 11 13  2  0  0  0  0
 13 14  1  0  0  0  0
 13 25  1  0  0  0  0
 15 16  1  0  0  0  0
 15 17  1  0  0  0  0
 15 18  1  0  0  0  0
M  END
> <s_m_source_file>
AV-unprocessed.smi

> <i_m_source_file_index>
2776

> <i_lp_mmshare_version>
43012

> <i_f3d_flags>
0

> <s_epik_input>
RkMoRikoRilbQ0BIXShbT0hdKVtDSDJdbihbY0hdbjEpYyhjMTIpW2NIXWMoRiljKEYpW2NIXTI=

> <s_epik_cmdline>
J2VwaWtfcHl0aG9uJywgJy1waCcsICc3LjAnLCAnLXRuJywgJzgnLCAnLW1hJywgJzIwMCcsICctbWV0YWxfYmluZGluZycsICctaW1hZScsICc8aW5maWxlLm1hZT4nLCAnLW9tYWUnLCAnPG91dGZpbGUubWFlPic=

> <r_epik_Ionization_Penalty>
0.0162713

> <r_epik_Ionization_Penalty_Charging>
0

> <r_epik_Ionization_Penalty_Neutral>
0.0162713

> <r_epik_State_Penalty>
0.00836517

> <r_epik_Charging_Adjusted_Penalty>
0.00836517

> <i_epik_Tot_Q>
0

> <i_epik_Tot_abs_Q>
0

> <r_epik_Metal_State_Penalty>
8.42444e-06

> <b_epik_Metal_Only>
0

> <s_lp_Force_Field>
OPLS_2005

> <r_lp_Energy>
8.8272

> <b_lp_Chiralities_Consistent>
1

> <s_lp_Variant>
AV-unprocessed.smi:2776-1

> <Gold.Version>
5.8.1

> <Gold.Id.Protein>
6NUR|6NUR_protein|mol2

> <Gold.PLP.Fitness>
45.3336

> <Gold.PLP.PLP>
-39.8605

> <Gold.PLP.part.hbond>
-2.0000

> <Gold.PLP.part.metal>
0.0000

> <Gold.PLP.part.buried>
-4.0032

> <Gold.PLP.part.nonpolar>
-34.2399

> <Gold.PLP.part.repulsive>
0.0000

> <Gold.PLP.ligand.clash>
0.0000

> <Gold.PLP.ligand.torsion>
0.2725

> <Gold.PLP.Chemscore.Hbond>
2.0000

> <Gold.PLP.Chemscore.CHOScore>
0.0000

> <Gold.PLP.Chemscore.Metal>
0.0000

> <Gold.Chemscore.Hbonds>
donor molecule, donor type, donor heavy atom, donor atom, acceptor molecule, acceptor atom, score
      L1  H     1    19       P1  8028  1.00
      P1  H  7997  8008       L1     6  1.00

> <Gold.PLP.Chemscore.Internal.Correction>
0.0180

> <Gold.Rescore>
     Score         DG    S(hbond)    S(metal)    S(lipo)     H(rot)  DE(clash)    DE(int)     intcor
     13.67     -14.17       1.63        0.00      73.44       2.08       0.17       0.33       ----

> <Gold.Chemscore.Fitness>
13.6743

> <Gold.Chemscore.DG>
-14.1749

> <Gold.Chemscore.ZeroCoef>
-5.4800

> <Gold.Chemscore.Hbond>
1.6280

> <Gold.Chemscore.Metal>
0.0000

> <Gold.Chemscore.Lipo>
73.4428

> <Gold.Chemscore.Internal_Hbond>
0.0000

> <Gold.Chemscore.DEClash>
0.1686

> <Gold.Chemscore.DEInternal>
0.3319

> <Gold.Chemscore.Rot>
2.0841

> <Gold.Chemscore.Internal.Correction>
   9.000000E+99

> <Gold.Chemscore.Hbonds>
donor molecule, donor type, donor heavy atom, donor atom, acceptor molecule, acceptor atom, score
      L1  H     1    19       P1  8028  0.81
      P1  H  7997  8008       L1     6  0.47

> <Gold.Chemscore.Hbond.Weighted>
-5.4374

> <Gold.Chemscore.Metal.Weighted>
-0.0000

> <Gold.Chemscore.Lipo.Weighted>
-8.5928

> <Gold.Chemscore.Internal_Hbond.Weighted>
0.0000

> <Gold.Chemscore.DEClash.Weighted>
0.1686

> <Gold.Chemscore.DEInternal.Weighted>
0.3319

> <Gold.Chemscore.Rot.Weighted>
5.3353

> <Gold.Chemscore.Internal.Correction.Weighted>
   9.000000E+99

> <Gold.Protein.RotatedTorsions>
[ 6907 6896 6895 6894 ] final  -29.86 input  -60.11 | X-H torsion
[ 7974 7965 7964 7962 ] final   36.37 input  175.53 | X-H torsion
[ 8008 7997 7996 7995 ] final  -54.74 input   59.86 | X-H torsion
[ 10167 10162 10161 10158 ] final  -24.71 input  -65.29 | X-H torsion
[ 10718 10713 10712 10709 ] final -159.79 input   66.30 | X-H torsion
[ 10763 10752 10751 10750 ] final  -13.17 input  -60.55 | X-H torsion
[ 11005 11000 10999 10996 ] final  162.54 input  -57.11 | X-H torsion

> <Gold.Protein.ActiveResidues>
 VAL166  LYS551  ARG553  GLY616  TRP617  ASP618  TYR619  PRO620  LYS621  CYS622 
 ASP623  PHE694  ASN695  SER759  ASP760  ASP761  ALA762  ILE779  LEU786  VAL792 
 PHE793  MET794  SER795  GLU796  ALA797  LYS798  CYS799  TRP800  GLU811  SER814 

> <Gold.Protein.RotatedAtoms>
  151.1133  135.0039  159.8504 H   0  0  0  0  0  0  0  0  0  0  0  0  # atno 6907 bound_to 6896
  152.5444  134.1809  159.8645 H   0  0  0  0  0  0  0  0  0  0  0  0  # atno 6908 bound_to 6896
  151.1861  133.4650  159.2627 H   0  0  0  0  0  0  0  0  0  0  0  0  # atno 6909 bound_to 6896
  146.1216  139.6026  142.9286 H   0  0  0  0  0  0  0  0  0  0  0  0  # atno 7974 bound_to 7965
  154.4172  140.1169  156.5364 H   0  0  0  0  0  0  0  0  0  0  0  0  # atno 8008 bound_to 7997
  155.6552  140.3496  155.4743 H   0  0  0  0  0  0  0  0  0  0  0  0  # atno 8009 bound_to 7997
  155.9759  140.1150  157.0760 H   0  0  0  0  0  0  0  0  0  0  0  0  # atno 8010 bound_to 7997
  140.7288  143.4329  151.0774 H   0  0  0  0  0  0  0  0  0  0  0  0  # atno 10167 bound_to 10162
  156.5731  130.8697  151.2843 H   0  0  0  0  0  0  0  0  0  0  0  0  # atno 10718 bound_to 10713
  153.5094  135.7016  153.5789 H   0  0  0  0  0  0  0  0  0  0  0  0  # atno 10763 bound_to 10752
  153.3886  135.3901  155.1907 H   0  0  0  0  0  0  0  0  0  0  0  0  # atno 10764 bound_to 10752
  154.8704  135.3853  154.4572 H   0  0  0  0  0  0  0  0  0  0  0  0  # atno 10765 bound_to 10752
  140.2267  134.8155  157.3276 H   0  0  0  0  0  0  0  0  0  0  0  0  # atno 11005 bound_to 11000
  145.5454  141.0417  143.2307 LP  0  0  0  0  0  0  0  0  0  0  0  0  # atno 17320 bound_to 7965
  144.7602  139.6974  143.7237 LP  0  0  0  0  0  0  0  0  0  0  0  0  # atno 17321 bound_to 7965
  139.7988  143.8114  152.3160 LP  0  0  0  0  0  0  0  0  0  0  0  0  # atno 17342 bound_to 10162
  139.8123  144.7330  150.9681 LP  0  0  0  0  0  0  0  0  0  0  0  0  # atno 17343 bound_to 10162
  157.7344  130.9745  150.2025 LP  0  0  0  0  0  0  0  0  0  0  0  0  # atno 17370 bound_to 10713
  156.2697  130.3720  149.8044 LP  0  0  0  0  0  0  0  0  0  0  0  0  # atno 17371 bound_to 10713
  140.1792  134.4510  155.7782 LP  0  0  0  0  0  0  0  0  0  0  0  0  # atno 17394 bound_to 11000
  141.2220  133.6976  156.7840 LP  0  0  0  0  0  0  0  0  0  0  0  0  # atno 17395 bound_to 11000

$$$$
