AV-unprocessed.smi:2872|AV-procd|sdf|11034|dock2
  -GOLD-   2272015493D 1   1.00000     0.00000
 Structure written by MMmdl.
 39 41  0  0  0  0  0  0  0  0  1 V2000
  152.7906  136.7132  159.8499 O   0  0  0  0  0  0  0  0  0  0  0  0
  153.1809  137.5460  160.6664 C   0  0  0  0  0  0  0  0  0  0  0  0
  153.4714  138.8212  160.3715 N   0  0  0  0  0  0  0  0  0  0  0  0
  153.3783  139.4173  159.0427 C   0  0  0  0  0  0  0  0  0  0  0  0
  152.7729  140.7862  159.1575 C   0  0  0  0  0  0  0  0  0  0  0  0
  153.2684  141.7109  159.9808 N   0  0  0  0  0  0  0  0  0  0  0  0
  152.4329  142.7896  159.7662 C   0  0  0  0  0  0  0  0  0  0  0  0
  152.4341  144.0813  160.3394 C   0  0  0  0  0  0  0  0  0  0  0  0
  151.4693  145.0347  159.9526 C   0  0  0  0  0  0  0  0  0  0  0  0
  150.4920  144.7113  158.9892 C   0  0  0  0  0  0  0  0  0  0  0  0
  150.4720  143.4293  158.4070 C   0  0  0  0  0  0  0  0  0  0  0  0
  151.4363  142.4810  158.7974 C   0  0  0  0  0  0  0  0  0  0  0  0
  151.6921  141.1645  158.4292 N   0  0  0  0  0  0  0  0  0  0  0  0
  150.9456  140.3872  157.4528 C   0  0  0  0  0  0  0  0  0  0  0  0
  151.3143  140.7850  156.0190 C   0  0  0  0  0  0  0  0  0  0  0  0
  150.2614  141.5721  155.4811 O   0  0  0  0  0  0  0  0  0  0  0  0
  149.2890  140.9380  154.7378 C   0  0  0  0  0  0  0  0  0  0  0  0
  148.2553  141.7431  154.2155 C   0  0  0  0  0  0  0  0  0  0  0  0
  147.2196  141.1784  153.4465 C   0  0  0  0  0  0  0  0  0  0  0  0
  147.2077  139.7950  153.1902 C   0  0  0  0  0  0  0  0  0  0  0  0
  148.2335  138.9798  153.7030 C   0  0  0  0  0  0  0  0  0  0  0  0
  149.2695  139.5448  154.4724 C   0  0  0  0  0  0  0  0  0  0  0  0
  153.3381  137.3457  161.7376 H   0  0  0  0  0  0  0  0  0  0  0  0
  153.7863  139.4212  161.1199 H   0  0  0  0  0  0  0  0  0  0  0  0
  154.3605  139.4834  158.5712 H   0  0  0  0  0  0  0  0  0  0  0  0
  152.7641  138.7869  158.4000 H   0  0  0  0  0  0  0  0  0  0  0  0
  153.1793  144.3391  161.0773 H   0  0  0  0  0  0  0  0  0  0  0  0
  151.4799  146.0194  160.3963 H   0  0  0  0  0  0  0  0  0  0  0  0
  149.7575  145.4477  158.6975 H   0  0  0  0  0  0  0  0  0  0  0  0
  149.7256  143.1785  157.6682 H   0  0  0  0  0  0  0  0  0  0  0  0
  151.1273  139.3250  157.6159 H   0  0  0  0  0  0  0  0  0  0  0  0
  149.8802  140.5447  157.6236 H   0  0  0  0  0  0  0  0  0  0  0  0
  152.2462  141.3528  156.0233 H   0  0  0  0  0  0  0  0  0  0  0  0
  151.4629  139.8898  155.4132 H   0  0  0  0  0  0  0  0  0  0  0  0
  148.2562  142.8060  154.4076 H   0  0  0  0  0  0  0  0  0  0  0  0
  146.4343  141.8070  153.0533 H   0  0  0  0  0  0  0  0  0  0  0  0
  146.4138  139.3601  152.6011 H   0  0  0  0  0  0  0  0  0  0  0  0
  148.2267  137.9179  153.5058 H   0  0  0  0  0  0  0  0  0  0  0  0
  150.0382  138.8865  154.8475 H   0  0  0  0  0  0  0  0  0  0  0  0
  1  2  2  0  0  0  0
  2  3  1  0  0  0  0
  2 23  1  0  0  0  0
  3  4  1  0  0  0  0
  3 24  1  0  0  0  0
  4  5  1  0  0  0  0
  4 25  1  0  0  0  0
  4 26  1  0  0  0  0
  5 13  1  0  0  0  0
  5  6  2  0  0  0  0
  6  7  1  0  0  0  0
  7 12  2  0  0  0  0
  7  8  1  0  0  0  0
  8  9  2  0  0  0  0
  8 27  1  0  0  0  0
  9 10  1  0  0  0  0
  9 28  1  0  0  0  0
 10 11  2  0  0  0  0
 10 29  1  0  0  0  0
 11 12  1  0  0  0  0
 11 30  1  0  0  0  0
 12 13  1  0  0  0  0
 13 14  1  0  0  0  0
 14 15  1  0  0  0  0
 14 31  1  0  0  0  0
 14 32  1  0  0  0  0
 15 16  1  0  0  0  0
 15 33  1  0  0  0  0
 15 34  1  0  0  0  0
 16 17  1  0  0  0  0
 17 22  1  0  0  0  0
 17 18  2  0  0  0  0
 18 19  1  0  0  0  0
 18 35  1  0  0  0  0
 19 20  2  0  0  0  0
 19 36  1  0  0  0  0
 20 21  1  0  0  0  0
 20 37  1  0  0  0  0
 21 22  2  0  0  0  0
 21 38  1  0  0  0  0
 22 39  1  0  0  0  0
M  END
> <s_m_source_file>
AV-unprocessed.smi

> <i_m_source_file_index>
2872

> <i_lp_mmshare_version>
43012

> <i_f3d_flags>
0

> <s_epik_input>
Tz1bQ0hdW05IXVtDSDJdYyhuMSluKGMoYzEyKVtjSF1bY0hdW2NIXVtjSF0yKVtDSDJdW0NIMl1PYzNbY0hdW2NIXVtjSF1bY0hdW2NIXTM=

> <s_epik_cmdline>
J2VwaWtfcHl0aG9uJywgJy1waCcsICc3LjAnLCAnLXRuJywgJzgnLCAnLW1hJywgJzIwMCcsICctbWV0YWxfYmluZGluZycsICctaW1hZScsICc8aW5maWxlLm1hZT4nLCAnLW9tYWUnLCAnPG91dGZpbGUubWFlPic=

> <r_lp_tautomer_probability>
1

> <r_epik_Ionization_Penalty>
0.0659793

> <r_epik_Ionization_Penalty_Charging>
0

> <r_epik_Ionization_Penalty_Neutral>
0.0659793

> <r_epik_State_Penalty>
0.0575748

> <r_epik_Charging_Adjusted_Penalty>
0.0575748

> <i_epik_Tot_Q>
0

> <i_epik_Tot_abs_Q>
0

> <r_epik_Metal_State_Penalty>
0.0517641

> <b_epik_Metal_Only>
0

> <s_lp_Force_Field>
OPLS_2005

> <r_lp_Energy>
12.8976

> <b_lp_Chiralities_Consistent>
1

> <s_lp_Variant>
AV-unprocessed.smi:2872-1

> <Gold.Version>
5.8.1

> <Gold.Id.Protein>
6NUR|6NUR_protein|mol2

> <Gold.PLP.Fitness>
47.8129

> <Gold.PLP.PLP>
-46.6280

> <Gold.PLP.part.hbond>
-1.4430

> <Gold.PLP.part.metal>
0.0000

> <Gold.PLP.part.buried>
-5.6476

> <Gold.PLP.part.nonpolar>
-39.4705

> <Gold.PLP.part.repulsive>
0.1531

> <Gold.PLP.ligand.clash>
0.0000

> <Gold.PLP.ligand.torsion>
0.9451

> <Gold.PLP.Chemscore.Hbond>
1.0000

> <Gold.PLP.Chemscore.CHOScore>
0.0000

> <Gold.PLP.Chemscore.Metal>
0.0000

> <Gold.Chemscore.Hbonds>
donor molecule, donor type, donor heavy atom, donor atom, acceptor molecule, acceptor atom, score
      P1  H  6896  6907       L1     1  1.00

> <Gold.PLP.Chemscore.Internal.Correction>
0.0751

> <Gold.Rescore>
     Score         DG    S(hbond)    S(metal)    S(lipo)     H(rot)  DE(clash)    DE(int)     intcor
     15.62     -16.61       1.00        0.00     119.55       2.42       0.03       0.96       ----

> <Gold.Chemscore.Fitness>
15.6219

> <Gold.Chemscore.DG>
-16.6083

> <Gold.Chemscore.ZeroCoef>
-5.4800

> <Gold.Chemscore.Hbond>
0.9991

> <Gold.Chemscore.Metal>
0.0000

> <Gold.Chemscore.Lipo>
119.5548

> <Gold.Chemscore.Internal_Hbond>
0.0000

> <Gold.Chemscore.DEClash>
0.0294

> <Gold.Chemscore.DEInternal>
0.9570

> <Gold.Chemscore.Rot>
2.4205

> <Gold.Chemscore.Internal.Correction>
   9.000000E+99

> <Gold.Chemscore.Hbonds>
donor molecule, donor type, donor heavy atom, donor atom, acceptor molecule, acceptor atom, score
      P1  H  6896  6907       L1     1  1.00

> <Gold.Chemscore.Hbond.Weighted>
-3.3369

> <Gold.Chemscore.Metal.Weighted>
-0.0000

> <Gold.Chemscore.Lipo.Weighted>
-13.9879

> <Gold.Chemscore.Internal_Hbond.Weighted>
0.0000

> <Gold.Chemscore.DEClash.Weighted>
0.0294

> <Gold.Chemscore.DEInternal.Weighted>
0.9570

> <Gold.Chemscore.Rot.Weighted>
6.1965

> <Gold.Chemscore.Internal.Correction.Weighted>
   9.000000E+99

> <Gold.Protein.RotatedTorsions>
[ 6907 6896 6895 6894 ] final   33.17 input  -60.11 | X-H torsion
[ 7974 7965 7964 7962 ] final  109.28 input  175.53 | X-H torsion
[ 8008 7997 7996 7995 ] final  -56.19 input   59.86 | X-H torsion
[ 10167 10162 10161 10158 ] final   -8.85 input  -65.29 | X-H torsion
[ 10718 10713 10712 10709 ] final -179.09 input   66.30 | X-H torsion
[ 10763 10752 10751 10750 ] final  -77.91 input  -60.55 | X-H torsion
[ 11005 11000 10999 10996 ] final  127.78 input  -57.11 | X-H torsion

> <Gold.Protein.ActiveResidues>
 VAL166  LYS551  ARG553  GLY616  TRP617  ASP618  TYR619  PRO620  LYS621  CYS622 
 ASP623  PHE694  ASN695  SER759  ASP760  ASP761  ALA762  ILE779  LEU786  VAL792 
 PHE793  MET794  SER795  GLU796  ALA797  LYS798  CYS799  TRP800  GLU811  SER814 

> <Gold.Protein.RotatedAtoms>
  152.0848  134.9447  160.0572 H   0  0  0  0  0  0  0  0  0  0  0  0  # atno 6907 bound_to 6896
  152.0722  133.4107  159.4472 H   0  0  0  0  0  0  0  0  0  0  0  0  # atno 6908 bound_to 6896
  150.6836  134.2999  159.4745 H   0  0  0  0  0  0  0  0  0  0  0  0  # atno 6909 bound_to 6896
  145.2698  139.2671  143.3972 H   0  0  0  0  0  0  0  0  0  0  0  0  # atno 7974 bound_to 7965
  154.4221  140.1135  156.5597 H   0  0  0  0  0  0  0  0  0  0  0  0  # atno 8008 bound_to 7997
  155.6324  140.3496  155.4668 H   0  0  0  0  0  0  0  0  0  0  0  0  # atno 8009 bound_to 7997
  155.9937  140.1185  157.0603 H   0  0  0  0  0  0  0  0  0  0  0  0  # atno 8010 bound_to 7997
  140.7071  143.5923  150.8881 H   0  0  0  0  0  0  0  0  0  0  0  0  # atno 10167 bound_to 10162
  156.8540  130.9729  151.3090 H   0  0  0  0  0  0  0  0  0  0  0  0  # atno 10718 bound_to 10713
  154.5191  135.5748  153.6666 H   0  0  0  0  0  0  0  0  0  0  0  0  # atno 10763 bound_to 10752
  152.9913  135.6177  154.2778 H   0  0  0  0  0  0  0  0  0  0  0  0  # atno 10764 bound_to 10752
  154.2697  135.2853  155.2723 H   0  0  0  0  0  0  0  0  0  0  0  0  # atno 10765 bound_to 10752
  139.9525  134.9619  156.8905 H   0  0  0  0  0  0  0  0  0  0  0  0  # atno 11005 bound_to 11000
  146.3250  140.3138  142.8628 LP  0  0  0  0  0  0  0  0  0  0  0  0  # atno 17320 bound_to 7965
  144.9345  140.8011  143.5669 LP  0  0  0  0  0  0  0  0  0  0  0  0  # atno 17321 bound_to 7965
  139.9648  143.6123  152.2991 LP  0  0  0  0  0  0  0  0  0  0  0  0  # atno 17342 bound_to 10162
  139.6688  144.7661  151.1822 LP  0  0  0  0  0  0  0  0  0  0  0  0  # atno 17343 bound_to 10162
  157.6288  130.8712  149.9236 LP  0  0  0  0  0  0  0  0  0  0  0  0  # atno 17370 bound_to 10713
  156.0813  130.3673  150.0575 LP  0  0  0  0  0  0  0  0  0  0  0  0  # atno 17371 bound_to 10713
  140.5685  134.0466  155.7422 LP  0  0  0  0  0  0  0  0  0  0  0  0  # atno 17394 bound_to 11000
  141.1191  133.9491  157.2765 LP  0  0  0  0  0  0  0  0  0  0  0  0  # atno 17395 bound_to 11000

$$$$
