#       Name:                AV-unprocessed.smi:1350
#       Creating user name   scv26
#       Creation time:       Fri Mar 27 05:11:14 2020


#       File generated by GOLD software.
#

@<TRIPOS>MOLECULE
AV-unprocessed.smi:1350
    50    52     1
SMALL
NO_CHARGES


@<TRIPOS>ATOM
      1 ****        -2.7726   4.3696   3.1976 C.3            1 S1                 0.0000
      2 ****        -1.9996   3.8032   2.1493 O.3            1 S1                 0.0000
      3 ****        -2.6564   3.1691   1.1138 C.ar           1 S1                 0.0000
      4 ****        -4.0695   3.0586   1.0427 C.ar           1 S1                 0.0000
      5 ****        -4.6866   2.4013  -0.0382 C.ar           1 S1                 0.0000
      6 ****        -3.9040   1.8453  -1.0646 C.ar           1 S1                 0.0000
      7 ****        -2.5029   1.9474  -1.0068 C.ar           1 S1                 0.0000
      8 ****        -1.8760   2.6015   0.0747 C.ar           1 S1                 0.0000
      9 ****        -0.3587   2.6943   0.0786 C.3            1 S1                 0.0000
     10 ****         0.2390   1.4086   0.0477 O.3            1 S1                 0.0000
     11 ****         1.6559   1.4632   0.0236 C.3            1 S1                 0.0000
     12 ****         2.2121   0.0332  -0.0205 C.3            1 S1                 0.0000
     13 ****         3.6127   0.0864   0.1660 O.3            1 S1                 0.0000
     14 ****         1.8919  -0.6840  -1.3474 C.3            1 S1                 0.0000
     15 ****         2.4086  -2.0578  -1.3874 N.pl3          1 S1                 0.0000
     16 ****         3.5323  -2.5563  -1.9708 C.2            1 S1                 0.0000
     17 ****         3.5692  -3.8938  -1.7152 N.pl3          1 S1                 1.0000
     18 ****         2.4520  -4.2548  -0.9585 C.ar           1 S1                 0.0000
     19 ****         2.0507  -5.4884  -0.4551 C.ar           1 S1                 0.0000
     20 ****         0.8492  -5.5095   0.2837 C.ar           1 S1                 0.0000
     21 ****         0.0968  -4.3358   0.4979 C.ar           1 S1                 0.0000
     22 ****         0.5129  -3.0906  -0.0176 C.ar           1 S1                 0.0000
     23 ****         1.7015  -3.0792  -0.7460 C.ar           1 S1                 0.0000
     24 ****        -2.1056   4.8240   3.9300 H              1 S1                 0.0000
     25 ****        -3.3609   3.6107   3.7152 H              1 S1                 0.0000
     26 ****        -3.4354   5.1525   2.8267 H              1 S1                 0.0000
     27 ****        -4.7083   3.4724   1.8079 H              1 S1                 0.0000
     28 ****        -5.7631   2.3259  -0.0796 H              1 S1                 0.0000
     29 ****        -4.3770   1.3432  -1.8956 H              1 S1                 0.0000
     30 ****        -1.9054   1.5211  -1.7994 H              1 S1                 0.0000
     31 ****        -0.0539   3.2610  -0.8024 H              1 S1                 0.0000
     32 ****         0.0052   3.2437   0.9468 H              1 S1                 0.0000
     33 ****         2.0029   2.0361  -0.8381 H              1 S1                 0.0000
     34 ****         2.0105   1.9727   0.9214 H              1 S1                 0.0000
     35 ****         1.7950  -0.5317   0.8138 H              1 S1                 0.0000
     36 ****         3.9865   0.6196  -0.5187 H              1 S1                 0.0000
     37 ****         0.8163  -0.7163  -1.5272 H              1 S1                 0.0000
     38 ****         2.3293  -0.1432  -2.1877 H              1 S1                 0.0000
     39 ****         4.2647  -1.9924  -2.5302 H              1 S1                 0.0000
     40 ****         2.6249  -6.3888  -0.6167 H              1 S1                 0.0000
     41 ****         0.4980  -6.4447   0.6953 H              1 S1                 0.0000
     42 ****        -0.8179  -4.3912   1.0700 H              1 S1                 0.0000
     43 ****        -0.0680  -2.1960   0.1526 H              1 S1                 0.0000
     44 ****         4.3055  -4.5113  -2.0324 H              1 S1                 0.0000
     45 ****        -1.3863   3.1316   2.5648 LP             1 S1                 0.0000
     46 ****        -1.4604   4.5433   1.7474 LP             1 S1                 0.0000
     47 ****        -0.0765   0.9289  -0.7710 LP             1 S1                 0.0000
     48 ****        -0.0478   0.9031   0.8615 LP             1 S1                 0.0000
     49 ****         3.9942  -0.8368   0.1208 LP             1 S1                 0.0000
     50 ****         3.8191   0.4891   1.0578 LP             1 S1                 0.0000
@<TRIPOS>BOND
    1    1    2 1     
    2    1   24 1     
    3    1   25 1     
    4    1   26 1     
    5    2    3 1     
    6    3    8 ar    
    7    3    4 ar    
    8    4    5 ar    
    9    4   27 1     
   10    5    6 ar    
   11    5   28 1     
   12    6    7 ar    
   13    6   29 1     
   14    7    8 ar    
   15    7   30 1     
   16    8    9 1     
   17    9   10 1     
   18    9   31 1     
   19    9   32 1     
   20   10   11 1     
   21   11   12 1     
   22   11   33 1     
   23   11   34 1     
   24   12   13 1     
   25   12   14 1     
   26   12   35 1     
   27   13   36 1     
   28   14   15 1     
   29   14   37 1     
   30   14   38 1     
   31   15   23 1     
   32   15   16 1     
   33   16   17 2     
   34   16   39 1     
   35   17   18 1     
   36   17   44 1     
   37   18   23 ar    
   38   18   19 ar    
   39   19   20 ar    
   40   19   40 1     
   41   20   21 ar    
   42   20   41 1     
   43   21   22 ar    
   44   21   42 1     
   45   22   23 ar    
   46   22   43 1     
   47    2   45 1     
   48    2   46 1     
   49   10   47 1     
   50   10   48 1     
   51   13   49 1     
   52   13   50 1     
@<TRIPOS>SUBSTRUCTURE
      1 S1             1
@<TRIPOS>SET
LONE_PAIRS      STATIC     ATOMS    <user>   **** ""
6 45 46 47 48 49 50
DONOR_HYDROGENS      STATIC     ATOMS    <user>   **** ""
2 36 44
ATOM$BLUE        STATIC     ATOMS    COLORGROUP SYSTEM
6 45 46 47 48 49 50
ATOM$RED        STATIC     ATOMS    COLORGROUP SYSTEM
2 36 44
