AV-unprocessed.smi:2292|AV-procd|sdf|9213|dock2
  -GOLD-   2272012433D 1   1.00000     0.00000
 Structure written by MMmdl.
 33 34  0  0  0  0  0  0  0  0  1 V2000
  152.0009  145.9060  160.3098 C   0  0  0  0  0  0  0  0  0  0  0  0
  152.0390  144.5463  159.6442 C   0  0  0  0  0  0  0  0  0  0  0  0
  152.8444  143.5115  160.1571 C   0  0  0  0  0  0  0  0  0  0  0  0
  152.8334  142.2693  159.4927 C   0  0  0  0  0  0  0  0  0  0  0  0
  153.6772  141.1133  159.9873 C   0  0  0  0  0  0  0  0  0  0  0  0
  152.0887  142.0288  158.3924 N   0  0  0  0  0  0  0  0  0  0  0  0
  151.3092  143.0181  157.8896 C   0  0  0  0  0  0  0  0  0  0  0  0
  150.4926  142.8690  156.7371 N   0  0  0  0  0  0  0  0  0  0  0  0
  150.1431  141.7335  156.1071 C   0  0  0  0  0  0  0  0  0  0  0  0
  150.4673  140.5973  156.4538 O   0  0  0  0  0  0  0  0  0  0  0  0
  149.3782  141.9894  155.0360 N   0  0  0  0  0  0  0  0  0  0  0  0
  148.8340  140.9784  154.1388 C   0  0  0  0  0  0  0  0  0  0  0  0
  147.3255  141.0058  153.9817 C   0  0  0  0  0  0  0  0  0  0  0  0
  146.5965  142.3236  153.8599 C   0  0  0  0  0  0  0  0  0  0  0  0
  146.4308  141.4837  155.1025 C   0  0  0  0  0  0  0  0  0  0  0  0
  151.2641  144.2944  158.4941 C   0  0  0  0  0  0  0  0  0  0  0  0
  152.6210  145.9271  161.2065 H   0  0  0  0  0  0  0  0  0  0  0  0
  150.9796  146.1577  160.5963 H   0  0  0  0  0  0  0  0  0  0  0  0
  152.3650  146.6717  159.6246 H   0  0  0  0  0  0  0  0  0  0  0  0
  153.4542  143.6654  161.0355 H   0  0  0  0  0  0  0  0  0  0  0  0
  154.1818  141.3615  160.9217 H   0  0  0  0  0  0  0  0  0  0  0  0
  154.4360  140.8565  159.2477 H   0  0  0  0  0  0  0  0  0  0  0  0
  153.0548  140.2349  160.1602 H   0  0  0  0  0  0  0  0  0  0  0  0
  150.1332  143.7273  156.3467 H   0  0  0  0  0  0  0  0  0  0  0  0
  149.1604  142.9517  154.8226 H   0  0  0  0  0  0  0  0  0  0  0  0
  149.3085  141.0567  153.1590 H   0  0  0  0  0  0  0  0  0  0  0  0
  149.1152  140.0031  154.5364 H   0  0  0  0  0  0  0  0  0  0  0  0
  146.9351  140.2008  153.3615 H   0  0  0  0  0  0  0  0  0  0  0  0
  147.1817  143.2371  153.9471 H   0  0  0  0  0  0  0  0  0  0  0  0
  145.7563  142.3718  153.1701 H   0  0  0  0  0  0  0  0  0  0  0  0
  145.4833  140.9674  155.2410 H   0  0  0  0  0  0  0  0  0  0  0  0
  146.9062  141.8375  156.0154 H   0  0  0  0  0  0  0  0  0  0  0  0
  150.6396  145.0746  158.0831 H   0  0  0  0  0  0  0  0  0  0  0  0
  1  2  1  0  0  0  0
  1 17  1  0  0  0  0
  1 18  1  0  0  0  0
  1 19  1  0  0  0  0
  2 16  1  0  0  0  0
  2  3  2  0  0  0  0
  3  4  1  0  0  0  0
  3 20  1  0  0  0  0
  4  5  1  0  0  0  0
  4  6  2  0  0  0  0
  5 21  1  0  0  0  0
  5 22  1  0  0  0  0
  5 23  1  0  0  0  0
  6  7  1  0  0  0  0
  7  8  1  0  0  0  0
  7 16  2  0  0  0  0
  8  9  1  0  0  0  0
  8 24  1  0  0  0  0
  9 10  2  0  0  0  0
  9 11  1  0  0  0  0
 11 12  1  0  0  0  0
 11 25  1  0  0  0  0
 12 13  1  0  0  0  0
 12 26  1  0  0  0  0
 12 27  1  0  0  0  0
 13 15  1  0  0  0  0
 13 14  1  0  0  0  0
 13 28  1  0  0  0  0
 14 15  1  0  0  0  0
 14 29  1  0  0  0  0
 14 30  1  0  0  0  0
 15 31  1  0  0  0  0
 15 32  1  0  0  0  0
 16 33  1  0  0  0  0
M  END
> <s_m_source_file>
AV-unprocessed.smi

> <i_m_source_file_index>
2292

> <i_lp_mmshare_version>
43012

> <i_f3d_flags>
0

> <s_epik_input>
W0NIM11jMVtjSF1jKFtDSDNdKW5jKFtjSF0xKVtOSF1DKD1PKVtOSF1bQ0gyXVtDSF0yW0NIMl1bQ0gyXTI=

> <s_epik_cmdline>
J2VwaWtfcHl0aG9uJywgJy1waCcsICc3LjAnLCAnLXRuJywgJzgnLCAnLW1hJywgJzIwMCcsICctbWV0YWxfYmluZGluZycsICctaW1hZScsICc8aW5maWxlLm1hZT4nLCAnLW9tYWUnLCAnPG91dGZpbGUubWFlPic=

> <r_lp_tautomer_probability>
1

> <r_epik_Ionization_Penalty>
0.000259455

> <r_epik_Ionization_Penalty_Charging>
0

> <r_epik_Ionization_Penalty_Neutral>
0.000259455

> <r_epik_State_Penalty>
-0

> <r_epik_Charging_Adjusted_Penalty>
0

> <i_epik_Tot_Q>
0

> <i_epik_Tot_abs_Q>
0

> <r_epik_Metal_State_Penalty>
-0

> <b_epik_Metal_Only>
0

> <s_lp_Force_Field>
OPLS_2005

> <r_lp_Energy>
13.7347

> <b_lp_Chiralities_Consistent>
1

> <s_lp_Variant>
AV-unprocessed.smi:2292-1

> <Gold.Version>
5.8.1

> <Gold.Id.Protein>
6NUR|6NUR_protein|mol2

> <Gold.PLP.Fitness>
46.4980

> <Gold.PLP.PLP>
-41.0569

> <Gold.PLP.part.hbond>
-2.0000

> <Gold.PLP.part.metal>
0.0000

> <Gold.PLP.part.buried>
-5.6087

> <Gold.PLP.part.nonpolar>
-34.3467

> <Gold.PLP.part.repulsive>
0.2929

> <Gold.PLP.ligand.clash>
0.0000

> <Gold.PLP.ligand.torsion>
0.3205

> <Gold.PLP.Chemscore.Hbond>
1.8480

> <Gold.PLP.Chemscore.CHOScore>
0.0000

> <Gold.PLP.Chemscore.Metal>
0.0000

> <Gold.Chemscore.Hbonds>
donor molecule, donor type, donor heavy atom, donor atom, acceptor molecule, acceptor atom, score
      L1  H     8    24       P1  8028  1.00
      L1  H    11    25       P1  8028  0.88

> <Gold.PLP.Chemscore.Internal.Correction>
0.5383

> <Gold.Rescore>
     Score         DG    S(hbond)    S(metal)    S(lipo)     H(rot)  DE(clash)    DE(int)     intcor
     18.23     -19.84       1.84        0.00      95.96       1.17       0.02       1.59       ----

> <Gold.Chemscore.Fitness>
18.2342

> <Gold.Chemscore.DG>
-19.8430

> <Gold.Chemscore.ZeroCoef>
-5.4800

> <Gold.Chemscore.Hbond>
1.8363

> <Gold.Chemscore.Metal>
0.0000

> <Gold.Chemscore.Lipo>
95.9581

> <Gold.Chemscore.Internal_Hbond>
0.0000

> <Gold.Chemscore.DEClash>
0.0216

> <Gold.Chemscore.DEInternal>
1.5871

> <Gold.Chemscore.Rot>
1.1709

> <Gold.Chemscore.Internal.Correction>
   9.000000E+99

> <Gold.Chemscore.Hbonds>
donor molecule, donor type, donor heavy atom, donor atom, acceptor molecule, acceptor atom, score
      L1  H     8    24       P1  8028  0.98
      L1  H    11    25       P1  8028  0.85

> <Gold.Chemscore.Hbond.Weighted>
-6.1334

> <Gold.Chemscore.Metal.Weighted>
-0.0000

> <Gold.Chemscore.Lipo.Weighted>
-11.2271

> <Gold.Chemscore.Internal_Hbond.Weighted>
0.0000

> <Gold.Chemscore.DEClash.Weighted>
0.0216

> <Gold.Chemscore.DEInternal.Weighted>
1.5871

> <Gold.Chemscore.Rot.Weighted>
2.9975

> <Gold.Chemscore.Internal.Correction.Weighted>
   9.000000E+99

> <Gold.Protein.RotatedTorsions>
[ 6907 6896 6895 6894 ] final  -95.59 input  -60.11 | X-H torsion
[ 7974 7965 7964 7962 ] final  -44.27 input  175.53 | X-H torsion
[ 8008 7997 7996 7995 ] final  135.60 input   59.86 | X-H torsion
[ 10167 10162 10161 10158 ] final    2.14 input  -65.29 | X-H torsion
[ 10718 10713 10712 10709 ] final  100.23 input   66.30 | X-H torsion
[ 10763 10752 10751 10750 ] final   43.98 input  -60.55 | X-H torsion
[ 11005 11000 10999 10996 ] final  -93.65 input  -57.11 | X-H torsion

> <Gold.Protein.ActiveResidues>
 VAL166  LYS551  ARG553  GLY616  TRP617  ASP618  TYR619  PRO620  LYS621  CYS622 
 ASP623  PHE694  ASN695  SER759  ASP760  ASP761  ALA762  ILE779  LEU786  VAL792 
 PHE793  MET794  SER795  GLU796  ALA797  LYS798  CYS799  TRP800  GLU811  SER814 

> <Gold.Protein.RotatedAtoms>
  150.6967  134.1633  159.4184 H   0  0  0  0  0  0  0  0  0  0  0  0  # atno 6907 bound_to 6896
  151.9613  135.0120  160.0557 H   0  0  0  0  0  0  0  0  0  0  0  0  # atno 6908 bound_to 6896
  152.1924  133.4747  159.5052 H   0  0  0  0  0  0  0  0  0  0  0  0  # atno 6909 bound_to 6896
  145.9937  140.7153  142.9304 H   0  0  0  0  0  0  0  0  0  0  0  0  # atno 7974 bound_to 7965
  156.3003  140.2466  156.3607 H   0  0  0  0  0  0  0  0  0  0  0  0  # atno 8008 bound_to 7997
  154.8879  140.0410  157.1841 H   0  0  0  0  0  0  0  0  0  0  0  0  # atno 8009 bound_to 7997
  154.8627  140.2923  155.5533 H   0  0  0  0  0  0  0  0  0  0  0  0  # atno 8010 bound_to 7997
  140.6649  143.7206  150.7808 H   0  0  0  0  0  0  0  0  0  0  0  0  # atno 10167 bound_to 10162
  157.6859  131.0692  150.5068 H   0  0  0  0  0  0  0  0  0  0  0  0  # atno 10718 bound_to 10713
  152.9850  135.6085  154.3199 H   0  0  0  0  0  0  0  0  0  0  0  0  # atno 10763 bound_to 10752
  154.2909  135.2775  155.2657 H   0  0  0  0  0  0  0  0  0  0  0  0  # atno 10764 bound_to 10752
  154.4953  135.5881  153.6546 H   0  0  0  0  0  0  0  0  0  0  0  0  # atno 10765 bound_to 10752
  141.1492  133.7902  157.0188 H   0  0  0  0  0  0  0  0  0  0  0  0  # atno 11005 bound_to 11000
  144.6897  140.3113  143.7247 LP  0  0  0  0  0  0  0  0  0  0  0  0  # atno 17320 bound_to 7965
  145.7592  139.1819  143.2277 LP  0  0  0  0  0  0  0  0  0  0  0  0  # atno 17321 bound_to 7965
  140.0881  143.4904  152.2493 LP  0  0  0  0  0  0  0  0  0  0  0  0  # atno 17342 bound_to 10162
  139.5895  144.7544  151.3437 LP  0  0  0  0  0  0  0  0  0  0  0  0  # atno 17343 bound_to 10162
  156.5387  130.4203  149.6165 LP  0  0  0  0  0  0  0  0  0  0  0  0  # atno 17370 bound_to 10713
  156.3004  130.7174  151.2044 LP  0  0  0  0  0  0  0  0  0  0  0  0  # atno 17371 bound_to 10713
  140.0829  134.9637  157.1653 LP  0  0  0  0  0  0  0  0  0  0  0  0  # atno 17394 bound_to 11000
  140.3552  134.2555  155.7193 LP  0  0  0  0  0  0  0  0  0  0  0  0  # atno 17395 bound_to 11000

$$$$
