AV-unprocessed.smi:1563|AV-procd|sdf|6290|dock9
  -GOLD-   22720 6493D 1   1.00000     0.00000
 Structure written by MMmdl.
 43 44  0  0  0  0  0  0  0  0  1 V2000
  146.6442  138.8188  152.0741 C   0  0  0  0  0  0  0  0  0  0  0  0
  147.4728  139.1668  153.3061 C   0  0  0  0  0  0  0  0  0  0  0  0
  147.1072  140.0688  154.0592 O   0  0  0  0  0  0  0  0  0  0  0  0
  148.5827  138.4392  153.5028 N   0  0  0  0  0  0  0  0  0  0  0  0
  149.5063  138.6021  154.6208 C   0  0  1  0  0  0  0  0  0  0  0  0
  150.5694  137.4788  154.6208 C   0  0  0  0  0  0  0  0  0  0  0  0
  151.6820  137.7348  155.6559 C   0  0  0  0  0  0  0  0  0  0  0  0
  152.2402  139.1634  155.5264 C   0  0  0  0  0  0  0  0  0  0  0  0
  151.1242  140.1144  155.6608 N   0  0  0  0  0  0  0  0  0  0  0  0
  150.8215  140.8433  156.7649 C   0  0  0  0  0  0  0  0  0  0  0  0
  149.8581  141.6090  156.8242 O   0  0  0  0  0  0  0  0  0  0  0  0
  151.6669  140.6801  157.7968 N   0  0  0  0  0  0  0  0  0  0  0  0
  151.5371  141.3239  159.0988 C   0  0  0  0  0  0  0  0  0  0  0  0
  152.6011  142.4172  159.2937 C   0  0  0  0  0  0  0  0  0  0  0  0
  152.7890  142.7830  160.7535 C   0  0  0  0  0  0  0  0  0  0  0  0
  153.4125  141.8843  161.6453 C   0  0  0  0  0  0  0  0  0  0  0  0
  153.5586  142.2688  162.9921 C   0  0  0  0  0  0  0  0  0  0  0  0
  153.0770  143.5297  163.3936 C   0  0  0  0  0  0  0  0  0  0  0  0
  152.4674  144.3533  162.4261 C   0  0  0  0  0  0  0  0  0  0  0  0
  152.3224  143.9945  161.1319 N   0  0  0  0  0  0  0  0  0  0  0  0
  150.1843  139.9851  154.5404 C   0  0  0  0  0  0  0  0  0  0  0  0
  147.2874  138.5820  151.2258 H   0  0  0  0  0  0  0  0  0  0  0  0
  146.0045  139.6557  151.7918 H   0  0  0  0  0  0  0  0  0  0  0  0
  146.0096  137.9564  152.2792 H   0  0  0  0  0  0  0  0  0  0  0  0
  148.8030  137.7192  152.8302 H   0  0  0  0  0  0  0  0  0  0  0  0
  148.9441  138.5566  155.5558 H   0  0  0  0  0  0  0  0  0  0  0  0
  150.1022  136.5118  154.8098 H   0  0  0  0  0  0  0  0  0  0  0  0
  151.0225  137.4126  153.6308 H   0  0  0  0  0  0  0  0  0  0  0  0
  151.2842  137.5901  156.6614 H   0  0  0  0  0  0  0  0  0  0  0  0
  152.4823  137.0052  155.5311 H   0  0  0  0  0  0  0  0  0  0  0  0
  153.0423  139.3172  156.2480 H   0  0  0  0  0  0  0  0  0  0  0  0
  152.7071  139.2918  154.5488 H   0  0  0  0  0  0  0  0  0  0  0  0
  152.4434  140.0461  157.6765 H   0  0  0  0  0  0  0  0  0  0  0  0
  150.5392  141.7582  159.1634 H   0  0  0  0  0  0  0  0  0  0  0  0
  151.6041  140.5786  159.8933 H   0  0  0  0  0  0  0  0  0  0  0  0
  153.5582  142.0893  158.8859 H   0  0  0  0  0  0  0  0  0  0  0  0
  152.3237  143.3134  158.7367 H   0  0  0  0  0  0  0  0  0  0  0  0
  153.7694  140.9224  161.3075 H   0  0  0  0  0  0  0  0  0  0  0  0
  154.0307  141.6082  163.7042 H   0  0  0  0  0  0  0  0  0  0  0  0
  153.1719  143.8576  164.4182 H   0  0  0  0  0  0  0  0  0  0  0  0
  152.0859  145.3259  162.6993 H   0  0  0  0  0  0  0  0  0  0  0  0
  150.7274  140.0887  153.5997 H   0  0  0  0  0  0  0  0  0  0  0  0
  149.4329  140.7765  154.5339 H   0  0  0  0  0  0  0  0  0  0  0  0
  1  2  1  0  0  0  0
  1 22  1  0  0  0  0
  1 23  1  0  0  0  0
  1 24  1  0  0  0  0
  2  3  2  0  0  0  0
  2  4  1  0  0  0  0
  4  5  1  0  0  0  0
  4 25  1  0  0  0  0
  5 21  1  0  0  0  0
  5  6  1  0  0  0  0
  5 26  1  0  0  0  0
  6  7  1  0  0  0  0
  6 27  1  0  0  0  0
  6 28  1  0  0  0  0
  7  8  1  0  0  0  0
  7 29  1  0  0  0  0
  7 30  1  0  0  0  0
  8  9  1  0  0  0  0
  8 31  1  0  0  0  0
  8 32  1  0  0  0  0
  9 10  1  0  0  0  0
  9 21  1  0  0  0  0
 10 11  2  0  0  0  0
 10 12  1  0  0  0  0
 12 13  1  0  0  0  0
 12 33  1  0  0  0  0
 13 14  1  0  0  0  0
 13 34  1  0  0  0  0
 13 35  1  0  0  0  0
 14 15  1  0  0  0  0
 14 36  1  0  0  0  0
 14 37  1  0  0  0  0
 15 20  1  0  0  0  0
 15 16  2  0  0  0  0
 16 17  1  0  0  0  0
 16 38  1  0  0  0  0
 17 18  2  0  0  0  0
 17 39  1  0  0  0  0
 18 19  1  0  0  0  0
 18 40  1  0  0  0  0
 19 20  2  0  0  0  0
 19 41  1  0  0  0  0
 21 42  1  0  0  0  0
 21 43  1  0  0  0  0
M  END
> <s_m_source_file>
AV-unprocessed.smi

> <i_m_source_file_index>
1563

> <i_lp_mmshare_version>
43012

> <i_f3d_flags>
0

> <s_epik_input>
W0NIM11DKD1PKVtOSF1bQ0BASF0xW0NIMl1bQ0gyXVtDSDJdTihbQ0gyXTEpQyg9TylbTkhdW0NIMl1bQ0gyXWMyW2NIXVtjSF1bY0hdW2NIXW4y

> <s_epik_cmdline>
J2VwaWtfcHl0aG9uJywgJy1waCcsICc3LjAnLCAnLXRuJywgJzgnLCAnLW1hJywgJzIwMCcsICctbWV0YWxfYmluZGluZycsICctaW1hZScsICc8aW5maWxlLm1hZT4nLCAnLW9tYWUnLCAnPG91dGZpbGUubWFlPic=

> <r_epik_Ionization_Penalty>
0.0442074

> <r_epik_Ionization_Penalty_Charging>
0

> <r_epik_Ionization_Penalty_Neutral>
0.0442074

> <r_epik_State_Penalty>
0.0374027

> <r_epik_Charging_Adjusted_Penalty>
0.0374027

> <i_epik_Tot_Q>
0

> <i_epik_Tot_abs_Q>
0

> <r_epik_Metal_State_Penalty>
0.0347963

> <b_epik_Metal_Only>
0

> <s_lp_Force_Field>
OPLS_2005

> <r_lp_Energy>
22.675

> <b_lp_Chiralities_Consistent>
1

> <s_lp_Variant>
AV-unprocessed.smi:1563-2

> <Gold.Version>
5.8.1

> <Gold.Id.Protein>
6NUR|6NUR_protein|mol2

> <Gold.PLP.Fitness>
49.6106

> <Gold.PLP.PLP>
-47.2124

> <Gold.PLP.part.hbond>
-2.0000

> <Gold.PLP.part.metal>
0.0000

> <Gold.PLP.part.buried>
-0.2741

> <Gold.PLP.part.nonpolar>
-45.2598

> <Gold.PLP.part.repulsive>
0.4335

> <Gold.PLP.ligand.clash>
0.0000

> <Gold.PLP.ligand.torsion>
0.3274

> <Gold.PLP.Chemscore.Hbond>
1.0000

> <Gold.PLP.Chemscore.CHOScore>
0.0000

> <Gold.PLP.Chemscore.Metal>
0.0000

> <Gold.Chemscore.Hbonds>
donor molecule, donor type, donor heavy atom, donor atom, acceptor molecule, acceptor atom, score
      L1  H     4    25       P1  7948  1.00

> <Gold.PLP.Chemscore.Internal.Correction>
0.0529

> <Gold.Rescore>
     Score         DG    S(hbond)    S(metal)    S(lipo)     H(rot)  DE(clash)    DE(int)     intcor
     15.94     -18.52       1.00        0.00     119.73       1.68       2.23       0.35       ----

> <Gold.Chemscore.Fitness>
15.9383

> <Gold.Chemscore.DG>
-18.5227

> <Gold.Chemscore.ZeroCoef>
-5.4800

> <Gold.Chemscore.Hbond>
0.9995

> <Gold.Chemscore.Metal>
0.0000

> <Gold.Chemscore.Lipo>
119.7313

> <Gold.Chemscore.Internal_Hbond>
0.0000

> <Gold.Chemscore.DEClash>
2.2331

> <Gold.Chemscore.DEInternal>
0.3514

> <Gold.Chemscore.Rot>
1.6813

> <Gold.Chemscore.Internal.Correction>
   9.000000E+99

> <Gold.Chemscore.Hbonds>
donor molecule, donor type, donor heavy atom, donor atom, acceptor molecule, acceptor atom, score
      L1  H     4    25       P1  7948  1.00

> <Gold.Chemscore.Hbond.Weighted>
-3.3384

> <Gold.Chemscore.Metal.Weighted>
-0.0000

> <Gold.Chemscore.Lipo.Weighted>
-14.0086

> <Gold.Chemscore.Internal_Hbond.Weighted>
0.0000

> <Gold.Chemscore.DEClash.Weighted>
2.2331

> <Gold.Chemscore.DEInternal.Weighted>
0.3514

> <Gold.Chemscore.Rot.Weighted>
4.3042

> <Gold.Chemscore.Internal.Correction.Weighted>
   9.000000E+99

> <Gold.Protein.RotatedTorsions>
[ 6907 6896 6895 6894 ] final   65.93 input  -60.11 | X-H torsion
[ 7974 7965 7964 7962 ] final  -55.30 input  175.53 | X-H torsion
[ 8008 7997 7996 7995 ] final  158.00 input   59.86 | X-H torsion
[ 10167 10162 10161 10158 ] final   -2.95 input  -65.29 | X-H torsion
[ 10718 10713 10712 10709 ] final   71.67 input   66.30 | X-H torsion
[ 10763 10752 10751 10750 ] final -145.61 input  -60.55 | X-H torsion
[ 11005 11000 10999 10996 ] final   -7.02 input  -57.11 | X-H torsion

> <Gold.Protein.ActiveResidues>
 VAL166  LYS551  ARG553  GLY616  TRP617  ASP618  TYR619  PRO620  LYS621  CYS622 
 ASP623  PHE694  ASN695  SER759  ASP760  ASP761  ALA762  ILE779  LEU786  VAL792 
 PHE793  MET794  SER795  GLU796  ALA797  LYS798  CYS799  TRP800  GLU811  SER814 

> <Gold.Protein.RotatedAtoms>
  152.4444  134.5526  159.9870 H   0  0  0  0  0  0  0  0  0  0  0  0  # atno 6907 bound_to 6896
  151.5615  133.3397  159.2980 H   0  0  0  0  0  0  0  0  0  0  0  0  # atno 6908 bound_to 6896
  150.8356  134.7661  159.6954 H   0  0  0  0  0  0  0  0  0  0  0  0  # atno 6909 bound_to 6896
  145.8757  140.8183  142.9865 H   0  0  0  0  0  0  0  0  0  0  0  0  # atno 7974 bound_to 7965
  156.2330  140.1870  156.7193 H   0  0  0  0  0  0  0  0  0  0  0  0  # atno 8008 bound_to 7997
  154.6056  140.0629  156.9453 H   0  0  0  0  0  0  0  0  0  0  0  0  # atno 8009 bound_to 7997
  155.2102  140.3299  155.4332 H   0  0  0  0  0  0  0  0  0  0  0  0  # atno 8010 bound_to 7997
  140.6871  143.6597  150.8277 H   0  0  0  0  0  0  0  0  0  0  0  0  # atno 10167 bound_to 10162
  157.6463  130.9540  150.0821 H   0  0  0  0  0  0  0  0  0  0  0  0  # atno 10718 bound_to 10713
  154.8375  135.3408  154.6531 H   0  0  0  0  0  0  0  0  0  0  0  0  # atno 10763 bound_to 10752
  153.7145  135.6962  153.5033 H   0  0  0  0  0  0  0  0  0  0  0  0  # atno 10764 bound_to 10752
  153.2427  135.4379  155.0668 H   0  0  0  0  0  0  0  0  0  0  0  0  # atno 10765 bound_to 10752
  140.7083  133.8930  155.8732 H   0  0  0  0  0  0  0  0  0  0  0  0  # atno 11005 bound_to 11000
  144.6726  140.1307  143.7444 LP  0  0  0  0  0  0  0  0  0  0  0  0  # atno 17320 bound_to 7965
  145.9084  139.2472  143.1452 LP  0  0  0  0  0  0  0  0  0  0  0  0  # atno 17321 bound_to 7965
  140.0306  143.5448  152.2762 LP  0  0  0  0  0  0  0  0  0  0  0  0  # atno 17342 bound_to 10162
  139.6239  144.7634  151.2680 LP  0  0  0  0  0  0  0  0  0  0  0  0  # atno 17343 bound_to 10162
  156.1794  130.3649  149.9056 LP  0  0  0  0  0  0  0  0  0  0  0  0  # atno 17370 bound_to 10713
  156.7011  130.8933  151.3599 LP  0  0  0  0  0  0  0  0  0  0  0  0  # atno 17371 bound_to 10713
  141.0106  134.1026  157.4225 LP  0  0  0  0  0  0  0  0  0  0  0  0  # atno 17394 bound_to 11000
  139.8878  135.0093  156.6584 LP  0  0  0  0  0  0  0  0  0  0  0  0  # atno 17395 bound_to 11000

$$$$
