AV-unprocessed.smi:1120|AV-procd|sdf|4820|dock4
  -GOLD-   22720 3373D 1   1.00000     0.00000
 Structure written by MMmdl.
 49 50  0  0  0  0  0  0  0  0  2 V2000
  153.2054  142.5692  161.1659 C   0  0  0  0  0  0  0  0  0  0  0  0
  152.8306  142.5496  159.6771 C   0  0  2  0  0  0  0  0  0  0  0  0
  152.0051  143.7910  159.2866 C   0  0  0  0  0  0  0  0  0  0  0  0
  151.6273  143.7749  157.7965 C   0  0  0  0  0  0  0  0  0  0  0  0
  150.8792  142.4833  157.4260 C   0  0  1  0  0  0  0  0  0  0  0  0
  150.5982  142.4676  155.9892 N   0  0  0  0  0  0  0  0  0  0  0  0
  149.8395  141.1153  155.2287 S   0  0  0  0  0  0  0  0  0  0  0  0
  148.9173  141.6495  154.2150 O   0  0  0  0  0  0  0  0  0  0  0  0
  150.9092  140.1819  154.8423 O   0  0  0  0  0  0  0  0  0  0  0  0
  148.8414  140.3673  156.5973 C   0  0  0  0  0  0  0  0  0  0  0  0
  148.3513  138.9715  156.2142 C   0  0  0  0  0  0  0  0  0  0  0  0
  147.1450  138.7325  156.1708 O   0  0  0  0  0  0  0  0  0  0  0  0
  149.2944  138.0566  155.9423 N   0  0  0  0  0  0  0  0  0  0  0  0
  149.0327  136.6800  155.5419 C   0  0  0  0  0  0  0  0  0  0  0  0
  150.3367  135.9083  155.2779 C   0  0  0  0  0  0  0  0  0  0  0  0
  150.0766  134.4858  154.8229 C   0  0  0  0  0  0  0  0  0  0  0  0
  150.6017  133.3706  155.5110 C   0  0  0  0  0  0  0  0  0  0  0  0
  150.3309  132.0731  155.0283 C   0  0  0  0  0  0  0  0  0  0  0  0
  149.5433  131.9182  153.8688 C   0  0  0  0  0  0  0  0  0  0  0  0
  149.0458  133.0667  153.2200 C   0  0  0  0  0  0  0  0  0  0  0  0
  149.3271  134.2929  153.7133 N   0  3  0  0  0  0  0  0  0  0  0  0
  151.6921  141.2362  157.8159 C   0  0  0  0  0  0  0  0  0  0  0  0
  152.0727  141.2605  159.3047 C   0  0  0  0  0  0  0  0  0  0  0  0
  152.3181  142.5455  161.7993 H   0  0  0  0  0  0  0  0  0  0  0  0
  153.7693  143.4678  161.4172 H   0  0  0  0  0  0  0  0  0  0  0  0
  153.8234  141.7095  161.4265 H   0  0  0  0  0  0  0  0  0  0  0  0
  153.7594  142.5705  159.1050 H   0  0  0  0  0  0  0  0  0  0  0  0
  151.0974  143.8352  159.8900 H   0  0  0  0  0  0  0  0  0  0  0  0
  152.5672  144.6985  159.5093 H   0  0  0  0  0  0  0  0  0  0  0  0
  151.0105  144.6439  157.5639 H   0  0  0  0  0  0  0  0  0  0  0  0
  152.5317  143.8668  157.1931 H   0  0  0  0  0  0  0  0  0  0  0  0
  149.9333  142.4671  157.9689 H   0  0  0  0  0  0  0  0  0  0  0  0
  151.2373  142.9984  155.3984 H   0  0  0  0  0  0  0  0  0  0  0  0
  149.4283  140.3494  157.5150 H   0  0  0  0  0  0  0  0  0  0  0  0
  147.9805  141.0134  156.7705 H   0  0  0  0  0  0  0  0  0  0  0  0
  150.2621  138.3372  156.0103 H   0  0  0  0  0  0  0  0  0  0  0  0
  148.4692  136.1986  156.3416 H   0  0  0  0  0  0  0  0  0  0  0  0
  148.3935  136.6659  154.6575 H   0  0  0  0  0  0  0  0  0  0  0  0
  150.9316  136.4165  154.5177 H   0  0  0  0  0  0  0  0  0  0  0  0
  150.9482  135.8867  156.1811 H   0  0  0  0  0  0  0  0  0  0  0  0
  151.2067  133.5061  156.3958 H   0  0  0  0  0  0  0  0  0  0  0  0
  150.7241  131.2075  155.5413 H   0  0  0  0  0  0  0  0  0  0  0  0
  149.3251  130.9332  153.4827 H   0  0  0  0  0  0  0  0  0  0  0  0
  148.4366  133.0425  152.3284 H   0  0  0  0  0  0  0  0  0  0  0  0
  151.1214  140.3325  157.6018 H   0  0  0  0  0  0  0  0  0  0  0  0
  152.5989  141.1806  157.2119 H   0  0  0  0  0  0  0  0  0  0  0  0
  152.6834  140.3878  159.5386 H   0  0  0  0  0  0  0  0  0  0  0  0
  151.1694  141.1756  159.9107 H   0  0  0  0  0  0  0  0  0  0  0  0
  148.9570  135.1098  153.2270 H   0  0  0  0  0  0  0  0  0  0  0  0
  1  2  1  0  0  0  0
  1 24  1  0  0  0  0
  1 25  1  0  0  0  0
  1 26  1  0  0  0  0
  2 23  1  0  0  0  0
  2  3  1  0  0  0  0
  2 27  1  0  0  0  0
  3  4  1  0  0  0  0
  3 28  1  0  0  0  0
  3 29  1  0  0  0  0
  4  5  1  0  0  0  0
  4 30  1  0  0  0  0
  4 31  1  0  0  0  0
  5  6  1  0  0  0  0
  5 22  1  0  0  0  0
  5 32  1  0  0  0  0
  6  7  1  0  0  0  0
  6 33  1  0  0  0  0
  7  8  2  0  0  0  0
  7  9  2  0  0  0  0
  7 10  1  0  0  0  0
 10 11  1  0  0  0  0
 10 34  1  0  0  0  0
 10 35  1  0  0  0  0
 11 12  2  0  0  0  0
 11 13  1  0  0  0  0
 13 14  1  0  0  0  0
 13 36  1  0  0  0  0
 14 15  1  0  0  0  0
 14 37  1  0  0  0  0
 14 38  1  0  0  0  0
 15 16  1  0  0  0  0
 15 39  1  0  0  0  0
 15 40  1  0  0  0  0
 16 21  1  0  0  0  0
 16 17  2  0  0  0  0
 17 18  1  0  0  0  0
 17 41  1  0  0  0  0
 18 19  2  0  0  0  0
 18 42  1  0  0  0  0
 19 20  1  0  0  0  0
 19 43  1  0  0  0  0
 20 21  2  0  0  0  0
 20 44  1  0  0  0  0
 21 49  1  0  0  0  0
 22 23  1  0  0  0  0
 22 45  1  0  0  0  0
 22 46  1  0  0  0  0
 23 47  1  0  0  0  0
 23 48  1  0  0  0  0
M  CHG  1  21   1
M  END
> <s_m_source_file>
AV-unprocessed.smi

> <i_m_source_file_index>
1120

> <i_lp_mmshare_version>
43012

> <i_f3d_flags>
0

> <s_epik_input>
W0NIM11bQ0BASF0xW0NIMl1bQ0gyXVtDQEhdKFtDSDJdW0NIMl0xKVtOSF1TKD1PKSg9TylbQ0gyXUMoPU8pW05IXVtDSDJdW0NIMl1jMltjSF1bY0hdW2NIXVtjSF1uMg==

> <s_epik_cmdline>
J2VwaWtfcHl0aG9uJywgJy1waCcsICc3LjAnLCAnLXRuJywgJzgnLCAnLW1hJywgJzIwMCcsICctbWV0YWxfYmluZGluZycsICctaW1hZScsICc8aW5maWxlLm1hZT4nLCAnLW9tYWUnLCAnPG91dGZpbGUubWFlPic=

> <r_epik_Ionization_Penalty>
1.97387

> <r_epik_Ionization_Penalty_Charging>
1.97382

> <r_epik_Ionization_Penalty_Neutral>
4.57635e-05

> <r_epik_State_Penalty>
2.10057

> <r_epik_Charging_Adjusted_Penalty>
4.07439

> <i_epik_Tot_Q>
1

> <i_epik_Tot_abs_Q>
1

> <r_epik_Metal_State_Penalty>
2.15877

> <b_epik_Metal_Only>
0

> <s_lp_Force_Field>
OPLS_2005

> <r_lp_Energy>
9.01473

> <b_lp_Chiralities_Consistent>
1

> <s_lp_Variant>
AV-unprocessed.smi:1120-3

> <Gold.Version>
5.8.1

> <Gold.Id.Protein>
6NUR|6NUR_protein|mol2

> <Gold.PLP.Fitness>
54.6594

> <Gold.PLP.PLP>
-44.5107

> <Gold.PLP.part.hbond>
-4.2668

> <Gold.PLP.part.metal>
0.0000

> <Gold.PLP.part.buried>
-3.3535

> <Gold.PLP.part.nonpolar>
-36.4230

> <Gold.PLP.part.repulsive>
0.4176

> <Gold.PLP.ligand.clash>
0.0000

> <Gold.PLP.ligand.torsion>
0.8705

> <Gold.PLP.Chemscore.Hbond>
3.5616

> <Gold.PLP.Chemscore.CHOScore>
0.0000

> <Gold.PLP.Chemscore.Metal>
0.0000

> <Gold.Chemscore.Hbonds>
donor molecule, donor type, donor heavy atom, donor atom, acceptor molecule, acceptor atom, score
      L1  H    21    49       P1  7948  1.98
      P1  H  7989  7998       L1     9  1.00
      P1  H  8011  8017       L1     8  0.31

> <Gold.PLP.Chemscore.Internal.Correction>
1.2049

> <Gold.Rescore>
     Score         DG    S(hbond)    S(metal)    S(lipo)     H(rot)  DE(clash)    DE(int)     intcor
     17.09     -18.23       1.76        0.00     103.48       2.05       0.01       1.13       ----

> <Gold.Chemscore.Fitness>
17.0883

> <Gold.Chemscore.DG>
-18.2345

> <Gold.Chemscore.ZeroCoef>
-5.4800

> <Gold.Chemscore.Hbond>
1.7624

> <Gold.Chemscore.Metal>
0.0000

> <Gold.Chemscore.Lipo>
103.4750

> <Gold.Chemscore.Internal_Hbond>
0.0000

> <Gold.Chemscore.DEClash>
0.0139

> <Gold.Chemscore.DEInternal>
1.1323

> <Gold.Chemscore.Rot>
2.0463

> <Gold.Chemscore.Internal.Correction>
   9.000000E+99

> <Gold.Chemscore.Hbonds>
donor molecule, donor type, donor heavy atom, donor atom, acceptor molecule, acceptor atom, score
      L1  H    21    49       P1  7948  0.32
      P1  H  7989  7998       L1     9  0.50
      P1  H  8011  8017       L1     8  0.30

> <Gold.Chemscore.Hbond.Weighted>
-5.8865

> <Gold.Chemscore.Metal.Weighted>
-0.0000

> <Gold.Chemscore.Lipo.Weighted>
-12.1066

> <Gold.Chemscore.Internal_Hbond.Weighted>
0.0000

> <Gold.Chemscore.DEClash.Weighted>
0.0139

> <Gold.Chemscore.DEInternal.Weighted>
1.1323

> <Gold.Chemscore.Rot.Weighted>
5.2386

> <Gold.Chemscore.Internal.Correction.Weighted>
   9.000000E+99

> <Gold.Protein.RotatedTorsions>
[ 6907 6896 6895 6894 ] final  173.70 input  -60.11 | X-H torsion
[ 7974 7965 7964 7962 ] final -136.54 input  175.53 | X-H torsion
[ 8008 7997 7996 7995 ] final -168.31 input   59.86 | X-H torsion
[ 10167 10162 10161 10158 ] final  -99.99 input  -65.29 | X-H torsion
[ 10718 10713 10712 10709 ] final    2.89 input   66.30 | X-H torsion
[ 10763 10752 10751 10750 ] final  -59.92 input  -60.55 | X-H torsion
[ 11005 11000 10999 10996 ] final  122.31 input  -57.11 | X-H torsion

> <Gold.Protein.ActiveResidues>
 VAL166  LYS551  ARG553  GLY616  TRP617  ASP618  TYR619  PRO620  LYS621  CYS622 
 ASP623  PHE694  ASN695  SER759  ASP760  ASP761  ALA762  ILE779  LEU786  VAL792 
 PHE793  MET794  SER795  GLU796  ALA797  LYS798  CYS799  TRP800  GLU811  SER814 

> <Gold.Protein.RotatedAtoms>
  151.7641  133.3336  159.3425 H   0  0  0  0  0  0  0  0  0  0  0  0  # atno 6907 bound_to 6896
  150.7486  134.6078  159.6080 H   0  0  0  0  0  0  0  0  0  0  0  0  # atno 6908 bound_to 6896
  152.3385  134.7168  160.0322 H   0  0  0  0  0  0  0  0  0  0  0  0  # atno 6909 bound_to 6896
  144.8919  140.6653  143.5140 H   0  0  0  0  0  0  0  0  0  0  0  0  # atno 7974 bound_to 7965
  155.8897  140.1023  157.1427 H   0  0  0  0  0  0  0  0  0  0  0  0  # atno 8008 bound_to 7997
  154.4013  140.1313  156.4364 H   0  0  0  0  0  0  0  0  0  0  0  0  # atno 8009 bound_to 7997
  155.7547  140.3464  155.5170 H   0  0  0  0  0  0  0  0  0  0  0  0  # atno 8010 bound_to 7997
  140.2567  143.3435  152.0664 H   0  0  0  0  0  0  0  0  0  0  0  0  # atno 10167 bound_to 10162
  156.8697  130.5615  149.5658 H   0  0  0  0  0  0  0  0  0  0  0  0  # atno 10718 bound_to 10713
  154.2612  135.6308  153.5275 H   0  0  0  0  0  0  0  0  0  0  0  0  # atno 10763 bound_to 10752
  152.9895  135.5588  154.5702 H   0  0  0  0  0  0  0  0  0  0  0  0  # atno 10764 bound_to 10752
  154.5251  135.2885  155.1204 H   0  0  0  0  0  0  0  0  0  0  0  0  # atno 10765 bound_to 10752
  139.9263  134.9641  156.8090 H   0  0  0  0  0  0  0  0  0  0  0  0  # atno 11005 bound_to 11000
  145.3769  139.1646  143.4302 LP  0  0  0  0  0  0  0  0  0  0  0  0  # atno 17320 bound_to 7965
  146.3058  140.3846  142.8687 LP  0  0  0  0  0  0  0  0  0  0  0  0  # atno 17321 bound_to 7965
  139.5029  144.6745  151.6162 LP  0  0  0  0  0  0  0  0  0  0  0  0  # atno 17342 bound_to 10162
  140.5998  143.9630  150.6379 LP  0  0  0  0  0  0  0  0  0  0  0  0  # atno 17343 bound_to 10162
  156.0733  130.5761  150.9425 LP  0  0  0  0  0  0  0  0  0  0  0  0  # atno 17370 bound_to 10713
  157.6203  131.0930  150.8635 LP  0  0  0  0  0  0  0  0  0  0  0  0  # atno 17371 bound_to 10713
  140.6328  133.9890  155.7670 LP  0  0  0  0  0  0  0  0  0  0  0  0  # atno 17394 bound_to 11000
  141.0822  134.0045  157.3368 LP  0  0  0  0  0  0  0  0  0  0  0  0  # atno 17395 bound_to 11000

$$$$
