AV-unprocessed.smi:906|AV-procd|sdf|4103|dock6
  -GOLD-   22720 1593D 1   1.00000     0.00000
 Structure written by MMmdl.
 48 49  0  0  0  0  0  0  0  0  2 V2000
  151.9725  145.7057  159.7947 C   0  0  0  0  0  0  0  0  0  0  0  0
  151.9498  144.2869  159.2668 C   0  0  0  0  0  0  0  0  0  0  0  0
  152.7808  143.2749  159.7933 C   0  0  0  0  0  0  0  0  0  0  0  0
  152.7060  141.9731  159.2557 C   0  0  0  0  0  0  0  0  0  0  0  0
  151.8020  141.7095  158.2036 C   0  0  0  0  0  0  0  0  0  0  0  0
  151.6931  140.3206  157.6060 C   0  0  0  0  0  0  0  0  0  0  0  0
  151.2593  140.3574  156.1315 C   0  0  0  0  0  0  0  0  0  0  0  0
  149.8235  140.5748  156.0000 N   0  0  0  0  0  0  0  0  0  0  0  0
  149.1929  140.9065  154.8602 C   0  0  0  0  0  0  0  0  0  0  0  0
  149.7979  141.0430  153.7958 O   0  0  0  0  0  0  0  0  0  0  0  0
  147.8479  141.0396  154.9729 N   0  0  0  0  0  0  0  0  0  0  0  0
  147.0819  141.2404  156.2114 C   0  0  0  0  0  0  0  0  0  0  0  0
  146.5431  142.6837  156.2307 C   0  0  0  0  0  0  0  0  0  0  0  0
  145.6957  142.9248  155.0561 N   0  0  0  0  0  0  0  0  0  0  0  0
  145.0284  144.2362  155.1248 C   0  0  1  0  0  0  0  0  0  0  0  0
  144.6695  144.8279  153.7439 C   0  0  0  0  0  0  0  0  0  0  0  0
  143.8187  144.2194  156.0895 C   0  0  0  0  0  0  0  0  0  0  0  0
  143.1351  143.0823  155.9542 F   0  0  0  0  0  0  0  0  0  0  0  0
  144.2627  144.2860  157.3444 F   0  0  0  0  0  0  0  0  0  0  0  0
  142.9953  145.2476  155.8855 F   0  0  0  0  0  0  0  0  0  0  0  0
  146.4354  142.6657  153.8130 C   0  0  0  0  0  0  0  0  0  0  0  0
  146.9737  141.2220  153.8112 C   0  0  0  0  0  0  0  0  0  0  0  0
  150.9945  142.7604  157.7183 C   0  0  0  0  0  0  0  0  0  0  0  0
  151.0960  143.9937  158.2602 N   0  3  0  0  0  0  0  0  0  0  0  0
  152.9160  145.9173  160.2986 H   0  0  0  0  0  0  0  0  0  0  0  0
  151.1613  145.8561  160.5076 H   0  0  0  0  0  0  0  0  0  0  0  0
  151.8552  146.4232  158.9821 H   0  0  0  0  0  0  0  0  0  0  0  0
  153.4675  143.4909  160.5991 H   0  0  0  0  0  0  0  0  0  0  0  0
  153.3347  141.1874  159.6493 H   0  0  0  0  0  0  0  0  0  0  0  0
  152.6579  139.8216  157.7057 H   0  0  0  0  0  0  0  0  0  0  0  0
  150.9832  139.7342  158.1909 H   0  0  0  0  0  0  0  0  0  0  0  0
  151.7741  141.1655  155.6110 H   0  0  0  0  0  0  0  0  0  0  0  0
  151.5423  139.4327  155.6252 H   0  0  0  0  0  0  0  0  0  0  0  0
  149.2654  140.4685  156.8347 H   0  0  0  0  0  0  0  0  0  0  0  0
  146.2535  140.5306  156.2407 H   0  0  0  0  0  0  0  0  0  0  0  0
  147.6542  141.0554  157.1199 H   0  0  0  0  0  0  0  0  0  0  0  0
  145.9635  142.8387  157.1414 H   0  0  0  0  0  0  0  0  0  0  0  0
  147.3753  143.3876  156.2544 H   0  0  0  0  0  0  0  0  0  0  0  0
  145.7507  144.9133  155.5829 H   0  0  0  0  0  0  0  0  0  0  0  0
  144.2868  145.8427  153.8516 H   0  0  0  0  0  0  0  0  0  0  0  0
  143.8968  144.2480  153.2393 H   0  0  0  0  0  0  0  0  0  0  0  0
  145.5335  144.8843  153.0830 H   0  0  0  0  0  0  0  0  0  0  0  0
  145.7891  142.7971  152.9476 H   0  0  0  0  0  0  0  0  0  0  0  0
  147.2651  143.3656  153.7080 H   0  0  0  0  0  0  0  0  0  0  0  0
  147.4815  141.0203  152.8672 H   0  0  0  0  0  0  0  0  0  0  0  0
  146.1483  140.5098  153.8603 H   0  0  0  0  0  0  0  0  0  0  0  0
  150.2742  142.6522  156.9201 H   0  0  0  0  0  0  0  0  0  0  0  0
  150.5014  144.7372  157.8931 H   0  0  0  0  0  0  0  0  0  0  0  0
  1  2  1  0  0  0  0
  1 25  1  0  0  0  0
  1 26  1  0  0  0  0
  1 27  1  0  0  0  0
  2 24  1  0  0  0  0
  2  3  2  0  0  0  0
  3  4  1  0  0  0  0
  3 28  1  0  0  0  0
  4  5  2  0  0  0  0
  4 29  1  0  0  0  0
  5  6  1  0  0  0  0
  5 23  1  0  0  0  0
  6  7  1  0  0  0  0
  6 30  1  0  0  0  0
  6 31  1  0  0  0  0
  7  8  1  0  0  0  0
  7 32  1  0  0  0  0
  7 33  1  0  0  0  0
  8  9  1  0  0  0  0
  8 34  1  0  0  0  0
  9 10  2  0  0  0  0
  9 11  1  0  0  0  0
 11 22  1  0  0  0  0
 11 12  1  0  0  0  0
 12 13  1  0  0  0  0
 12 35  1  0  0  0  0
 12 36  1  0  0  0  0
 13 14  1  0  0  0  0
 13 37  1  0  0  0  0
 13 38  1  0  0  0  0
 14 15  1  0  0  0  0
 14 21  1  0  0  0  0
 15 16  1  0  0  0  0
 15 17  1  0  0  0  0
 15 39  1  0  0  0  0
 16 40  1  0  0  0  0
 16 41  1  0  0  0  0
 16 42  1  0  0  0  0
 17 18  1  0  0  0  0
 17 19  1  0  0  0  0
 17 20  1  0  0  0  0
 21 22  1  0  0  0  0
 21 43  1  0  0  0  0
 21 44  1  0  0  0  0
 22 45  1  0  0  0  0
 22 46  1  0  0  0  0
 23 24  2  0  0  0  0
 23 47  1  0  0  0  0
 24 48  1  0  0  0  0
M  CHG  1  24   1
M  END
> <s_m_source_file>
AV-unprocessed.smi

> <i_m_source_file_index>
906

> <i_lp_mmshare_version>
43012

> <i_f3d_flags>
0

> <s_epik_input>
W0NIM11jMVtjSF1bY0hdYyhbY0hdbjEpW0NIMl1bQ0gyXVtOSF1DKD1PKU4yW0NIMl1bQ0gyXU4oW0NASF0oW0NIM10pQyhGKShGKUYpW0NIMl1bQ0gyXTI=

> <s_epik_cmdline>
J2VwaWtfcHl0aG9uJywgJy1waCcsICc3LjAnLCAnLXRuJywgJzgnLCAnLW1hJywgJzIwMCcsICctbWV0YWxfYmluZGluZycsICctaW1hZScsICc8aW5maWxlLm1hZT4nLCAnLW9tYWUnLCAnPG91dGZpbGUubWFlPic=

> <r_epik_Ionization_Penalty>
1.4413

> <r_epik_Ionization_Penalty_Charging>
1.42075

> <r_epik_Ionization_Penalty_Neutral>
0.0205507

> <r_epik_State_Penalty>
1.52216

> <r_epik_Charging_Adjusted_Penalty>
2.94291

> <i_epik_Tot_Q>
1

> <i_epik_Tot_abs_Q>
1

> <r_epik_Metal_State_Penalty>
1.57308

> <b_epik_Metal_Only>
0

> <s_lp_Force_Field>
OPLS_2005

> <r_lp_Energy>
53.1846

> <b_lp_Chiralities_Consistent>
1

> <s_lp_Variant>
AV-unprocessed.smi:906-4

> <Gold.Version>
5.8.1

> <Gold.Id.Protein>
6NUR|6NUR_protein|mol2

> <Gold.PLP.Fitness>
45.3713

> <Gold.PLP.PLP>
-44.7557

> <Gold.PLP.part.hbond>
-1.7868

> <Gold.PLP.part.metal>
0.0000

> <Gold.PLP.part.buried>
-6.1145

> <Gold.PLP.part.nonpolar>
-38.3114

> <Gold.PLP.part.repulsive>
2.4638

> <Gold.PLP.ligand.clash>
0.0000

> <Gold.PLP.ligand.torsion>
1.9493

> <Gold.PLP.Chemscore.Hbond>
1.2800

> <Gold.PLP.Chemscore.CHOScore>
0.0000

> <Gold.PLP.Chemscore.Metal>
0.0000

> <Gold.Chemscore.Hbonds>
donor molecule, donor type, donor heavy atom, donor atom, acceptor molecule, acceptor atom, score
      P1  H  7989  7998       L1    10  0.35
      P1  H  8011  8017       L1    10  0.90

> <Gold.PLP.Chemscore.Internal.Correction>
0.6741

> <Gold.Rescore>
     Score         DG    S(hbond)    S(metal)    S(lipo)     H(rot)  DE(clash)    DE(int)     intcor
     12.93     -18.21       1.25        0.00     109.29       1.66       1.41       3.87       ----

> <Gold.Chemscore.Fitness>
12.9280

> <Gold.Chemscore.DG>
-18.2088

> <Gold.Chemscore.ZeroCoef>
-5.4800

> <Gold.Chemscore.Hbond>
1.2513

> <Gold.Chemscore.Metal>
0.0000

> <Gold.Chemscore.Lipo>
109.2908

> <Gold.Chemscore.Internal_Hbond>
0.0000

> <Gold.Chemscore.DEClash>
1.4072

> <Gold.Chemscore.DEInternal>
3.8736

> <Gold.Chemscore.Rot>
1.6553

> <Gold.Chemscore.Internal.Correction>
   9.000000E+99

> <Gold.Chemscore.Hbonds>
donor molecule, donor type, donor heavy atom, donor atom, acceptor molecule, acceptor atom, score
      P1  H  7989  7998       L1    10  0.36
      P1  H  8011  8017       L1    10  0.85

> <Gold.Chemscore.Hbond.Weighted>
-4.1794

> <Gold.Chemscore.Metal.Weighted>
-0.0000

> <Gold.Chemscore.Lipo.Weighted>
-12.7870

> <Gold.Chemscore.Internal_Hbond.Weighted>
0.0000

> <Gold.Chemscore.DEClash.Weighted>
1.4072

> <Gold.Chemscore.DEInternal.Weighted>
3.8736

> <Gold.Chemscore.Rot.Weighted>
4.2376

> <Gold.Chemscore.Internal.Correction.Weighted>
   9.000000E+99

> <Gold.Protein.RotatedTorsions>
[ 6907 6896 6895 6894 ] final -128.36 input  -60.11 | X-H torsion
[ 7974 7965 7964 7962 ] final  177.72 input  175.53 | X-H torsion
[ 8008 7997 7996 7995 ] final  -66.52 input   59.86 | X-H torsion
[ 10167 10162 10161 10158 ] final  109.90 input  -65.29 | X-H torsion
[ 10718 10713 10712 10709 ] final  -43.18 input   66.30 | X-H torsion
[ 10763 10752 10751 10750 ] final  178.50 input  -60.55 | X-H torsion
[ 11005 11000 10999 10996 ] final    4.63 input  -57.11 | X-H torsion

> <Gold.Protein.ActiveResidues>
 VAL166  LYS551  ARG553  GLY616  TRP617  ASP618  TYR619  PRO620  LYS621  CYS622 
 ASP623  PHE694  ASN695  SER759  ASP760  ASP761  ALA762  ILE779  LEU786  VAL792 
 PHE793  MET794  SER795  GLU796  ALA797  LYS798  CYS799  TRP800  GLU811  SER814 

> <Gold.Protein.RotatedAtoms>
  150.9171  133.6926  159.2840 H   0  0  0  0  0  0  0  0  0  0  0  0  # atno 6907 bound_to 6896
  151.4393  135.1017  159.9675 H   0  0  0  0  0  0  0  0  0  0  0  0  # atno 6908 bound_to 6896
  152.4960  133.8583  159.7292 H   0  0  0  0  0  0  0  0  0  0  0  0  # atno 6909 bound_to 6896
  144.7165  140.0289  143.6439 H   0  0  0  0  0  0  0  0  0  0  0  0  # atno 7974 bound_to 7965
  154.4740  140.0911  156.7215 H   0  0  0  0  0  0  0  0  0  0  0  0  # atno 8008 bound_to 7997
  155.4647  140.3462  155.4299 H   0  0  0  0  0  0  0  0  0  0  0  0  # atno 8009 bound_to 7997
  156.1086  140.1441  156.9359 H   0  0  0  0  0  0  0  0  0  0  0  0  # atno 8010 bound_to 7997
  139.6730  144.7124  151.1652 H   0  0  0  0  0  0  0  0  0  0  0  0  # atno 10167 bound_to 10162
  156.2518  130.4188  149.8641 H   0  0  0  0  0  0  0  0  0  0  0  0  # atno 10718 bound_to 10713
  154.5084  135.2787  155.1363 H   0  0  0  0  0  0  0  0  0  0  0  0  # atno 10763 bound_to 10752
  154.2968  135.6256  153.5412 H   0  0  0  0  0  0  0  0  0  0  0  0  # atno 10764 bound_to 10752
  152.9914  135.5687  154.5544 H   0  0  0  0  0  0  0  0  0  0  0  0  # atno 10765 bound_to 10752
  140.5797  134.0024  155.8042 H   0  0  0  0  0  0  0  0  0  0  0  0  # atno 11005 bound_to 11000
  146.0119  139.3177  143.0865 LP  0  0  0  0  0  0  0  0  0  0  0  0  # atno 17320 bound_to 7965
  145.8672  140.9441  143.0669 LP  0  0  0  0  0  0  0  0  0  0  0  0  # atno 17321 bound_to 7965
  140.7625  143.5814  150.8891 LP  0  0  0  0  0  0  0  0  0  0  0  0  # atno 17342 bound_to 10162
  139.9481  143.6304  152.3036 LP  0  0  0  0  0  0  0  0  0  0  0  0  # atno 17343 bound_to 10162
  156.6188  130.8617  151.3471 LP  0  0  0  0  0  0  0  0  0  0  0  0  # atno 17370 bound_to 10713
  157.7217  130.9567  150.1466 LP  0  0  0  0  0  0  0  0  0  0  0  0  # atno 17371 bound_to 10713
  141.1004  133.9777  157.3089 LP  0  0  0  0  0  0  0  0  0  0  0  0  # atno 17394 bound_to 11000
  139.9323  135.0199  156.8440 LP  0  0  0  0  0  0  0  0  0  0  0  0  # atno 17395 bound_to 11000

$$$$
