AV-unprocessed.smi:1684|AV-procd|sdf|6753|dock1
  -GOLD-   22720 7513D 1   1.00000     0.00000
 Structure written by MMmdl.
 42 43  0  0  0  0  0  0  0  0  1 V2000
  145.3768  136.0207  151.5894 C   0  0  0  0  0  0  0  0  0  0  0  0
  144.1326  135.8096  152.4367 C   0  0  0  0  0  0  0  0  0  0  0  0
  143.4082  134.6051  152.3118 C   0  0  0  0  0  0  0  0  0  0  0  0
  142.2590  134.4112  153.0972 C   0  0  0  0  0  0  0  0  0  0  0  0
  141.8798  135.4374  153.9793 C   0  0  0  0  0  0  0  0  0  0  0  0
  142.5651  136.5921  154.1037 N   0  0  0  0  0  0  0  0  0  0  0  0
  143.6771  136.7952  153.3531 C   0  0  0  0  0  0  0  0  0  0  0  0
  144.4517  137.9869  153.4337 N   0  0  0  0  0  0  0  0  0  0  0  0
  145.6655  138.1610  153.9853 C   0  0  0  0  0  0  0  0  0  0  0  0
  146.3215  137.2869  154.5525 O   0  0  0  0  0  0  0  0  0  0  0  0
  146.0820  139.4282  153.8417 N   0  0  0  0  0  0  0  0  0  0  0  0
  147.3566  139.9686  154.3115 C   0  0  2  0  0  0  0  0  0  0  0  0
  147.5692  141.3536  153.6855 C   0  0  0  0  0  0  0  0  0  0  0  0
  148.5143  139.0133  153.9476 C   0  0  0  0  0  0  0  0  0  0  0  0
  149.7069  139.1068  154.7908 N   0  0  0  0  0  0  0  0  0  0  0  0
  150.8518  138.4654  154.1544 C   0  0  0  0  0  0  0  0  0  0  0  0
  152.1158  138.5463  155.0281 C   0  0  0  0  0  0  0  0  0  0  0  0
  152.4016  139.9080  155.3298 O   0  0  0  0  0  0  0  0  0  0  0  0
  151.3234  140.5604  155.9925 C   0  0  0  0  0  0  0  0  0  0  0  0
  150.0603  140.4869  155.1178 C   0  0  0  0  0  0  0  0  0  0  0  0
  145.5760  135.1573  150.9538 H   0  0  0  0  0  0  0  0  0  0  0  0
  146.2493  136.1771  152.2244 H   0  0  0  0  0  0  0  0  0  0  0  0
  145.2559  136.8917  150.9443 H   0  0  0  0  0  0  0  0  0  0  0  0
  143.7273  133.8365  151.6234 H   0  0  0  0  0  0  0  0  0  0  0  0
  141.6836  133.5002  153.0254 H   0  0  0  0  0  0  0  0  0  0  0  0
  141.0038  135.3290  154.6015 H   0  0  0  0  0  0  0  0  0  0  0  0
  144.0310  138.8029  153.0151 H   0  0  0  0  0  0  0  0  0  0  0  0
  145.4726  140.0720  153.3592 H   0  0  0  0  0  0  0  0  0  0  0  0
  147.3256  140.1179  155.3911 H   0  0  0  0  0  0  0  0  0  0  0  0
  148.4986  141.8027  154.0368 H   0  0  0  0  0  0  0  0  0  0  0  0
  146.7572  142.0326  153.9479 H   0  0  0  0  0  0  0  0  0  0  0  0
  147.6178  141.2968  152.5974 H   0  0  0  0  0  0  0  0  0  0  0  0
  148.1287  137.9939  153.9947 H   0  0  0  0  0  0  0  0  0  0  0  0
  148.7985  139.1720  152.9064 H   0  0  0  0  0  0  0  0  0  0  0  0
  150.6237  137.4184  153.9510 H   0  0  0  0  0  0  0  0  0  0  0  0
  151.0497  138.9350  153.1896 H   0  0  0  0  0  0  0  0  0  0  0  0
  151.9835  137.9819  155.9524 H   0  0  0  0  0  0  0  0  0  0  0  0
  152.9668  138.1104  154.5049 H   0  0  0  0  0  0  0  0  0  0  0  0
  151.1471  140.0951  156.9636 H   0  0  0  0  0  0  0  0  0  0  0  0
  151.5957  141.5991  156.1792 H   0  0  0  0  0  0  0  0  0  0  0  0
  150.2225  141.0554  154.2009 H   0  0  0  0  0  0  0  0  0  0  0  0
  149.2442  140.9760  155.6470 H   0  0  0  0  0  0  0  0  0  0  0  0
  1  2  1  0  0  0  0
  1 21  1  0  0  0  0
  1 22  1  0  0  0  0
  1 23  1  0  0  0  0
  2  7  1  0  0  0  0
  2  3  2  0  0  0  0
  3  4  1  0  0  0  0
  3 24  1  0  0  0  0
  4  5  2  0  0  0  0
  4 25  1  0  0  0  0
  5  6  1  0  0  0  0
  5 26  1  0  0  0  0
  6  7  2  0  0  0  0
  7  8  1  0  0  0  0
  8  9  1  0  0  0  0
  8 27  1  0  0  0  0
  9 10  2  0  0  0  0
  9 11  1  0  0  0  0
 11 12  1  0  0  0  0
 11 28  1  0  0  0  0
 12 13  1  0  0  0  0
 12 14  1  0  0  0  0
 12 29  1  0  0  0  0
 13 30  1  0  0  0  0
 13 31  1  0  0  0  0
 13 32  1  0  0  0  0
 14 15  1  0  0  0  0
 14 33  1  0  0  0  0
 14 34  1  0  0  0  0
 15 20  1  0  0  0  0
 15 16  1  0  0  0  0
 16 17  1  0  0  0  0
 16 35  1  0  0  0  0
 16 36  1  0  0  0  0
 17 18  1  0  0  0  0
 17 37  1  0  0  0  0
 17 38  1  0  0  0  0
 18 19  1  0  0  0  0
 19 20  1  0  0  0  0
 19 39  1  0  0  0  0
 19 40  1  0  0  0  0
 20 41  1  0  0  0  0
 20 42  1  0  0  0  0
M  END
> <s_m_source_file>
AV-unprocessed.smi

> <i_m_source_file_index>
1684

> <i_lp_mmshare_version>
43012

> <i_f3d_flags>
0

> <s_epik_input>
W0NIM11jMVtjSF1bY0hdW2NIXW5jMVtOSF1DKD1PKVtOSF1bQ0BIXShbQ0gzXSlbQ0gyXU4yW0NIMl1bQ0gyXU9bQ0gyXVtDSDJdMg==

> <s_epik_cmdline>
J2VwaWtfcHl0aG9uJywgJy1waCcsICc3LjAnLCAnLXRuJywgJzgnLCAnLW1hJywgJzIwMCcsICctbWV0YWxfYmluZGluZycsICctaW1hZScsICc8aW5maWxlLm1hZT4nLCAnLW9tYWUnLCAnPG91dGZpbGUubWFlPic=

> <r_epik_Ionization_Penalty>
0.26605

> <r_epik_Ionization_Penalty_Charging>
0

> <r_epik_Ionization_Penalty_Neutral>
0.26605

> <r_epik_State_Penalty>
0.257924

> <r_epik_Charging_Adjusted_Penalty>
0.257924

> <i_epik_Tot_Q>
0

> <i_epik_Tot_abs_Q>
0

> <r_epik_Metal_State_Penalty>
0.257922

> <b_epik_Metal_Only>
0

> <s_lp_Force_Field>
OPLS_2005

> <r_lp_Energy>
27.9157

> <b_lp_Chiralities_Consistent>
1

> <s_lp_Variant>
AV-unprocessed.smi:1684-1

> <Gold.Version>
5.8.1

> <Gold.Id.Protein>
6NUR|6NUR_protein|mol2

> <Gold.PLP.Fitness>
43.7782

> <Gold.PLP.PLP>
-34.6985

> <Gold.PLP.part.hbond>
-3.6203

> <Gold.PLP.part.metal>
0.0000

> <Gold.PLP.part.buried>
-4.3107

> <Gold.PLP.part.nonpolar>
-27.4332

> <Gold.PLP.part.repulsive>
0.2711

> <Gold.PLP.ligand.clash>
0.0000

> <Gold.PLP.ligand.torsion>
1.2429

> <Gold.PLP.Chemscore.Hbond>
2.9095

> <Gold.PLP.Chemscore.CHOScore>
0.9383

> <Gold.PLP.Chemscore.Metal>
0.0000

> <Gold.Chemscore.Hbonds>
donor molecule, donor type, donor heavy atom, donor atom, acceptor molecule, acceptor atom, score
      L1  H     8    27       P1 10175  1.00
      L1  H    11    28       P1 10175  0.98
      P1  H  7989  7998       L1    18  0.12
      P1  H  7997  8009       L1    18  0.78
      L1  C     5    26       P1 11000  1.00

> <Gold.PLP.Chemscore.Internal.Correction>
0.0218

> <Gold.Rescore>
     Score         DG    S(hbond)    S(metal)    S(lipo)     H(rot)  DE(clash)    DE(int)     intcor
     16.53     -18.68       2.57        0.00      71.31       1.46       0.08       2.07       ----

> <Gold.Chemscore.Fitness>
16.5268

> <Gold.Chemscore.DG>
-18.6770

> <Gold.Chemscore.ZeroCoef>
-5.4800

> <Gold.Chemscore.Hbond>
2.5707

> <Gold.Chemscore.Metal>
0.0000

> <Gold.Chemscore.Lipo>
71.3125

> <Gold.Chemscore.Internal_Hbond>
0.0000

> <Gold.Chemscore.DEClash>
0.0840

> <Gold.Chemscore.DEInternal>
2.0663

> <Gold.Chemscore.Rot>
1.4581

> <Gold.Chemscore.Internal.Correction>
   9.000000E+99

> <Gold.Chemscore.Hbonds>
donor molecule, donor type, donor heavy atom, donor atom, acceptor molecule, acceptor atom, score
      L1  H     8    27       P1 10175  1.00
      L1  H    11    28       P1 10175  0.87
      P1  H  7997  8009       L1    18  0.62

> <Gold.Chemscore.Hbond.Weighted>
-8.5861

> <Gold.Chemscore.Metal.Weighted>
-0.0000

> <Gold.Chemscore.Lipo.Weighted>
-8.3436

> <Gold.Chemscore.Internal_Hbond.Weighted>
0.0000

> <Gold.Chemscore.DEClash.Weighted>
0.0840

> <Gold.Chemscore.DEInternal.Weighted>
2.0663

> <Gold.Chemscore.Rot.Weighted>
3.7327

> <Gold.Chemscore.Internal.Correction.Weighted>
   9.000000E+99

> <Gold.Protein.RotatedTorsions>
[ 6907 6896 6895 6894 ] final  -19.75 input  -60.11 | X-H torsion
[ 7974 7965 7964 7962 ] final  -56.82 input  175.53 | X-H torsion
[ 8008 7997 7996 7995 ] final -144.99 input   59.86 | X-H torsion
[ 10167 10162 10161 10158 ] final  -62.49 input  -65.29 | X-H torsion
[ 10718 10713 10712 10709 ] final   60.37 input   66.30 | X-H torsion
[ 10763 10752 10751 10750 ] final  -35.97 input  -60.55 | X-H torsion
[ 11005 11000 10999 10996 ] final  -96.02 input  -57.11 | X-H torsion

> <Gold.Protein.ActiveResidues>
 VAL166  LYS551  ARG553  GLY616  TRP617  ASP618  TYR619  PRO620  LYS621  CYS622 
 ASP623  PHE694  ASN695  SER759  ASP760  ASP761  ALA762  ILE779  LEU786  VAL792 
 PHE793  MET794  SER795  GLU796  ALA797  LYS798  CYS799  TRP800  GLU811  SER814 

> <Gold.Protein.RotatedAtoms>
  151.2584  135.0645  159.9088 H   0  0  0  0  0  0  0  0  0  0  0  0  # atno 6907 bound_to 6896
  152.5370  134.0257  159.8012 H   0  0  0  0  0  0  0  0  0  0  0  0  # atno 6908 bound_to 6896
  151.0476  133.5602  159.2676 H   0  0  0  0  0  0  0  0  0  0  0  0  # atno 6909 bound_to 6896
  145.8582  140.8304  142.9950 H   0  0  0  0  0  0  0  0  0  0  0  0  # atno 7974 bound_to 7965
  155.5359  140.0604  157.2879 H   0  0  0  0  0  0  0  0  0  0  0  0  # atno 8008 bound_to 7997
  154.4468  140.1927  156.0586 H   0  0  0  0  0  0  0  0  0  0  0  0  # atno 8009 bound_to 7997
  156.0619  140.3271  155.7475 H   0  0  0  0  0  0  0  0  0  0  0  0  # atno 8010 bound_to 7997
  140.5935  143.2346  151.6087 H   0  0  0  0  0  0  0  0  0  0  0  0  # atno 10167 bound_to 10162
  157.5747  130.8935  149.9327 H   0  0  0  0  0  0  0  0  0  0  0  0  # atno 10718 bound_to 10713
  153.8721  135.6830  153.4773 H   0  0  0  0  0  0  0  0  0  0  0  0  # atno 10763 bound_to 10752
  153.1281  135.4710  154.9303 H   0  0  0  0  0  0  0  0  0  0  0  0  # atno 10764 bound_to 10752
  154.7709  135.3238  154.8142 H   0  0  0  0  0  0  0  0  0  0  0  0  # atno 10765 bound_to 10752
  141.1424  133.8067  157.0514 H   0  0  0  0  0  0  0  0  0  0  0  0  # atno 11005 bound_to 11000
  144.6727  140.1056  143.7458 LP  0  0  0  0  0  0  0  0  0  0  0  0  # atno 17320 bound_to 7965
  145.9278  139.2587  143.1343 LP  0  0  0  0  0  0  0  0  0  0  0  0  # atno 17321 bound_to 7965
  139.5243  144.3108  152.0994 LP  0  0  0  0  0  0  0  0  0  0  0  0  # atno 17342 bound_to 10162
  140.2276  144.4401  150.6314 LP  0  0  0  0  0  0  0  0  0  0  0  0  # atno 17343 bound_to 10162
  156.0792  130.3675  150.0614 LP  0  0  0  0  0  0  0  0  0  0  0  0  # atno 17370 bound_to 10713
  156.8762  130.9541  151.3604 LP  0  0  0  0  0  0  0  0  0  0  0  0  # atno 17371 bound_to 10713
  140.0629  134.9745  157.1336 LP  0  0  0  0  0  0  0  0  0  0  0  0  # atno 17394 bound_to 11000
  140.3822  134.2275  155.7170 LP  0  0  0  0  0  0  0  0  0  0  0  0  # atno 17395 bound_to 11000

$$$$
