AV-unprocessed.smi:1815|AV-procd|sdf|7362|dock3
  -GOLD-   22720 9 23D 1   1.00000     0.00000
 Structure written by MMmdl.
 39 40  0  0  0  0  0  0  0  0  3 V2000
  144.8883  132.6273  149.7833 C   0  0  0  0  0  0  0  0  0  0  0  0
  145.6557  133.6177  150.6663 C   0  0  2  0  0  0  0  0  0  0  0  0
  146.7091  132.9167  151.5447 C   0  0  0  0  0  0  0  0  0  0  0  0
  147.3746  133.8908  152.4421 N   0  3  2  0  0  0  0  0  0  0  0  0
  148.4382  133.2616  153.2638 C   0  0  0  0  0  0  0  0  0  0  0  0
  148.7042  134.0258  154.5700 C   0  0  0  0  0  0  0  0  0  0  0  0
  149.6859  135.0774  154.3463 N   0  0  0  0  0  0  0  0  0  0  0  0
  150.7327  135.3393  155.1394 C   0  0  0  0  0  0  0  0  0  0  0  0
  150.9182  134.6639  156.1542 O   0  0  0  0  0  0  0  0  0  0  0  0
  151.4967  136.3664  154.7048 N   0  5  0  0  0  0  0  0  0  0  0  0
  150.9944  137.6113  154.6675 C   0  0  0  0  0  0  0  0  0  0  0  0
  149.6870  137.8643  154.5387 N   0  0  0  0  0  0  0  0  0  0  0  0
  149.3827  139.2269  154.5342 C   0  0  0  0  0  0  0  0  0  0  0  0
  150.4836  140.0301  154.6721 C   0  0  0  0  0  0  0  0  0  0  0  0
  151.9444  139.0935  154.8097 S   0  0  0  0  0  0  0  0  0  0  0  0
  146.3646  134.6306  153.2384 C   0  0  0  0  0  0  0  0  0  0  0  0
  145.3224  135.2866  152.3128 C   0  0  2  0  0  0  0  0  0  0  0  0
  144.2165  135.9978  153.1006 C   0  0  0  0  0  0  0  0  0  0  0  0
  144.7179  134.2821  151.5059 O   0  0  0  0  0  0  0  0  0  0  0  0
  145.5613  132.0973  149.1090 H   0  0  0  0  0  0  0  0  0  0  0  0
  144.1466  133.1432  149.1728 H   0  0  0  0  0  0  0  0  0  0  0  0
  144.3641  131.8843  150.3851 H   0  0  0  0  0  0  0  0  0  0  0  0
  146.1431  134.3510  150.0214 H   0  0  0  0  0  0  0  0  0  0  0  0
  146.2415  132.1327  152.1434 H   0  0  0  0  0  0  0  0  0  0  0  0
  147.4529  132.4344  150.9089 H   0  0  0  0  0  0  0  0  0  0  0  0
  148.1794  132.2217  153.4701 H   0  0  0  0  0  0  0  0  0  0  0  0
  149.3650  133.2416  152.6881 H   0  0  0  0  0  0  0  0  0  0  0  0
  147.7812  134.4712  154.9442 H   0  0  0  0  0  0  0  0  0  0  0  0
  149.0798  133.3547  155.3427 H   0  0  0  0  0  0  0  0  0  0  0  0
  149.5695  135.6537  153.5255 H   0  0  0  0  0  0  0  0  0  0  0  0
  148.3531  139.5354  154.4304 H   0  0  0  0  0  0  0  0  0  0  0  0
  150.5249  141.1085  154.7022 H   0  0  0  0  0  0  0  0  0  0  0  0
  145.8748  133.9455  153.9324 H   0  0  0  0  0  0  0  0  0  0  0  0
  146.8446  135.4029  153.8383 H   0  0  0  0  0  0  0  0  0  0  0  0
  145.8124  136.0183  151.6680 H   0  0  0  0  0  0  0  0  0  0  0  0
  144.6287  136.7848  153.7327 H   0  0  0  0  0  0  0  0  0  0  0  0
  143.6775  135.3005  153.7425 H   0  0  0  0  0  0  0  0  0  0  0  0
  143.4928  136.4580  152.4274 H   0  0  0  0  0  0  0  0  0  0  0  0
  147.8334  134.5632  151.8440 H   0  0  0  0  0  0  0  0  0  0  0  0
  1  2  1  0  0  0  0
  1 20  1  0  0  0  0
  1 21  1  0  0  0  0
  1 22  1  0  0  0  0
  2 19  1  0  0  0  0
  2  3  1  0  0  0  0
  2 23  1  0  0  0  0
  3  4  1  0  0  0  0
  3 24  1  0  0  0  0
  3 25  1  0  0  0  0
  4  5  1  0  0  0  0
  4 16  1  0  0  0  0
  4 39  1  0  0  0  0
  5  6  1  0  0  0  0
  5 26  1  0  0  0  0
  5 27  1  0  0  0  0
  6  7  1  0  0  0  0
  6 28  1  0  0  0  0
  6 29  1  0  0  0  0
  7  8  1  0  0  0  0
  7 30  1  0  0  0  0
  8  9  2  0  0  0  0
  8 10  1  0  0  0  0
 10 11  1  0  0  0  0
 11 15  1  0  0  0  0
 11 12  2  0  0  0  0
 12 13  1  0  0  0  0
 13 14  2  0  0  0  0
 13 31  1  0  0  0  0
 14 15  1  0  0  0  0
 14 32  1  0  0  0  0
 16 17  1  0  0  0  0
 16 33  1  0  0  0  0
 16 34  1  0  0  0  0
 17 18  1  0  0  0  0
 17 19  1  0  0  0  0
 17 35  1  0  0  0  0
 18 36  1  0  0  0  0
 18 37  1  0  0  0  0
 18 38  1  0  0  0  0
M  CHG  1   4   1
M  CHG  1  10  -1
M  END
> <s_m_source_file>
AV-unprocessed.smi

> <i_m_source_file_index>
1815

> <i_lp_mmshare_version>
43012

> <i_f3d_flags>
0

> <s_epik_input>
W0NIM11bQ0BASF0xW0NIMl1OKFtDSDJdW0NASF0oTzEpW0NIM10pW0NIMl1bQ0gyXVtOSF1DKD1PKVtOSF1jMm5bY0hdW2NIXXMy

> <s_epik_cmdline>
J2VwaWtfcHl0aG9uJywgJy1waCcsICc3LjAnLCAnLXRuJywgJzgnLCAnLW1hJywgJzIwMCcsICctbWV0YWxfYmluZGluZycsICctaW1hZScsICc8aW5maWxlLm1hZT4nLCAnLW9tYWUnLCAnPG91dGZpbGUubWFlPic=

> <r_lp_tautomer_probability>
0.999

> <r_epik_Ionization_Penalty>
6.71699

> <r_epik_Ionization_Penalty_Charging>
5.88592

> <r_epik_Ionization_Penalty_Neutral>
0.831074

> <r_epik_State_Penalty>
6.08365

> <r_epik_Charging_Adjusted_Penalty>
11.9696

> <i_epik_Tot_Q>
0

> <i_epik_Tot_abs_Q>
2

> <r_epik_Metal_State_Penalty>
2.0947

> <b_epik_Metal_Only>
1

> <s_lp_Force_Field>
OPLS_2005

> <r_lp_Energy>
4.96906

> <b_lp_Chiralities_Consistent>
1

> <s_lp_Variant>
AV-unprocessed.smi:1815-13

> <Gold.Version>
5.8.1

> <Gold.Id.Protein>
6NUR|6NUR_protein|mol2

> <Gold.PLP.Fitness>
43.2388

> <Gold.PLP.PLP>
-31.1536

> <Gold.PLP.part.hbond>
-3.0000

> <Gold.PLP.part.metal>
0.0000

> <Gold.PLP.part.buried>
-2.5680

> <Gold.PLP.part.nonpolar>
-25.4352

> <Gold.PLP.part.repulsive>
0.5297

> <Gold.PLP.ligand.clash>
0.0000

> <Gold.PLP.ligand.torsion>
1.3646

> <Gold.PLP.Chemscore.Hbond>
4.8880

> <Gold.PLP.Chemscore.CHOScore>
0.0000

> <Gold.PLP.Chemscore.Metal>
0.0000

> <Gold.Chemscore.Hbonds>
donor molecule, donor type, donor heavy atom, donor atom, acceptor molecule, acceptor atom, score
      L1  H     4    39       P1  7948  1.70
      L1  H     7    30       P1  7948  0.85
      P1  H 10752 10763       L1    10  2.00

> <Gold.PLP.Chemscore.Internal.Correction>
0.1503

> <Gold.Rescore>
     Score         DG    S(hbond)    S(metal)    S(lipo)     H(rot)  DE(clash)    DE(int)     intcor
     13.75     -16.51       2.58        0.00      55.83       1.61       0.07       2.69       ----

> <Gold.Chemscore.Fitness>
13.7451

> <Gold.Chemscore.DG>
-16.5066

> <Gold.Chemscore.ZeroCoef>
-5.4800

> <Gold.Chemscore.Hbond>
2.5765

> <Gold.Chemscore.Metal>
0.0000

> <Gold.Chemscore.Lipo>
55.8321

> <Gold.Chemscore.Internal_Hbond>
0.0000

> <Gold.Chemscore.DEClash>
0.0680

> <Gold.Chemscore.DEInternal>
2.6935

> <Gold.Chemscore.Rot>
1.6060

> <Gold.Chemscore.Internal.Correction>
   9.000000E+99

> <Gold.Chemscore.Hbonds>
donor molecule, donor type, donor heavy atom, donor atom, acceptor molecule, acceptor atom, score
      L1  H     4    39       P1  7948  0.19
      L1  H     7    30       P1  7948  0.15
      P1  H 10752 10763       L1    10  0.49

> <Gold.Chemscore.Hbond.Weighted>
-8.6055

> <Gold.Chemscore.Metal.Weighted>
-0.0000

> <Gold.Chemscore.Lipo.Weighted>
-6.5324

> <Gold.Chemscore.Internal_Hbond.Weighted>
0.0000

> <Gold.Chemscore.DEClash.Weighted>
0.0680

> <Gold.Chemscore.DEInternal.Weighted>
2.6935

> <Gold.Chemscore.Rot.Weighted>
4.1112

> <Gold.Chemscore.Internal.Correction.Weighted>
   9.000000E+99

> <Gold.Protein.RotatedTorsions>
[ 6907 6896 6895 6894 ] final   78.41 input  -60.11 | X-H torsion
[ 7974 7965 7964 7962 ] final   53.78 input  175.53 | X-H torsion
[ 8008 7997 7996 7995 ] final   75.71 input   59.86 | X-H torsion
[ 10167 10162 10161 10158 ] final  -27.69 input  -65.29 | X-H torsion
[ 10718 10713 10712 10709 ] final -146.48 input   66.30 | X-H torsion
[ 10763 10752 10751 10750 ] final   35.48 input  -60.55 | X-H torsion
[ 11005 11000 10999 10996 ] final   49.03 input  -57.11 | X-H torsion

> <Gold.Protein.ActiveResidues>
 VAL166  LYS551  ARG553  GLY616  TRP617  ASP618  TYR619  PRO620  LYS621  CYS622 
 ASP623  PHE694  ASN695  SER759  ASP760  ASP761  ALA762  ILE779  LEU786  VAL792 
 PHE793  MET794  SER795  GLU796  ALA797  LYS798  CYS799  TRP800  GLU811  SER814 

> <Gold.Protein.RotatedAtoms>
  152.5158  134.3669  159.9304 H   0  0  0  0  0  0  0  0  0  0  0  0  # atno 6907 bound_to 6896
  151.3622  133.3879  159.2698 H   0  0  0  0  0  0  0  0  0  0  0  0  # atno 6908 bound_to 6896
  150.9643  134.9045  159.7807 H   0  0  0  0  0  0  0  0  0  0  0  0  # atno 6909 bound_to 6896
  145.9677  139.4119  143.0209 H   0  0  0  0  0  0  0  0  0  0  0  0  # atno 7974 bound_to 7965
  155.8168  140.3471  155.5490 H   0  0  0  0  0  0  0  0  0  0  0  0  # atno 8008 bound_to 7997
  155.8384  140.0937  157.1770 H   0  0  0  0  0  0  0  0  0  0  0  0  # atno 8009 bound_to 7997
  154.4004  140.1399  156.3685 H   0  0  0  0  0  0  0  0  0  0  0  0  # atno 8010 bound_to 7997
  140.7275  143.4072  151.1165 H   0  0  0  0  0  0  0  0  0  0  0  0  # atno 10167 bound_to 10162
  156.3955  130.7907  151.2113 H   0  0  0  0  0  0  0  0  0  0  0  0  # atno 10718 bound_to 10713
  153.0117  135.6332  154.1833 H   0  0  0  0  0  0  0  0  0  0  0  0  # atno 10763 bound_to 10752
  154.1575  135.2825  155.3120 H   0  0  0  0  0  0  0  0  0  0  0  0  # atno 10764 bound_to 10752
  154.6007  135.5588  153.7432 H   0  0  0  0  0  0  0  0  0  0  0  0  # atno 10765 bound_to 10752
  140.1139  134.4918  155.8654 H   0  0  0  0  0  0  0  0  0  0  0  0  # atno 11005 bound_to 11000
  145.7951  140.9797  143.1028 LP  0  0  0  0  0  0  0  0  0  0  0  0  # atno 17320 bound_to 7965
  144.6829  139.9731  143.7482 LP  0  0  0  0  0  0  0  0  0  0  0  0  # atno 17321 bound_to 7965
  139.7701  143.8507  152.3118 LP  0  0  0  0  0  0  0  0  0  0  0  0  # atno 17342 bound_to 10162
  139.8423  144.7204  150.9316 LP  0  0  0  0  0  0  0  0  0  0  0  0  # atno 17343 bound_to 10162
  157.7501  131.0303  150.4129 LP  0  0  0  0  0  0  0  0  0  0  0  0  # atno 17370 bound_to 10713
  156.4399  130.3989  149.6704 LP  0  0  0  0  0  0  0  0  0  0  0  0  # atno 17371 bound_to 10713
  141.2137  133.6737  156.6759 LP  0  0  0  0  0  0  0  0  0  0  0  0  # atno 17394 bound_to 11000
  140.3054  134.8130  157.4132 LP  0  0  0  0  0  0  0  0  0  0  0  0  # atno 17395 bound_to 11000

$$$$
