AV-unprocessed.smi:2307|AV-procd|sdf|9250|dock9
  -GOLD-   2272012473D 1   1.00000     0.00000
 Structure written by MMmdl.
 38 39  0  0  0  0  0  0  0  0  1 V2000
  154.8207  140.1750  160.6528 C   0  0  0  0  0  0  0  0  0  0  0  0
  153.5988  140.7758  159.9806 C   0  0  0  0  0  0  0  0  0  0  0  0
  153.2248  140.1863  158.7699 N   0  0  0  0  0  0  0  0  0  0  0  0
  152.1986  140.6348  158.1243 C   0  0  0  0  0  0  0  0  0  0  0  0
  151.4374  141.7150  158.6047 N   0  0  0  0  0  0  0  0  0  0  0  0
  150.3030  142.1545  157.7704 C   0  0  0  0  0  0  0  0  0  0  0  0
  150.5297  141.9044  156.2602 C   0  0  2  0  0  0  0  0  0  0  0  0
  149.7490  142.8314  155.5344 O   0  0  0  0  0  0  0  0  0  0  0  0
  150.2490  140.4657  155.8470 C   0  0  0  0  0  0  0  0  0  0  0  0
  151.2970  139.6218  155.4246 C   0  0  0  0  0  0  0  0  0  0  0  0
  151.0242  138.3015  155.0199 C   0  0  0  0  0  0  0  0  0  0  0  0
  149.7067  137.7999  155.0252 C   0  0  0  0  0  0  0  0  0  0  0  0
  149.5351  136.4958  154.6070 O   0  0  0  0  0  0  0  0  0  0  0  0
  149.1024  135.5319  155.4647 C   0  0  0  0  0  0  0  0  0  0  0  0
  149.0323  134.3467  154.8120 F   0  0  0  0  0  0  0  0  0  0  0  0
  149.9558  135.3596  156.5051 F   0  0  0  0  0  0  0  0  0  0  0  0
  147.8579  135.7958  155.9368 F   0  0  0  0  0  0  0  0  0  0  0  0
  148.6567  138.6520  155.4511 C   0  0  0  0  0  0  0  0  0  0  0  0
  148.9282  139.9724  155.8581 C   0  0  0  0  0  0  0  0  0  0  0  0
  151.7280  142.3396  159.7822 C   0  0  0  0  0  0  0  0  0  0  0  0
  151.0506  143.2811  160.1986 O   0  0  0  0  0  0  0  0  0  0  0  0
  152.8990  141.8183  160.5053 C   0  0  0  0  0  0  0  0  0  0  0  0
  153.2584  142.4987  161.8202 C   0  0  0  0  0  0  0  0  0  0  0  0
  154.5587  139.7762  161.6332 H   0  0  0  0  0  0  0  0  0  0  0  0
  155.5981  140.9291  160.7783 H   0  0  0  0  0  0  0  0  0  0  0  0
  155.2392  139.3593  160.0620 H   0  0  0  0  0  0  0  0  0  0  0  0
  151.8702  140.2113  157.1738 H   0  0  0  0  0  0  0  0  0  0  0  0
  149.3795  141.6607  158.0800 H   0  0  0  0  0  0  0  0  0  0  0  0
  150.1169  143.2162  157.9432 H   0  0  0  0  0  0  0  0  0  0  0  0
  151.5687  142.1293  156.0166 H   0  0  0  0  0  0  0  0  0  0  0  0
  149.2900  143.3820  156.1503 H   0  0  0  0  0  0  0  0  0  0  0  0
  152.3136  139.9865  155.4023 H   0  0  0  0  0  0  0  0  0  0  0  0
  151.8368  137.6668  154.6976 H   0  0  0  0  0  0  0  0  0  0  0  0
  147.6313  138.3171  155.4719 H   0  0  0  0  0  0  0  0  0  0  0  0
  148.1138  140.6097  156.1705 H   0  0  0  0  0  0  0  0  0  0  0  0
  153.4810  143.5522  161.6487 H   0  0  0  0  0  0  0  0  0  0  0  0
  154.1233  142.0556  162.3110 H   0  0  0  0  0  0  0  0  0  0  0  0
  152.4212  142.4379  162.5162 H   0  0  0  0  0  0  0  0  0  0  0  0
  1  2  1  0  0  0  0
  1 24  1  0  0  0  0
  1 25  1  0  0  0  0
  1 26  1  0  0  0  0
  2 22  2  0  0  0  0
  2  3  1  0  0  0  0
  3  4  2  0  0  0  0
  4  5  1  0  0  0  0
  4 27  1  0  0  0  0
  5  6  1  0  0  0  0
  5 20  1  0  0  0  0
  6  7  1  0  0  0  0
  6 28  1  0  0  0  0
  6 29  1  0  0  0  0
  7  8  1  0  0  0  0
  7  9  1  0  0  0  0
  7 30  1  0  0  0  0
  8 31  1  0  0  0  0
  9 19  1  0  0  0  0
  9 10  2  0  0  0  0
 10 11  1  0  0  0  0
 10 32  1  0  0  0  0
 11 12  2  0  0  0  0
 11 33  1  0  0  0  0
 12 13  1  0  0  0  0
 12 18  1  0  0  0  0
 13 14  1  0  0  0  0
 14 15  1  0  0  0  0
 14 16  1  0  0  0  0
 14 17  1  0  0  0  0
 18 19  2  0  0  0  0
 18 34  1  0  0  0  0
 19 35  1  0  0  0  0
 20 21  2  0  0  0  0
 20 22  1  0  0  0  0
 22 23  1  0  0  0  0
 23 36  1  0  0  0  0
 23 37  1  0  0  0  0
 23 38  1  0  0  0  0
M  END
> <s_m_source_file>
AV-unprocessed.smi

> <i_m_source_file_index>
2307

> <i_lp_mmshare_version>
43012

> <i_f3d_flags>
0

> <s_epik_input>
W0NIM11jMW5bY0hdbihjKD1PKWMxW0NIM10pW0NIMl1bQ0BIXShbT0hdKWMyW2NIXVtjSF1jKE9DKEYpKEYpRilbY0hdW2NIXTI=

> <s_epik_cmdline>
J2VwaWtfcHl0aG9uJywgJy1waCcsICc3LjAnLCAnLXRuJywgJzgnLCAnLW1hJywgJzIwMCcsICctbWV0YWxfYmluZGluZycsICctaW1hZScsICc8aW5maWxlLm1hZT4nLCAnLW9tYWUnLCAnPG91dGZpbGUubWFlPic=

> <r_lp_tautomer_probability>
1

> <r_epik_Ionization_Penalty>
5.07003e-05

> <r_epik_Ionization_Penalty_Charging>
7.56727e-08

> <r_epik_Ionization_Penalty_Neutral>
5.06246e-05

> <r_epik_State_Penalty>
-0

> <r_epik_Charging_Adjusted_Penalty>
7.56727e-08

> <i_epik_Tot_Q>
0

> <i_epik_Tot_abs_Q>
0

> <r_epik_Metal_State_Penalty>
-0

> <b_epik_Metal_Only>
0

> <s_lp_Force_Field>
OPLS_2005

> <r_lp_Energy>
16.6377

> <b_lp_Chiralities_Consistent>
1

> <s_lp_Variant>
AV-unprocessed.smi:2307-1

> <Gold.Version>
5.8.1

> <Gold.Id.Protein>
6NUR|6NUR_protein|mol2

> <Gold.PLP.Fitness>
43.3115

> <Gold.PLP.PLP>
-41.3593

> <Gold.PLP.part.hbond>
-2.5305

> <Gold.PLP.part.metal>
0.0000

> <Gold.PLP.part.buried>
-3.1946

> <Gold.PLP.part.nonpolar>
-34.5708

> <Gold.PLP.part.repulsive>
1.2018

> <Gold.PLP.ligand.clash>
0.0000

> <Gold.PLP.ligand.torsion>
0.7514

> <Gold.PLP.Chemscore.Hbond>
1.1294

> <Gold.PLP.Chemscore.CHOScore>
0.0000

> <Gold.PLP.Chemscore.Metal>
0.0000

> <Gold.Chemscore.Hbonds>
donor molecule, donor type, donor heavy atom, donor atom, acceptor molecule, acceptor atom, score
      L1  H     8    31       P1  8028  0.29
      P1  H  7997  8008       L1     3  0.29

> <Gold.PLP.Chemscore.Internal.Correction>
0.0667

> <Gold.Rescore>
     Score         DG    S(hbond)    S(metal)    S(lipo)     H(rot)  DE(clash)    DE(int)     intcor
      8.06     -12.24       0.66        0.00      97.72       2.69       1.76       2.43       ----

> <Gold.Chemscore.Fitness>
8.0599

> <Gold.Chemscore.DG>
-12.2431

> <Gold.Chemscore.ZeroCoef>
-5.4800

> <Gold.Chemscore.Hbond>
0.6600

> <Gold.Chemscore.Metal>
0.0000

> <Gold.Chemscore.Lipo>
97.7249

> <Gold.Chemscore.Internal_Hbond>
0.0000

> <Gold.Chemscore.DEClash>
1.7571

> <Gold.Chemscore.DEInternal>
2.4261

> <Gold.Chemscore.Rot>
2.6856

> <Gold.Chemscore.Internal.Correction>
   9.000000E+99

> <Gold.Chemscore.Hbonds>
donor molecule, donor type, donor heavy atom, donor atom, acceptor molecule, acceptor atom, score
      L1  H     8    31       P1  8028  0.29
      P1  H  7997  8008       L1     3  0.15

> <Gold.Chemscore.Hbond.Weighted>
-2.2044

> <Gold.Chemscore.Metal.Weighted>
-0.0000

> <Gold.Chemscore.Lipo.Weighted>
-11.4338

> <Gold.Chemscore.Internal_Hbond.Weighted>
0.0000

> <Gold.Chemscore.DEClash.Weighted>
1.7571

> <Gold.Chemscore.DEInternal.Weighted>
2.4261

> <Gold.Chemscore.Rot.Weighted>
6.8751

> <Gold.Chemscore.Internal.Correction.Weighted>
   9.000000E+99

> <Gold.Protein.RotatedTorsions>
[ 6907 6896 6895 6894 ] final -122.24 input  -60.11 | X-H torsion
[ 7974 7965 7964 7962 ] final -110.24 input  175.53 | X-H torsion
[ 8008 7997 7996 7995 ] final -112.01 input   59.86 | X-H torsion
[ 10167 10162 10161 10158 ] final   -6.84 input  -65.29 | X-H torsion
[ 10718 10713 10712 10709 ] final  153.67 input   66.30 | X-H torsion
[ 10763 10752 10751 10750 ] final   49.77 input  -60.55 | X-H torsion
[ 11005 11000 10999 10996 ] final   69.06 input  -57.11 | X-H torsion

> <Gold.Protein.ActiveResidues>
 VAL166  LYS551  ARG553  GLY616  TRP617  ASP618  TYR619  PRO620  LYS621  CYS622 
 ASP623  PHE694  ASN695  SER759  ASP760  ASP761  ALA762  ILE779  LEU786  VAL792 
 PHE793  MET794  SER795  GLU796  ALA797  LYS798  CYS799  TRP800  GLU811  SER814 

> <Gold.Protein.RotatedAtoms>
  150.8557  133.7718  159.3009 H   0  0  0  0  0  0  0  0  0  0  0  0  # atno 6907 bound_to 6896
  151.5376  135.1067  159.9928 H   0  0  0  0  0  0  0  0  0  0  0  0  # atno 6908 bound_to 6896
  152.4588  133.7735  159.6868 H   0  0  0  0  0  0  0  0  0  0  0  0  # atno 6909 bound_to 6896
  145.1706  140.8924  143.3537 H   0  0  0  0  0  0  0  0  0  0  0  0  # atno 7974 bound_to 7965
  154.9987  140.0394  157.2350 H   0  0  0  0  0  0  0  0  0  0  0  0  # atno 8008 bound_to 7997
  154.7563  140.2776  155.6227 H   0  0  0  0  0  0  0  0  0  0  0  0  # atno 8009 bound_to 7997
  156.2895  140.2637  156.2330 H   0  0  0  0  0  0  0  0  0  0  0  0  # atno 8010 bound_to 7997
  140.7010  143.6148  150.8669 H   0  0  0  0  0  0  0  0  0  0  0  0  # atno 10167 bound_to 10162
  157.2417  131.0760  151.1788 H   0  0  0  0  0  0  0  0  0  0  0  0  # atno 10718 bound_to 10713
  152.9786  135.5901  154.4143 H   0  0  0  0  0  0  0  0  0  0  0  0  # atno 10763 bound_to 10752
  154.3775  135.2767  155.2233 H   0  0  0  0  0  0  0  0  0  0  0  0  # atno 10764 bound_to 10752
  154.4161  135.6070  153.6036 H   0  0  0  0  0  0  0  0  0  0  0  0  # atno 10765 bound_to 10752
  139.9675  134.6956  156.0515 H   0  0  0  0  0  0  0  0  0  0  0  0  # atno 11005 bound_to 11000
  145.0236  139.3402  143.6060 LP  0  0  0  0  0  0  0  0  0  0  0  0  # atno 17320 bound_to 7965
  146.3469  139.9546  142.8724 LP  0  0  0  0  0  0  0  0  0  0  0  0  # atno 17321 bound_to 7965
  139.9870  143.5888  152.2923 LP  0  0  0  0  0  0  0  0  0  0  0  0  # atno 17342 bound_to 10162
  139.6530  144.7661  151.2111 LP  0  0  0  0  0  0  0  0  0  0  0  0  # atno 17343 bound_to 10162
  157.3372  130.7015  149.6359 LP  0  0  0  0  0  0  0  0  0  0  0  0  # atno 17370 bound_to 10713
  155.9670  130.4290  150.4814 LP  0  0  0  0  0  0  0  0  0  0  0  0  # atno 17371 bound_to 10713
  141.1355  133.6576  156.3582 LP  0  0  0  0  0  0  0  0  0  0  0  0  # atno 17394 bound_to 11000
  140.5364  134.6163  157.5366 LP  0  0  0  0  0  0  0  0  0  0  0  0  # atno 17395 bound_to 11000

$$$$
