AV-unprocessed.smi:2909|AV-procd|sdf|11174|dock5
  -GOLD-   2272016 63D 1   1.00000     0.00000
 Structure written by MMmdl.
 44 45  0  0  0  0  0  0  0  0  1 V2000
  149.3435  130.7764  153.8406 C   0  0  0  0  0  0  0  0  0  0  0  0
  149.2517  132.2554  154.0751 C   0  0  0  0  0  0  0  0  0  0  0  0
  149.5481  132.9777  155.2679 C   0  0  0  0  0  0  0  0  0  0  0  0
  149.2976  134.2822  154.9447 C   0  0  0  0  0  0  0  0  0  0  0  0
  149.4009  135.5406  155.7495 C   0  0  0  0  0  0  0  0  0  0  0  0
  150.3672  136.5511  155.1231 C   0  0  0  0  0  0  0  0  0  0  0  0
  151.5323  136.2244  154.8987 O   0  0  0  0  0  0  0  0  0  0  0  0
  149.8708  137.7621  154.8223 N   0  0  0  0  0  0  0  0  0  0  0  0
  150.6067  138.8576  154.1953 C   0  0  2  0  0  0  0  0  0  0  0  0
  152.0074  138.9803  154.8160 C   0  0  0  0  0  0  0  0  0  0  0  0
  151.9611  139.4728  156.2733 C   0  0  0  0  0  0  0  0  0  0  0  0
  151.2010  140.8136  156.4283 C   0  0  2  0  0  0  0  0  0  0  0  0
  151.1372  141.2860  157.9109 C   0  0  0  0  0  0  0  0  0  0  0  0
  150.5598  142.7068  158.0609 C   0  0  0  0  0  0  0  0  0  0  0  0
  152.5090  141.2329  158.6114 C   0  0  0  0  0  0  0  0  0  0  0  0
  149.7952  140.6811  155.7911 C   0  0  0  0  0  0  0  0  0  0  0  0
  149.8482  140.1895  154.3338 C   0  0  0  0  0  0  0  0  0  0  0  0
  148.8884  134.2787  153.6301 N   0  0  0  0  0  0  0  0  0  0  0  0
  148.8542  133.0469  153.0897 N   0  0  0  0  0  0  0  0  0  0  0  0
  148.6337  135.0980  153.0965 H   0  0  0  0  0  0  0  0  0  0  0  0
  149.5121  130.2392  154.7740 H   0  0  0  0  0  0  0  0  0  0  0  0
  150.1668  130.5378  153.1671 H   0  0  0  0  0  0  0  0  0  0  0  0
  148.4258  130.3892  153.3970 H   0  0  0  0  0  0  0  0  0  0  0  0
  149.8888  132.5953  156.2188 H   0  0  0  0  0  0  0  0  0  0  0  0
  149.7379  135.3169  156.7622 H   0  0  0  0  0  0  0  0  0  0  0  0
  148.4144  135.9962  155.8440 H   0  0  0  0  0  0  0  0  0  0  0  0
  148.9021  137.9405  155.0444 H   0  0  0  0  0  0  0  0  0  0  0  0
  150.7283  138.6308  153.1344 H   0  0  0  0  0  0  0  0  0  0  0  0
  152.5266  138.0225  154.7632 H   0  0  0  0  0  0  0  0  0  0  0  0
  152.6008  139.6783  154.2242 H   0  0  0  0  0  0  0  0  0  0  0  0
  151.4989  138.7122  156.9039 H   0  0  0  0  0  0  0  0  0  0  0  0
  152.9892  139.5724  156.6185 H   0  0  0  0  0  0  0  0  0  0  0  0
  151.7474  141.5695  155.8619 H   0  0  0  0  0  0  0  0  0  0  0  0
  150.4731  140.6108  158.4525 H   0  0  0  0  0  0  0  0  0  0  0  0
  151.1161  143.4268  157.4600 H   0  0  0  0  0  0  0  0  0  0  0  0
  150.6015  143.0408  159.0980 H   0  0  0  0  0  0  0  0  0  0  0  0
  149.5123  142.7563  157.7656 H   0  0  0  0  0  0  0  0  0  0  0  0
  153.2562  141.8081  158.0640 H   0  0  0  0  0  0  0  0  0  0  0  0
  152.8767  140.2128  158.7160 H   0  0  0  0  0  0  0  0  0  0  0  0
  152.4522  141.6430  159.6201 H   0  0  0  0  0  0  0  0  0  0  0  0
  149.1833  140.0018  156.3860 H   0  0  0  0  0  0  0  0  0  0  0  0
  149.2798  141.6406  155.7947 H   0  0  0  0  0  0  0  0  0  0  0  0
  150.3411  140.9458  153.7217 H   0  0  0  0  0  0  0  0  0  0  0  0
  148.8373  140.0935  153.9359 H   0  0  0  0  0  0  0  0  0  0  0  0
  1 21  1  0  0  0  0
  1 22  1  0  0  0  0
  1 23  1  0  0  0  0
  1  2  1  0  0  0  0
  2 19  2  0  0  0  0
  2  3  1  0  0  0  0
  3  4  2  0  0  0  0
  3 24  1  0  0  0  0
  4 18  1  0  0  0  0
  4  5  1  0  0  0  0
  5  6  1  0  0  0  0
  5 25  1  0  0  0  0
  5 26  1  0  0  0  0
  6  7  2  0  0  0  0
  6  8  1  0  0  0  0
  8  9  1  0  0  0  0
  8 27  1  0  0  0  0
  9 17  1  0  0  0  0
  9 10  1  0  0  0  0
  9 28  1  0  0  0  0
 10 11  1  0  0  0  0
 10 29  1  0  0  0  0
 10 30  1  0  0  0  0
 11 12  1  0  0  0  0
 11 31  1  0  0  0  0
 11 32  1  0  0  0  0
 12 13  1  0  0  0  0
 12 16  1  0  0  0  0
 12 33  1  0  0  0  0
 13 14  1  0  0  0  0
 13 15  1  0  0  0  0
 13 34  1  0  0  0  0
 14 35  1  0  0  0  0
 14 36  1  0  0  0  0
 14 37  1  0  0  0  0
 15 38  1  0  0  0  0
 15 39  1  0  0  0  0
 15 40  1  0  0  0  0
 16 17  1  0  0  0  0
 16 41  1  0  0  0  0
 16 42  1  0  0  0  0
 17 43  1  0  0  0  0
 17 44  1  0  0  0  0
 18 19  1  0  0  0  0
 18 20  1  0  0  0  0
M  END
> <s_m_source_file>
AV-unprocessed.smi

> <i_m_source_file_index>
2909

> <i_lp_mmshare_version>
43012

> <i_f3d_flags>
0

> <s_epik_input>
W0NIM11jMVtjSF1jKG5bbkhdMSlbQ0gyXUMoPU8pW05IXVtDQEBIXTJbQ0gyXVtDSDJdW0NAQEhdKFtDSF0oW0NIM10pW0NIM10pW0NIMl1bQ0gyXTI=

> <s_epik_cmdline>
J2VwaWtfcHl0aG9uJywgJy1waCcsICc3LjAnLCAnLXRuJywgJzgnLCAnLW1hJywgJzIwMCcsICctbWV0YWxfYmluZGluZycsICctaW1hZScsICc8aW5maWxlLm1hZT4nLCAnLW9tYWUnLCAnPG91dGZpbGUubWFlPic=

> <r_lp_tautomer_probability>
0.5

> <r_epik_Ionization_Penalty>
0.00013296

> <r_epik_Ionization_Penalty_Charging>
0

> <r_epik_Ionization_Penalty_Neutral>
0.00013296

> <r_epik_State_Penalty>
0.41068

> <r_epik_Charging_Adjusted_Penalty>
0.41068

> <i_epik_Tot_Q>
0

> <i_epik_Tot_abs_Q>
0

> <r_epik_Metal_State_Penalty>
0.41066

> <b_epik_Metal_Only>
0

> <s_lp_Force_Field>
OPLS_2005

> <r_lp_Energy>
9.99393

> <b_lp_Chiralities_Consistent>
1

> <s_lp_Variant>
AV-unprocessed.smi:2909-4

> <Gold.Version>
5.8.1

> <Gold.Id.Protein>
6NUR|6NUR_protein|mol2

> <Gold.PLP.Fitness>
39.8946

> <Gold.PLP.PLP>
-34.5723

> <Gold.PLP.part.hbond>
-2.0000

> <Gold.PLP.part.metal>
0.0000

> <Gold.PLP.part.buried>
-3.4995

> <Gold.PLP.part.nonpolar>
-29.2251

> <Gold.PLP.part.repulsive>
0.3345

> <Gold.PLP.ligand.clash>
0.0000

> <Gold.PLP.ligand.torsion>
0.2896

> <Gold.PLP.Chemscore.Hbond>
1.9600

> <Gold.PLP.Chemscore.CHOScore>
0.0000

> <Gold.PLP.Chemscore.Metal>
0.0000

> <Gold.Chemscore.Hbonds>
donor molecule, donor type, donor heavy atom, donor atom, acceptor molecule, acceptor atom, score
      L1  H    18    20       P1  7948  0.98
      P1  H 10752 10765       L1     7  1.00

> <Gold.PLP.Chemscore.Internal.Correction>
0.0216

> <Gold.Rescore>
     Score         DG    S(hbond)    S(metal)    S(lipo)     H(rot)  DE(clash)    DE(int)     intcor
     16.08     -17.74       1.76        0.00      87.37       1.50       0.09       1.57       ----

> <Gold.Chemscore.Fitness>
16.0817

> <Gold.Chemscore.DG>
-17.7402

> <Gold.Chemscore.ZeroCoef>
-5.4800

> <Gold.Chemscore.Hbond>
1.7608

> <Gold.Chemscore.Metal>
0.0000

> <Gold.Chemscore.Lipo>
87.3688

> <Gold.Chemscore.Internal_Hbond>
0.0000

> <Gold.Chemscore.DEClash>
0.0901

> <Gold.Chemscore.DEInternal>
1.5685

> <Gold.Chemscore.Rot>
1.5011

> <Gold.Chemscore.Internal.Correction>
   9.000000E+99

> <Gold.Chemscore.Hbonds>
donor molecule, donor type, donor heavy atom, donor atom, acceptor molecule, acceptor atom, score
      L1  H    18    20       P1  7948  0.61
      P1  H 10752 10765       L1     7  0.97

> <Gold.Chemscore.Hbond.Weighted>
-5.8810

> <Gold.Chemscore.Metal.Weighted>
-0.0000

> <Gold.Chemscore.Lipo.Weighted>
-10.2222

> <Gold.Chemscore.Internal_Hbond.Weighted>
0.0000

> <Gold.Chemscore.DEClash.Weighted>
0.0901

> <Gold.Chemscore.DEInternal.Weighted>
1.5685

> <Gold.Chemscore.Rot.Weighted>
3.8429

> <Gold.Chemscore.Internal.Correction.Weighted>
   9.000000E+99

> <Gold.Protein.RotatedTorsions>
[ 6907 6896 6895 6894 ] final -136.16 input  -60.11 | X-H torsion
[ 7974 7965 7964 7962 ] final  156.35 input  175.53 | X-H torsion
[ 8008 7997 7996 7995 ] final  142.63 input   59.86 | X-H torsion
[ 10167 10162 10161 10158 ] final  -86.73 input  -65.29 | X-H torsion
[ 10718 10713 10712 10709 ] final  166.01 input   66.30 | X-H torsion
[ 10763 10752 10751 10750 ] final  179.58 input  -60.55 | X-H torsion
[ 11005 11000 10999 10996 ] final  -48.58 input  -57.11 | X-H torsion

> <Gold.Protein.ActiveResidues>
 VAL166  LYS551  ARG553  GLY616  TRP617  ASP618  TYR619  PRO620  LYS621  CYS622 
 ASP623  PHE694  ASN695  SER759  ASP760  ASP761  ALA762  ILE779  LEU786  VAL792 
 PHE793  MET794  SER795  GLU796  ALA797  LYS798  CYS799  TRP800  GLU811  SER814 

> <Gold.Protein.RotatedAtoms>
  151.0066  133.6005  159.2687 H   0  0  0  0  0  0  0  0  0  0  0  0  # atno 6907 bound_to 6896
  151.3172  135.0808  159.9303 H   0  0  0  0  0  0  0  0  0  0  0  0  # atno 6908 bound_to 6896
  152.5288  133.9720  159.7821 H   0  0  0  0  0  0  0  0  0  0  0  0  # atno 6909 bound_to 6896
  144.7968  139.7192  143.6198 H   0  0  0  0  0  0  0  0  0  0  0  0  # atno 7974 bound_to 7965
  156.2946  140.2283  156.4760 H   0  0  0  0  0  0  0  0  0  0  0  0  # atno 8008 bound_to 7997
  154.7894  140.0455  157.1210 H   0  0  0  0  0  0  0  0  0  0  0  0  # atno 8009 bound_to 7997
  154.9663  140.3061  155.5011 H   0  0  0  0  0  0  0  0  0  0  0  0  # atno 8010 bound_to 7997
  140.3913  143.2703  151.9261 H   0  0  0  0  0  0  0  0  0  0  0  0  # atno 10167 bound_to 10162
  157.0719  131.0368  151.2608 H   0  0  0  0  0  0  0  0  0  0  0  0  # atno 10718 bound_to 10713
  154.5225  135.2795  155.1250 H   0  0  0  0  0  0  0  0  0  0  0  0  # atno 10763 bound_to 10752
  154.2802  135.6287  153.5348 H   0  0  0  0  0  0  0  0  0  0  0  0  # atno 10764 bound_to 10752
  152.9940  135.5649  154.5717 H   0  0  0  0  0  0  0  0  0  0  0  0  # atno 10765 bound_to 10752
  141.0709  133.6679  156.3461 H   0  0  0  0  0  0  0  0  0  0  0  0  # atno 11005 bound_to 11000
  146.2238  139.5685  142.9600 LP  0  0  0  0  0  0  0  0  0  0  0  0  # atno 17320 bound_to 7965
  145.5653  141.0400  143.2204 LP  0  0  0  0  0  0  0  0  0  0  0  0  # atno 17321 bound_to 7965
  139.4789  144.5724  151.8066 LP  0  0  0  0  0  0  0  0  0  0  0  0  # atno 17342 bound_to 10162
  140.4837  144.1413  150.5937 LP  0  0  0  0  0  0  0  0  0  0  0  0  # atno 17343 bound_to 10162
  157.4871  130.7799  149.7470 LP  0  0  0  0  0  0  0  0  0  0  0  0  # atno 17370 bound_to 10713
  155.9948  130.3916  150.2845 LP  0  0  0  0  0  0  0  0  0  0  0  0  # atno 17371 bound_to 10713
  140.5676  134.5872  157.5449 LP  0  0  0  0  0  0  0  0  0  0  0  0  # atno 17394 bound_to 11000
  139.9522  134.7597  156.0422 LP  0  0  0  0  0  0  0  0  0  0  0  0  # atno 17395 bound_to 11000

$$$$
