AV-unprocessed.smi:1764|AV-procd|sdf|7133|dock2
  -GOLD-   22720 8373D 1   1.00000     0.00000
 Structure written by MMmdl.
 31 32  0  0  0  0  0  0  0  0  1 V2000
  150.9157  140.6705  156.3713 O   0  0  0  0  0  0  0  0  0  0  0  0
  150.4087  141.7711  156.1526 C   0  0  0  0  0  0  0  0  0  0  0  0
  150.8406  142.9097  156.7139 N   0  0  0  0  0  0  0  0  0  0  0  0
  151.9504  143.0208  157.6554 C   0  0  0  0  0  0  0  0  0  0  0  0
  151.5022  143.6281  158.9955 C   0  0  1  0  0  0  0  0  0  0  0  0
  152.4292  143.3484  160.1791 C   0  0  0  0  0  0  0  0  0  0  0  0
  152.0939  144.4964  161.1025 C   0  0  0  0  0  0  0  0  0  0  0  0
  151.8996  145.6440  160.1154 C   0  0  0  0  0  0  0  0  0  0  0  0
  151.4522  145.0490  158.8993 O   0  0  0  0  0  0  0  0  0  0  0  0
  149.3611  141.9972  155.3404 N   0  0  0  0  0  0  0  0  0  0  0  0
  148.6384  141.0583  154.5568 C   0  0  0  0  0  0  0  0  0  0  0  0
  147.5772  141.6027  153.7985 C   0  0  0  0  0  0  0  0  0  0  0  0
  146.8007  140.7550  152.9849 C   0  0  0  0  0  0  0  0  0  0  0  0
  147.1062  139.3829  152.9496 C   0  0  0  0  0  0  0  0  0  0  0  0
  148.1790  138.9221  153.7348 C   0  0  0  0  0  0  0  0  0  0  0  0
  148.9240  139.7327  154.5157 N   0  0  0  0  0  0  0  0  0  0  0  0
  150.3625  143.7667  156.4775 H   0  0  0  0  0  0  0  0  0  0  0  0
  152.4321  142.0545  157.8152 H   0  0  0  0  0  0  0  0  0  0  0  0
  152.7052  143.6632  157.2018 H   0  0  0  0  0  0  0  0  0  0  0  0
  150.4957  143.2849  159.2410 H   0  0  0  0  0  0  0  0  0  0  0  0
  152.2615  142.3709  160.6325 H   0  0  0  0  0  0  0  0  0  0  0  0
  153.4747  143.4100  159.8732 H   0  0  0  0  0  0  0  0  0  0  0  0
  151.1617  144.2910  161.6304 H   0  0  0  0  0  0  0  0  0  0  0  0
  152.8699  144.6961  161.8418 H   0  0  0  0  0  0  0  0  0  0  0  0
  151.1898  146.3868  160.4799 H   0  0  0  0  0  0  0  0  0  0  0  0
  152.8481  146.1475  159.9250 H   0  0  0  0  0  0  0  0  0  0  0  0
  149.0461  142.9534  155.2711 H   0  0  0  0  0  0  0  0  0  0  0  0
  147.3562  142.6596  153.8366 H   0  0  0  0  0  0  0  0  0  0  0  0
  145.9853  141.1520  152.3984 H   0  0  0  0  0  0  0  0  0  0  0  0
  146.5339  138.7018  152.3374 H   0  0  0  0  0  0  0  0  0  0  0  0
  148.4469  137.8759  153.7354 H   0  0  0  0  0  0  0  0  0  0  0  0
  1  2  2  0  0  0  0
  2  3  1  0  0  0  0
  2 10  1  0  0  0  0
  3  4  1  0  0  0  0
  3 17  1  0  0  0  0
  4  5  1  0  0  0  0
  4 18  1  0  0  0  0
  4 19  1  0  0  0  0
  5  9  1  0  0  0  0
  5  6  1  0  0  0  0
  5 20  1  0  0  0  0
  6  7  1  0  0  0  0
  6 21  1  0  0  0  0
  6 22  1  0  0  0  0
  7  8  1  0  0  0  0
  7 23  1  0  0  0  0
  7 24  1  0  0  0  0
  8  9  1  0  0  0  0
  8 25  1  0  0  0  0
  8 26  1  0  0  0  0
 10 11  1  0  0  0  0
 10 27  1  0  0  0  0
 11 16  1  0  0  0  0
 11 12  2  0  0  0  0
 12 13  1  0  0  0  0
 12 28  1  0  0  0  0
 13 14  2  0  0  0  0
 13 29  1  0  0  0  0
 14 15  1  0  0  0  0
 14 30  1  0  0  0  0
 15 16  2  0  0  0  0
 15 31  1  0  0  0  0
M  END
> <s_m_source_file>
AV-unprocessed.smi

> <i_m_source_file_index>
1764

> <i_lp_mmshare_version>
43012

> <i_f3d_flags>
0

> <s_epik_input>
bjFbY0hdW2NIXVtjSF1bY0hdYzFbTkhdQyg9TylbTkhdW0NIMl1bQ0BASF0yW0NIMl1bQ0gyXVtDSDJdTzI=

> <s_epik_cmdline>
J2VwaWtfcHl0aG9uJywgJy1waCcsICc3LjAnLCAnLXRuJywgJzgnLCAnLW1hJywgJzIwMCcsICctbWV0YWxfYmluZGluZycsICctaW1hZScsICc8aW5maWxlLm1hZT4nLCAnLW9tYWUnLCAnPG91dGZpbGUubWFlPic=

> <r_lp_tautomer_probability>
1

> <r_epik_Ionization_Penalty>
4.47751e-05

> <r_epik_Ionization_Penalty_Charging>
0

> <r_epik_Ionization_Penalty_Neutral>
4.47751e-05

> <r_epik_State_Penalty>
-0

> <r_epik_Charging_Adjusted_Penalty>
0

> <i_epik_Tot_Q>
0

> <i_epik_Tot_abs_Q>
0

> <r_epik_Metal_State_Penalty>
-0

> <b_epik_Metal_Only>
0

> <s_lp_Force_Field>
OPLS_2005

> <r_lp_Energy>
18.9713

> <b_lp_Chiralities_Consistent>
1

> <s_lp_Variant>
AV-unprocessed.smi:1764-2

> <Gold.Version>
5.8.1

> <Gold.Id.Protein>
6NUR|6NUR_protein|mol2

> <Gold.PLP.Fitness>
42.3237

> <Gold.PLP.PLP>
-33.7547

> <Gold.PLP.part.hbond>
-2.0000

> <Gold.PLP.part.metal>
0.0000

> <Gold.PLP.part.buried>
-4.8936

> <Gold.PLP.part.nonpolar>
-27.5221

> <Gold.PLP.part.repulsive>
0.4706

> <Gold.PLP.ligand.clash>
0.0000

> <Gold.PLP.ligand.torsion>
0.2089

> <Gold.PLP.Chemscore.Hbond>
2.0000

> <Gold.PLP.Chemscore.CHOScore>
0.9952

> <Gold.PLP.Chemscore.Metal>
0.0000

> <Gold.Chemscore.Hbonds>
donor molecule, donor type, donor heavy atom, donor atom, acceptor molecule, acceptor atom, score
      L1  H     3    17       P1  8028  1.00
      L1  H    10    27       P1  8028  1.00
      L1  C    15    31       P1  7948  1.00

> <Gold.PLP.Chemscore.Internal.Correction>
0.0011

> <Gold.Rescore>
     Score         DG    S(hbond)    S(metal)    S(lipo)     H(rot)  DE(clash)    DE(int)     intcor
     17.35     -18.89       1.97        0.00      86.14       1.27       0.20       1.35       ----

> <Gold.Chemscore.Fitness>
17.3451

> <Gold.Chemscore.DG>
-18.8920

> <Gold.Chemscore.ZeroCoef>
-5.4800

> <Gold.Chemscore.Hbond>
1.9698

> <Gold.Chemscore.Metal>
0.0000

> <Gold.Chemscore.Lipo>
86.1390

> <Gold.Chemscore.Internal_Hbond>
0.0000

> <Gold.Chemscore.DEClash>
0.1975

> <Gold.Chemscore.DEInternal>
1.3494

> <Gold.Chemscore.Rot>
1.2678

> <Gold.Chemscore.Internal.Correction>
   9.000000E+99

> <Gold.Chemscore.Hbonds>
donor molecule, donor type, donor heavy atom, donor atom, acceptor molecule, acceptor atom, score
      L1  H     3    17       P1  8028  0.96
      L1  H    10    27       P1  8028  1.00

> <Gold.Chemscore.Hbond.Weighted>
-6.5792

> <Gold.Chemscore.Metal.Weighted>
-0.0000

> <Gold.Chemscore.Lipo.Weighted>
-10.0783

> <Gold.Chemscore.Internal_Hbond.Weighted>
0.0000

> <Gold.Chemscore.DEClash.Weighted>
0.1975

> <Gold.Chemscore.DEInternal.Weighted>
1.3494

> <Gold.Chemscore.Rot.Weighted>
3.2455

> <Gold.Chemscore.Internal.Correction.Weighted>
   9.000000E+99

> <Gold.Protein.RotatedTorsions>
[ 6907 6896 6895 6894 ] final -105.80 input  -60.11 | X-H torsion
[ 7974 7965 7964 7962 ] final -118.33 input  175.53 | X-H torsion
[ 8008 7997 7996 7995 ] final  -61.08 input   59.86 | X-H torsion
[ 10167 10162 10161 10158 ] final   69.90 input  -65.29 | X-H torsion
[ 10718 10713 10712 10709 ] final -122.18 input   66.30 | X-H torsion
[ 10763 10752 10751 10750 ] final -155.98 input  -60.55 | X-H torsion
[ 11005 11000 10999 10996 ] final  150.66 input  -57.11 | X-H torsion

> <Gold.Protein.ActiveResidues>
 VAL166  LYS551  ARG553  GLY616  TRP617  ASP618  TYR619  PRO620  LYS621  CYS622 
 ASP623  PHE694  ASN695  SER759  ASP760  ASP761  ALA762  ILE779  LEU786  VAL792 
 PHE793  MET794  SER795  GLU796  ALA797  LYS798  CYS799  TRP800  GLU811  SER814 

> <Gold.Protein.RotatedAtoms>
  150.7356  134.0072  159.3657 H   0  0  0  0  0  0  0  0  0  0  0  0  # atno 6907 bound_to 6896
  151.8029  135.0701  160.0412 H   0  0  0  0  0  0  0  0  0  0  0  0  # atno 6908 bound_to 6896
  152.3128  133.5734  159.5728 H   0  0  0  0  0  0  0  0  0  0  0  0  # atno 6909 bound_to 6896
  145.0750  140.8386  143.4073 H   0  0  0  0  0  0  0  0  0  0  0  0  # atno 7974 bound_to 7965
  154.4430  140.1025  156.6374 H   0  0  0  0  0  0  0  0  0  0  0  0  # atno 8008 bound_to 7997
  155.5538  140.3486  155.4456 H   0  0  0  0  0  0  0  0  0  0  0  0  # atno 8009 bound_to 7997
  156.0509  140.1304  157.0040 H   0  0  0  0  0  0  0  0  0  0  0  0  # atno 8010 bound_to 7997
  140.0627  144.5219  150.7282 H   0  0  0  0  0  0  0  0  0  0  0  0  # atno 10167 bound_to 10162
  156.1398  130.6457  150.9753 H   0  0  0  0  0  0  0  0  0  0  0  0  # atno 10718 bound_to 10713
  154.7747  135.3156  154.8117 H   0  0  0  0  0  0  0  0  0  0  0  0  # atno 10763 bound_to 10752
  153.8844  135.6832  153.4769 H   0  0  0  0  0  0  0  0  0  0  0  0  # atno 10764 bound_to 10752
  153.1368  135.4756  154.9370 H   0  0  0  0  0  0  0  0  0  0  0  0  # atno 10765 bound_to 10752
  140.1151  134.8900  157.1992 H   0  0  0  0  0  0  0  0  0  0  0  0  # atno 11005 bound_to 11000
  145.1247  139.2671  143.5570 LP  0  0  0  0  0  0  0  0  0  0  0  0  # atno 17320 bound_to 7965
  146.3530  140.0880  142.8614 LP  0  0  0  0  0  0  0  0  0  0  0  0  # atno 17321 bound_to 7965
  140.7164  143.2548  151.4421 LP  0  0  0  0  0  0  0  0  0  0  0  0  # atno 17342 bound_to 10162
  139.5884  144.1554  152.2057 LP  0  0  0  0  0  0  0  0  0  0  0  0  # atno 17343 bound_to 10162
  157.6565  131.0888  150.7935 LP  0  0  0  0  0  0  0  0  0  0  0  0  # atno 17370 bound_to 10713
  156.8012  130.4921  149.5369 LP  0  0  0  0  0  0  0  0  0  0  0  0  # atno 17371 bound_to 10713
  140.3039  134.3100  155.7283 LP  0  0  0  0  0  0  0  0  0  0  0  0  # atno 17394 bound_to 11000
  141.2139  133.7609  156.9681 LP  0  0  0  0  0  0  0  0  0  0  0  0  # atno 17395 bound_to 11000

$$$$
