#       Name:                AV-unprocessed.smi:3337
#       Creating user name   scv26
#       Creation time:       Fri Mar 27 19:26:10 2020


#       File generated by GOLD software.
#

@<TRIPOS>MOLECULE
AV-unprocessed.smi:3337
    50    51     1
SMALL
NO_CHARGES


@<TRIPOS>ATOM
      1 ****        -0.7837   4.2622   1.8052 C.3            1 S1                 0.0000
      2 ****        -1.2039   3.4331   0.5832 C.3            1 S1                 0.0000
      3 ****        -2.7212   3.5109   0.3449 C.3            1 S1                 0.0000
      4 ****        -3.1226   2.6582  -0.8702 C.3            1 S1                 0.0000
      5 ****        -4.6377   2.7037  -1.1134 C.3            1 S1                 0.0000
      6 ****        -2.6248   1.2107  -0.6928 C.3            1 S1                 0.0000
      7 ****        -1.1566   1.1649  -0.4696 N.4            1 S1                 1.0000
      8 ****        -0.6383  -0.2260  -0.4348 C.3            1 S1                 0.0000
      9 ****         0.8581  -0.3041  -0.7946 C.3            1 S1                 0.0000
     10 ****         1.3420  -1.6794  -0.7810 N.am           1 S1                 0.0000
     11 ****         1.6342  -2.3783   0.3277 C.2            1 S1                 0.0000
     12 ****         1.4970  -1.9192   1.4624 O.2            1 S1                 0.0000
     13 ****         2.1604  -3.8067   0.1173 C.3            1 S1                 0.0000
     14 ****         1.8027  -4.7478   1.2853 C.3            1 S1                 0.0000
     15 ****         3.5933  -3.7826  -0.1490 N.pl3          1 S1                 0.0000
     16 ****         4.2517  -3.8480  -1.3084 C.2            1 S1                 0.0000
     17 ****         5.5683  -3.7544  -1.1866 N.2            1 S1                 0.0000
     18 ****         5.6626  -3.6143   0.1689 C.2            1 S1                 0.0000
     19 ****         4.5093  -3.6130   0.8371 N.2            1 S1                 0.0000
     20 ****        -0.7621   1.9636   0.7213 C.3            1 S1                 0.0000
     21 ****        -1.2511   3.8901   2.7175 H              1 S1                 0.0000
     22 ****        -1.0693   5.3080   1.6879 H              1 S1                 0.0000
     23 ****         0.2967   4.2312   1.9485 H              1 S1                 0.0000
     24 ****        -0.7019   3.8565  -0.2882 H              1 S1                 0.0000
     25 ****        -3.2536   3.1648   1.2323 H              1 S1                 0.0000
     26 ****        -3.0204   4.5481   0.1877 H              1 S1                 0.0000
     27 ****        -2.6364   3.0772  -1.7526 H              1 S1                 0.0000
     28 ****        -5.1884   2.2888  -0.2684 H              1 S1                 0.0000
     29 ****        -4.9103   2.1322  -2.0011 H              1 S1                 0.0000
     30 ****        -4.9810   3.7275  -1.2640 H              1 S1                 0.0000
     31 ****        -3.1347   0.7322   0.1452 H              1 S1                 0.0000
     32 ****        -2.8745   0.6359  -1.5857 H              1 S1                 0.0000
     33 ****        -0.8339  -0.6625   0.5459 H              1 S1                 0.0000
     34 ****        -1.1867  -0.8352  -1.1549 H              1 S1                 0.0000
     35 ****         1.0204   0.1017  -1.7935 H              1 S1                 0.0000
     36 ****         1.4675   0.2929  -0.1157 H              1 S1                 0.0000
     37 ****         1.4820  -2.1262  -1.6760 H              1 S1                 0.0000
     38 ****         1.6757  -4.2058  -0.7756 H              1 S1                 0.0000
     39 ****         0.7239  -4.7918   1.4382 H              1 S1                 0.0000
     40 ****         2.2565  -4.4291   2.2246 H              1 S1                 0.0000
     41 ****         2.1450  -5.7630   1.0826 H              1 S1                 0.0000
     42 ****         3.7577  -3.9631  -2.2619 H              1 S1                 0.0000
     43 ****         6.6090  -3.5033   0.6775 H              1 S1                 0.0000
     44 ****         0.3188   1.9305   0.8536 H              1 S1                 0.0000
     45 ****        -1.2011   1.5206   1.6170 H              1 S1                 0.0000
     46 ****        -0.7370   1.6072  -1.2748 H              1 S1                 0.0000
     47 ****         1.1547  -0.9879   1.5870 LP             1 S1                 0.0000
     48 ****         1.7279  -2.4777   2.2591 LP             1 S1                 0.0000
     49 ****         6.2843  -3.7791  -1.8842 LP             1 S1                 0.0000
     50 ****         4.3572  -3.5121   1.8203 LP             1 S1                 0.0000
@<TRIPOS>BOND
    1    1    2 1     
    2    1   21 1     
    3    1   22 1     
    4    1   23 1     
    5    2   20 1     
    6    2    3 1     
    7    2   24 1     
    8    3    4 1     
    9    3   25 1     
   10    3   26 1     
   11    4    5 1     
   12    4    6 1     
   13    4   27 1     
   14    5   28 1     
   15    5   29 1     
   16    5   30 1     
   17    6    7 1     
   18    6   31 1     
   19    6   32 1     
   20    7    8 1     
   21    7   20 1     
   22    7   46 1     
   23    8    9 1     
   24    8   33 1     
   25    8   34 1     
   26    9   10 1     
   27    9   35 1     
   28    9   36 1     
   29   10   11 am    
   30   10   37 1     
   31   11   12 2     
   32   11   13 1     
   33   13   14 1     
   34   13   15 1     
   35   13   38 1     
   36   14   39 1     
   37   14   40 1     
   38   14   41 1     
   39   15   19 1     
   40   15   16 1     
   41   16   17 2     
   42   16   42 1     
   43   17   18 1     
   44   18   19 2     
   45   18   43 1     
   46   20   44 1     
   47   20   45 1     
   48   12   47 1     
   49   12   48 1     
   50   17   49 1     
   51   19   50 1     
@<TRIPOS>SUBSTRUCTURE
      1 S1             1
@<TRIPOS>SET
LONE_PAIRS      STATIC     ATOMS    <user>   **** ""
4 47 48 49 50
DONOR_HYDROGENS      STATIC     ATOMS    <user>   **** ""
2 46 37
ATOM$BLUE        STATIC     ATOMS    COLORGROUP SYSTEM
4 47 48 49 50
ATOM$RED        STATIC     ATOMS    COLORGROUP SYSTEM
2 46 37
