AV-unprocessed.smi:2583|AV-procd|sdf|10142|dock1
  -GOLD-   2272014153D 1   1.00000     0.00000
 Structure written by MMmdl.
 54 56  0  0  0  0  0  0  0  0  2 V2000
  153.8904  142.5635  163.3582 C   0  0  0  0  0  0  0  0  0  0  0  0
  153.2132  142.3927  162.0147 C   0  0  0  0  0  0  0  0  0  0  0  0
  152.2912  143.3469  161.5370 C   0  0  0  0  0  0  0  0  0  0  0  0
  151.6541  143.2320  160.3529 N   0  0  0  0  0  0  0  0  0  0  0  0
  151.9232  142.1494  159.5929 C   0  0  0  0  0  0  0  0  0  0  0  0
  152.8373  141.1405  159.9631 C   0  0  0  0  0  0  0  0  0  0  0  0
  153.0127  140.0417  159.0800 N   0  0  0  0  0  0  0  0  0  0  0  0
  152.2808  139.7126  158.0020 C   0  0  0  0  0  0  0  0  0  0  0  0
  151.2701  140.3029  157.6223 O   0  0  0  0  0  0  0  0  0  0  0  0
  152.7832  138.6302  157.3910 N   0  0  0  0  0  0  0  0  0  0  0  0
  152.2408  137.9970  156.1920 C   0  0  2  0  0  0  0  0  0  0  0  0
  152.0653  139.0451  155.0772 C   0  0  0  0  0  0  0  0  0  0  0  0
  151.3269  138.4487  153.8631 C   0  0  0  0  0  0  0  0  0  0  0  0
  150.0043  137.8755  154.2453 N   0  3  2  0  0  0  0  0  0  0  0  0
  148.9473  138.8833  154.5986 C   0  0  0  0  0  0  0  0  0  0  0  0
  147.6641  138.7101  153.7509 C   0  0  0  0  0  0  0  0  0  0  0  0
  146.6308  139.8158  154.0252 C   0  0  0  0  0  0  0  0  0  0  0  0
  147.2115  141.1253  153.7436 N   0  0  0  0  0  0  0  0  0  0  0  0
  146.1985  142.1540  153.9336 C   0  0  0  0  0  0  0  0  0  0  0  0
  148.3263  141.3681  154.6544 C   0  0  0  0  0  0  0  0  0  0  0  0
  149.4415  140.3377  154.4105 C   0  0  0  0  0  0  0  0  0  0  0  0
  150.2134  136.7924  155.2483 C   0  0  0  0  0  0  0  0  0  0  0  0
  150.8979  137.3202  156.5232 C   0  0  0  0  0  0  0  0  0  0  0  0
  153.4888  141.2663  161.2137 C   0  0  0  0  0  0  0  0  0  0  0  0
  153.5975  143.4998  163.8345 H   0  0  0  0  0  0  0  0  0  0  0  0
  154.9740  142.5667  163.2371 H   0  0  0  0  0  0  0  0  0  0  0  0
  153.6213  141.7423  164.0230 H   0  0  0  0  0  0  0  0  0  0  0  0
  152.0515  144.2234  162.1210 H   0  0  0  0  0  0  0  0  0  0  0  0
  151.3921  142.0894  158.6540 H   0  0  0  0  0  0  0  0  0  0  0  0
  153.7584  139.4066  159.3241 H   0  0  0  0  0  0  0  0  0  0  0  0
  153.6132  138.2122  157.7858 H   0  0  0  0  0  0  0  0  0  0  0  0
  152.9199  137.2251  155.8251 H   0  0  0  0  0  0  0  0  0  0  0  0
  151.5214  139.9120  155.4538 H   0  0  0  0  0  0  0  0  0  0  0  0
  153.0421  139.4153  154.7640 H   0  0  0  0  0  0  0  0  0  0  0  0
  151.2430  139.1785  153.0607 H   0  0  0  0  0  0  0  0  0  0  0  0
  151.9344  137.6466  153.4412 H   0  0  0  0  0  0  0  0  0  0  0  0
  148.6722  138.7576  155.6456 H   0  0  0  0  0  0  0  0  0  0  0  0
  147.9148  138.7007  152.6890 H   0  0  0  0  0  0  0  0  0  0  0  0
  147.1781  137.7603  153.9689 H   0  0  0  0  0  0  0  0  0  0  0  0
  145.7580  139.6606  153.3895 H   0  0  0  0  0  0  0  0  0  0  0  0
  146.2859  139.7665  155.0596 H   0  0  0  0  0  0  0  0  0  0  0  0
  146.6114  143.1409  153.7209 H   0  0  0  0  0  0  0  0  0  0  0  0
  145.8164  142.1561  154.9556 H   0  0  0  0  0  0  0  0  0  0  0  0
  145.3596  141.9944  153.2553 H   0  0  0  0  0  0  0  0  0  0  0  0
  148.7191  142.3722  154.4885 H   0  0  0  0  0  0  0  0  0  0  0  0
  147.9876  141.3248  155.6910 H   0  0  0  0  0  0  0  0  0  0  0  0
  150.2466  140.5695  155.1062 H   0  0  0  0  0  0  0  0  0  0  0  0
  149.8457  140.4687  153.4054 H   0  0  0  0  0  0  0  0  0  0  0  0
  149.2903  136.2688  155.4880 H   0  0  0  0  0  0  0  0  0  0  0  0
  150.8504  136.0305  154.7968 H   0  0  0  0  0  0  0  0  0  0  0  0
  151.0638  136.4951  157.2169 H   0  0  0  0  0  0  0  0  0  0  0  0
  150.2373  138.0191  157.0376 H   0  0  0  0  0  0  0  0  0  0  0  0
  154.1760  140.5180  161.5776 H   0  0  0  0  0  0  0  0  0  0  0  0
  149.6563  137.4151  153.4162 H   0  0  0  0  0  0  0  0  0  0  0  0
  1  2  1  0  0  0  0
  1 25  1  0  0  0  0
  1 26  1  0  0  0  0
  1 27  1  0  0  0  0
  2 24  1  0  0  0  0
  2  3  2  0  0  0  0
  3  4  1  0  0  0  0
  3 28  1  0  0  0  0
  4  5  2  0  0  0  0
  5  6  1  0  0  0  0
  5 29  1  0  0  0  0
  6  7  1  0  0  0  0
  6 24  2  0  0  0  0
  7  8  1  0  0  0  0
  7 30  1  0  0  0  0
  8  9  2  0  0  0  0
  8 10  1  0  0  0  0
 10 11  1  0  0  0  0
 10 31  1  0  0  0  0
 11 23  1  0  0  0  0
 11 12  1  0  0  0  0
 11 32  1  0  0  0  0
 12 13  1  0  0  0  0
 12 33  1  0  0  0  0
 12 34  1  0  0  0  0
 13 14  1  0  0  0  0
 13 35  1  0  0  0  0
 13 36  1  0  0  0  0
 14 15  1  0  0  0  0
 14 22  1  0  0  0  0
 14 54  1  0  0  0  0
 15 21  1  0  0  0  0
 15 16  1  0  0  0  0
 15 37  1  0  0  0  0
 16 17  1  0  0  0  0
 16 38  1  0  0  0  0
 16 39  1  0  0  0  0
 17 18  1  0  0  0  0
 17 40  1  0  0  0  0
 17 41  1  0  0  0  0
 18 19  1  0  0  0  0
 18 20  1  0  0  0  0
 19 42  1  0  0  0  0
 19 43  1  0  0  0  0
 19 44  1  0  0  0  0
 20 21  1  0  0  0  0
 20 45  1  0  0  0  0
 20 46  1  0  0  0  0
 21 47  1  0  0  0  0
 21 48  1  0  0  0  0
 22 23  1  0  0  0  0
 22 49  1  0  0  0  0
 22 50  1  0  0  0  0
 23 51  1  0  0  0  0
 23 52  1  0  0  0  0
 24 53  1  0  0  0  0
M  CHG  1  14   1
M  END
> <s_m_source_file>
AV-unprocessed.smi

> <i_m_source_file_index>
2583

> <i_lp_mmshare_version>
43012

> <i_f3d_flags>
0

> <s_epik_input>
W0NIM11jMVtjSF1uW2NIXWMoW2NIXTEpW05IXUMoPU8pW05IXVtDSF0yW0NIMl1bQ0gyXU4oW0NIMl1bQ0gyXTIpW0NIXTNbQ0gyXVtDSDJdTihbQ0gzXSlbQ0gyXVtDSDJdMw==

> <s_epik_cmdline>
J2VwaWtfcHl0aG9uJywgJy1waCcsICc3LjAnLCAnLXRuJywgJzgnLCAnLW1hJywgJzIwMCcsICctbWV0YWxfYmluZGluZycsICctaW1hZScsICc8aW5maWxlLm1hZT4nLCAnLW9tYWUnLCAnPG91dGZpbGUubWFlPic=

> <r_epik_Ionization_Penalty>
1.38006

> <r_epik_Ionization_Penalty_Charging>
0.00081195

> <r_epik_Ionization_Penalty_Neutral>
1.37925

> <r_epik_State_Penalty>
1.55585

> <r_epik_Charging_Adjusted_Penalty>
1.55666

> <i_epik_Tot_Q>
1

> <i_epik_Tot_abs_Q>
1

> <r_epik_Metal_State_Penalty>
1.55173

> <b_epik_Metal_Only>
0

> <s_lp_Force_Field>
OPLS_2005

> <r_lp_Energy>
35.4229

> <b_lp_Chiralities_Consistent>
1

> <s_lp_Variant>
AV-unprocessed.smi:2583-8

> <Gold.Version>
5.8.1

> <Gold.Id.Protein>
6NUR|6NUR_protein|mol2

> <Gold.PLP.Fitness>
46.8193

> <Gold.PLP.PLP>
-44.7717

> <Gold.PLP.part.hbond>
-0.9649

> <Gold.PLP.part.metal>
0.0000

> <Gold.PLP.part.buried>
-6.4326

> <Gold.PLP.part.nonpolar>
-38.3978

> <Gold.PLP.part.repulsive>
0.4678

> <Gold.PLP.ligand.clash>
0.9252

> <Gold.PLP.ligand.torsion>
1.5125

> <Gold.PLP.Chemscore.Hbond>
1.9825

> <Gold.PLP.Chemscore.CHOScore>
0.0000

> <Gold.PLP.Chemscore.Metal>
0.0000

> <Gold.Chemscore.Hbonds>
donor molecule, donor type, donor heavy atom, donor atom, acceptor molecule, acceptor atom, score
      L1  H    14    54       P1  7948  1.95

> <Gold.PLP.Chemscore.Internal.Correction>
0.0503

> <Gold.Rescore>
     Score         DG    S(hbond)    S(metal)    S(lipo)     H(rot)  DE(clash)    DE(int)     intcor
     15.31     -20.51       0.87        0.00     129.68       1.19       1.63       3.57       ----

> <Gold.Chemscore.Fitness>
15.3148

> <Gold.Chemscore.DG>
-20.5112

> <Gold.Chemscore.ZeroCoef>
-5.4800

> <Gold.Chemscore.Hbond>
0.8706

> <Gold.Chemscore.Metal>
0.0000

> <Gold.Chemscore.Lipo>
129.6786

> <Gold.Chemscore.Internal_Hbond>
0.0000

> <Gold.Chemscore.DEClash>
1.6296

> <Gold.Chemscore.DEInternal>
3.5668

> <Gold.Chemscore.Rot>
1.1910

> <Gold.Chemscore.Internal.Correction>
   9.000000E+99

> <Gold.Chemscore.Hbonds>
donor molecule, donor type, donor heavy atom, donor atom, acceptor molecule, acceptor atom, score
      L1  H    14    54       P1  7948  0.72

> <Gold.Chemscore.Hbond.Weighted>
-2.9077

> <Gold.Chemscore.Metal.Weighted>
-0.0000

> <Gold.Chemscore.Lipo.Weighted>
-15.1724

> <Gold.Chemscore.Internal_Hbond.Weighted>
0.0000

> <Gold.Chemscore.DEClash.Weighted>
1.6296

> <Gold.Chemscore.DEInternal.Weighted>
3.5668

> <Gold.Chemscore.Rot.Weighted>
3.0489

> <Gold.Chemscore.Internal.Correction.Weighted>
   9.000000E+99

> <Gold.Protein.RotatedTorsions>
[ 6907 6896 6895 6894 ] final -160.29 input  -60.11 | X-H torsion
[ 7974 7965 7964 7962 ] final   -6.75 input  175.53 | X-H torsion
[ 8008 7997 7996 7995 ] final   34.40 input   59.86 | X-H torsion
[ 10167 10162 10161 10158 ] final  152.70 input  -65.29 | X-H torsion
[ 10718 10713 10712 10709 ] final  -16.79 input   66.30 | X-H torsion
[ 10763 10752 10751 10750 ] final   -1.13 input  -60.55 | X-H torsion
[ 11005 11000 10999 10996 ] final  161.41 input  -57.11 | X-H torsion

> <Gold.Protein.ActiveResidues>
 VAL166  LYS551  ARG553  GLY616  TRP617  ASP618  TYR619  PRO620  LYS621  CYS622 
 ASP623  PHE694  ASN695  SER759  ASP760  ASP761  ALA762  ILE779  LEU786  VAL792 
 PHE793  MET794  SER795  GLU796  ALA797  LYS798  CYS799  TRP800  GLU811  SER814 

> <Gold.Protein.RotatedAtoms>
  151.3467  133.3941  159.2676 H   0  0  0  0  0  0  0  0  0  0  0  0  # atno 6907 bound_to 6896
  150.9834  134.9185  159.7868 H   0  0  0  0  0  0  0  0  0  0  0  0  # atno 6908 bound_to 6896
  152.5224  134.3431  159.9276 H   0  0  0  0  0  0  0  0  0  0  0  0  # atno 6909 bound_to 6896
  146.2323  140.2216  142.8337 H   0  0  0  0  0  0  0  0  0  0  0  0  # atno 7974 bound_to 7965
  155.1542  140.3277  155.4425 H   0  0  0  0  0  0  0  0  0  0  0  0  # atno 8008 bound_to 7997
  156.2564  140.1971  156.6602 H   0  0  0  0  0  0  0  0  0  0  0  0  # atno 8009 bound_to 7997
  154.6451  140.0565  156.9878 H   0  0  0  0  0  0  0  0  0  0  0  0  # atno 8010 bound_to 7997
  139.4831  144.5335  151.7683 H   0  0  0  0  0  0  0  0  0  0  0  0  # atno 10167 bound_to 10162
  156.5827  130.4778  149.6313 H   0  0  0  0  0  0  0  0  0  0  0  0  # atno 10718 bound_to 10713
  153.3409  135.6980  153.6868 H   0  0  0  0  0  0  0  0  0  0  0  0  # atno 10763 bound_to 10752
  153.5633  135.3530  155.2808 H   0  0  0  0  0  0  0  0  0  0  0  0  # atno 10764 bound_to 10752
  154.8636  135.4254  154.2622 H   0  0  0  0  0  0  0  0  0  0  0  0  # atno 10765 bound_to 10752
  140.2155  134.8235  157.3166 H   0  0  0  0  0  0  0  0  0  0  0  0  # atno 11005 bound_to 11000
  144.9627  140.8291  143.5503 LP  0  0  0  0  0  0  0  0  0  0  0  0  # atno 17320 bound_to 7965
  145.2189  139.2168  143.5103 LP  0  0  0  0  0  0  0  0  0  0  0  0  # atno 17321 bound_to 7965
  140.4865  144.1374  150.5942 LP  0  0  0  0  0  0  0  0  0  0  0  0  # atno 17342 bound_to 10162
  140.4220  143.2607  151.9704 LP  0  0  0  0  0  0  0  0  0  0  0  0  # atno 17343 bound_to 10162
  156.2618  130.6966  151.1737 LP  0  0  0  0  0  0  0  0  0  0  0  0  # atno 17370 bound_to 10713
  157.7323  131.0601  150.5637 LP  0  0  0  0  0  0  0  0  0  0  0  0  # atno 17371 bound_to 10713
  140.1905  134.4377  155.7718 LP  0  0  0  0  0  0  0  0  0  0  0  0  # atno 17394 bound_to 11000
  141.2225  133.7025  156.8019 LP  0  0  0  0  0  0  0  0  0  0  0  0  # atno 17395 bound_to 11000

$$$$
