AV-unprocessed.smi:2603|AV-procd|sdf|10187|dock9
  -GOLD-   2272014203D 1   1.00000     0.00000
 Structure written by MMmdl.
 35 36  0  0  0  0  0  0  0  0  1 V2000
  153.1047  142.8756  162.3175 C   0  0  0  0  0  0  0  0  0  0  0  0
  152.7417  142.4039  160.9075 C   0  0  0  0  0  0  0  0  0  0  0  0
  151.7541  143.2671  160.3737 O   0  0  0  0  0  0  0  0  0  0  0  0
  152.3218  144.3821  159.7050 C   0  0  2  0  0  0  0  0  0  0  0  0
  151.3414  145.4869  159.4266 C   0  0  0  0  0  0  0  0  0  0  0  0
  151.7927  144.5738  158.2999 C   0  0  2  0  0  0  0  0  0  0  0  0
  150.8526  143.6228  157.8038 N   0  0  0  0  0  0  0  0  0  0  0  0
  150.9818  142.2890  157.8530 C   0  0  0  0  0  0  0  0  0  0  0  0
  151.9737  141.7156  158.3023 O   0  0  0  0  0  0  0  0  0  0  0  0
  149.8019  141.4745  157.3194 C   0  0  0  0  0  0  0  0  0  0  0  0
  150.2435  140.6333  156.1466 C   0  0  0  0  0  0  0  0  0  0  0  0
  151.2637  139.6390  156.1184 C   0  0  0  0  0  0  0  0  0  0  0  0
  152.1566  139.1803  157.2353 C   0  0  0  0  0  0  0  0  0  0  0  0
  151.3860  139.0899  154.9218 N   0  0  0  0  0  0  0  0  0  0  0  0
  150.4284  139.7118  154.1152 O   0  0  0  0  0  0  0  0  0  0  0  0
  149.7610  140.6242  154.8657 C   0  0  0  0  0  0  0  0  0  0  0  0
  148.6829  141.3884  154.1745 C   0  0  0  0  0  0  0  0  0  0  0  0
  153.8462  142.2167  162.7693 H   0  0  0  0  0  0  0  0  0  0  0  0
  152.2274  142.8866  162.9648 H   0  0  0  0  0  0  0  0  0  0  0  0
  153.5208  143.8828  162.2990 H   0  0  0  0  0  0  0  0  0  0  0  0
  153.6283  142.4084  160.2718 H   0  0  0  0  0  0  0  0  0  0  0  0
  152.3643  141.3809  160.9431 H   0  0  0  0  0  0  0  0  0  0  0  0
  153.3688  144.5940  159.9157 H   0  0  0  0  0  0  0  0  0  0  0  0
  150.3279  145.3690  159.8054 H   0  0  0  0  0  0  0  0  0  0  0  0
  151.7227  146.5060  159.4287 H   0  0  0  0  0  0  0  0  0  0  0  0
  152.4836  145.0131  157.5817 H   0  0  0  0  0  0  0  0  0  0  0  0
  149.9949  143.9963  157.4242 H   0  0  0  0  0  0  0  0  0  0  0  0
  149.4065  140.8598  158.1285 H   0  0  0  0  0  0  0  0  0  0  0  0
  148.9963  142.1530  157.0359 H   0  0  0  0  0  0  0  0  0  0  0  0
  151.6797  139.3198  158.2057 H   0  0  0  0  0  0  0  0  0  0  0  0
  153.0918  139.7402  157.2411 H   0  0  0  0  0  0  0  0  0  0  0  0
  152.4016  138.1217  157.1411 H   0  0  0  0  0  0  0  0  0  0  0  0
  148.1837  142.0743  154.8587 H   0  0  0  0  0  0  0  0  0  0  0  0
  147.9302  140.7118  153.7711 H   0  0  0  0  0  0  0  0  0  0  0  0
  149.0913  141.9715  153.3491 H   0  0  0  0  0  0  0  0  0  0  0  0
  1  2  1  0  0  0  0
  1 18  1  0  0  0  0
  1 19  1  0  0  0  0
  1 20  1  0  0  0  0
  2  3  1  0  0  0  0
  2 21  1  0  0  0  0
  2 22  1  0  0  0  0
  3  4  1  0  0  0  0
  4  6  1  0  0  0  0
  4  5  1  0  0  0  0
  4 23  1  0  0  0  0
  5  6  1  0  0  0  0
  5 24  1  0  0  0  0
  5 25  1  0  0  0  0
  6  7  1  0  0  0  0
  6 26  1  0  0  0  0
  7  8  1  0  0  0  0
  7 27  1  0  0  0  0
  8  9  2  0  0  0  0
  8 10  1  0  0  0  0
 10 11  1  0  0  0  0
 10 28  1  0  0  0  0
 10 29  1  0  0  0  0
 11 16  2  0  0  0  0
 11 12  1  0  0  0  0
 12 13  1  0  0  0  0
 12 14  2  0  0  0  0
 13 30  1  0  0  0  0
 13 31  1  0  0  0  0
 13 32  1  0  0  0  0
 14 15  1  0  0  0  0
 15 16  1  0  0  0  0
 16 17  1  0  0  0  0
 17 33  1  0  0  0  0
 17 34  1  0  0  0  0
 17 35  1  0  0  0  0
M  END
> <s_m_source_file>
AV-unprocessed.smi

> <i_m_source_file_index>
2603

> <i_lp_mmshare_version>
43012

> <i_f3d_flags>
0

> <s_epik_input>
W0NIM11bQ0gyXU9bQ0BASF0xW0NIMl1bQ0BIXTFbTkhdQyg9TylbQ0gyXWMyYyhbQ0gzXSlub2MyW0NIM10=

> <s_epik_cmdline>
J2VwaWtfcHl0aG9uJywgJy1waCcsICc3LjAnLCAnLXRuJywgJzgnLCAnLW1hJywgJzIwMCcsICctbWV0YWxfYmluZGluZycsICctaW1hZScsICc8aW5maWxlLm1hZT4nLCAnLW9tYWUnLCAnPG91dGZpbGUubWFlPic=

> <r_lp_tautomer_probability>
1

> <r_epik_Ionization_Penalty>
2.37325e-08

> <r_epik_Ionization_Penalty_Charging>
0

> <r_epik_Ionization_Penalty_Neutral>
2.37325e-08

> <r_epik_State_Penalty>
-0

> <r_epik_Charging_Adjusted_Penalty>
0

> <i_epik_Tot_Q>
0

> <i_epik_Tot_abs_Q>
0

> <r_epik_Metal_State_Penalty>
-0

> <b_epik_Metal_Only>
0

> <s_lp_Force_Field>
OPLS_2005

> <r_lp_Energy>
11.1697

> <b_lp_Chiralities_Consistent>
1

> <s_lp_Variant>
AV-unprocessed.smi:2603-3

> <Gold.Version>
5.8.1

> <Gold.Id.Protein>
6NUR|6NUR_protein|mol2

> <Gold.PLP.Fitness>
42.8943

> <Gold.PLP.PLP>
-39.8731

> <Gold.PLP.part.hbond>
-2.2170

> <Gold.PLP.part.metal>
0.0000

> <Gold.PLP.part.buried>
-3.7321

> <Gold.PLP.part.nonpolar>
-33.2678

> <Gold.PLP.part.repulsive>
0.7111

> <Gold.PLP.ligand.clash>
0.0000

> <Gold.PLP.ligand.torsion>
0.6484

> <Gold.PLP.Chemscore.Hbond>
1.2132

> <Gold.PLP.Chemscore.CHOScore>
0.0000

> <Gold.PLP.Chemscore.Metal>
0.0000

> <Gold.Chemscore.Hbonds>
donor molecule, donor type, donor heavy atom, donor atom, acceptor molecule, acceptor atom, score
      L1  H     7    27       P1  8028  0.60
      P1  H  7989  7998       L1    15  0.45

> <Gold.PLP.Chemscore.Internal.Correction>
0.6785

> <Gold.Rescore>
     Score         DG    S(hbond)    S(metal)    S(lipo)     H(rot)  DE(clash)    DE(int)     intcor
     10.12     -15.76       0.86        0.00     100.41       1.69       1.00       4.65       ----

> <Gold.Chemscore.Fitness>
10.1162

> <Gold.Chemscore.DG>
-15.7621

> <Gold.Chemscore.ZeroCoef>
-5.4800

> <Gold.Chemscore.Hbond>
0.8591

> <Gold.Chemscore.Metal>
0.0000

> <Gold.Chemscore.Lipo>
100.4070

> <Gold.Chemscore.Internal_Hbond>
0.0000

> <Gold.Chemscore.DEClash>
0.9981

> <Gold.Chemscore.DEInternal>
4.6478

> <Gold.Chemscore.Rot>
1.6933

> <Gold.Chemscore.Internal.Correction>
   9.000000E+99

> <Gold.Chemscore.Hbonds>
donor molecule, donor type, donor heavy atom, donor atom, acceptor molecule, acceptor atom, score
      L1  H     7    27       P1  8028  0.41

> <Gold.Chemscore.Hbond.Weighted>
-2.8692

> <Gold.Chemscore.Metal.Weighted>
-0.0000

> <Gold.Chemscore.Lipo.Weighted>
-11.7476

> <Gold.Chemscore.Internal_Hbond.Weighted>
0.0000

> <Gold.Chemscore.DEClash.Weighted>
0.9981

> <Gold.Chemscore.DEInternal.Weighted>
4.6478

> <Gold.Chemscore.Rot.Weighted>
4.3348

> <Gold.Chemscore.Internal.Correction.Weighted>
   9.000000E+99

> <Gold.Protein.RotatedTorsions>
[ 6907 6896 6895 6894 ] final  167.69 input  -60.11 | X-H torsion
[ 7974 7965 7964 7962 ] final  -31.33 input  175.53 | X-H torsion
[ 8008 7997 7996 7995 ] final  -13.85 input   59.86 | X-H torsion
[ 10167 10162 10161 10158 ] final  113.52 input  -65.29 | X-H torsion
[ 10718 10713 10712 10709 ] final    8.21 input   66.30 | X-H torsion
[ 10763 10752 10751 10750 ] final  -14.32 input  -60.55 | X-H torsion
[ 11005 11000 10999 10996 ] final  -44.46 input  -57.11 | X-H torsion

> <Gold.Protein.ActiveResidues>
 VAL166  LYS551  ARG553  GLY616  TRP617  ASP618  TYR619  PRO620  LYS621  CYS622 
 ASP623  PHE694  ASN695  SER759  ASP760  ASP761  ALA762  ILE779  LEU786  VAL792 
 PHE793  MET794  SER795  GLU796  ALA797  LYS798  CYS799  TRP800  GLU811  SER814 

> <Gold.Protein.RotatedAtoms>
  151.8593  133.3454  159.3698 H   0  0  0  0  0  0  0  0  0  0  0  0  # atno 6907 bound_to 6896
  150.7183  134.5222  159.5668 H   0  0  0  0  0  0  0  0  0  0  0  0  # atno 6908 bound_to 6896
  152.2732  134.7911  160.0461 H   0  0  0  0  0  0  0  0  0  0  0  0  # atno 6909 bound_to 6896
  146.1075  140.5653  142.8793 H   0  0  0  0  0  0  0  0  0  0  0  0  # atno 7974 bound_to 7965
  154.5258  140.2238  155.8893 H   0  0  0  0  0  0  0  0  0  0  0  0  # atno 8008 bound_to 7997
  156.1711  140.3121  155.8940 H   0  0  0  0  0  0  0  0  0  0  0  0  # atno 8009 bound_to 7997
  155.3555  140.0458  157.3037 H   0  0  0  0  0  0  0  0  0  0  0  0  # atno 8010 bound_to 7997
  139.6456  144.7126  151.2150 H   0  0  0  0  0  0  0  0  0  0  0  0  # atno 10167 bound_to 10162
  156.9483  130.5887  149.5655 H   0  0  0  0  0  0  0  0  0  0  0  0  # atno 10718 bound_to 10713
  153.5265  135.7015  153.5705 H   0  0  0  0  0  0  0  0  0  0  0  0  # atno 10763 bound_to 10752
  153.3731  135.3939  155.1803 H   0  0  0  0  0  0  0  0  0  0  0  0  # atno 10764 bound_to 10752
  154.8689  135.3817  154.4758 H   0  0  0  0  0  0  0  0  0  0  0  0  # atno 10765 bound_to 10752
  141.0451  133.6764  156.2875 H   0  0  0  0  0  0  0  0  0  0  0  0  # atno 11005 bound_to 11000
  144.7483  140.5126  143.6820 LP  0  0  0  0  0  0  0  0  0  0  0  0  # atno 17320 bound_to 7965
  145.5730  139.1484  143.3277 LP  0  0  0  0  0  0  0  0  0  0  0  0  # atno 17321 bound_to 7965
  140.7512  143.6237  150.8488 LP  0  0  0  0  0  0  0  0  0  0  0  0  # atno 17342 bound_to 10162
  139.9880  143.5878  152.2920 LP  0  0  0  0  0  0  0  0  0  0  0  0  # atno 17343 bound_to 10162
  156.0374  130.5460  150.8687 LP  0  0  0  0  0  0  0  0  0  0  0  0  # atno 17370 bound_to 10713
  157.5739  131.0946  150.9376 LP  0  0  0  0  0  0  0  0  0  0  0  0  # atno 17371 bound_to 10713
  140.6161  134.5409  157.5541 LP  0  0  0  0  0  0  0  0  0  0  0  0  # atno 17394 bound_to 11000
  139.9306  134.7971  156.0943 LP  0  0  0  0  0  0  0  0  0  0  0  0  # atno 17395 bound_to 11000

$$$$
