#       Name:                AV-unprocessed.smi:3321
#       Creating user name   scv26
#       Creation time:       Fri Mar 27 19:11:21 2020


#       File generated by GOLD software.
#

@<TRIPOS>MOLECULE
AV-unprocessed.smi:3321
    44    45     1
SMALL
NO_CHARGES


@<TRIPOS>ATOM
      1 ****        -0.8505   3.2254  -1.1695 C.3            1 S1                 0.0000
      2 ****        -0.3852   1.8893  -0.5697 C.3            1 S1                 0.0000
      3 ****         1.0388   1.9870  -0.1968 N.3            1 S1                 0.0000
      4 ****         1.5266   0.8356   0.5553 C.3            1 S1                 0.0000
      5 ****         2.9791   1.0847   0.9839 C.3            1 S1                 0.0000
      6 ****         3.5101  -0.0366   1.7343 N.pl3          1 S1                 0.0000
      7 ****         4.2737  -1.0895   1.2764 C.2            1 S1                 0.0000
      8 ****         4.5269  -1.9018   2.3445 C.2            1 S1                 0.0000
      9 ****         3.8664  -1.2538   3.4259 C.2            1 S1                 0.0000
     10 ****         3.2579  -0.1380   3.0573 N.2            1 S1                 0.0000
     11 ****        -0.6862   0.7349  -1.5551 C.2            1 S1                 0.0000
     12 ****         0.1843   0.4328  -2.3743 O.2            1 S1                 0.0000
     13 ****        -1.8746   0.0816  -1.5011 N.am           1 S1                 0.0000
     14 ****        -2.1390  -1.1346  -2.2815 C.3            1 S1                 0.0000
     15 ****        -2.1574  -2.3356  -1.3163 C.3            1 S1                 0.0000
     16 ****        -3.1843  -2.1251  -0.1850 C.3            1 S1                 0.0000
     17 ****        -3.0328  -0.7426   0.4809 C.3            1 S1                 0.0000
     18 ****        -2.9860   0.3673  -0.5841 C.3            1 S1                 0.0000
     19 ****        -1.9117   3.2039  -1.4203 H              1 S1                 0.0000
     20 ****        -0.3000   3.4682  -2.0796 H              1 S1                 0.0000
     21 ****        -0.7004   4.0435  -0.4644 H              1 S1                 0.0000
     22 ****        -0.9244   1.7278   0.3622 H              1 S1                 0.0000
     23 ****         1.6238   2.1471  -1.0046 H              1 S1                 0.0000
     24 ****         0.8996   0.6778   1.4342 H              1 S1                 0.0000
     25 ****         1.4780  -0.0720  -0.0467 H              1 S1                 0.0000
     26 ****         3.6126   1.2456   0.1103 H              1 S1                 0.0000
     27 ****         3.0518   1.9835   1.5987 H              1 S1                 0.0000
     28 ****         4.5685  -1.1728   0.2405 H              1 S1                 0.0000
     29 ****         5.0959  -2.8196   2.3522 H              1 S1                 0.0000
     30 ****         3.8107  -1.5594   4.4605 H              1 S1                 0.0000
     31 ****        -3.1004  -1.0432  -2.7889 H              1 S1                 0.0000
     32 ****        -1.4053  -1.3048  -3.0703 H              1 S1                 0.0000
     33 ****        -2.3838  -3.2527  -1.8608 H              1 S1                 0.0000
     34 ****        -1.1637  -2.4686  -0.8859 H              1 S1                 0.0000
     35 ****        -4.1894  -2.2094  -0.6002 H              1 S1                 0.0000
     36 ****        -3.0925  -2.9154   0.5604 H              1 S1                 0.0000
     37 ****        -3.8583  -0.5685   1.1716 H              1 S1                 0.0000
     38 ****        -2.1185  -0.7176   1.0756 H              1 S1                 0.0000
     39 ****        -2.9388   1.3508  -0.1212 H              1 S1                 0.0000
     40 ****        -3.9206   0.3742  -1.1469 H              1 S1                 0.0000
     41 ****         1.0976   2.7777   0.4126 LP             1 S1                 0.0000
     42 ****         2.7299   0.4893   3.6297 LP             1 S1                 0.0000
     43 ****         1.0523   0.9291  -2.3875 LP             1 S1                 0.0000
     44 ****         0.0223  -0.3085  -3.0256 LP             1 S1                 0.0000
@<TRIPOS>BOND
    1    1    2 1     
    2    1   19 1     
    3    1   20 1     
    4    1   21 1     
    5    2    3 1     
    6    2   11 1     
    7    2   22 1     
    8    3    4 1     
    9    3   23 1     
   10    4    5 1     
   11    4   24 1     
   12    4   25 1     
   13    5    6 1     
   14    5   26 1     
   15    5   27 1     
   16    6   10 1     
   17    6    7 1     
   18    7    8 2     
   19    7   28 1     
   20    8    9 1     
   21    8   29 1     
   22    9   10 2     
   23    9   30 1     
   24   11   12 2     
   25   11   13 am    
   26   13   18 1     
   27   13   14 1     
   28   14   15 1     
   29   14   31 1     
   30   14   32 1     
   31   15   16 1     
   32   15   33 1     
   33   15   34 1     
   34   16   17 1     
   35   16   35 1     
   36   16   36 1     
   37   17   18 1     
   38   17   37 1     
   39   17   38 1     
   40   18   39 1     
   41   18   40 1     
   42    3   41 1     
   43   10   42 1     
   44   12   43 1     
   45   12   44 1     
@<TRIPOS>SUBSTRUCTURE
      1 S1             1
@<TRIPOS>SET
LONE_PAIRS      STATIC     ATOMS    <user>   **** ""
4 41 42 43 44
DONOR_HYDROGENS      STATIC     ATOMS    <user>   **** ""
1 23
ATOM$BLUE        STATIC     ATOMS    COLORGROUP SYSTEM
4 41 42 43 44
ATOM$RED        STATIC     ATOMS    COLORGROUP SYSTEM
1 23
