AV-unprocessed.smi:798|AV-procd|sdf|3779|dock5
  -GOLD-   22720 1213D 1   1.00000     0.00000
 Structure written by MMmdl.
 33 35  0  0  0  0  0  0  0  0  2 V2000
  151.8895  139.6276  158.3780 O   0  0  0  0  0  0  0  0  0  0  0  0
  152.1023  140.2934  157.3622 C   0  0  0  0  0  0  0  0  0  0  0  0
  152.4775  139.8153  156.1539 N   0  5  0  0  0  0  0  0  0  0  0  0
  151.9228  138.6906  155.6727 C   0  0  0  0  0  0  0  0  0  0  0  0
  152.4336  137.4745  155.9229 N   0  0  0  0  0  0  0  0  0  0  0  0
  151.7038  136.4455  155.3432 N   0  0  0  0  0  0  0  0  0  0  0  0
  150.6514  136.9142  154.6731 C   0  0  0  0  0  0  0  0  0  0  0  0
  150.4555  138.6541  154.6906 S   0  0  0  0  0  0  0  0  0  0  0  0
  151.9696  141.6266  157.3953 N   0  0  0  0  0  0  0  0  0  0  0  0
  151.5941  142.4240  158.5611 C   0  0  2  0  0  0  0  0  0  0  0  0
  151.0027  143.7802  158.1176 C   0  0  1  0  0  0  0  0  0  0  0  0
  150.2667  144.4155  159.3111 C   0  0  0  0  0  0  0  0  0  0  0  0
  151.4279  144.8566  160.2215 C   0  0  0  0  0  0  0  0  0  0  0  0
  152.6763  144.3958  159.4386 C   0  0  2  0  0  0  0  0  0  0  0  0
  152.2371  144.6706  158.0060 C   0  0  0  0  0  0  0  0  0  0  0  0
  152.8152  142.8526  159.4159 C   0  0  1  0  0  0  0  0  0  0  0  0
  152.8966  142.1576  160.7891 C   0  0  0  0  0  0  0  0  0  0  0  0
  153.3978  140.8445  160.6514 O   0  0  0  0  0  0  0  0  0  0  0  0
  149.9845  136.2313  154.1681 H   0  0  0  0  0  0  0  0  0  0  0  0
  152.1519  142.1301  156.5397 H   0  0  0  0  0  0  0  0  0  0  0  0
  150.8591  141.8705  159.1492 H   0  0  0  0  0  0  0  0  0  0  0  0
  150.3899  143.7240  157.2169 H   0  0  0  0  0  0  0  0  0  0  0  0
  149.6809  145.2785  158.9922 H   0  0  0  0  0  0  0  0  0  0  0  0
  149.5902  143.7169  159.8049 H   0  0  0  0  0  0  0  0  0  0  0  0
  151.4288  145.9419  160.3289 H   0  0  0  0  0  0  0  0  0  0  0  0
  151.3640  144.4363  161.2241 H   0  0  0  0  0  0  0  0  0  0  0  0
  153.5909  144.9094  159.7365 H   0  0  0  0  0  0  0  0  0  0  0  0
  152.9540  144.3280  157.2575 H   0  0  0  0  0  0  0  0  0  0  0  0
  151.9994  145.7190  157.8174 H   0  0  0  0  0  0  0  0  0  0  0  0
  153.7333  142.6151  158.8741 H   0  0  0  0  0  0  0  0  0  0  0  0
  153.5164  142.7134  161.4918 H   0  0  0  0  0  0  0  0  0  0  0  0
  151.9030  142.0979  161.2333 H   0  0  0  0  0  0  0  0  0  0  0  0
  154.1406  140.7460  161.2272 H   0  0  0  0  0  0  0  0  0  0  0  0
  1  2  2  0  0  0  0
  2  3  1  0  0  0  0
  2  9  1  0  0  0  0
  3  4  1  0  0  0  0
  4  8  1  0  0  0  0
  4  5  2  0  0  0  0
  5  6  1  0  0  0  0
  6  7  2  0  0  0  0
  7  8  1  0  0  0  0
  7 19  1  0  0  0  0
  9 10  1  0  0  0  0
  9 20  1  0  0  0  0
 10 16  1  0  0  0  0
 10 11  1  0  0  0  0
 10 21  1  0  0  0  0
 11 15  1  0  0  0  0
 11 12  1  0  0  0  0
 11 22  1  0  0  0  0
 12 13  1  0  0  0  0
 12 23  1  0  0  0  0
 12 24  1  0  0  0  0
 13 14  1  0  0  0  0
 13 25  1  0  0  0  0
 13 26  1  0  0  0  0
 14 15  1  0  0  0  0
 14 16  1  0  0  0  0
 14 27  1  0  0  0  0
 15 28  1  0  0  0  0
 15 29  1  0  0  0  0
 16 17  1  0  0  0  0
 16 30  1  0  0  0  0
 17 18  1  0  0  0  0
 17 31  1  0  0  0  0
 17 32  1  0  0  0  0
 18 33  1  0  0  0  0
M  CHG  1   3  -1
M  END
> <s_m_source_file>
AV-unprocessed.smi

> <i_m_source_file_index>
798

> <i_lp_mmshare_version>
43012

> <i_f3d_flags>
0

> <s_epik_input>
W0NIMl0xW0NIMl1bQ0BASF0oW0NIMl0yKVtDQEBIXShbQ0gyXVtPSF0pW0NAQEhdKFtDQEhdMTIpW05IXUMoPU8pW05IXWMzbm5bY0hdczM=

> <s_epik_cmdline>
J2VwaWtfcHl0aG9uJywgJy1waCcsICc3LjAnLCAnLXRuJywgJzgnLCAnLW1hJywgJzIwMCcsICctbWV0YWxfYmluZGluZycsICctaW1hZScsICc8aW5maWxlLm1hZT4nLCAnLW9tYWUnLCAnPG91dGZpbGUubWFlPic=

> <r_lp_tautomer_probability>
1

> <r_epik_Ionization_Penalty>
4.53732

> <r_epik_Ionization_Penalty_Charging>
4.48632

> <r_epik_Ionization_Penalty_Neutral>
0.0510007

> <r_epik_State_Penalty>
4.48602

> <r_epik_Charging_Adjusted_Penalty>
8.97234

> <i_epik_Tot_Q>
-1

> <i_epik_Tot_abs_Q>
1

> <r_epik_Metal_State_Penalty>
0.812492

> <b_epik_Metal_Only>
1

> <s_lp_Force_Field>
OPLS_2005

> <r_lp_Energy>
47.3134

> <b_lp_Chiralities_Consistent>
1

> <s_lp_Variant>
AV-unprocessed.smi:798-11

> <Gold.Version>
5.8.1

> <Gold.Id.Protein>
6NUR|6NUR_protein|mol2

> <Gold.PLP.Fitness>
46.4453

> <Gold.PLP.PLP>
-37.5503

> <Gold.PLP.part.hbond>
-2.8335

> <Gold.PLP.part.metal>
0.0000

> <Gold.PLP.part.buried>
-3.6669

> <Gold.PLP.part.nonpolar>
-31.0823

> <Gold.PLP.part.repulsive>
0.1838

> <Gold.PLP.ligand.clash>
0.0000

> <Gold.PLP.ligand.torsion>
1.5663

> <Gold.PLP.Chemscore.Hbond>
3.0000

> <Gold.PLP.Chemscore.CHOScore>
1.0000

> <Gold.PLP.Chemscore.Metal>
0.0000

> <Gold.Chemscore.Hbonds>
donor molecule, donor type, donor heavy atom, donor atom, acceptor molecule, acceptor atom, score
      P1  H  7997  8008       L1     3  2.00
      P1  H 10752 10763       L1     6  1.00
      L1  C     7    19       P1  7948  1.00

> <Gold.PLP.Chemscore.Internal.Correction>
0.0276

> <Gold.Rescore>
     Score         DG    S(hbond)    S(metal)    S(lipo)     H(rot)  DE(clash)    DE(int)     intcor
     14.89     -17.35       1.39        0.00     103.81       1.92       0.85       1.61       ----

> <Gold.Chemscore.Fitness>
14.8879

> <Gold.Chemscore.DG>
-17.3492

> <Gold.Chemscore.ZeroCoef>
-5.4800

> <Gold.Chemscore.Hbond>
1.3895

> <Gold.Chemscore.Metal>
0.0000

> <Gold.Chemscore.Lipo>
103.8051

> <Gold.Chemscore.Internal_Hbond>
0.0000

> <Gold.Chemscore.DEClash>
0.8536

> <Gold.Chemscore.DEInternal>
1.6077

> <Gold.Chemscore.Rot>
1.9207

> <Gold.Chemscore.Internal.Correction>
   9.000000E+99

> <Gold.Chemscore.Hbonds>
donor molecule, donor type, donor heavy atom, donor atom, acceptor molecule, acceptor atom, score
      P1  H  7997  8008       L1     3  0.39
      P1  H 10752 10763       L1     6  0.25

> <Gold.Chemscore.Hbond.Weighted>
-4.6409

> <Gold.Chemscore.Metal.Weighted>
-0.0000

> <Gold.Chemscore.Lipo.Weighted>
-12.1452

> <Gold.Chemscore.Internal_Hbond.Weighted>
0.0000

> <Gold.Chemscore.DEClash.Weighted>
0.8536

> <Gold.Chemscore.DEInternal.Weighted>
1.6077

> <Gold.Chemscore.Rot.Weighted>
4.9169

> <Gold.Chemscore.Internal.Correction.Weighted>
   9.000000E+99

> <Gold.Protein.RotatedTorsions>
[ 6907 6896 6895 6894 ] final  160.23 input  -60.11 | X-H torsion
[ 7974 7965 7964 7962 ] final  123.29 input  175.53 | X-H torsion
[ 8008 7997 7996 7995 ] final  -28.48 input   59.86 | X-H torsion
[ 10167 10162 10161 10158 ] final -137.36 input  -65.29 | X-H torsion
[ 10718 10713 10712 10709 ] final -114.77 input   66.30 | X-H torsion
[ 10763 10752 10751 10750 ] final   57.36 input  -60.55 | X-H torsion
[ 11005 11000 10999 10996 ] final  -58.58 input  -57.11 | X-H torsion

> <Gold.Protein.ActiveResidues>
 VAL166  LYS551  ARG553  GLY616  TRP617  ASP618  TYR619  PRO620  LYS621  CYS622 
 ASP623  PHE694  ASN695  SER759  ASP760  ASP761  ALA762  ILE779  LEU786  VAL792 
 PHE793  MET794  SER795  GLU796  ALA797  LYS798  CYS799  TRP800  GLU811  SER814 

> <Gold.Protein.RotatedAtoms>
  151.9737  133.3734  159.4080 H   0  0  0  0  0  0  0  0  0  0  0  0  # atno 6907 bound_to 6896
  150.6945  134.4113  159.5172 H   0  0  0  0  0  0  0  0  0  0  0  0  # atno 6908 bound_to 6896
  152.1821  134.8745  160.0576 H   0  0  0  0  0  0  0  0  0  0  0  0  # atno 6909 bound_to 6896
  145.0977  139.3541  143.4828 H   0  0  0  0  0  0  0  0  0  0  0  0  # atno 7974 bound_to 7965
  154.4330  140.1844  156.1096 H   0  0  0  0  0  0  0  0  0  0  0  0  # atno 8008 bound_to 7997
  156.0228  140.3339  155.7031 H   0  0  0  0  0  0  0  0  0  0  0  0  # atno 8009 bound_to 7997
  155.5952  140.0635  157.2739 H   0  0  0  0  0  0  0  0  0  0  0  0  # atno 8010 bound_to 7997
  139.8585  143.7107  152.2652 H   0  0  0  0  0  0  0  0  0  0  0  0  # atno 10167 bound_to 10162
  156.0851  130.6044  150.8818 H   0  0  0  0  0  0  0  0  0  0  0  0  # atno 10718 bound_to 10713
  152.9848  135.5644  154.5378 H   0  0  0  0  0  0  0  0  0  0  0  0  # atno 10763 bound_to 10752
  154.4838  135.2790  155.1552 H   0  0  0  0  0  0  0  0  0  0  0  0  # atno 10764 bound_to 10752
  154.3050  135.6300  153.5494 H   0  0  0  0  0  0  0  0  0  0  0  0  # atno 10765 bound_to 10752
  141.1213  133.6613  156.4942 H   0  0  0  0  0  0  0  0  0  0  0  0  # atno 11005 bound_to 11000
  146.3530  140.0839  142.8616 LP  0  0  0  0  0  0  0  0  0  0  0  0  # atno 17320 bound_to 7965
  145.0992  140.9335  143.4723 LP  0  0  0  0  0  0  0  0  0  0  0  0  # atno 17321 bound_to 7965
  139.7396  144.7563  151.0673 LP  0  0  0  0  0  0  0  0  0  0  0  0  # atno 17342 bound_to 10162
  140.7778  143.4988  150.9798 LP  0  0  0  0  0  0  0  0  0  0  0  0  # atno 17343 bound_to 10162
  157.5983  131.0942  150.9004 LP  0  0  0  0  0  0  0  0  0  0  0  0  # atno 17370 bound_to 10713
  156.9166  130.5300  149.5279 LP  0  0  0  0  0  0  0  0  0  0  0  0  # atno 17371 bound_to 10713
  140.4498  134.6939  157.5034 LP  0  0  0  0  0  0  0  0  0  0  0  0  # atno 17394 bound_to 11000
  140.0173  134.6600  155.9291 LP  0  0  0  0  0  0  0  0  0  0  0  0  # atno 17395 bound_to 11000

$$$$
