AV-unprocessed.smi:3151|AV-procd|sdf|12015|dock6
  -GOLD-   2272017423D 1   1.00000     0.00000
 Structure written by MMmdl.
 36 37  0  0  0  0  0  0  0  0  2 V2000
  152.6734  139.9284  156.8542 O   0  0  0  0  0  0  0  0  0  0  0  0
  151.6846  140.5723  157.2060 C   0  0  0  0  0  0  0  0  0  0  0  0
  151.5613  141.0788  158.6470 C   0  0  0  0  0  0  0  0  0  0  0  0
  152.2064  142.4633  158.8673 C   0  0  0  0  0  0  0  0  0  0  0  0
  152.0416  143.0327  160.2833 C   0  0  0  0  0  0  0  0  0  0  0  0
  152.1812  144.5549  160.1408 C   0  0  0  0  0  0  0  0  0  0  0  0
  152.0570  144.8648  158.6420 C   0  0  0  0  0  0  0  0  0  0  0  0
  151.6131  143.5590  157.9799 C   0  0  0  0  0  0  0  0  0  0  0  0
  150.6732  140.8742  156.3770 N   0  0  0  0  0  0  0  0  0  0  0  0
  150.5967  140.4717  154.9779 C   0  0  0  0  0  0  0  0  0  0  0  0
  149.3724  139.5805  154.7124 C   0  0  0  0  0  0  0  0  0  0  0  0
  148.1931  140.3740  154.3640 N   0  0  0  0  0  0  0  0  0  0  0  0
  148.0621  141.7381  154.4110 C   0  0  0  0  0  0  0  0  0  0  0  0
  146.7846  142.0215  154.0010 C   0  0  0  0  0  0  0  0  0  0  0  0
  146.1906  140.8194  153.7231 N   0  3  0  0  0  0  0  0  0  0  0  0
  147.0488  139.8186  153.9454 C   0  0  0  0  0  0  0  0  0  0  0  0
  150.5005  141.1271  158.8951 H   0  0  0  0  0  0  0  0  0  0  0  0
  152.0043  140.3526  159.3306 H   0  0  0  0  0  0  0  0  0  0  0  0
  153.2736  142.4029  158.6451 H   0  0  0  0  0  0  0  0  0  0  0  0
  151.0466  142.7972  160.6642 H   0  0  0  0  0  0  0  0  0  0  0  0
  152.7660  142.6171  160.9844 H   0  0  0  0  0  0  0  0  0  0  0  0
  151.4093  145.0658  160.7175 H   0  0  0  0  0  0  0  0  0  0  0  0
  153.1467  144.8948  160.5172 H   0  0  0  0  0  0  0  0  0  0  0  0
  151.3636  145.6822  158.4425 H   0  0  0  0  0  0  0  0  0  0  0  0
  153.0314  145.1594  158.2497 H   0  0  0  0  0  0  0  0  0  0  0  0
  151.9435  143.4850  156.9432 H   0  0  0  0  0  0  0  0  0  0  0  0
  150.5236  143.4981  157.9869 H   0  0  0  0  0  0  0  0  0  0  0  0
  149.8997  141.4093  156.7449 H   0  0  0  0  0  0  0  0  0  0  0  0
  150.5732  141.3567  154.3393 H   0  0  0  0  0  0  0  0  0  0  0  0
  151.5111  139.9333  154.7265 H   0  0  0  0  0  0  0  0  0  0  0  0
  149.5680  138.8889  153.8917 H   0  0  0  0  0  0  0  0  0  0  0  0
  149.1259  138.9778  155.5882 H   0  0  0  0  0  0  0  0  0  0  0  0
  148.8660  142.3883  154.7246 H   0  0  0  0  0  0  0  0  0  0  0  0
  146.2670  142.9635  153.8900 H   0  0  0  0  0  0  0  0  0  0  0  0
  146.8553  138.7685  153.8140 H   0  0  0  0  0  0  0  0  0  0  0  0
  145.2395  140.7018  153.3972 H   0  0  0  0  0  0  0  0  0  0  0  0
  1  2  2  0  0  0  0
  2  3  1  0  0  0  0
  2  9  1  0  0  0  0
  3  4  1  0  0  0  0
  3 17  1  0  0  0  0
  3 18  1  0  0  0  0
  4  8  1  0  0  0  0
  4  5  1  0  0  0  0
  4 19  1  0  0  0  0
  5  6  1  0  0  0  0
  5 20  1  0  0  0  0
  5 21  1  0  0  0  0
  6  7  1  0  0  0  0
  6 22  1  0  0  0  0
  6 23  1  0  0  0  0
  7  8  1  0  0  0  0
  7 24  1  0  0  0  0
  7 25  1  0  0  0  0
  8 26  1  0  0  0  0
  8 27  1  0  0  0  0
  9 10  1  0  0  0  0
  9 28  1  0  0  0  0
 10 11  1  0  0  0  0
 10 29  1  0  0  0  0
 10 30  1  0  0  0  0
 11 12  1  0  0  0  0
 11 31  1  0  0  0  0
 11 32  1  0  0  0  0
 12 16  1  0  0  0  0
 12 13  1  0  0  0  0
 13 14  2  0  0  0  0
 13 33  1  0  0  0  0
 14 15  1  0  0  0  0
 14 34  1  0  0  0  0
 15 16  2  0  0  0  0
 15 36  1  0  0  0  0
 16 35  1  0  0  0  0
M  CHG  1  15   1
M  END
> <s_m_source_file>
AV-unprocessed.smi

> <i_m_source_file_index>
3151

> <i_lp_mmshare_version>
43012

> <i_f3d_flags>
0

> <s_epik_input>
W0NIMl0xW0NIMl1bQ0gyXVtDSDJdW0NIXTFbQ0gyXUMoPU8pW05IXVtDSDJdW0NIMl1uMltjSF1bY0hdbltjSF0y

> <s_epik_cmdline>
J2VwaWtfcHl0aG9uJywgJy1waCcsICc3LjAnLCAnLXRuJywgJzgnLCAnLW1hJywgJzIwMCcsICctbWV0YWxfYmluZGluZycsICctaW1hZScsICc8aW5maWxlLm1hZT4nLCAnLW9tYWUnLCAnPG91dGZpbGUubWFlPic=

> <r_lp_tautomer_probability>
1

> <r_epik_Ionization_Penalty>
0.269485

> <r_epik_Ionization_Penalty_Charging>
0

> <r_epik_Ionization_Penalty_Neutral>
0.269485

> <r_epik_State_Penalty>
0.261564

> <r_epik_Charging_Adjusted_Penalty>
0.261564

> <i_epik_Tot_Q>
1

> <i_epik_Tot_abs_Q>
1

> <r_epik_Metal_State_Penalty>
0.546677

> <b_epik_Metal_Only>
0

> <s_lp_Force_Field>
OPLS_2005

> <r_lp_Energy>
22.4511

> <b_lp_Chiralities_Consistent>
1

> <s_lp_Variant>
AV-unprocessed.smi:3151-1

> <Gold.Version>
5.8.1

> <Gold.Id.Protein>
6NUR|6NUR_protein|mol2

> <Gold.PLP.Fitness>
48.1409

> <Gold.PLP.PLP>
-37.3448

> <Gold.PLP.part.hbond>
-2.0000

> <Gold.PLP.part.metal>
0.0000

> <Gold.PLP.part.buried>
-2.4064

> <Gold.PLP.part.nonpolar>
-33.5594

> <Gold.PLP.part.repulsive>
0.0883

> <Gold.PLP.ligand.clash>
0.0000

> <Gold.PLP.ligand.torsion>
0.6132

> <Gold.PLP.Chemscore.Hbond>
3.0000

> <Gold.PLP.Chemscore.CHOScore>
0.9996

> <Gold.PLP.Chemscore.Metal>
0.0000

> <Gold.Chemscore.Hbonds>
donor molecule, donor type, donor heavy atom, donor atom, acceptor molecule, acceptor atom, score
      L1  H    15    36       P1 10175  2.00
      P1  H  7997  8008       L1     1  1.00
      L1  C    13    33       P1  8028  1.00

> <Gold.PLP.Chemscore.Internal.Correction>
0.0238

> <Gold.Rescore>
     Score         DG    S(hbond)    S(metal)    S(lipo)     H(rot)  DE(clash)    DE(int)     intcor
     16.46     -17.87       1.97        0.00      95.00       2.08       0.85       0.55       ----

> <Gold.Chemscore.Fitness>
16.4632

> <Gold.Chemscore.DG>
-17.8717

> <Gold.Chemscore.ZeroCoef>
-5.4800

> <Gold.Chemscore.Hbond>
1.9745

> <Gold.Chemscore.Metal>
0.0000

> <Gold.Chemscore.Lipo>
95.0029

> <Gold.Chemscore.Internal_Hbond>
0.0000

> <Gold.Chemscore.DEClash>
0.8546

> <Gold.Chemscore.DEInternal>
0.5540

> <Gold.Chemscore.Rot>
2.0774

> <Gold.Chemscore.Internal.Correction>
   9.000000E+99

> <Gold.Chemscore.Hbonds>
donor molecule, donor type, donor heavy atom, donor atom, acceptor molecule, acceptor atom, score
      L1  H    15    36       P1 10175  0.91
      P1  H  7997  8008       L1     1  1.00

> <Gold.Chemscore.Hbond.Weighted>
-6.5947

> <Gold.Chemscore.Metal.Weighted>
-0.0000

> <Gold.Chemscore.Lipo.Weighted>
-11.1153

> <Gold.Chemscore.Internal_Hbond.Weighted>
0.0000

> <Gold.Chemscore.DEClash.Weighted>
0.8546

> <Gold.Chemscore.DEInternal.Weighted>
0.5540

> <Gold.Chemscore.Rot.Weighted>
5.3183

> <Gold.Chemscore.Internal.Correction.Weighted>
   9.000000E+99

> <Gold.Protein.RotatedTorsions>
[ 6907 6896 6895 6894 ] final -179.93 input  -60.11 | X-H torsion
[ 7974 7965 7964 7962 ] final -140.93 input  175.53 | X-H torsion
[ 8008 7997 7996 7995 ] final  -49.53 input   59.86 | X-H torsion
[ 10167 10162 10161 10158 ] final -138.41 input  -65.29 | X-H torsion
[ 10718 10713 10712 10709 ] final -147.42 input   66.30 | X-H torsion
[ 10763 10752 10751 10750 ] final -127.43 input  -60.55 | X-H torsion
[ 11005 11000 10999 10996 ] final   50.12 input  -57.11 | X-H torsion

> <Gold.Protein.ActiveResidues>
 VAL166  LYS551  ARG553  GLY616  TRP617  ASP618  TYR619  PRO620  LYS621  CYS622 
 ASP623  PHE694  ASN695  SER759  ASP760  ASP761  ALA762  ILE779  LEU786  VAL792 
 PHE793  MET794  SER795  GLU796  ALA797  LYS798  CYS799  TRP800  GLU811  SER814 

> <Gold.Protein.RotatedAtoms>
  151.6614  133.3317  159.3174 H   0  0  0  0  0  0  0  0  0  0  0  0  # atno 6907 bound_to 6896
  150.7912  134.6940  159.6522 H   0  0  0  0  0  0  0  0  0  0  0  0  # atno 6908 bound_to 6896
  152.3991  134.6319  160.0129 H   0  0  0  0  0  0  0  0  0  0  0  0  # atno 6909 bound_to 6896
  144.8558  140.6140  143.5360 H   0  0  0  0  0  0  0  0  0  0  0  0  # atno 7974 bound_to 7965
  154.4045  140.1294  156.4517 H   0  0  0  0  0  0  0  0  0  0  0  0  # atno 8008 bound_to 7997
  155.7360  140.3490  155.5061 H   0  0  0  0  0  0  0  0  0  0  0  0  # atno 8009 bound_to 7997
  155.9083  140.1031  157.1288 H   0  0  0  0  0  0  0  0  0  0  0  0  # atno 8010 bound_to 7997
  139.8481  143.7234  152.2659 H   0  0  0  0  0  0  0  0  0  0  0  0  # atno 10167 bound_to 10162
  156.4073  130.7963  151.2178 H   0  0  0  0  0  0  0  0  0  0  0  0  # atno 10718 bound_to 10713
  154.8752  135.3962  154.3593 H   0  0  0  0  0  0  0  0  0  0  0  0  # atno 10763 bound_to 10752
  153.4368  135.7026  153.6200 H   0  0  0  0  0  0  0  0  0  0  0  0  # atno 10764 bound_to 10752
  153.4798  135.3772  155.2405 H   0  0  0  0  0  0  0  0  0  0  0  0  # atno 10765 bound_to 10752
  140.1044  134.5038  155.8733 H   0  0  0  0  0  0  0  0  0  0  0  0  # atno 11005 bound_to 11000
  145.4409  139.1536  143.3971 LP  0  0  0  0  0  0  0  0  0  0  0  0  # atno 17320 bound_to 7965
  146.2822  140.4530  142.8772 LP  0  0  0  0  0  0  0  0  0  0  0  0  # atno 17321 bound_to 7965
  139.7492  144.7539  151.0533 LP  0  0  0  0  0  0  0  0  0  0  0  0  # atno 17342 bound_to 10162
  140.7790  143.4880  150.9930 LP  0  0  0  0  0  0  0  0  0  0  0  0  # atno 17343 bound_to 10162
  157.7506  131.0268  150.3980 LP  0  0  0  0  0  0  0  0  0  0  0  0  # atno 17370 bound_to 10713
  156.4271  130.3964  149.6785 LP  0  0  0  0  0  0  0  0  0  0  0  0  # atno 17371 bound_to 10713
  141.2114  133.6706  156.6582 LP  0  0  0  0  0  0  0  0  0  0  0  0  # atno 17394 bound_to 11000
  140.3176  134.8035  157.4226 LP  0  0  0  0  0  0  0  0  0  0  0  0  # atno 17395 bound_to 11000

$$$$
