AV-unprocessed.smi:2108|AV-procd|sdf|8605|dock2
  -GOLD-   2272011343D 1   1.00000     0.00000
 Structure written by MMmdl.
 34 35  0  0  0  0  0  0  0  0  2 V2000
  151.5019  139.7488  155.0255 O   0  0  0  0  0  0  0  0  0  0  0  0
  152.3992  138.8937  155.8196 S   0  0  0  0  0  0  0  0  0  0  0  0
  153.4627  138.1670  155.1065 O   0  0  0  0  0  0  0  0  0  0  0  0
  152.8950  139.6069  157.1879 N   0  5  0  0  0  0  0  0  0  0  0  0
  152.1240  140.7162  157.7206 C   0  0  0  0  0  0  0  0  0  0  0  0
  152.5336  140.9829  159.1850 C   0  0  0  0  0  0  0  0  0  0  0  0
  152.2445  142.4014  159.6661 C   0  0  0  0  0  0  0  0  0  0  0  0
  151.9481  143.4293  158.7416 C   0  0  0  0  0  0  0  0  0  0  0  0
  151.6795  144.7216  159.2318 C   0  0  0  0  0  0  0  0  0  0  0  0
  151.7102  144.9402  160.6223 C   0  0  0  0  0  0  0  0  0  0  0  0
  152.0089  143.8512  161.4646 C   0  0  0  0  0  0  0  0  0  0  0  0
  152.2674  142.6082  161.0058 N   0  0  0  0  0  0  0  0  0  0  0  0
  151.3997  137.6757  156.5510 N   0  0  0  0  0  0  0  0  0  0  0  0
  150.8716  136.6060  155.6799 C   0  0  0  0  0  0  0  0  0  0  0  0
  150.2169  135.4882  156.5069 C   0  0  0  0  0  0  0  0  0  0  0  0
  149.2264  136.0310  157.3660 O   0  0  0  0  0  0  0  0  0  0  0  0
  149.7942  136.9383  158.2975 C   0  0  0  0  0  0  0  0  0  0  0  0
  150.4277  138.1294  157.5605 C   0  0  0  0  0  0  0  0  0  0  0  0
  152.2789  141.6247  157.1378 H   0  0  0  0  0  0  0  0  0  0  0  0
  151.0533  140.5128  157.6809 H   0  0  0  0  0  0  0  0  0  0  0  0
  152.0203  140.2817  159.8448 H   0  0  0  0  0  0  0  0  0  0  0  0
  153.5998  140.7865  159.3103 H   0  0  0  0  0  0  0  0  0  0  0  0
  151.9322  143.2314  157.6797 H   0  0  0  0  0  0  0  0  0  0  0  0
  151.4534  145.5308  158.5535 H   0  0  0  0  0  0  0  0  0  0  0  0
  151.5087  145.9183  161.0337 H   0  0  0  0  0  0  0  0  0  0  0  0
  152.0392  143.9816  162.5360 H   0  0  0  0  0  0  0  0  0  0  0  0
  150.1415  137.0394  154.9954 H   0  0  0  0  0  0  0  0  0  0  0  0
  151.6674  136.1840  155.0670 H   0  0  0  0  0  0  0  0  0  0  0  0
  149.7475  134.7607  155.8445 H   0  0  0  0  0  0  0  0  0  0  0  0
  150.9659  134.9484  157.0887 H   0  0  0  0  0  0  0  0  0  0  0  0
  149.0112  137.2897  158.9695 H   0  0  0  0  0  0  0  0  0  0  0  0
  150.5344  136.4273  158.9154 H   0  0  0  0  0  0  0  0  0  0  0  0
  150.9181  138.7818  158.2825 H   0  0  0  0  0  0  0  0  0  0  0  0
  149.6564  138.7203  157.0651 H   0  0  0  0  0  0  0  0  0  0  0  0
  1  2  2  0  0  0  0
  2  3  2  0  0  0  0
  2  4  1  0  0  0  0
  2 13  1  0  0  0  0
  4  5  1  0  0  0  0
  5  6  1  0  0  0  0
  5 19  1  0  0  0  0
  5 20  1  0  0  0  0
  6  7  1  0  0  0  0
  6 21  1  0  0  0  0
  6 22  1  0  0  0  0
  7 12  1  0  0  0  0
  7  8  2  0  0  0  0
  8  9  1  0  0  0  0
  8 23  1  0  0  0  0
  9 10  2  0  0  0  0
  9 24  1  0  0  0  0
 10 11  1  0  0  0  0
 10 25  1  0  0  0  0
 11 12  2  0  0  0  0
 11 26  1  0  0  0  0
 13 18  1  0  0  0  0
 13 14  1  0  0  0  0
 14 15  1  0  0  0  0
 14 27  1  0  0  0  0
 14 28  1  0  0  0  0
 15 16  1  0  0  0  0
 15 29  1  0  0  0  0
 15 30  1  0  0  0  0
 16 17  1  0  0  0  0
 17 18  1  0  0  0  0
 17 31  1  0  0  0  0
 17 32  1  0  0  0  0
 18 33  1  0  0  0  0
 18 34  1  0  0  0  0
M  CHG  1   4  -1
M  END
> <s_m_source_file>
AV-unprocessed.smi

> <i_m_source_file_index>
2108

> <i_lp_mmshare_version>
43012

> <i_f3d_flags>
0

> <s_epik_input>
W0NIMl0xW0NIMl1PW0NIMl1bQ0gyXU4xUyg9TykoPU8pW05IXVtDSDJdW0NIMl1jMltjSF1bY0hdW2NIXVtjSF1uMg==

> <s_epik_cmdline>
J2VwaWtfcHl0aG9uJywgJy1waCcsICc3LjAnLCAnLXRuJywgJzgnLCAnLW1hJywgJzIwMCcsICctbWV0YWxfYmluZGluZycsICctaW1hZScsICc8aW5maWxlLm1hZT4nLCAnLW9tYWUnLCAnPG91dGZpbGUubWFlPic=

> <r_epik_Ionization_Penalty>
1.27779

> <r_epik_Ionization_Penalty_Charging>
1.20871

> <r_epik_Ionization_Penalty_Neutral>
0.0690773

> <r_epik_State_Penalty>
1.64557

> <r_epik_Charging_Adjusted_Penalty>
2.85428

> <i_epik_Tot_Q>
-1

> <i_epik_Tot_abs_Q>
1

> <r_epik_Metal_State_Penalty>
0.643506

> <b_epik_Metal_Only>
0

> <s_lp_Force_Field>
OPLS_2005

> <r_lp_Energy>
7.47044

> <b_lp_Chiralities_Consistent>
1

> <s_lp_Variant>
AV-unprocessed.smi:2108-2

> <Gold.Version>
5.8.1

> <Gold.Id.Protein>
6NUR|6NUR_protein|mol2

> <Gold.PLP.Fitness>
44.3533

> <Gold.PLP.PLP>
-36.1528

> <Gold.PLP.part.hbond>
-3.1760

> <Gold.PLP.part.metal>
0.0000

> <Gold.PLP.part.buried>
-6.3790

> <Gold.PLP.part.nonpolar>
-26.2329

> <Gold.PLP.part.repulsive>
0.0922

> <Gold.PLP.ligand.clash>
0.0000

> <Gold.PLP.ligand.torsion>
1.1722

> <Gold.PLP.Chemscore.Hbond>
3.0000

> <Gold.PLP.Chemscore.CHOScore>
0.0000

> <Gold.PLP.Chemscore.Metal>
0.0000

> <Gold.Chemscore.Hbonds>
donor molecule, donor type, donor heavy atom, donor atom, acceptor molecule, acceptor atom, score
      P1  H  7989  7998       L1     1  1.00
      P1  H  7997  8008       L1     4  1.70

> <Gold.PLP.Chemscore.Internal.Correction>
1.5450

> <Gold.Rescore>
     Score         DG    S(hbond)    S(metal)    S(lipo)     H(rot)  DE(clash)    DE(int)     intcor
     16.80     -18.02       1.79        0.00      90.24       1.56       0.07       1.14       ----

> <Gold.Chemscore.Fitness>
16.8032

> <Gold.Chemscore.DG>
-18.0163

> <Gold.Chemscore.ZeroCoef>
-5.4800

> <Gold.Chemscore.Hbond>
1.7903

> <Gold.Chemscore.Metal>
0.0000

> <Gold.Chemscore.Lipo>
90.2393

> <Gold.Chemscore.Internal_Hbond>
0.0000

> <Gold.Chemscore.DEClash>
0.0749

> <Gold.Chemscore.DEInternal>
1.1382

> <Gold.Chemscore.Rot>
1.5630

> <Gold.Chemscore.Internal.Correction>
   9.000000E+99

> <Gold.Chemscore.Hbonds>
donor molecule, donor type, donor heavy atom, donor atom, acceptor molecule, acceptor atom, score
      P1  H  7989  7998       L1     1  0.99
      P1  H  7997  8008       L1     4  0.12

> <Gold.Chemscore.Hbond.Weighted>
-5.9796

> <Gold.Chemscore.Metal.Weighted>
-0.0000

> <Gold.Chemscore.Lipo.Weighted>
-10.5580

> <Gold.Chemscore.Internal_Hbond.Weighted>
0.0000

> <Gold.Chemscore.DEClash.Weighted>
0.0749

> <Gold.Chemscore.DEInternal.Weighted>
1.1382

> <Gold.Chemscore.Rot.Weighted>
4.0013

> <Gold.Chemscore.Internal.Correction.Weighted>
   9.000000E+99

> <Gold.Protein.RotatedTorsions>
[ 6907 6896 6895 6894 ] final  -45.70 input  -60.11 | X-H torsion
[ 7974 7965 7964 7962 ] final   52.24 input  175.53 | X-H torsion
[ 8008 7997 7996 7995 ] final  -59.22 input   59.86 | X-H torsion
[ 10167 10162 10161 10158 ] final   18.27 input  -65.29 | X-H torsion
[ 10718 10713 10712 10709 ] final   43.44 input   66.30 | X-H torsion
[ 10763 10752 10751 10750 ] final   99.80 input  -60.55 | X-H torsion
[ 11005 11000 10999 10996 ] final   77.79 input  -57.11 | X-H torsion

> <Gold.Protein.ActiveResidues>
 VAL166  LYS551  ARG553  GLY616  TRP617  ASP618  TYR619  PRO620  LYS621  CYS622 
 ASP623  PHE694  ASN695  SER759  ASP760  ASP761  ALA762  ILE779  LEU786  VAL792 
 PHE793  MET794  SER795  GLU796  ALA797  LYS798  CYS799  TRP800  GLU811  SER814 

> <Gold.Protein.RotatedAtoms>
  150.9192  134.8609  159.7476 H   0  0  0  0  0  0  0  0  0  0  0  0  # atno 6907 bound_to 6896
  152.4984  134.4244  159.9501 H   0  0  0  0  0  0  0  0  0  0  0  0  # atno 6908 bound_to 6896
  151.4280  133.3639  159.2800 H   0  0  0  0  0  0  0  0  0  0  0  0  # atno 6909 bound_to 6896
  145.9833  139.4264  143.0118 H   0  0  0  0  0  0  0  0  0  0  0  0  # atno 7974 bound_to 7965
  154.4343  140.1066  156.6081 H   0  0  0  0  0  0  0  0  0  0  0  0  # atno 8008 bound_to 7997
  155.5839  140.3491  155.4529 H   0  0  0  0  0  0  0  0  0  0  0  0  # atno 8009 bound_to 7997
  156.0297  140.1258  157.0260 H   0  0  0  0  0  0  0  0  0  0  0  0  # atno 8010 bound_to 7997
  140.5665  143.9240  150.6681 H   0  0  0  0  0  0  0  0  0  0  0  0  # atno 10167 bound_to 10162
  157.4159  130.7941  149.7472 H   0  0  0  0  0  0  0  0  0  0  0  0  # atno 10718 bound_to 10713
  153.3059  135.4101  155.1294 H   0  0  0  0  0  0  0  0  0  0  0  0  # atno 10763 bound_to 10752
  154.8562  135.3553  154.5788 H   0  0  0  0  0  0  0  0  0  0  0  0  # atno 10764 bound_to 10752
  153.6215  135.7064  153.5367 H   0  0  0  0  0  0  0  0  0  0  0  0  # atno 10765 bound_to 10752
  139.9240  134.7711  156.1566 H   0  0  0  0  0  0  0  0  0  0  0  0  # atno 11005 bound_to 11000
  145.7737  140.9886  143.1136 LP  0  0  0  0  0  0  0  0  0  0  0  0  # atno 17320 bound_to 7965
  144.6867  139.9479  143.7477 LP  0  0  0  0  0  0  0  0  0  0  0  0  # atno 17321 bound_to 7965
  140.2704  143.3460  152.1242 LP  0  0  0  0  0  0  0  0  0  0  0  0  # atno 17342 bound_to 10162
  139.5096  144.6869  151.5862 LP  0  0  0  0  0  0  0  0  0  0  0  0  # atno 17343 bound_to 10162
  155.9865  130.3974  150.3209 LP  0  0  0  0  0  0  0  0  0  0  0  0  # atno 17370 bound_to 10713
  157.1352  131.0282  151.2952 LP  0  0  0  0  0  0  0  0  0  0  0  0  # atno 17371 bound_to 10713
  141.0783  133.6765  156.2282 LP  0  0  0  0  0  0  0  0  0  0  0  0  # atno 17394 bound_to 11000
  140.6391  134.5184  157.5568 LP  0  0  0  0  0  0  0  0  0  0  0  0  # atno 17395 bound_to 11000

$$$$
