AV-unprocessed.smi:3244|AV-procd|sdf|12398|dock7
  -GOLD-   2272018273D 1   1.00000     0.00000
 Structure written by MMmdl.
 41 42  0  0  0  0  0  0  0  0  2 V2000
  151.2587  145.3188  160.2389 C   0  0  0  0  0  0  0  0  0  0  0  0
  152.1213  144.7265  159.1123 C   0  0  0  0  0  0  0  0  0  0  0  0
  152.3148  143.2770  159.2692 N   0  0  0  0  0  0  0  0  0  0  0  0
  151.4170  142.3541  158.8394 C   0  0  0  0  0  0  0  0  0  0  0  0
  151.4948  141.1647  159.1525 O   0  0  0  0  0  0  0  0  0  0  0  0
  150.2728  142.7971  157.9116 C   0  0  0  0  0  0  0  0  0  0  0  0
  150.3760  142.1903  156.5665 N   0  3  0  0  0  0  0  0  0  0  0  0
  150.1798  140.7236  156.5101 C   0  0  2  0  0  0  0  0  0  0  0  0
  150.8546  140.1247  155.2649 C   0  0  0  0  0  0  0  0  0  0  0  0
  148.6756  140.3876  156.5340 C   0  0  0  0  0  0  0  0  0  0  0  0
  148.0879  140.3906  155.2056 N   0  0  0  0  0  0  0  0  0  0  0  0
  147.4348  141.4188  154.5594 C   0  0  0  0  0  0  0  0  0  0  0  0
  147.0668  140.9560  153.3286 C   0  0  0  0  0  0  0  0  0  0  0  0
  147.5450  139.6160  153.3132 C   0  0  0  0  0  0  0  0  0  0  0  0
  148.1573  139.2813  154.4376 N   0  0  0  0  0  0  0  0  0  0  0  0
  153.4375  142.9474  160.1089 C   0  0  0  0  0  0  0  0  0  0  0  0
  154.0895  141.5886  159.9622 C   0  0  0  0  0  0  0  0  0  0  0  0
  153.3167  141.9125  161.2145 C   0  0  0  0  0  0  0  0  0  0  0  0
  151.1331  146.3930  160.1020 H   0  0  0  0  0  0  0  0  0  0  0  0
  151.7261  145.1652  161.2120 H   0  0  0  0  0  0  0  0  0  0  0  0
  150.2652  144.8744  160.2769 H   0  0  0  0  0  0  0  0  0  0  0  0
  151.6863  144.9649  158.1418 H   0  0  0  0  0  0  0  0  0  0  0  0
  153.0879  145.2317  159.1116 H   0  0  0  0  0  0  0  0  0  0  0  0
  149.3120  142.5298  158.3471 H   0  0  0  0  0  0  0  0  0  0  0  0
  150.3072  143.8827  157.8127 H   0  0  0  0  0  0  0  0  0  0  0  0
  149.6543  142.6117  155.9977 H   0  0  0  0  0  0  0  0  0  0  0  0
  150.6343  140.2797  157.3973 H   0  0  0  0  0  0  0  0  0  0  0  0
  150.6953  139.0472  155.2151 H   0  0  0  0  0  0  0  0  0  0  0  0
  151.9321  140.2881  155.2700 H   0  0  0  0  0  0  0  0  0  0  0  0
  150.4547  140.5603  154.3487 H   0  0  0  0  0  0  0  0  0  0  0  0
  148.5019  139.4150  156.9975 H   0  0  0  0  0  0  0  0  0  0  0  0
  148.1375  141.1192  157.1384 H   0  0  0  0  0  0  0  0  0  0  0  0
  147.2883  142.3835  155.0228 H   0  0  0  0  0  0  0  0  0  0  0  0
  146.5353  141.4926  152.5564 H   0  0  0  0  0  0  0  0  0  0  0  0
  147.4668  138.8824  152.5242 H   0  0  0  0  0  0  0  0  0  0  0  0
  154.1118  143.7752  160.3201 H   0  0  0  0  0  0  0  0  0  0  0  0
  153.6405  140.8783  159.2704 H   0  0  0  0  0  0  0  0  0  0  0  0
  155.1740  141.5421  160.0378 H   0  0  0  0  0  0  0  0  0  0  0  0
  153.8866  142.0840  162.1255 H   0  0  0  0  0  0  0  0  0  0  0  0
  152.3720  141.3900  161.3509 H   0  0  0  0  0  0  0  0  0  0  0  0
  151.2705  142.4252  156.1608 H   0  0  0  0  0  0  0  0  0  0  0  0
  1  2  1  0  0  0  0
  1 19  1  0  0  0  0
  1 20  1  0  0  0  0
  1 21  1  0  0  0  0
  2  3  1  0  0  0  0
  2 22  1  0  0  0  0
  2 23  1  0  0  0  0
  3  4  1  0  0  0  0
  3 16  1  0  0  0  0
  4  5  2  0  0  0  0
  4  6  1  0  0  0  0
  6  7  1  0  0  0  0
  6 24  1  0  0  0  0
  6 25  1  0  0  0  0
  7  8  1  0  0  0  0
  7 26  1  0  0  0  0
  7 41  1  0  0  0  0
  8  9  1  0  0  0  0
  8 10  1  0  0  0  0
  8 27  1  0  0  0  0
  9 28  1  0  0  0  0
  9 29  1  0  0  0  0
  9 30  1  0  0  0  0
 10 11  1  0  0  0  0
 10 31  1  0  0  0  0
 10 32  1  0  0  0  0
 11 15  1  0  0  0  0
 11 12  1  0  0  0  0
 12 13  2  0  0  0  0
 12 33  1  0  0  0  0
 13 14  1  0  0  0  0
 13 34  1  0  0  0  0
 14 15  2  0  0  0  0
 14 35  1  0  0  0  0
 16 18  1  0  0  0  0
 16 17  1  0  0  0  0
 16 36  1  0  0  0  0
 17 18  1  0  0  0  0
 17 37  1  0  0  0  0
 17 38  1  0  0  0  0
 18 39  1  0  0  0  0
 18 40  1  0  0  0  0
M  CHG  1   7   1
M  END
> <s_m_source_file>
AV-unprocessed.smi

> <i_m_source_file_index>
3244

> <i_lp_mmshare_version>
43012

> <i_f3d_flags>
0

> <s_epik_input>
W0NIMl0xW0NIMl1bQ0hdMU4oW0NIMl1bQ0gzXSlDKD1PKVtDSDJdW05IXVtDQEhdKFtDSDNdKVtDSDJdbjJbY0hdW2NIXVtjSF1uMg==

> <s_epik_cmdline>
J2VwaWtfcHl0aG9uJywgJy1waCcsICc3LjAnLCAnLXRuJywgJzgnLCAnLW1hJywgJzIwMCcsICctbWV0YWxfYmluZGluZycsICctaW1hZScsICc8aW5maWxlLm1hZT4nLCAnLW9tYWUnLCAnPG91dGZpbGUubWFlPic=

> <r_lp_tautomer_probability>
1

> <r_epik_Ionization_Penalty>
0.115625

> <r_epik_Ionization_Penalty_Charging>
0.115622

> <r_epik_Ionization_Penalty_Neutral>
3.43793e-06

> <r_epik_State_Penalty>
0.105255

> <r_epik_Charging_Adjusted_Penalty>
0.220877

> <i_epik_Tot_Q>
1

> <i_epik_Tot_abs_Q>
1

> <r_epik_Metal_State_Penalty>
0.105264

> <b_epik_Metal_Only>
0

> <s_lp_Force_Field>
OPLS_2005

> <r_lp_Energy>
33.3923

> <b_lp_Chiralities_Consistent>
1

> <s_lp_Variant>
AV-unprocessed.smi:3244-1

> <Gold.Version>
5.8.1

> <Gold.Id.Protein>
6NUR|6NUR_protein|mol2

> <Gold.PLP.Fitness>
46.3147

> <Gold.PLP.PLP>
-41.4284

> <Gold.PLP.part.hbond>
-1.0387

> <Gold.PLP.part.metal>
0.0000

> <Gold.PLP.part.buried>
-4.6324

> <Gold.PLP.part.nonpolar>
-35.4962

> <Gold.PLP.part.repulsive>
0.1473

> <Gold.PLP.ligand.clash>
0.0000

> <Gold.PLP.ligand.torsion>
1.8560

> <Gold.PLP.Chemscore.Hbond>
1.7600

> <Gold.PLP.Chemscore.CHOScore>
1.0000

> <Gold.PLP.Chemscore.Metal>
0.0000

> <Gold.Chemscore.Hbonds>
donor molecule, donor type, donor heavy atom, donor atom, acceptor molecule, acceptor atom, score
      L1  H     7    26       P1  8028  0.57
      L1  C    12    33       P1  8028  0.16
      L1  C    14    35       P1  7957  0.10

> <Gold.PLP.Chemscore.Internal.Correction>
0.3183

> <Gold.Rescore>
     Score         DG    S(hbond)    S(metal)    S(lipo)     H(rot)  DE(clash)    DE(int)     intcor
     11.86     -15.37       0.93        0.00     102.73       2.04       0.10       3.40       ----

> <Gold.Chemscore.Fitness>
11.8634

> <Gold.Chemscore.DG>
-15.3654

> <Gold.Chemscore.ZeroCoef>
-5.4800

> <Gold.Chemscore.Hbond>
0.9279

> <Gold.Chemscore.Metal>
0.0000

> <Gold.Chemscore.Lipo>
102.7252

> <Gold.Chemscore.Internal_Hbond>
0.0000

> <Gold.Chemscore.DEClash>
0.1032

> <Gold.Chemscore.DEInternal>
3.3989

> <Gold.Chemscore.Rot>
2.0440

> <Gold.Chemscore.Internal.Correction>
   9.000000E+99

> <Gold.Chemscore.Hbonds>
donor molecule, donor type, donor heavy atom, donor atom, acceptor molecule, acceptor atom, score
      L1  H     7    26       P1  8028  0.28

> <Gold.Chemscore.Hbond.Weighted>
-3.0991

> <Gold.Chemscore.Metal.Weighted>
-0.0000

> <Gold.Chemscore.Lipo.Weighted>
-12.0189

> <Gold.Chemscore.Internal_Hbond.Weighted>
0.0000

> <Gold.Chemscore.DEClash.Weighted>
0.1032

> <Gold.Chemscore.DEInternal.Weighted>
3.3989

> <Gold.Chemscore.Rot.Weighted>
5.2325

> <Gold.Chemscore.Internal.Correction.Weighted>
   9.000000E+99

> <Gold.Protein.RotatedTorsions>
[ 6907 6896 6895 6894 ] final   18.48 input  -60.11 | X-H torsion
[ 7974 7965 7964 7962 ] final  139.33 input  175.53 | X-H torsion
[ 8008 7997 7996 7995 ] final  -95.44 input   59.86 | X-H torsion
[ 10167 10162 10161 10158 ] final  -55.44 input  -65.29 | X-H torsion
[ 10718 10713 10712 10709 ] final -111.05 input   66.30 | X-H torsion
[ 10763 10752 10751 10750 ] final    2.19 input  -60.55 | X-H torsion
[ 11005 11000 10999 10996 ] final -158.12 input  -57.11 | X-H torsion

> <Gold.Protein.ActiveResidues>
 VAL166  LYS551  ARG553  GLY616  TRP617  ASP618  TYR619  PRO620  LYS621  CYS622 
 ASP623  PHE694  ASN695  SER759  ASP760  ASP761  ALA762  ILE779  LEU786  VAL792 
 PHE793  MET794  SER795  GLU796  ALA797  LYS798  CYS799  TRP800  GLU811  SER814 

> <Gold.Protein.RotatedAtoms>
  151.8660  135.0507  160.0474 H   0  0  0  0  0  0  0  0  0  0  0  0  # atno 6907 bound_to 6896
  152.2626  133.5306  159.5399 H   0  0  0  0  0  0  0  0  0  0  0  0  # atno 6908 bound_to 6896
  150.7122  134.0725  159.3912 H   0  0  0  0  0  0  0  0  0  0  0  0  # atno 6909 bound_to 6896
  144.9289  139.5072  143.5627 H   0  0  0  0  0  0  0  0  0  0  0  0  # atno 7974 bound_to 7965
  154.7614  140.0480  157.0977 H   0  0  0  0  0  0  0  0  0  0  0  0  # atno 8008 bound_to 7997
  154.9933  140.3116  155.4878 H   0  0  0  0  0  0  0  0  0  0  0  0  # atno 8009 bound_to 7997
  156.2905  140.2215  156.5039 H   0  0  0  0  0  0  0  0  0  0  0  0  # atno 8010 bound_to 7997
  140.6374  143.2489  151.5081 H   0  0  0  0  0  0  0  0  0  0  0  0  # atno 10167 bound_to 10162
  156.0625  130.5847  150.8321 H   0  0  0  0  0  0  0  0  0  0  0  0  # atno 10718 bound_to 10713
  153.2986  135.6954  153.7224 H   0  0  0  0  0  0  0  0  0  0  0  0  # atno 10763 bound_to 10752
  153.6147  135.3438  155.2991 H   0  0  0  0  0  0  0  0  0  0  0  0  # atno 10764 bound_to 10752
  154.8544  135.4372  154.2091 H   0  0  0  0  0  0  0  0  0  0  0  0  # atno 10765 bound_to 10752
  140.6571  134.4388  157.5235 H   0  0  0  0  0  0  0  0  0  0  0  0  # atno 11005 bound_to 11000
  146.3238  139.8224  142.8924 LP  0  0  0  0  0  0  0  0  0  0  0  0  # atno 17320 bound_to 7965
  145.3174  141.0235  143.3520 LP  0  0  0  0  0  0  0  0  0  0  0  0  # atno 17321 bound_to 7965
  139.5584  144.2218  152.1651 LP  0  0  0  0  0  0  0  0  0  0  0  0  # atno 17342 bound_to 10162
  140.1478  144.5142  150.6705 LP  0  0  0  0  0  0  0  0  0  0  0  0  # atno 17343 bound_to 10162
  157.5644  131.0946  150.9511 LP  0  0  0  0  0  0  0  0  0  0  0  0  # atno 17370 bound_to 10713
  156.9742  130.5502  149.5292 LP  0  0  0  0  0  0  0  0  0  0  0  0  # atno 17371 bound_to 10713
  139.9025  134.8522  156.1836 LP  0  0  0  0  0  0  0  0  0  0  0  0  # atno 17394 bound_to 11000
  141.0493  133.6897  156.1741 LP  0  0  0  0  0  0  0  0  0  0  0  0  # atno 17395 bound_to 11000

$$$$
