AV-unprocessed.smi:1898|AV-procd|sdf|7702|dock4
  -GOLD-   22720 9443D 1   1.00000     0.00000
 Structure written by MMmdl.
 47 48  0  0  0  0  0  0  0  0  2 V2000
  141.6302  138.7138  154.4727 C   0  0  0  0  0  0  0  0  0  0  0  0
  142.4657  139.8943  154.6337 N   0  0  0  0  0  0  0  0  0  0  0  0
  142.9100  140.3473  155.8144 C   0  0  0  0  0  0  0  0  0  0  0  0
  142.6453  139.8051  156.8879 O   0  0  0  0  0  0  0  0  0  0  0  0
  143.7687  141.6157  155.7739 C   0  0  0  0  0  0  0  0  0  0  0  0
  144.9751  141.4742  154.9184 N   0  3  2  0  0  0  0  0  0  0  0  0
  145.9690  140.5316  155.4918 C   0  0  0  0  0  0  0  0  0  0  0  0
  147.1354  140.2896  154.5162 C   0  0  0  0  0  0  0  0  0  0  0  0
  147.8129  141.6021  154.0858 C   0  0  2  0  0  0  0  0  0  0  0  0
  148.5862  142.1652  155.1924 N   0  0  0  0  0  0  0  0  0  0  0  0
  149.4990  141.5012  155.9160 C   0  0  0  0  0  0  0  0  0  0  0  0
  149.8083  140.3289  155.7056 O   0  0  0  0  0  0  0  0  0  0  0  0
  150.0303  142.2883  156.8665 N   0  0  0  0  0  0  0  0  0  0  0  0
  151.0099  141.9603  157.8443 C   0  0  0  0  0  0  0  0  0  0  0  0
  151.4055  140.6340  158.1442 C   0  0  0  0  0  0  0  0  0  0  0  0
  152.3679  140.4189  159.1479 C   0  0  0  0  0  0  0  0  0  0  0  0
  152.8949  141.5358  159.8215 C   0  0  0  0  0  0  0  0  0  0  0  0
  152.5181  142.8035  159.5565 N   0  0  0  0  0  0  0  0  0  0  0  0
  151.5897  143.0136  158.5896 C   0  0  0  0  0  0  0  0  0  0  0  0
  151.2001  144.3127  158.3237 O   0  0  0  0  0  0  0  0  0  0  0  0
  151.7566  145.3626  159.1075 C   0  0  0  0  0  0  0  0  0  0  0  0
  146.7502  142.5901  153.5650 C   0  0  0  0  0  0  0  0  0  0  0  0
  145.5981  142.7784  154.5671 C   0  0  0  0  0  0  0  0  0  0  0  0
  141.4112  138.5539  153.4167 H   0  0  0  0  0  0  0  0  0  0  0  0
  140.6840  138.8324  155.0023 H   0  0  0  0  0  0  0  0  0  0  0  0
  142.1340  137.8250  154.8547 H   0  0  0  0  0  0  0  0  0  0  0  0
  142.7183  140.3976  153.7952 H   0  0  0  0  0  0  0  0  0  0  0  0
  143.1754  142.4713  155.4467 H   0  0  0  0  0  0  0  0  0  0  0  0
  144.0695  141.8186  156.8026 H   0  0  0  0  0  0  0  0  0  0  0  0
  146.3395  140.9231  156.4405 H   0  0  0  0  0  0  0  0  0  0  0  0
  145.4876  139.5778  155.7109 H   0  0  0  0  0  0  0  0  0  0  0  0
  147.8662  139.6150  154.9643 H   0  0  0  0  0  0  0  0  0  0  0  0
  146.7556  139.7779  153.6306 H   0  0  0  0  0  0  0  0  0  0  0  0
  148.5070  141.3727  153.2750 H   0  0  0  0  0  0  0  0  0  0  0  0
  148.3971  143.1254  155.4399 H   0  0  0  0  0  0  0  0  0  0  0  0
  149.7423  143.2558  156.8574 H   0  0  0  0  0  0  0  0  0  0  0  0
  150.9813  139.7801  157.6393 H   0  0  0  0  0  0  0  0  0  0  0  0
  152.6897  139.4191  159.3997 H   0  0  0  0  0  0  0  0  0  0  0  0
  153.6334  141.4077  160.5989 H   0  0  0  0  0  0  0  0  0  0  0  0
  151.3502  146.3166  158.7721 H   0  0  0  0  0  0  0  0  0  0  0  0
  152.8412  145.4098  158.9994 H   0  0  0  0  0  0  0  0  0  0  0  0
  151.5059  145.2493  160.1632 H   0  0  0  0  0  0  0  0  0  0  0  0
  147.2024  143.5541  153.3291 H   0  0  0  0  0  0  0  0  0  0  0  0
  146.3441  142.2131  152.6254 H   0  0  0  0  0  0  0  0  0  0  0  0
  144.8538  143.4449  154.1305 H   0  0  0  0  0  0  0  0  0  0  0  0
  145.9616  143.2669  155.4724 H   0  0  0  0  0  0  0  0  0  0  0  0
  144.6556  141.0588  154.0544 H   0  0  0  0  0  0  0  0  0  0  0  0
  1  2  1  0  0  0  0
  1 24  1  0  0  0  0
  1 25  1  0  0  0  0
  1 26  1  0  0  0  0
  2  3  1  0  0  0  0
  2 27  1  0  0  0  0
  3  4  2  0  0  0  0
  3  5  1  0  0  0  0
  5  6  1  0  0  0  0
  5 28  1  0  0  0  0
  5 29  1  0  0  0  0
  6 23  1  0  0  0  0
  6  7  1  0  0  0  0
  6 47  1  0  0  0  0
  7  8  1  0  0  0  0
  7 30  1  0  0  0  0
  7 31  1  0  0  0  0
  8  9  1  0  0  0  0
  8 32  1  0  0  0  0
  8 33  1  0  0  0  0
  9 10  1  0  0  0  0
  9 22  1  0  0  0  0
  9 34  1  0  0  0  0
 10 11  1  0  0  0  0
 10 35  1  0  0  0  0
 11 12  2  0  0  0  0
 11 13  1  0  0  0  0
 13 14  1  0  0  0  0
 13 36  1  0  0  0  0
 14 19  1  0  0  0  0
 14 15  2  0  0  0  0
 15 16  1  0  0  0  0
 15 37  1  0  0  0  0
 16 17  2  0  0  0  0
 16 38  1  0  0  0  0
 17 18  1  0  0  0  0
 17 39  1  0  0  0  0
 18 19  2  0  0  0  0
 19 20  1  0  0  0  0
 20 21  1  0  0  0  0
 21 40  1  0  0  0  0
 21 41  1  0  0  0  0
 21 42  1  0  0  0  0
 22 23  1  0  0  0  0
 22 43  1  0  0  0  0
 22 44  1  0  0  0  0
 23 45  1  0  0  0  0
 23 46  1  0  0  0  0
M  CHG  1   6   1
M  END
> <s_m_source_file>
AV-unprocessed.smi

> <i_m_source_file_index>
1898

> <i_lp_mmshare_version>
43012

> <i_f3d_flags>
0

> <s_epik_input>
W0NIM11bTkhdQyg9TylbQ0gyXU4xW0NIMl1bQ0gyXVtDSF0oW0NIMl1bQ0gyXTEpW05IXUMoPU8pW05IXWMyW2NIXVtjSF1bY0hdbmMyT1tDSDNd

> <s_epik_cmdline>
J2VwaWtfcHl0aG9uJywgJy1waCcsICc3LjAnLCAnLXRuJywgJzgnLCAnLW1hJywgJzIwMCcsICctbWV0YWxfYmluZGluZycsICctaW1hZScsICc8aW5maWxlLm1hZT4nLCAnLW9tYWUnLCAnPG91dGZpbGUubWFlPic=

> <r_lp_tautomer_probability>
1

> <r_epik_Ionization_Penalty>
0.838943

> <r_epik_Ionization_Penalty_Charging>
0.838844

> <r_epik_Ionization_Penalty_Neutral>
9.87395e-05

> <r_epik_State_Penalty>
0.8734

> <r_epik_Charging_Adjusted_Penalty>
1.71224

> <i_epik_Tot_Q>
1

> <i_epik_Tot_abs_Q>
1

> <r_epik_Metal_State_Penalty>
0.877926

> <b_epik_Metal_Only>
0

> <s_lp_Force_Field>
OPLS_2005

> <r_lp_Energy>
16.0451

> <b_lp_Chiralities_Consistent>
1

> <s_lp_Variant>
AV-unprocessed.smi:1898-3

> <Gold.Version>
5.8.1

> <Gold.Id.Protein>
6NUR|6NUR_protein|mol2

> <Gold.PLP.Fitness>
50.6893

> <Gold.PLP.PLP>
-36.3536

> <Gold.PLP.part.hbond>
-4.0000

> <Gold.PLP.part.metal>
0.0000

> <Gold.PLP.part.buried>
-8.3024

> <Gold.PLP.part.nonpolar>
-24.9496

> <Gold.PLP.part.repulsive>
0.4227

> <Gold.PLP.ligand.clash>
0.0000

> <Gold.PLP.ligand.torsion>
0.1806

> <Gold.PLP.Chemscore.Hbond>
4.8882

> <Gold.PLP.Chemscore.CHOScore>
0.0000

> <Gold.PLP.Chemscore.Metal>
0.0000

> <Gold.Chemscore.Hbonds>
donor molecule, donor type, donor heavy atom, donor atom, acceptor molecule, acceptor atom, score
      L1  H     2    27       P1 10175  0.98
      L1  H     6    47       P1 10175  2.00
      L1  H    10    35       P1  8028  1.00
      L1  H    13    36       P1  8028  0.79

> <Gold.PLP.Chemscore.Internal.Correction>
0.0324

> <Gold.Rescore>
     Score         DG    S(hbond)    S(metal)    S(lipo)     H(rot)  DE(clash)    DE(int)     intcor
     18.37     -21.77       3.87        0.00      72.48       2.00       0.73       2.67       ----

> <Gold.Chemscore.Fitness>
18.3718

> <Gold.Chemscore.DG>
-21.7744

> <Gold.Chemscore.ZeroCoef>
-5.4800

> <Gold.Chemscore.Hbond>
3.8698

> <Gold.Chemscore.Metal>
0.0000

> <Gold.Chemscore.Lipo>
72.4764

> <Gold.Chemscore.Internal_Hbond>
0.0000

> <Gold.Chemscore.DEClash>
0.7334

> <Gold.Chemscore.DEInternal>
2.6692

> <Gold.Chemscore.Rot>
1.9963

> <Gold.Chemscore.Internal.Correction>
   9.000000E+99

> <Gold.Chemscore.Hbonds>
donor molecule, donor type, donor heavy atom, donor atom, acceptor molecule, acceptor atom, score
      L1  H     2    27       P1 10175  0.77
      L1  H     6    47       P1 10175  0.82
      L1  H    10    35       P1  8028  0.96
      L1  H    13    36       P1  8028  0.75

> <Gold.Chemscore.Hbond.Weighted>
-12.9252

> <Gold.Chemscore.Metal.Weighted>
-0.0000

> <Gold.Chemscore.Lipo.Weighted>
-8.4797

> <Gold.Chemscore.Internal_Hbond.Weighted>
0.0000

> <Gold.Chemscore.DEClash.Weighted>
0.7334

> <Gold.Chemscore.DEInternal.Weighted>
2.6692

> <Gold.Chemscore.Rot.Weighted>
5.1105

> <Gold.Chemscore.Internal.Correction.Weighted>
   9.000000E+99

> <Gold.Protein.RotatedTorsions>
[ 6907 6896 6895 6894 ] final   96.91 input  -60.11 | X-H torsion
[ 7974 7965 7964 7962 ] final   68.92 input  175.53 | X-H torsion
[ 8008 7997 7996 7995 ] final  -97.29 input   59.86 | X-H torsion
[ 10167 10162 10161 10158 ] final  -98.12 input  -65.29 | X-H torsion
[ 10718 10713 10712 10709 ] final  150.40 input   66.30 | X-H torsion
[ 10763 10752 10751 10750 ] final  150.78 input  -60.55 | X-H torsion
[ 11005 11000 10999 10996 ] final  -82.40 input  -57.11 | X-H torsion

> <Gold.Protein.ActiveResidues>
 VAL166  LYS551  ARG553  GLY616  TRP617  ASP618  TYR619  PRO620  LYS621  CYS622 
 ASP623  PHE694  ASN695  SER759  ASP760  ASP761  ALA762  ILE779  LEU786  VAL792 
 PHE793  MET794  SER795  GLU796  ALA797  LYS798  CYS799  TRP800  GLU811  SER814 

> <Gold.Protein.RotatedAtoms>
  152.5430  134.0814  159.8236 H   0  0  0  0  0  0  0  0  0  0  0  0  # atno 6907 bound_to 6896
  151.0915  133.5305  159.2622 H   0  0  0  0  0  0  0  0  0  0  0  0  # atno 6908 bound_to 6896
  151.2094  135.0484  159.8959 H   0  0  0  0  0  0  0  0  0  0  0  0  # atno 6909 bound_to 6896
  145.7968  139.2961  143.1178 H   0  0  0  0  0  0  0  0  0  0  0  0  # atno 7974 bound_to 7965
  154.7858  140.0464  157.1163 H   0  0  0  0  0  0  0  0  0  0  0  0  # atno 8008 bound_to 7997
  154.9650  140.3082  155.4994 H   0  0  0  0  0  0  0  0  0  0  0  0  # atno 8009 bound_to 7997
  156.2943  140.2264  156.4738 H   0  0  0  0  0  0  0  0  0  0  0  0  # atno 8010 bound_to 7997
  140.2763  143.3311  152.0485 H   0  0  0  0  0  0  0  0  0  0  0  0  # atno 10167 bound_to 10162
  157.2839  131.0840  151.1512 H   0  0  0  0  0  0  0  0  0  0  0  0  # atno 10718 bound_to 10713
  154.0931  135.2851  155.3267 H   0  0  0  0  0  0  0  0  0  0  0  0  # atno 10763 bound_to 10752
  154.6607  135.5336  153.8017 H   0  0  0  0  0  0  0  0  0  0  0  0  # atno 10764 bound_to 10752
  153.0406  135.6533  154.1099 H   0  0  0  0  0  0  0  0  0  0  0  0  # atno 10765 bound_to 10752
  141.1663  133.7243  156.8566 H   0  0  0  0  0  0  0  0  0  0  0  0  # atno 11005 bound_to 11000
  145.9920  140.8595  143.0062 LP  0  0  0  0  0  0  0  0  0  0  0  0  # atno 17320 bound_to 7965
  144.6774  140.2229  143.7364 LP  0  0  0  0  0  0  0  0  0  0  0  0  # atno 17321 bound_to 7965
  139.4975  144.6622  151.6438 LP  0  0  0  0  0  0  0  0  0  0  0  0  # atno 17342 bound_to 10162
  140.5848  143.9883  150.6289 LP  0  0  0  0  0  0  0  0  0  0  0  0  # atno 17343 bound_to 10162
  157.2935  130.6807  149.6126 LP  0  0  0  0  0  0  0  0  0  0  0  0  # atno 17370 bound_to 10713
  155.9665  130.4413  150.5337 LP  0  0  0  0  0  0  0  0  0  0  0  0  # atno 17371 bound_to 10713
  140.1878  134.8987  157.3024 LP  0  0  0  0  0  0  0  0  0  0  0  0  # atno 17394 bound_to 11000
  140.2324  134.3893  155.7516 LP  0  0  0  0  0  0  0  0  0  0  0  0  # atno 17395 bound_to 11000

$$$$
