AV-unprocessed.smi:1669|AV-procd|sdf|6686|dock2
  -GOLD-   22720 7413D 1   1.00000     0.00000
 Structure written by MMmdl.
 48 50  0  0  0  0  0  0  0  0  2 V2000
  146.5047  138.0114  152.7471 C   0  0  0  0  0  0  0  0  0  0  0  0
  146.4427  136.5473  152.5274 N   0  3  2  0  0  0  0  0  0  0  0  0
  145.4701  136.1673  151.4705 C   0  0  0  0  0  0  0  0  0  0  0  0
  145.3820  134.6618  151.2978 C   0  0  0  0  0  0  0  0  0  0  0  0
  144.1399  134.0089  151.4460 C   0  0  0  0  0  0  0  0  0  0  0  0
  144.0511  132.6124  151.2868 C   0  0  0  0  0  0  0  0  0  0  0  0
  145.2033  131.8638  150.9775 C   0  0  0  0  0  0  0  0  0  0  0  0
  146.4445  132.5122  150.8268 C   0  0  0  0  0  0  0  0  0  0  0  0
  146.5341  133.9087  150.9856 C   0  0  0  0  0  0  0  0  0  0  0  0
  146.2435  135.8011  153.7958 C   0  0  0  0  0  0  0  0  0  0  0  0
  147.3188  136.1406  154.8467 C   0  0  1  0  0  0  0  0  0  0  0  0
  146.7110  136.1640  156.1236 O   0  0  0  0  0  0  0  0  0  0  0  0
  148.4665  135.1122  154.8411 C   0  0  0  0  0  0  0  0  0  0  0  0
  149.5672  135.4998  155.7139 N   0  0  0  0  0  0  0  0  0  0  0  0
  149.9967  134.9020  156.8549 C   0  0  0  0  0  0  0  0  0  0  0  0
  149.3490  133.6699  157.4089 C   0  0  0  0  0  0  0  0  0  0  0  0
  150.2825  132.6575  157.7183 O   0  0  0  0  0  0  0  0  0  0  0  0
  151.0366  135.4810  157.4556 N   0  0  0  0  0  0  0  0  0  0  0  0
  151.3128  136.5501  156.6260 C   0  0  0  0  0  0  0  0  0  0  0  0
  152.3063  137.5510  156.7158 C   0  0  0  0  0  0  0  0  0  0  0  0
  152.3949  138.5589  155.7332 C   0  0  0  0  0  0  0  0  0  0  0  0
  151.4942  138.5799  154.6485 C   0  0  0  0  0  0  0  0  0  0  0  0
  150.4969  137.5918  154.5398 C   0  0  0  0  0  0  0  0  0  0  0  0
  150.4119  136.5891  155.5245 C   0  0  0  0  0  0  0  0  0  0  0  0
  145.5570  138.3889  153.1334 H   0  0  0  0  0  0  0  0  0  0  0  0
  146.7337  138.5424  151.8233 H   0  0  0  0  0  0  0  0  0  0  0  0
  147.2888  138.2608  153.4629 H   0  0  0  0  0  0  0  0  0  0  0  0
  144.4710  136.5256  151.7185 H   0  0  0  0  0  0  0  0  0  0  0  0
  145.7360  136.6460  150.5266 H   0  0  0  0  0  0  0  0  0  0  0  0
  143.2521  134.5772  151.6836 H   0  0  0  0  0  0  0  0  0  0  0  0
  143.0993  132.1146  151.4015 H   0  0  0  0  0  0  0  0  0  0  0  0
  145.1348  130.7927  150.8547 H   0  0  0  0  0  0  0  0  0  0  0  0
  147.3278  131.9375  150.5887 H   0  0  0  0  0  0  0  0  0  0  0  0
  147.4901  134.3983  150.8688 H   0  0  0  0  0  0  0  0  0  0  0  0
  145.2642  136.0336  154.2182 H   0  0  0  0  0  0  0  0  0  0  0  0
  146.2340  134.7307  153.5842 H   0  0  0  0  0  0  0  0  0  0  0  0
  147.7358  137.1293  154.6577 H   0  0  0  0  0  0  0  0  0  0  0  0
  145.8516  136.5499  156.0407 H   0  0  0  0  0  0  0  0  0  0  0  0
  148.0996  134.1257  155.1239 H   0  0  0  0  0  0  0  0  0  0  0  0
  148.8630  135.0063  153.8305 H   0  0  0  0  0  0  0  0  0  0  0  0
  148.8040  133.9276  158.3179 H   0  0  0  0  0  0  0  0  0  0  0  0
  148.6130  133.2858  156.7028 H   0  0  0  0  0  0  0  0  0  0  0  0
  149.9439  131.8313  157.4101 H   0  0  0  0  0  0  0  0  0  0  0  0
  153.0018  137.5432  157.5420 H   0  0  0  0  0  0  0  0  0  0  0  0
  153.1585  139.3189  155.8116 H   0  0  0  0  0  0  0  0  0  0  0  0
  151.5707  139.3549  153.8999 H   0  0  0  0  0  0  0  0  0  0  0  0
  149.8068  137.6054  153.7096 H   0  0  0  0  0  0  0  0  0  0  0  0
  147.3566  136.2746  152.1932 H   0  0  0  0  0  0  0  0  0  0  0  0
  1  2  1  0  0  0  0
  1 25  1  0  0  0  0
  1 26  1  0  0  0  0
  1 27  1  0  0  0  0
  2  3  1  0  0  0  0
  2 10  1  0  0  0  0
  2 48  1  0  0  0  0
  3  4  1  0  0  0  0
  3 28  1  0  0  0  0
  3 29  1  0  0  0  0
  4  9  1  0  0  0  0
  4  5  2  0  0  0  0
  5  6  1  0  0  0  0
  5 30  1  0  0  0  0
  6  7  2  0  0  0  0
  6 31  1  0  0  0  0
  7  8  1  0  0  0  0
  7 32  1  0  0  0  0
  8  9  2  0  0  0  0
  8 33  1  0  0  0  0
  9 34  1  0  0  0  0
 10 11  1  0  0  0  0
 10 35  1  0  0  0  0
 10 36  1  0  0  0  0
 11 12  1  0  0  0  0
 11 13  1  0  0  0  0
 11 37  1  0  0  0  0
 12 38  1  0  0  0  0
 13 14  1  0  0  0  0
 13 39  1  0  0  0  0
 13 40  1  0  0  0  0
 14 24  1  0  0  0  0
 14 15  1  0  0  0  0
 15 16  1  0  0  0  0
 15 18  2  0  0  0  0
 16 17  1  0  0  0  0
 16 41  1  0  0  0  0
 16 42  1  0  0  0  0
 17 43  1  0  0  0  0
 18 19  1  0  0  0  0
 19 24  2  0  0  0  0
 19 20  1  0  0  0  0
 20 21  2  0  0  0  0
 20 44  1  0  0  0  0
 21 22  1  0  0  0  0
 21 45  1  0  0  0  0
 22 23  2  0  0  0  0
 22 46  1  0  0  0  0
 23 24  1  0  0  0  0
 23 47  1  0  0  0  0
M  CHG  1   2   1
M  END
> <s_m_source_file>
AV-unprocessed.smi

> <i_m_source_file_index>
1669

> <i_lp_mmshare_version>
43012

> <i_f3d_flags>
0

> <s_epik_input>
W2NIXTFbY0hdW2NIXVtjSF1bY0hdYzFbQ0gyXU4oW0NIM10pW0NIMl1bQ0BIXShbT0hdKVtDSDJdbihjKG4yKVtDSDJdW09IXSljKGMyMylbY0hdW2NIXVtjSF1bY0hdMw==

> <s_epik_cmdline>
J2VwaWtfcHl0aG9uJywgJy1waCcsICc3LjAnLCAnLXRuJywgJzgnLCAnLW1hJywgJzIwMCcsICctbWV0YWxfYmluZGluZycsICctaW1hZScsICc8aW5maWxlLm1hZT4nLCAnLW9tYWUnLCAnPG91dGZpbGUubWFlPic=

> <r_epik_Ionization_Penalty>
0.0949884

> <r_epik_Ionization_Penalty_Charging>
0.0475377

> <r_epik_Ionization_Penalty_Neutral>
0.0474507

> <r_epik_State_Penalty>
0.078247

> <r_epik_Charging_Adjusted_Penalty>
0.125785

> <i_epik_Tot_Q>
1

> <i_epik_Tot_abs_Q>
1

> <r_epik_Metal_State_Penalty>
0.0403451

> <b_epik_Metal_Only>
0

> <s_lp_Force_Field>
OPLS_2005

> <r_lp_Energy>
16.6823

> <b_lp_Chiralities_Consistent>
1

> <s_lp_Variant>
AV-unprocessed.smi:1669-4

> <Gold.Version>
5.8.1

> <Gold.Id.Protein>
6NUR|6NUR_protein|mol2

> <Gold.PLP.Fitness>
44.8368

> <Gold.PLP.PLP>
-36.9030

> <Gold.PLP.part.hbond>
-3.0000

> <Gold.PLP.part.metal>
0.0000

> <Gold.PLP.part.buried>
-3.7875

> <Gold.PLP.part.nonpolar>
-30.4852

> <Gold.PLP.part.repulsive>
0.0338

> <Gold.PLP.ligand.clash>
0.0000

> <Gold.PLP.ligand.torsion>
0.7108

> <Gold.PLP.Chemscore.Hbond>
3.0000

> <Gold.PLP.Chemscore.CHOScore>
0.0000

> <Gold.PLP.Chemscore.Metal>
0.0000

> <Gold.Chemscore.Hbonds>
donor molecule, donor type, donor heavy atom, donor atom, acceptor molecule, acceptor atom, score
      L1  H     2    48       P1  7948  2.00
      P1  H  6896  6908       L1    17  1.00
      P1  H  6896  6909       L1    18  0.03

> <Gold.PLP.Chemscore.Internal.Correction>
0.3554

> <Gold.Rescore>
     Score         DG    S(hbond)    S(metal)    S(lipo)     H(rot)  DE(clash)    DE(int)     intcor
     14.36     -15.21       1.94        0.00      97.28       3.17       0.07       0.77       ----

> <Gold.Chemscore.Fitness>
14.3641

> <Gold.Chemscore.DG>
-15.2059

> <Gold.Chemscore.ZeroCoef>
-5.4800

> <Gold.Chemscore.Hbond>
1.9362

> <Gold.Chemscore.Metal>
0.0000

> <Gold.Chemscore.Lipo>
97.2833

> <Gold.Chemscore.Internal_Hbond>
0.0000

> <Gold.Chemscore.DEClash>
0.0681

> <Gold.Chemscore.DEInternal>
0.7737

> <Gold.Chemscore.Rot>
3.1731

> <Gold.Chemscore.Internal.Correction>
   9.000000E+99

> <Gold.Chemscore.Hbonds>
donor molecule, donor type, donor heavy atom, donor atom, acceptor molecule, acceptor atom, score
      L1  H     2    48       P1  7948  0.99
      P1  H  6896  6908       L1    17  0.35
      P1  H  6896  6909       L1    18  0.03

> <Gold.Chemscore.Hbond.Weighted>
-6.4668

> <Gold.Chemscore.Metal.Weighted>
-0.0000

> <Gold.Chemscore.Lipo.Weighted>
-11.3821

> <Gold.Chemscore.Internal_Hbond.Weighted>
0.0000

> <Gold.Chemscore.DEClash.Weighted>
0.0681

> <Gold.Chemscore.DEInternal.Weighted>
0.7737

> <Gold.Chemscore.Rot.Weighted>
8.1230

> <Gold.Chemscore.Internal.Correction.Weighted>
   9.000000E+99

> <Gold.Protein.RotatedTorsions>
[ 6907 6896 6895 6894 ] final   85.89 input  -60.11 | X-H torsion
[ 7974 7965 7964 7962 ] final  -53.24 input  175.53 | X-H torsion
[ 8008 7997 7996 7995 ] final   89.01 input   59.86 | X-H torsion
[ 10167 10162 10161 10158 ] final   89.97 input  -65.29 | X-H torsion
[ 10718 10713 10712 10709 ] final  114.83 input   66.30 | X-H torsion
[ 10763 10752 10751 10750 ] final  -89.70 input  -60.55 | X-H torsion
[ 11005 11000 10999 10996 ] final  -97.35 input  -57.11 | X-H torsion

> <Gold.Protein.ActiveResidues>
 VAL166  LYS551  ARG553  GLY616  TRP617  ASP618  TYR619  PRO620  LYS621  CYS622 
 ASP623  PHE694  ASN695  SER759  ASP760  ASP761  ALA762  ILE779  LEU786  VAL792 
 PHE793  MET794  SER795  GLU796  ALA797  LYS798  CYS799  TRP800  GLU811  SER814 

> <Gold.Protein.RotatedAtoms>
  152.5384  134.2516  159.8900 H   0  0  0  0  0  0  0  0  0  0  0  0  # atno 6907 bound_to 6896
  151.2479  133.4359  159.2618 H   0  0  0  0  0  0  0  0  0  0  0  0  # atno 6908 bound_to 6896
  151.0566  134.9723  159.8295 H   0  0  0  0  0  0  0  0  0  0  0  0  # atno 6909 bound_to 6896
  145.8990  140.8009  142.9753 H   0  0  0  0  0  0  0  0  0  0  0  0  # atno 7974 bound_to 7965
  155.9947  140.3365  155.6787 H   0  0  0  0  0  0  0  0  0  0  0  0  # atno 8008 bound_to 7997
  155.6372  140.0691  157.2648 H   0  0  0  0  0  0  0  0  0  0  0  0  # atno 8009 bound_to 7997
  154.4230  140.1749  156.1522 H   0  0  0  0  0  0  0  0  0  0  0  0  # atno 8010 bound_to 7997
  139.8520  144.6589  150.9159 H   0  0  0  0  0  0  0  0  0  0  0  0  # atno 10167 bound_to 10162
  157.6258  131.1004  150.7243 H   0  0  0  0  0  0  0  0  0  0  0  0  # atno 10718 bound_to 10713
  154.6580  135.5331  153.7983 H   0  0  0  0  0  0  0  0  0  0  0  0  # atno 10763 bound_to 10752
  153.0425  135.6499  154.0915 H   0  0  0  0  0  0  0  0  0  0  0  0  # atno 10764 bound_to 10752
  154.0826  135.2946  155.3267 H   0  0  0  0  0  0  0  0  0  0  0  0  # atno 10765 bound_to 10752
  141.1382  133.8164  157.0694 H   0  0  0  0  0  0  0  0  0  0  0  0  # atno 11005 bound_to 11000
  144.6734  140.1647  143.7419 LP  0  0  0  0  0  0  0  0  0  0  0  0  # atno 17320 bound_to 7965
  145.8814  139.2325  143.1603 LP  0  0  0  0  0  0  0  0  0  0  0  0  # atno 17321 bound_to 7965
  140.7786  143.3819  151.1461 LP  0  0  0  0  0  0  0  0  0  0  0  0  # atno 17342 bound_to 10162
  139.7457  143.8856  152.3062 LP  0  0  0  0  0  0  0  0  0  0  0  0  # atno 17343 bound_to 10162
  156.7591  130.4793  149.5440 LP  0  0  0  0  0  0  0  0  0  0  0  0  # atno 17370 bound_to 10713
  156.1429  130.6257  151.0492 LP  0  0  0  0  0  0  0  0  0  0  0  0  # atno 17371 bound_to 10713
  140.0521  134.9800  157.1155 LP  0  0  0  0  0  0  0  0  0  0  0  0  # atno 17394 bound_to 11000
  140.3974  134.2119  155.7164 LP  0  0  0  0  0  0  0  0  0  0  0  0  # atno 17395 bound_to 11000

$$$$
