AV-unprocessed.smi:1859|AV-procd|sdf|7544|dock3
  -GOLD-   22720 9263D 1   1.00000     0.00000
 Structure written by MMmdl.
 45 47  0  0  0  0  0  0  0  0  1 V2000
  150.8719  137.8856  158.1793 O   0  0  0  0  0  0  0  0  0  0  0  0
  150.2658  137.8559  157.1081 C   0  0  0  0  0  0  0  0  0  0  0  0
  149.1133  137.1867  156.9413 N   0  0  0  0  0  0  0  0  0  0  0  0
  148.3986  136.4575  157.9871 C   0  0  0  0  0  0  0  0  0  0  0  0
  147.9422  137.3759  159.1394 C   0  0  0  0  0  0  0  0  0  0  0  0
  147.5040  136.6238  160.3853 C   0  0  0  0  0  0  0  0  0  0  0  0
  147.4174  135.2146  160.3844 C   0  0  0  0  0  0  0  0  0  0  0  0
  146.9579  134.5698  161.5486 C   0  0  0  0  0  0  0  0  0  0  0  0
  146.6099  135.3535  162.6654 C   0  0  0  0  0  0  0  0  0  0  0  0
  146.7408  136.7533  162.5686 C   0  0  0  0  0  0  0  0  0  0  0  0
  147.1803  137.3818  161.4571 N   0  0  0  0  0  0  0  0  0  0  0  0
  150.7924  138.6279  155.8834 C   0  0  1  0  0  0  0  0  0  0  0  0
  149.7302  139.6076  155.3242 C   0  0  0  0  0  0  0  0  0  0  0  0
  149.6314  140.9235  156.1231 C   0  0  0  0  0  0  0  0  0  0  0  0
  151.0260  141.5388  156.3258 C   0  0  0  0  0  0  0  0  0  0  0  0
  151.8869  140.5617  157.0081 N   0  0  0  0  0  0  0  0  0  0  0  0
  152.3992  140.6850  158.2591 C   0  0  0  0  0  0  0  0  0  0  0  0
  153.2124  139.8785  158.7132 O   0  0  0  0  0  0  0  0  0  0  0  0
  151.9103  141.8319  159.0931 C   0  0  0  0  0  0  0  0  0  0  0  0
  152.9192  142.9095  159.4299 C   0  0  0  0  0  0  0  0  0  0  0  0
  152.4394  141.9745  160.5092 C   0  0  0  0  0  0  0  0  0  0  0  0
  152.1211  139.3753  156.1680 C   0  0  0  0  0  0  0  0  0  0  0  0
  148.6828  137.2096  156.0283 H   0  0  0  0  0  0  0  0  0  0  0  0
  147.5278  135.9841  157.5332 H   0  0  0  0  0  0  0  0  0  0  0  0
  149.0142  135.6450  158.3768 H   0  0  0  0  0  0  0  0  0  0  0  0
  148.7497  138.0600  159.4033 H   0  0  0  0  0  0  0  0  0  0  0  0
  147.1169  138.0033  158.8000 H   0  0  0  0  0  0  0  0  0  0  0  0
  147.6786  134.6413  159.5069 H   0  0  0  0  0  0  0  0  0  0  0  0
  146.8692  133.4940  161.5826 H   0  0  0  0  0  0  0  0  0  0  0  0
  146.2512  134.8936  163.5743 H   0  0  0  0  0  0  0  0  0  0  0  0
  146.4841  137.3849  163.4062 H   0  0  0  0  0  0  0  0  0  0  0  0
  150.9953  137.8895  155.1058 H   0  0  0  0  0  0  0  0  0  0  0  0
  149.9912  139.8468  154.2927 H   0  0  0  0  0  0  0  0  0  0  0  0
  148.7512  139.1291  155.2763 H   0  0  0  0  0  0  0  0  0  0  0  0
  148.9860  141.6268  155.5967 H   0  0  0  0  0  0  0  0  0  0  0  0
  149.1617  140.7449  157.0909 H   0  0  0  0  0  0  0  0  0  0  0  0
  151.4647  141.7773  155.3559 H   0  0  0  0  0  0  0  0  0  0  0  0
  150.9487  142.4961  156.8384 H   0  0  0  0  0  0  0  0  0  0  0  0
  150.8726  142.1314  158.9579 H   0  0  0  0  0  0  0  0  0  0  0  0
  153.9422  142.7839  159.0786 H   0  0  0  0  0  0  0  0  0  0  0  0
  152.5584  143.9359  159.4410 H   0  0  0  0  0  0  0  0  0  0  0  0
  151.7514  142.3685  161.2547 H   0  0  0  0  0  0  0  0  0  0  0  0
  153.1534  141.2453  160.8875 H   0  0  0  0  0  0  0  0  0  0  0  0
  152.8435  138.6836  156.6044 H   0  0  0  0  0  0  0  0  0  0  0  0
  152.5688  139.6966  155.2265 H   0  0  0  0  0  0  0  0  0  0  0  0
  1  2  2  0  0  0  0
  2  3  1  0  0  0  0
  2 12  1  0  0  0  0
  3  4  1  0  0  0  0
  3 23  1  0  0  0  0
  4  5  1  0  0  0  0
  4 24  1  0  0  0  0
  4 25  1  0  0  0  0
  5  6  1  0  0  0  0
  5 26  1  0  0  0  0
  5 27  1  0  0  0  0
  6 11  1  0  0  0  0
  6  7  2  0  0  0  0
  7  8  1  0  0  0  0
  7 28  1  0  0  0  0
  8  9  2  0  0  0  0
  8 29  1  0  0  0  0
  9 10  1  0  0  0  0
  9 30  1  0  0  0  0
 10 11  2  0  0  0  0
 10 31  1  0  0  0  0
 12 22  1  0  0  0  0
 12 13  1  0  0  0  0
 12 32  1  0  0  0  0
 13 14  1  0  0  0  0
 13 33  1  0  0  0  0
 13 34  1  0  0  0  0
 14 15  1  0  0  0  0
 14 35  1  0  0  0  0
 14 36  1  0  0  0  0
 15 16  1  0  0  0  0
 15 37  1  0  0  0  0
 15 38  1  0  0  0  0
 16 17  1  0  0  0  0
 16 22  1  0  0  0  0
 17 18  2  0  0  0  0
 17 19  1  0  0  0  0
 19 21  1  0  0  0  0
 19 20  1  0  0  0  0
 19 39  1  0  0  0  0
 20 21  1  0  0  0  0
 20 40  1  0  0  0  0
 20 41  1  0  0  0  0
 21 42  1  0  0  0  0
 21 43  1  0  0  0  0
 22 44  1  0  0  0  0
 22 45  1  0  0  0  0
M  END
> <s_m_source_file>
AV-unprocessed.smi

> <i_m_source_file_index>
1859

> <i_lp_mmshare_version>
43012

> <i_f3d_flags>
0

> <s_epik_input>
W0NIMl0xW0NIMl1bQ0hdMUMoPU8pTihbQ0gyXTIpW0NIMl1bQ0gyXVtDSDJdW0NASF0yQyg9TylbTkhdW0NIMl1bQ0gyXWMzW2NIXVtjSF1bY0hdW2NIXW4z

> <s_epik_cmdline>
J2VwaWtfcHl0aG9uJywgJy1waCcsICc3LjAnLCAnLXRuJywgJzgnLCAnLW1hJywgJzIwMCcsICctbWV0YWxfYmluZGluZycsICctaW1hZScsICc8aW5maWxlLm1hZT4nLCAnLW9tYWUnLCAnPG91dGZpbGUubWFlPic=

> <r_epik_Ionization_Penalty>
0.0268048

> <r_epik_Ionization_Penalty_Charging>
0

> <r_epik_Ionization_Penalty_Neutral>
0.0268048

> <r_epik_State_Penalty>
0.0219025

> <r_epik_Charging_Adjusted_Penalty>
0.0219025

> <i_epik_Tot_Q>
0

> <i_epik_Tot_abs_Q>
0

> <r_epik_Metal_State_Penalty>
0.020951

> <b_epik_Metal_Only>
0

> <s_lp_Force_Field>
OPLS_2005

> <r_lp_Energy>
25.8976

> <b_lp_Chiralities_Consistent>
1

> <s_lp_Variant>
AV-unprocessed.smi:1859-2

> <Gold.Version>
5.8.1

> <Gold.Id.Protein>
6NUR|6NUR_protein|mol2

> <Gold.PLP.Fitness>
50.7302

> <Gold.PLP.PLP>
-42.5965

> <Gold.PLP.part.hbond>
-3.0000

> <Gold.PLP.part.metal>
0.0000

> <Gold.PLP.part.buried>
-3.7808

> <Gold.PLP.part.nonpolar>
-33.7136

> <Gold.PLP.part.repulsive>
0.0131

> <Gold.PLP.ligand.clash>
0.0000

> <Gold.PLP.ligand.torsion>
0.1845

> <Gold.PLP.Chemscore.Hbond>
2.7520

> <Gold.PLP.Chemscore.CHOScore>
0.0000

> <Gold.PLP.Chemscore.Metal>
0.0000

> <Gold.Chemscore.Hbonds>
donor molecule, donor type, donor heavy atom, donor atom, acceptor molecule, acceptor atom, score
      P1  H  6931  6943       L1    11  0.66
      P1  H  6934  6947       L1    11  0.98
      P1  H  7997  8009       L1    18  0.55

> <Gold.PLP.Chemscore.Internal.Correction>
0.2467

> <Gold.Rescore>
     Score         DG    S(hbond)    S(metal)    S(lipo)     H(rot)  DE(clash)    DE(int)     intcor
     18.07     -19.80       1.83        0.00     104.90       1.59       0.11       1.62       ----

> <Gold.Chemscore.Fitness>
18.0682

> <Gold.Chemscore.DG>
-19.7959

> <Gold.Chemscore.ZeroCoef>
-5.4800

> <Gold.Chemscore.Hbond>
1.8334

> <Gold.Chemscore.Metal>
0.0000

> <Gold.Chemscore.Lipo>
104.9037

> <Gold.Chemscore.Internal_Hbond>
0.0000

> <Gold.Chemscore.DEClash>
0.1081

> <Gold.Chemscore.DEInternal>
1.6196

> <Gold.Chemscore.Rot>
1.5943

> <Gold.Chemscore.Internal.Correction>
   9.000000E+99

> <Gold.Chemscore.Hbonds>
donor molecule, donor type, donor heavy atom, donor atom, acceptor molecule, acceptor atom, score
      P1  H  6931  6943       L1    11  0.14
      P1  H  6934  6947       L1    11  0.61
      P1  H  7997  8009       L1    18  0.09

> <Gold.Chemscore.Hbond.Weighted>
-6.1236

> <Gold.Chemscore.Metal.Weighted>
-0.0000

> <Gold.Chemscore.Lipo.Weighted>
-12.2737

> <Gold.Chemscore.Internal_Hbond.Weighted>
0.0000

> <Gold.Chemscore.DEClash.Weighted>
0.1081

> <Gold.Chemscore.DEInternal.Weighted>
1.6196

> <Gold.Chemscore.Rot.Weighted>
4.0814

> <Gold.Chemscore.Internal.Correction.Weighted>
   9.000000E+99

> <Gold.Protein.RotatedTorsions>
[ 6907 6896 6895 6894 ] final  -96.17 input  -60.11 | X-H torsion
[ 7974 7965 7964 7962 ] final -110.41 input  175.53 | X-H torsion
[ 8008 7997 7996 7995 ] final  147.45 input   59.86 | X-H torsion
[ 10167 10162 10161 10158 ] final  -66.81 input  -65.29 | X-H torsion
[ 10718 10713 10712 10709 ] final   48.70 input   66.30 | X-H torsion
[ 10763 10752 10751 10750 ] final    5.00 input  -60.55 | X-H torsion
[ 11005 11000 10999 10996 ] final  125.08 input  -57.11 | X-H torsion

> <Gold.Protein.ActiveResidues>
 VAL166  LYS551  ARG553  GLY616  TRP617  ASP618  TYR619  PRO620  LYS621  CYS622 
 ASP623  PHE694  ASN695  SER759  ASP760  ASP761  ALA762  ILE779  LEU786  VAL792 
 PHE793  MET794  SER795  GLU796  ALA797  LYS798  CYS799  TRP800  GLU811  SER814 

> <Gold.Protein.RotatedAtoms>
  150.6982  134.1545  159.4152 H   0  0  0  0  0  0  0  0  0  0  0  0  # atno 6907 bound_to 6896
  151.9527  135.0159  160.0552 H   0  0  0  0  0  0  0  0  0  0  0  0  # atno 6908 bound_to 6896
  152.1997  133.4797  159.5088 H   0  0  0  0  0  0  0  0  0  0  0  0  # atno 6909 bound_to 6896
  145.1686  140.8914  143.3548 H   0  0  0  0  0  0  0  0  0  0  0  0  # atno 7974 bound_to 7965
  156.2824  140.2155  156.5540 H   0  0  0  0  0  0  0  0  0  0  0  0  # atno 8008 bound_to 7997
  154.7268  140.0499  157.0712 H   0  0  0  0  0  0  0  0  0  0  0  0  # atno 8009 bound_to 7997
  155.0406  140.3145  155.4729 H   0  0  0  0  0  0  0  0  0  0  0  0  # atno 8010 bound_to 7997
  140.5629  143.2313  151.6691 H   0  0  0  0  0  0  0  0  0  0  0  0  # atno 10167 bound_to 10162
  157.4713  130.8257  149.7991 H   0  0  0  0  0  0  0  0  0  0  0  0  # atno 10718 bound_to 10713
  153.2646  135.6926  153.7543 H   0  0  0  0  0  0  0  0  0  0  0  0  # atno 10763 bound_to 10752
  153.6589  135.3364  155.3122 H   0  0  0  0  0  0  0  0  0  0  0  0  # atno 10764 bound_to 10752
  154.8442  135.4472  154.1648 H   0  0  0  0  0  0  0  0  0  0  0  0  # atno 10765 bound_to 10752
  139.9389  134.9637  156.8505 H   0  0  0  0  0  0  0  0  0  0  0  0  # atno 11005 bound_to 11000
  145.0256  139.3385  143.6050 LP  0  0  0  0  0  0  0  0  0  0  0  0  # atno 17320 bound_to 7965
  146.3472  139.9574  142.8721 LP  0  0  0  0  0  0  0  0  0  0  0  0  # atno 17321 bound_to 7965
  139.5079  144.3630  152.0544 LP  0  0  0  0  0  0  0  0  0  0  0  0  # atno 17342 bound_to 10162
  140.2759  144.3913  150.6135 LP  0  0  0  0  0  0  0  0  0  0  0  0  # atno 17343 bound_to 10162
  156.0075  130.3849  150.2381 LP  0  0  0  0  0  0  0  0  0  0  0  0  # atno 17370 bound_to 10713
  157.0563  131.0077  151.3237 LP  0  0  0  0  0  0  0  0  0  0  0  0  # atno 17371 bound_to 10713
  140.6003  134.0178  155.7534 LP  0  0  0  0  0  0  0  0  0  0  0  0  # atno 17394 bound_to 11000
  141.1015  133.9760  157.3070 LP  0  0  0  0  0  0  0  0  0  0  0  0  # atno 17395 bound_to 11000

$$$$
