AV-unprocessed.smi:672|AV-procd|sdf|3290|dock7
  -GOLD-   22720 0253D 1   1.00000     0.00000
 Structure written by MMmdl.
 36 37  0  0  0  0  0  0  0  0  1 V2000
  151.4144  141.6428  158.3302 C   0  0  0  0  0  0  0  0  0  0  0  0
  150.8924  142.2355  157.0171 C   0  0  0  0  0  0  0  0  0  0  0  0
  150.5956  141.1903  155.9940 C   0  0  0  0  0  0  0  0  0  0  0  0
  151.5110  140.3079  155.5745 N   0  0  0  0  0  0  0  0  0  0  0  0
  150.9957  139.4174  154.6433 N   0  0  0  0  0  0  0  0  0  0  0  0
  149.6981  139.6455  154.3983 C   0  0  0  0  0  0  0  0  0  0  0  0
  148.9202  138.8813  153.4890 N   0  0  0  0  0  0  0  0  0  0  0  0
  147.6084  138.9928  153.2157 C   0  0  0  0  0  0  0  0  0  0  0  0
  146.8406  139.8093  153.7257 O   0  0  0  0  0  0  0  0  0  0  0  0
  147.2261  138.0924  152.2989 N   0  0  0  0  0  0  0  0  0  0  0  0
  145.8679  137.9463  151.7813 C   0  0  1  0  0  0  0  0  0  0  0  0
  145.7941  136.8667  150.6830 C   0  0  0  0  0  0  0  0  0  0  0  0
  145.0432  135.6875  151.3011 C   0  0  0  0  0  0  0  0  0  0  0  0
  144.0885  136.3371  152.3012 C   0  0  1  0  0  0  0  0  0  0  0  0
  143.4879  135.1854  153.5707 S   0  0  0  0  0  0  0  0  0  0  0  0
  142.2998  134.2227  152.5979 C   0  0  0  0  0  0  0  0  0  0  0  0
  144.9041  137.4902  152.8932 C   0  0  0  0  0  0  0  0  0  0  0  0
  148.9943  140.9803  155.2948 S   0  0  0  0  0  0  0  0  0  0  0  0
  151.6194  142.4291  159.0568 H   0  0  0  0  0  0  0  0  0  0  0  0
  152.3390  141.0871  158.1707 H   0  0  0  0  0  0  0  0  0  0  0  0
  150.6858  140.9623  158.7716 H   0  0  0  0  0  0  0  0  0  0  0  0
  149.9844  142.8093  157.2040 H   0  0  0  0  0  0  0  0  0  0  0  0
  151.6231  142.9339  156.6075 H   0  0  0  0  0  0  0  0  0  0  0  0
  149.4228  138.1648  152.9862 H   0  0  0  0  0  0  0  0  0  0  0  0
  147.9224  137.4609  151.9309 H   0  0  0  0  0  0  0  0  0  0  0  0
  145.5261  138.9006  151.3757 H   0  0  0  0  0  0  0  0  0  0  0  0
  145.2216  137.2542  149.8392 H   0  0  0  0  0  0  0  0  0  0  0  0
  146.7699  136.5700  150.2959 H   0  0  0  0  0  0  0  0  0  0  0  0
  144.5270  135.0868  150.5520 H   0  0  0  0  0  0  0  0  0  0  0  0
  145.7481  135.0386  151.8229 H   0  0  0  0  0  0  0  0  0  0  0  0
  143.2328  136.7506  151.7655 H   0  0  0  0  0  0  0  0  0  0  0  0
  141.8045  133.4880  153.2327 H   0  0  0  0  0  0  0  0  0  0  0  0
  142.8039  133.6933  151.7896 H   0  0  0  0  0  0  0  0  0  0  0  0
  141.5404  134.8759  152.1681 H   0  0  0  0  0  0  0  0  0  0  0  0
  145.4651  137.1325  153.7584 H   0  0  0  0  0  0  0  0  0  0  0  0
  144.2653  138.3029  153.2407 H   0  0  0  0  0  0  0  0  0  0  0  0
  1  2  1  0  0  0  0
  1 19  1  0  0  0  0
  1 20  1  0  0  0  0
  1 21  1  0  0  0  0
  2  3  1  0  0  0  0
  2 22  1  0  0  0  0
  2 23  1  0  0  0  0
  3 18  1  0  0  0  0
  3  4  2  0  0  0  0
  4  5  1  0  0  0  0
  5  6  2  0  0  0  0
  6  7  1  0  0  0  0
  6 18  1  0  0  0  0
  7  8  1  0  0  0  0
  7 24  1  0  0  0  0
  8  9  2  0  0  0  0
  8 10  1  0  0  0  0
 10 11  1  0  0  0  0
 10 25  1  0  0  0  0
 11 17  1  0  0  0  0
 11 12  1  0  0  0  0
 11 26  1  0  0  0  0
 12 13  1  0  0  0  0
 12 27  1  0  0  0  0
 12 28  1  0  0  0  0
 13 14  1  0  0  0  0
 13 29  1  0  0  0  0
 13 30  1  0  0  0  0
 14 15  1  0  0  0  0
 14 17  1  0  0  0  0
 14 31  1  0  0  0  0
 15 16  1  0  0  0  0
 16 32  1  0  0  0  0
 16 33  1  0  0  0  0
 16 34  1  0  0  0  0
 17 35  1  0  0  0  0
 17 36  1  0  0  0  0
M  END
> <s_m_source_file>
AV-unprocessed.smi

> <i_m_source_file_index>
672

> <i_lp_mmshare_version>
43012

> <i_f3d_flags>
0

> <s_epik_input>
W0NIM11bQ0gyXWMxbm5jKHMxKVtOSF1DKD1PKVtOSF1bQ0BASF0yW0NIMl1bQ0gyXVtDQEhdKFtDSDJdMilTW0NIM10=

> <s_epik_cmdline>
J2VwaWtfcHl0aG9uJywgJy1waCcsICc3LjAnLCAnLXRuJywgJzgnLCAnLW1hJywgJzIwMCcsICctbWV0YWxfYmluZGluZycsICctaW1hZScsICc8aW5maWxlLm1hZT4nLCAnLW9tYWUnLCAnPG91dGZpbGUubWFlPic=

> <r_lp_tautomer_probability>
1

> <r_epik_Ionization_Penalty>
0.000422169

> <r_epik_Ionization_Penalty_Charging>
0

> <r_epik_Ionization_Penalty_Neutral>
0.000422169

> <r_epik_State_Penalty>
-0

> <r_epik_Charging_Adjusted_Penalty>
0

> <i_epik_Tot_Q>
0

> <i_epik_Tot_abs_Q>
0

> <r_epik_Metal_State_Penalty>
0.200061

> <b_epik_Metal_Only>
0

> <s_lp_Force_Field>
OPLS_2005

> <r_lp_Energy>
11.4796

> <b_lp_Chiralities_Consistent>
1

> <s_lp_Variant>
AV-unprocessed.smi:672-2

> <Gold.Version>
5.8.1

> <Gold.Id.Protein>
6NUR|6NUR_protein|mol2

> <Gold.PLP.Fitness>
35.8810

> <Gold.PLP.PLP>
-31.8815

> <Gold.PLP.part.hbond>
-5.2132

> <Gold.PLP.part.metal>
0.0000

> <Gold.PLP.part.buried>
1.3918

> <Gold.PLP.part.nonpolar>
-30.1702

> <Gold.PLP.part.repulsive>
0.4391

> <Gold.PLP.ligand.clash>
0.0000

> <Gold.PLP.ligand.torsion>
0.1184

> <Gold.PLP.Chemscore.Hbond>
1.4077

> <Gold.PLP.Chemscore.CHOScore>
0.0000

> <Gold.PLP.Chemscore.Metal>
0.0000

> <Gold.Chemscore.Hbonds>
donor molecule, donor type, donor heavy atom, donor atom, acceptor molecule, acceptor atom, score
      L1  H     7    24       P1  7948  0.36
      L1  H    10    25       P1  7948  1.00

> <Gold.PLP.Chemscore.Internal.Correction>
0.0133

> <Gold.Rescore>
     Score         DG    S(hbond)    S(metal)    S(lipo)     H(rot)  DE(clash)    DE(int)     intcor
     10.66     -13.40       1.03        0.00      68.13       1.37       1.30       1.44       ----

> <Gold.Chemscore.Fitness>
10.6629

> <Gold.Chemscore.DG>
-13.3985

> <Gold.Chemscore.ZeroCoef>
-5.4800

> <Gold.Chemscore.Hbond>
1.0317

> <Gold.Chemscore.Metal>
0.0000

> <Gold.Chemscore.Lipo>
68.1350

> <Gold.Chemscore.Internal_Hbond>
0.0000

> <Gold.Chemscore.DEClash>
1.2969

> <Gold.Chemscore.DEInternal>
1.4386

> <Gold.Chemscore.Rot>
1.3669

> <Gold.Chemscore.Internal.Correction>
   9.000000E+99

> <Gold.Chemscore.Hbonds>
donor molecule, donor type, donor heavy atom, donor atom, acceptor molecule, acceptor atom, score
      L1  H     7    24       P1  7948  0.32
      L1  H    10    25       P1  7948  0.97

> <Gold.Chemscore.Hbond.Weighted>
-3.4459

> <Gold.Chemscore.Metal.Weighted>
-0.0000

> <Gold.Chemscore.Lipo.Weighted>
-7.9718

> <Gold.Chemscore.Internal_Hbond.Weighted>
0.0000

> <Gold.Chemscore.DEClash.Weighted>
1.2969

> <Gold.Chemscore.DEInternal.Weighted>
1.4386

> <Gold.Chemscore.Rot.Weighted>
3.4992

> <Gold.Chemscore.Internal.Correction.Weighted>
   9.000000E+99

> <Gold.Protein.RotatedTorsions>
[ 6907 6896 6895 6894 ] final   27.60 input  -60.11 | X-H torsion
[ 7974 7965 7964 7962 ] final    7.90 input  175.53 | X-H torsion
[ 8008 7997 7996 7995 ] final   98.66 input   59.86 | X-H torsion
[ 10167 10162 10161 10158 ] final   67.69 input  -65.29 | X-H torsion
[ 10718 10713 10712 10709 ] final  148.55 input   66.30 | X-H torsion
[ 10763 10752 10751 10750 ] final  113.27 input  -60.55 | X-H torsion
[ 11005 11000 10999 10996 ] final  100.48 input  -57.11 | X-H torsion

> <Gold.Protein.ActiveResidues>
 VAL166  LYS551  ARG553  GLY616  TRP617  ASP618  TYR619  PRO620  LYS621  CYS622 
 ASP623  PHE694  ASN695  SER759  ASP760  ASP761  ALA762  ILE779  LEU786  VAL792 
 PHE793  MET794  SER795  GLU796  ALA797  LYS798  CYS799  TRP800  GLU811  SER814 

> <Gold.Protein.RotatedAtoms>
  152.0047  134.9909  160.0565 H   0  0  0  0  0  0  0  0  0  0  0  0  # atno 6907 bound_to 6896
  152.1486  133.4503  159.4810 H   0  0  0  0  0  0  0  0  0  0  0  0  # atno 6908 bound_to 6896
  150.6873  134.2135  159.4411 H   0  0  0  0  0  0  0  0  0  0  0  0  # atno 6909 bound_to 6896
  146.2422  140.0014  142.8415 H   0  0  0  0  0  0  0  0  0  0  0  0  # atno 7974 bound_to 7965
  156.1027  140.3240  155.7964 H   0  0  0  0  0  0  0  0  0  0  0  0  # atno 8008 bound_to 7997
  155.4809  140.0554  157.2984 H   0  0  0  0  0  0  0  0  0  0  0  0  # atno 8009 bound_to 7997
  154.4707  140.2010  156.0016 H   0  0  0  0  0  0  0  0  0  0  0  0  # atno 8010 bound_to 7997
  140.0867  144.5023  150.7125 H   0  0  0  0  0  0  0  0  0  0  0  0  # atno 10167 bound_to 10162
  157.3072  131.0881  151.1345 H   0  0  0  0  0  0  0  0  0  0  0  0  # atno 10718 bound_to 10713
  153.4900  135.3661  155.2487 H   0  0  0  0  0  0  0  0  0  0  0  0  # atno 10763 bound_to 10752
  154.8752  135.3975  154.3600 H   0  0  0  0  0  0  0  0  0  0  0  0  # atno 10764 bound_to 10752
  153.4218  135.7080  153.6355 H   0  0  0  0  0  0  0  0  0  0  0  0  # atno 10765 bound_to 10752
  139.8771  134.9142  156.4762 H   0  0  0  0  0  0  0  0  0  0  0  0  # atno 11005 bound_to 11000
  145.1411  140.9572  143.4488 LP  0  0  0  0  0  0  0  0  0  0  0  0  # atno 17320 bound_to 7965
  145.0294  139.3354  143.6032 LP  0  0  0  0  0  0  0  0  0  0  0  0  # atno 17321 bound_to 7965
  140.7050  143.2461  151.4754 LP  0  0  0  0  0  0  0  0  0  0  0  0  # atno 17342 bound_to 10162
  139.5748  144.1845  152.1887 LP  0  0  0  0  0  0  0  0  0  0  0  0  # atno 17343 bound_to 10162
  157.2681  130.6691  149.6006 LP  0  0  0  0  0  0  0  0  0  0  0  0  # atno 17370 bound_to 10713
  155.9675  130.4487  150.5632 LP  0  0  0  0  0  0  0  0  0  0  0  0  # atno 17371 bound_to 10713
  140.8760  133.7953  155.9415 LP  0  0  0  0  0  0  0  0  0  0  0  0  # atno 17394 bound_to 11000
  140.8903  134.2503  157.5098 LP  0  0  0  0  0  0  0  0  0  0  0  0  # atno 17395 bound_to 11000

$$$$
