AV-unprocessed.smi:2514|AV-procd|sdf|9893|dock5
  -GOLD-   2272013533D 1   1.00000     0.00000
 Structure written by MMmdl.
 25 26  0  0  0  0  0  0  0  0  2 V2000
  150.0954  142.4583  158.6103 C   0  0  0  0  0  0  0  0  0  0  0  0
  151.0608  142.4528  157.4190 C   0  0  2  0  0  0  0  0  0  0  0  0
  151.3164  143.7830  157.0145 O   0  0  0  0  0  0  0  0  0  0  0  0
  150.5002  141.7231  156.2295 C   0  0  0  0  0  0  0  0  0  0  0  0
  149.3746  141.9691  155.4915 C   0  0  0  0  0  0  0  0  0  0  0  0
  149.3719  140.9511  154.5621 N   0  0  0  0  0  0  0  0  0  0  0  0
  148.4533  140.7562  153.4804 C   0  0  0  0  0  0  0  0  0  0  0  0
  147.2200  141.6454  153.3358 C   0  0  0  0  0  0  0  0  0  0  0  0
  146.5228  140.4873  152.7903 N   0  3  0  0  0  0  0  0  0  0  0  0
  147.4506  139.6019  153.4828 C   0  0  0  0  0  0  0  0  0  0  0  0
  150.4570  140.1533  154.6930 N   0  0  0  0  0  0  0  0  0  0  0  0
  151.1301  140.5916  155.7097 N   0  0  0  0  0  0  0  0  0  0  0  0
  149.8802  141.4428  158.9436 H   0  0  0  0  0  0  0  0  0  0  0  0
  149.1475  142.9312  158.3512 H   0  0  0  0  0  0  0  0  0  0  0  0
  150.5195  143.0007  159.4559 H   0  0  0  0  0  0  0  0  0  0  0  0
  152.0080  142.0062  157.7240 H   0  0  0  0  0  0  0  0  0  0  0  0
  150.5597  144.1034  156.5478 H   0  0  0  0  0  0  0  0  0  0  0  0
  148.6171  142.7370  155.5493 H   0  0  0  0  0  0  0  0  0  0  0  0
  149.0472  140.7576  152.5637 H   0  0  0  0  0  0  0  0  0  0  0  0
  146.7990  141.9675  154.2902 H   0  0  0  0  0  0  0  0  0  0  0  0
  147.3278  142.4720  152.6326 H   0  0  0  0  0  0  0  0  0  0  0  0
  145.5643  140.4011  153.0972 H   0  0  0  0  0  0  0  0  0  0  0  0
  147.7505  138.7293  152.9019 H   0  0  0  0  0  0  0  0  0  0  0  0
  147.0930  139.3315  154.4785 H   0  0  0  0  0  0  0  0  0  0  0  0
  146.6331  140.4279  151.7879 H   0  0  0  0  0  0  0  0  0  0  0  0
  1  2  1  0  0  0  0
  1 13  1  0  0  0  0
  1 14  1  0  0  0  0
  1 15  1  0  0  0  0
  2  3  1  0  0  0  0
  2  4  1  0  0  0  0
  2 16  1  0  0  0  0
  3 17  1  0  0  0  0
  4 12  1  0  0  0  0
  4  5  2  0  0  0  0
  5  6  1  0  0  0  0
  5 18  1  0  0  0  0
  6  7  1  0  0  0  0
  6 11  1  0  0  0  0
  7 10  1  0  0  0  0
  7  8  1  0  0  0  0
  7 19  1  0  0  0  0
  8  9  1  0  0  0  0
  8 20  1  0  0  0  0
  8 21  1  0  0  0  0
  9 10  1  0  0  0  0
  9 22  1  0  0  0  0
  9 25  1  0  0  0  0
 10 23  1  0  0  0  0
 10 24  1  0  0  0  0
 11 12  2  0  0  0  0
M  CHG  1   9   1
M  END
> <s_m_source_file>
AV-unprocessed.smi

> <i_m_source_file_index>
2514

> <i_lp_mmshare_version>
43012

> <i_f3d_flags>
0

> <s_epik_input>
W0NIM11bQ0BIXShbT0hdKWMxW2NIXW4obm4xKVtDSF0yW0NIMl1bTkhdW0NIMl0y

> <s_epik_cmdline>
J2VwaWtfcHl0aG9uJywgJy1waCcsICc3LjAnLCAnLXRuJywgJzgnLCAnLW1hJywgJzIwMCcsICctbWV0YWxfYmluZGluZycsICctaW1hZScsICc8aW5maWxlLm1hZT4nLCAnLW9tYWUnLCAnPG91dGZpbGUubWFlPic=

> <r_lp_tautomer_probability>
1

> <r_epik_Ionization_Penalty>
0.215039

> <r_epik_Ionization_Penalty_Charging>
0.215038

> <r_epik_Ionization_Penalty_Neutral>
9.39085e-07

> <r_epik_State_Penalty>
0.20523

> <r_epik_Charging_Adjusted_Penalty>
0.420268

> <i_epik_Tot_Q>
1

> <i_epik_Tot_abs_Q>
1

> <r_epik_Metal_State_Penalty>
0.205259

> <b_epik_Metal_Only>
0

> <s_lp_Force_Field>
OPLS_2005

> <r_lp_Energy>
12.5086

> <b_lp_Chiralities_Consistent>
1

> <s_lp_Variant>
AV-unprocessed.smi:2514-1

> <Gold.Version>
5.8.1

> <Gold.Id.Protein>
6NUR|6NUR_protein|mol2

> <Gold.PLP.Fitness>
33.1974

> <Gold.PLP.PLP>
-20.3317

> <Gold.PLP.part.hbond>
-3.7198

> <Gold.PLP.part.metal>
0.0000

> <Gold.PLP.part.buried>
2.0709

> <Gold.PLP.part.nonpolar>
-18.7672

> <Gold.PLP.part.repulsive>
0.1109

> <Gold.PLP.ligand.clash>
0.0000

> <Gold.PLP.ligand.torsion>
0.1634

> <Gold.PLP.Chemscore.Hbond>
3.3640

> <Gold.PLP.Chemscore.CHOScore>
0.9410

> <Gold.PLP.Chemscore.Metal>
0.0000

> <Gold.Chemscore.Hbonds>
donor molecule, donor type, donor heavy atom, donor atom, acceptor molecule, acceptor atom, score
      L1  H     3    17       P1  8028  1.00
      L1  H     9    22       P1 10175  1.73
      P1  H  7989  7998       L1    11  0.65
      L1  C     5    18       P1  8028  0.88

> <Gold.PLP.Chemscore.Internal.Correction>
0.2777

> <Gold.Rescore>
     Score         DG    S(hbond)    S(metal)    S(lipo)     H(rot)  DE(clash)    DE(int)     intcor
      9.95     -12.40       1.69        0.00      50.94       1.83       2.20       0.26       ----

> <Gold.Chemscore.Fitness>
9.9487

> <Gold.Chemscore.DG>
-12.4031

> <Gold.Chemscore.ZeroCoef>
-5.4800

> <Gold.Chemscore.Hbond>
1.6921

> <Gold.Chemscore.Metal>
0.0000

> <Gold.Chemscore.Lipo>
50.9359

> <Gold.Chemscore.Internal_Hbond>
0.0000

> <Gold.Chemscore.DEClash>
2.1984

> <Gold.Chemscore.DEInternal>
0.2561

> <Gold.Chemscore.Rot>
1.8312

> <Gold.Chemscore.Internal.Correction>
   9.000000E+99

> <Gold.Chemscore.Hbonds>
donor molecule, donor type, donor heavy atom, donor atom, acceptor molecule, acceptor atom, score
      L1  H     3    17       P1  8028  0.98
      L1  H     9    22       P1 10175  0.78
      P1  H  7989  7998       L1    11  0.02

> <Gold.Chemscore.Hbond.Weighted>
-5.6516

> <Gold.Chemscore.Metal.Weighted>
-0.0000

> <Gold.Chemscore.Lipo.Weighted>
-5.9595

> <Gold.Chemscore.Internal_Hbond.Weighted>
0.0000

> <Gold.Chemscore.DEClash.Weighted>
2.1984

> <Gold.Chemscore.DEInternal.Weighted>
0.2561

> <Gold.Chemscore.Rot.Weighted>
4.6879

> <Gold.Chemscore.Internal.Correction.Weighted>
   9.000000E+99

> <Gold.Protein.RotatedTorsions>
[ 6907 6896 6895 6894 ] final   43.04 input  -60.11 | X-H torsion
[ 7974 7965 7964 7962 ] final  107.66 input  175.53 | X-H torsion
[ 8008 7997 7996 7995 ] final  171.81 input   59.86 | X-H torsion
[ 10167 10162 10161 10158 ] final   35.04 input  -65.29 | X-H torsion
[ 10718 10713 10712 10709 ] final -179.31 input   66.30 | X-H torsion
[ 10763 10752 10751 10750 ] final  -34.06 input  -60.55 | X-H torsion
[ 11005 11000 10999 10996 ] final -170.06 input  -57.11 | X-H torsion

> <Gold.Protein.ActiveResidues>
 VAL166  LYS551  ARG553  GLY616  TRP617  ASP618  TYR619  PRO620  LYS621  CYS622 
 ASP623  PHE694  ASN695  SER759  ASP760  ASP761  ALA762  ILE779  LEU786  VAL792 
 PHE793  MET794  SER795  GLU796  ALA797  LYS798  CYS799  TRP800  GLU811  SER814 

> <Gold.Protein.RotatedAtoms>
  152.2153  134.8463  160.0492 H   0  0  0  0  0  0  0  0  0  0  0  0  # atno 6907 bound_to 6896
  151.9267  133.3595  159.3924 H   0  0  0  0  0  0  0  0  0  0  0  0  # atno 6908 bound_to 6896
  150.6986  134.4505  159.5378 H   0  0  0  0  0  0  0  0  0  0  0  0  # atno 6909 bound_to 6896
  145.2907  139.2601  143.3866 H   0  0  0  0  0  0  0  0  0  0  0  0  # atno 7974 bound_to 7965
  156.1235  140.1502  156.9170 H   0  0  0  0  0  0  0  0  0  0  0  0  # atno 8008 bound_to 7997
  154.4854  140.0867  156.7515 H   0  0  0  0  0  0  0  0  0  0  0  0  # atno 8009 bound_to 7997
  155.4385  140.3430  155.4289 H   0  0  0  0  0  0  0  0  0  0  0  0  # atno 8010 bound_to 7997
  140.4259  144.1394  150.6153 H   0  0  0  0  0  0  0  0  0  0  0  0  # atno 10167 bound_to 10162
  156.8571  130.9739  151.3087 H   0  0  0  0  0  0  0  0  0  0  0  0  # atno 10718 bound_to 10713
  153.8405  135.6858  153.4803 H   0  0  0  0  0  0  0  0  0  0  0  0  # atno 10763 bound_to 10752
  153.1456  135.4639  154.9560 H   0  0  0  0  0  0  0  0  0  0  0  0  # atno 10764 bound_to 10752
  154.7847  135.3280  154.7859 H   0  0  0  0  0  0  0  0  0  0  0  0  # atno 10765 bound_to 10752
  140.5237  134.5684  157.5055 H   0  0  0  0  0  0  0  0  0  0  0  0  # atno 11005 bound_to 11000
  146.3186  140.3397  142.8647 LP  0  0  0  0  0  0  0  0  0  0  0  0  # atno 17320 bound_to 7965
  144.9175  140.7829  143.5769 LP  0  0  0  0  0  0  0  0  0  0  0  0  # atno 17321 bound_to 7965
  140.4482  143.2498  151.9383 LP  0  0  0  0  0  0  0  0  0  0  0  0  # atno 17342 bound_to 10162
  139.4783  144.5588  151.8271 LP  0  0  0  0  0  0  0  0  0  0  0  0  # atno 17343 bound_to 10162
  157.6271  130.8700  149.9208 LP  0  0  0  0  0  0  0  0  0  0  0  0  # atno 17370 bound_to 10713
  156.0796  130.3674  150.0607 LP  0  0  0  0  0  0  0  0  0  0  0  0  # atno 17371 bound_to 10713
  139.9592  134.7482  156.0275 LP  0  0  0  0  0  0  0  0  0  0  0  0  # atno 17394 bound_to 11000
  141.1320  133.6584  156.3490 LP  0  0  0  0  0  0  0  0  0  0  0  0  # atno 17395 bound_to 11000

$$$$
