AV-unprocessed.smi:177|AV-procd|sdf|1438|dock9
  -GOLD-   2262019223D 1   1.00000     0.00000
 Structure written by MMmdl.
 61 65  0  0  0  0  0  0  0  0  1 V2000
  150.0009  145.0663  160.5290 C   0  0  0  0  0  0  0  0  0  0  0  0
  149.9739  144.1692  159.4295 O   0  0  0  0  0  0  0  0  0  0  0  0
  151.0918  144.2664  158.5525 C   0  0  1  0  0  0  0  0  0  0  0  0
  152.3673  144.2183  159.4138 C   0  0  0  0  0  0  0  0  0  0  0  0
  152.5833  142.8327  160.0455 C   0  0  0  0  0  0  0  0  0  0  0  0
  152.5862  141.7349  158.9716 C   0  0  1  0  0  0  0  0  0  0  0  0
  152.7596  140.4681  159.5964 O   0  0  0  0  0  0  0  0  0  0  0  0
  152.8669  139.4218  158.6384 C   0  0  0  0  0  0  0  0  0  0  0  0
  151.5702  139.3471  157.8185 C   0  0  0  0  0  0  0  0  0  0  0  0
  151.2695  140.6377  157.2050 N   0  0  0  0  0  0  0  0  0  0  0  0
  150.2057  140.5185  156.3747 C   0  0  0  0  0  0  0  0  0  0  0  0
  150.3881  140.2983  155.0450 N   0  0  0  0  0  0  0  0  0  0  0  0
  149.3324  140.2108  154.2304 C   0  0  0  0  0  0  0  0  0  0  0  0
  148.0365  140.3255  154.5288 N   0  0  0  0  0  0  0  0  0  0  0  0
  147.8512  140.5606  155.8595 C   0  0  0  0  0  0  0  0  0  0  0  0
  148.8733  140.6646  156.8436 C   0  0  0  0  0  0  0  0  0  0  0  0
  148.3126  140.8926  158.0930 N   0  0  0  0  0  0  0  0  0  0  0  0
  147.0289  140.9218  157.8608 C   0  0  0  0  0  0  0  0  0  0  0  0
  146.6626  140.7567  156.5426 N   0  0  0  0  0  0  0  0  0  0  0  0
  145.3078  140.7582  156.0070 C   0  0  0  0  0  0  0  0  0  0  0  0
  144.5667  142.1310  156.0946 C   0  0  0  0  0  0  0  0  0  0  0  0
  145.2107  143.1745  155.1428 C   0  0  0  0  0  0  0  0  0  0  0  0
  145.0721  142.8156  153.7824 O   0  0  0  0  0  0  0  0  0  0  0  0
  143.0720  142.0035  155.7061 C   0  0  0  0  0  0  0  0  0  0  0  0
  142.2448  141.2411  156.7569 C   0  0  0  0  0  0  0  0  0  0  0  0
  142.3655  141.8801  158.0208 O   0  0  0  0  0  0  0  0  0  0  0  0
  143.7013  141.8850  158.5074 C   0  0  0  0  0  0  0  0  0  0  0  0
  144.6101  142.6726  157.5459 C   0  0  0  0  0  0  0  0  0  0  0  0
  151.2644  141.7450  158.1679 C   0  0  2  0  0  0  0  0  0  0  0  0
  151.0970  143.1329  157.5029 C   0  0  0  0  0  0  0  0  0  0  0  0
  149.1536  144.8593  161.1823 H   0  0  0  0  0  0  0  0  0  0  0  0
  149.9209  146.1048  160.2097 H   0  0  0  0  0  0  0  0  0  0  0  0
  150.9113  144.9470  161.1174 H   0  0  0  0  0  0  0  0  0  0  0  0
  151.0626  145.2324  158.0458 H   0  0  0  0  0  0  0  0  0  0  0  0
  153.2293  144.4656  158.7930 H   0  0  0  0  0  0  0  0  0  0  0  0
  152.3224  144.9809  160.1919 H   0  0  0  0  0  0  0  0  0  0  0  0
  153.5259  142.8198  160.5934 H   0  0  0  0  0  0  0  0  0  0  0  0
  151.7979  142.6325  160.7756 H   0  0  0  0  0  0  0  0  0  0  0  0
  153.4289  141.9122  158.3001 H   0  0  0  0  0  0  0  0  0  0  0  0
  153.7291  139.5886  157.9908 H   0  0  0  0  0  0  0  0  0  0  0  0
  153.0372  138.4794  159.1587 H   0  0  0  0  0  0  0  0  0  0  0  0
  151.6672  138.5754  157.0534 H   0  0  0  0  0  0  0  0  0  0  0  0
  150.7416  139.0540  158.4651 H   0  0  0  0  0  0  0  0  0  0  0  0
  149.5584  140.0276  153.1903 H   0  0  0  0  0  0  0  0  0  0  0  0
  146.3086  141.0763  158.6510 H   0  0  0  0  0  0  0  0  0  0  0  0
  145.3598  140.4040  154.9784 H   0  0  0  0  0  0  0  0  0  0  0  0
  144.7420  139.9943  156.5419 H   0  0  0  0  0  0  0  0  0  0  0  0
  144.7775  144.1635  155.2915 H   0  0  0  0  0  0  0  0  0  0  0  0
  146.2758  143.2801  155.3525 H   0  0  0  0  0  0  0  0  0  0  0  0
  144.1600  142.8862  153.5455 H   0  0  0  0  0  0  0  0  0  0  0  0
  142.6389  142.9997  155.6045 H   0  0  0  0  0  0  0  0  0  0  0  0
  142.9593  141.5368  154.7280 H   0  0  0  0  0  0  0  0  0  0  0  0
  141.1938  141.2366  156.4687 H   0  0  0  0  0  0  0  0  0  0  0  0
  142.5505  140.1980  156.8344 H   0  0  0  0  0  0  0  0  0  0  0  0
  143.7093  142.3546  159.4912 H   0  0  0  0  0  0  0  0  0  0  0  0
  144.0554  140.8636  158.6487 H   0  0  0  0  0  0  0  0  0  0  0  0
  145.6323  142.6710  157.9252 H   0  0  0  0  0  0  0  0  0  0  0  0
  144.2868  143.7145  157.5556 H   0  0  0  0  0  0  0  0  0  0  0  0
  150.4385  141.5833  158.8628 H   0  0  0  0  0  0  0  0  0  0  0  0
  150.1932  143.1833  156.8987 H   0  0  0  0  0  0  0  0  0  0  0  0
  151.9195  143.2968  156.8051 H   0  0  0  0  0  0  0  0  0  0  0  0
  1  2  1  0  0  0  0
  1 31  1  0  0  0  0
  1 32  1  0  0  0  0
  1 33  1  0  0  0  0
  2  3  1  0  0  0  0
  3 30  1  0  0  0  0
  3  4  1  0  0  0  0
  3 34  1  0  0  0  0
  4  5  1  0  0  0  0
  4 35  1  0  0  0  0
  4 36  1  0  0  0  0
  5  6  1  0  0  0  0
  5 37  1  0  0  0  0
  5 38  1  0  0  0  0
  6 29  1  0  0  0  0
  6  7  1  0  0  0  0
  6 39  1  0  0  0  0
  7  8  1  0  0  0  0
  8  9  1  0  0  0  0
  8 40  1  0  0  0  0
  8 41  1  0  0  0  0
  9 10  1  0  0  0  0
  9 42  1  0  0  0  0
  9 43  1  0  0  0  0
 10 11  1  0  0  0  0
 10 29  1  0  0  0  0
 11 16  1  0  0  0  0
 11 12  2  0  0  0  0
 12 13  1  0  0  0  0
 13 14  2  0  0  0  0
 13 44  1  0  0  0  0
 14 15  1  0  0  0  0
 15 19  1  0  0  0  0
 15 16  2  0  0  0  0
 16 17  1  0  0  0  0
 17 18  2  0  0  0  0
 18 19  1  0  0  0  0
 18 45  1  0  0  0  0
 19 20  1  0  0  0  0
 20 21  1  0  0  0  0
 20 46  1  0  0  0  0
 20 47  1  0  0  0  0
 21 28  1  0  0  0  0
 21 22  1  0  0  0  0
 21 24  1  0  0  0  0
 22 23  1  0  0  0  0
 22 48  1  0  0  0  0
 22 49  1  0  0  0  0
 23 50  1  0  0  0  0
 24 25  1  0  0  0  0
 24 51  1  0  0  0  0
 24 52  1  0  0  0  0
 25 26  1  0  0  0  0
 25 53  1  0  0  0  0
 25 54  1  0  0  0  0
 26 27  1  0  0  0  0
 27 28  1  0  0  0  0
 27 55  1  0  0  0  0
 27 56  1  0  0  0  0
 28 57  1  0  0  0  0
 28 58  1  0  0  0  0
 29 30  1  0  0  0  0
 29 59  1  0  0  0  0
 30 60  1  0  0  0  0
 30 61  1  0  0  0  0
M  END
> <s_m_source_file>
AV-unprocessed.smi

> <i_m_source_file_index>
177

> <i_lp_mmshare_version>
43012

> <i_f3d_flags>
0

> <s_epik_input>
W0NIM11PW0NASF0oW0NIMl1bQ0gyXTEpW0NIMl1bQ0BIXShbQ0BASF0xMilOKFtDSDJdW0NIMl1PMiljKG5bY0hdbjMpYyhjMzQpbltjSF1uNFtDSDJdQzUoW0NIMl1bT0hdKVtDSDJdW0NIMl1PW0NIMl1bQ0gyXTU=

> <s_epik_cmdline>
J2VwaWtfcHl0aG9uJywgJy1waCcsICc3LjAnLCAnLXRuJywgJzgnLCAnLW1hJywgJzIwMCcsICctbWV0YWxfYmluZGluZycsICctaW1hZScsICc8aW5maWxlLm1hZT4nLCAnLW9tYWUnLCAnPG91dGZpbGUubWFlPic=

> <r_lp_tautomer_probability>
1

> <r_epik_Ionization_Penalty>
0.0065899

> <r_epik_Ionization_Penalty_Charging>
0

> <r_epik_Ionization_Penalty_Neutral>
0.0065899

> <r_epik_State_Penalty>
0.00470042

> <r_epik_Charging_Adjusted_Penalty>
0.00470042

> <i_epik_Tot_Q>
0

> <i_epik_Tot_abs_Q>
0

> <r_epik_Metal_State_Penalty>
-0

> <b_epik_Metal_Only>
0

> <s_lp_Force_Field>
OPLS_2005

> <r_lp_Energy>
42.9311

> <b_lp_Chiralities_Consistent>
1

> <s_lp_Variant>
AV-unprocessed.smi:177-2

> <Gold.Version>
5.8.1

> <Gold.Id.Protein>
6NUR|6NUR_protein|mol2

> <Gold.PLP.Fitness>
42.8632

> <Gold.PLP.PLP>
-38.3353

> <Gold.PLP.part.hbond>
-2.5615

> <Gold.PLP.part.metal>
0.0000

> <Gold.PLP.part.buried>
-4.3378

> <Gold.PLP.part.nonpolar>
-32.9268

> <Gold.PLP.part.repulsive>
0.3842

> <Gold.PLP.ligand.clash>
0.0000

> <Gold.PLP.ligand.torsion>
0.6937

> <Gold.PLP.Chemscore.Hbond>
0.9242

> <Gold.PLP.Chemscore.CHOScore>
0.9962

> <Gold.PLP.Chemscore.Metal>
0.0000

> <Gold.Chemscore.Hbonds>
donor molecule, donor type, donor heavy atom, donor atom, acceptor molecule, acceptor atom, score
      L1  H    23    50       P1 10174  0.32
      P1  H  7989  7998       L1    12  0.56
      L1  C    13    44       P1  7957  1.00

> <Gold.PLP.Chemscore.Internal.Correction>
0.1542

> <Gold.Rescore>
     Score         DG    S(hbond)    S(metal)    S(lipo)     H(rot)  DE(clash)    DE(int)     intcor
     10.15     -12.08       0.40        0.00     101.48       2.58       0.45       1.47       ----

> <Gold.Chemscore.Fitness>
10.1542

> <Gold.Chemscore.DG>
-12.0776

> <Gold.Chemscore.ZeroCoef>
-5.4800

> <Gold.Chemscore.Hbond>
0.3985

> <Gold.Chemscore.Metal>
0.0000

> <Gold.Chemscore.Lipo>
101.4765

> <Gold.Chemscore.Internal_Hbond>
0.0000

> <Gold.Chemscore.DEClash>
0.4537

> <Gold.Chemscore.DEInternal>
1.4696

> <Gold.Chemscore.Rot>
2.5806

> <Gold.Chemscore.Internal.Correction>
   9.000000E+99

> <Gold.Chemscore.Hbonds>
donor molecule, donor type, donor heavy atom, donor atom, acceptor molecule, acceptor atom, score
      L1  H    23    50       P1 10174  0.01
      P1  H  7989  7998       L1    12  0.04

> <Gold.Chemscore.Hbond.Weighted>
-1.3311

> <Gold.Chemscore.Metal.Weighted>
-0.0000

> <Gold.Chemscore.Lipo.Weighted>
-11.8728

> <Gold.Chemscore.Internal_Hbond.Weighted>
0.0000

> <Gold.Chemscore.DEClash.Weighted>
0.4537

> <Gold.Chemscore.DEInternal.Weighted>
1.4696

> <Gold.Chemscore.Rot.Weighted>
6.6062

> <Gold.Chemscore.Internal.Correction.Weighted>
   9.000000E+99

> <Gold.Protein.RotatedTorsions>
[ 6907 6896 6895 6894 ] final  169.57 input  -60.11 | X-H torsion
[ 7974 7965 7964 7962 ] final   68.37 input  175.53 | X-H torsion
[ 8008 7997 7996 7995 ] final   50.32 input   59.86 | X-H torsion
[ 10167 10162 10161 10158 ] final   -4.23 input  -65.29 | X-H torsion
[ 10718 10713 10712 10709 ] final -169.33 input   66.30 | X-H torsion
[ 10763 10752 10751 10750 ] final   79.16 input  -60.55 | X-H torsion
[ 11005 11000 10999 10996 ] final  123.94 input  -57.11 | X-H torsion

> <Gold.Protein.ActiveResidues>
 VAL166  LYS551  ARG553  GLY616  TRP617  ASP618  TYR619  PRO620  LYS621  CYS622 
 ASP623  PHE694  ASN695  SER759  ASP760  ASP761  ALA762  ILE779  LEU786  VAL792 
 PHE793  MET794  SER795  GLU796  ALA797  LYS798  CYS799  TRP800  GLU811  SER814 

> <Gold.Protein.RotatedAtoms>
  151.8298  133.3407  159.3609 H   0  0  0  0  0  0  0  0  0  0  0  0  # atno 6907 bound_to 6896
  150.7268  134.5494  159.5796 H   0  0  0  0  0  0  0  0  0  0  0  0  # atno 6908 bound_to 6896
  152.2944  134.7684  160.0422 H   0  0  0  0  0  0  0  0  0  0  0  0  # atno 6909 bound_to 6896
  145.8034  139.2994  143.1141 H   0  0  0  0  0  0  0  0  0  0  0  0  # atno 7974 bound_to 7965
  155.4168  140.3445  155.4268 H   0  0  0  0  0  0  0  0  0  0  0  0  # atno 8008 bound_to 7997
  156.1416  140.1544  156.8942 H   0  0  0  0  0  0  0  0  0  0  0  0  # atno 8009 bound_to 7997
  154.4976  140.0823  156.7710 H   0  0  0  0  0  0  0  0  0  0  0  0  # atno 8010 bound_to 7997
  140.6920  143.6448  150.8403 H   0  0  0  0  0  0  0  0  0  0  0  0  # atno 10167 bound_to 10162
  156.7099  130.9229  151.3088 H   0  0  0  0  0  0  0  0  0  0  0  0  # atno 10718 bound_to 10713
  153.0931  135.4850  154.8727 H   0  0  0  0  0  0  0  0  0  0  0  0  # atno 10763 bound_to 10752
  154.7292  135.3056  154.8922 H   0  0  0  0  0  0  0  0  0  0  0  0  # atno 10764 bound_to 10752
  153.9563  135.6817  153.4798 H   0  0  0  0  0  0  0  0  0  0  0  0  # atno 10765 bound_to 10752
  139.9335  134.9640  156.8334 H   0  0  0  0  0  0  0  0  0  0  0  0  # atno 11005 bound_to 11000
  145.9854  140.8648  143.0093 LP  0  0  0  0  0  0  0  0  0  0  0  0  # atno 17320 bound_to 7965
  144.6766  140.2139  143.7374 LP  0  0  0  0  0  0  0  0  0  0  0  0  # atno 17321 bound_to 7965
  140.0162  143.5591  152.2819 LP  0  0  0  0  0  0  0  0  0  0  0  0  # atno 17342 bound_to 10162
  139.6332  144.7647  151.2492 LP  0  0  0  0  0  0  0  0  0  0  0  0  # atno 17343 bound_to 10162
  157.6940  130.9262  150.0592 LP  0  0  0  0  0  0  0  0  0  0  0  0  # atno 17370 bound_to 10713
  156.1668  130.3645  149.9221 LP  0  0  0  0  0  0  0  0  0  0  0  0  # atno 17371 bound_to 10713
  140.6137  134.0058  155.7588 LP  0  0  0  0  0  0  0  0  0  0  0  0  # atno 17394 bound_to 11000
  141.0937  133.9877  157.3195 LP  0  0  0  0  0  0  0  0  0  0  0  0  # atno 17395 bound_to 11000

$$$$
