AV-unprocessed.smi:3148|AV-procd|sdf|11992|dock10
  -GOLD-   2272017393D 1   1.00000     0.00000
 Structure written by MMmdl.
 34 36  0  0  0  0  0  0  0  0  1 V2000
  151.8225  145.4739  159.7448 C   0  0  0  0  0  0  0  0  0  0  0  0
  151.6122  144.4926  158.7356 O   0  0  0  0  0  0  0  0  0  0  0  0
  152.0717  143.2129  158.9682 C   0  0  0  0  0  0  0  0  0  0  0  0
  152.7731  142.9330  160.1586 C   0  0  0  0  0  0  0  0  0  0  0  0
  153.2114  141.6034  160.3308 C   0  0  0  0  0  0  0  0  0  0  0  0
  153.9684  141.1736  161.5693 C   0  0  0  0  0  0  0  0  0  0  0  0
  152.9724  140.6486  159.4050 N   0  0  0  0  0  0  0  0  0  0  0  0
  152.2984  141.0181  158.3139 C   0  0  0  0  0  0  0  0  0  0  0  0
  152.0641  140.0155  157.3913 N   0  0  0  0  0  0  0  0  0  0  0  0
  151.8063  140.2478  155.9747 C   0  0  1  0  0  0  0  0  0  0  0  0
  151.8049  138.9629  155.1437 C   0  0  0  0  0  0  0  0  0  0  0  0
  150.4467  139.0502  154.4329 C   0  0  1  0  0  0  0  0  0  0  0  0
  149.2893  138.7352  155.3894 C   0  0  0  0  0  0  0  0  0  0  0  0
  149.2547  139.9905  156.2588 C   0  0  0  0  0  0  0  0  0  0  0  0
  150.4078  140.8193  155.6672 C   0  0  2  0  0  0  0  0  0  0  0  0
  150.2982  140.4543  154.3018 O   0  0  0  0  0  0  0  0  0  0  0  0
  151.8381  142.2455  158.0471 N   0  0  0  0  0  0  0  0  0  0  0  0
  151.4126  146.4272  159.4116 H   0  0  0  0  0  0  0  0  0  0  0  0
  152.8852  145.6212  159.9428 H   0  0  0  0  0  0  0  0  0  0  0  0
  151.3196  145.2045  160.6748 H   0  0  0  0  0  0  0  0  0  0  0  0
  152.9606  143.6985  160.8970 H   0  0  0  0  0  0  0  0  0  0  0  0
  154.2415  142.0337  162.1813 H   0  0  0  0  0  0  0  0  0  0  0  0
  154.8829  140.6470  161.2950 H   0  0  0  0  0  0  0  0  0  0  0  0
  153.3542  140.5055  162.1733 H   0  0  0  0  0  0  0  0  0  0  0  0
  151.8832  139.0924  157.7579 H   0  0  0  0  0  0  0  0  0  0  0  0
  152.5687  140.9206  155.5792 H   0  0  0  0  0  0  0  0  0  0  0  0
  152.6236  138.9791  154.4237 H   0  0  0  0  0  0  0  0  0  0  0  0
  151.8959  138.0526  155.7382 H   0  0  0  0  0  0  0  0  0  0  0  0
  150.4036  138.5024  153.4913 H   0  0  0  0  0  0  0  0  0  0  0  0
  148.3521  138.6229  154.8429 H   0  0  0  0  0  0  0  0  0  0  0  0
  149.4609  137.8250  155.9650 H   0  0  0  0  0  0  0  0  0  0  0  0
  148.3055  140.5119  156.1322 H   0  0  0  0  0  0  0  0  0  0  0  0
  149.3802  139.7775  157.3207 H   0  0  0  0  0  0  0  0  0  0  0  0
  150.3178  141.8907  155.8484 H   0  0  0  0  0  0  0  0  0  0  0  0
  1  2  1  0  0  0  0
  1 18  1  0  0  0  0
  1 19  1  0  0  0  0
  1 20  1  0  0  0  0
  2  3  1  0  0  0  0
  3 17  1  0  0  0  0
  3  4  2  0  0  0  0
  4  5  1  0  0  0  0
  4 21  1  0  0  0  0
  5  6  1  0  0  0  0
  5  7  2  0  0  0  0
  6 22  1  0  0  0  0
  6 23  1  0  0  0  0
  6 24  1  0  0  0  0
  7  8  1  0  0  0  0
  8  9  1  0  0  0  0
  8 17  2  0  0  0  0
  9 10  1  0  0  0  0
  9 25  1  0  0  0  0
 10 15  1  0  0  0  0
 10 11  1  0  0  0  0
 10 26  1  0  0  0  0
 11 12  1  0  0  0  0
 11 27  1  0  0  0  0
 11 28  1  0  0  0  0
 12 16  1  0  0  0  0
 12 13  1  0  0  0  0
 12 29  1  0  0  0  0
 13 14  1  0  0  0  0
 13 30  1  0  0  0  0
 13 31  1  0  0  0  0
 14 15  1  0  0  0  0
 14 32  1  0  0  0  0
 14 33  1  0  0  0  0
 15 16  1  0  0  0  0
 15 34  1  0  0  0  0
M  END
> <s_m_source_file>
AV-unprocessed.smi

> <i_m_source_file_index>
3148

> <i_lp_mmshare_version>
43012

> <i_f3d_flags>
0

> <s_epik_input>
W0NIM11PYzFbY0hdYyhbQ0gzXSluYyhuMSlbTkhdW0NASF0oW0NIMl1bQ0BASF0yMylbQ0BASF0oTzMpW0NIMl1bQ0gyXTI=

> <s_epik_cmdline>
J2VwaWtfcHl0aG9uJywgJy1waCcsICc3LjAnLCAnLXRuJywgJzgnLCAnLW1hJywgJzIwMCcsICctbWV0YWxfYmluZGluZycsICctaW1hZScsICc8aW5maWxlLm1hZT4nLCAnLW9tYWUnLCAnPG91dGZpbGUubWFlPic=

> <r_lp_tautomer_probability>
1

> <r_epik_Ionization_Penalty>
0.101645

> <r_epik_Ionization_Penalty_Charging>
0

> <r_epik_Ionization_Penalty_Neutral>
0.101645

> <r_epik_State_Penalty>
0.0916212

> <r_epik_Charging_Adjusted_Penalty>
0.0916212

> <i_epik_Tot_Q>
0

> <i_epik_Tot_abs_Q>
0

> <r_epik_Metal_State_Penalty>
0.0781

> <b_epik_Metal_Only>
0

> <s_lp_Force_Field>
OPLS_2005

> <r_lp_Energy>
31.5885

> <b_lp_Chiralities_Consistent>
1

> <s_lp_Variant>
AV-unprocessed.smi:3148-2

> <Gold.Version>
5.8.1

> <Gold.Id.Protein>
6NUR|6NUR_protein|mol2

> <Gold.PLP.Fitness>
39.1442

> <Gold.PLP.PLP>
-36.8576

> <Gold.PLP.part.hbond>
-0.7423

> <Gold.PLP.part.metal>
0.0000

> <Gold.PLP.part.buried>
-4.6513

> <Gold.PLP.part.nonpolar>
-30.7561

> <Gold.PLP.part.repulsive>
0.3291

> <Gold.PLP.ligand.clash>
0.2097

> <Gold.PLP.ligand.torsion>
0.2448

> <Gold.PLP.Chemscore.Hbond>
0.9920

> <Gold.PLP.Chemscore.CHOScore>
0.0000

> <Gold.PLP.Chemscore.Metal>
0.0000

> <Gold.Chemscore.Hbonds>
donor molecule, donor type, donor heavy atom, donor atom, acceptor molecule, acceptor atom, score
      P1  H  7989  7998       L1    16  0.93

> <Gold.PLP.Chemscore.Internal.Correction>
0.0100

> <Gold.Rescore>
     Score         DG    S(hbond)    S(metal)    S(lipo)     H(rot)  DE(clash)    DE(int)     intcor
     13.88     -14.15       0.74        0.00      79.70       1.22       0.00       0.28       ----

> <Gold.Chemscore.Fitness>
13.8793

> <Gold.Chemscore.DG>
-14.1544

> <Gold.Chemscore.ZeroCoef>
-5.4800

> <Gold.Chemscore.Hbond>
0.7426

> <Gold.Chemscore.Metal>
0.0000

> <Gold.Chemscore.Lipo>
79.7045

> <Gold.Chemscore.Internal_Hbond>
0.0000

> <Gold.Chemscore.DEClash>
0.0000

> <Gold.Chemscore.DEInternal>
0.2751

> <Gold.Chemscore.Rot>
1.2232

> <Gold.Chemscore.Internal.Correction>
   9.000000E+99

> <Gold.Chemscore.Hbonds>
donor molecule, donor type, donor heavy atom, donor atom, acceptor molecule, acceptor atom, score
      P1  H  7989  7998       L1    16  0.27

> <Gold.Chemscore.Hbond.Weighted>
-2.4803

> <Gold.Chemscore.Metal.Weighted>
-0.0000

> <Gold.Chemscore.Lipo.Weighted>
-9.3254

> <Gold.Chemscore.Internal_Hbond.Weighted>
0.0000

> <Gold.Chemscore.DEClash.Weighted>
0.0000

> <Gold.Chemscore.DEInternal.Weighted>
0.2751

> <Gold.Chemscore.Rot.Weighted>
3.1314

> <Gold.Chemscore.Internal.Correction.Weighted>
   9.000000E+99

> <Gold.Protein.RotatedTorsions>
[ 6907 6896 6895 6894 ] final -123.74 input  -60.11 | X-H torsion
[ 7974 7965 7964 7962 ] final  178.27 input  175.53 | X-H torsion
[ 8008 7997 7996 7995 ] final  -91.42 input   59.86 | X-H torsion
[ 10167 10162 10161 10158 ] final -134.23 input  -65.29 | X-H torsion
[ 10718 10713 10712 10709 ] final -141.28 input   66.30 | X-H torsion
[ 10763 10752 10751 10750 ] final -148.32 input  -60.55 | X-H torsion
[ 11005 11000 10999 10996 ] final  -76.24 input  -57.11 | X-H torsion

> <Gold.Protein.ActiveResidues>
 VAL166  LYS551  ARG553  GLY616  TRP617  ASP618  TYR619  PRO620  LYS621  CYS622 
 ASP623  PHE694  ASN695  SER759  ASP760  ASP761  ALA762  ILE779  LEU786  VAL792 
 PHE793  MET794  SER795  GLU796  ALA797  LYS798  CYS799  TRP800  GLU811  SER814 

> <Gold.Protein.RotatedAtoms>
  150.8700  133.7519  159.2964 H   0  0  0  0  0  0  0  0  0  0  0  0  # atno 6907 bound_to 6896
  151.5134  135.1064  159.9869 H   0  0  0  0  0  0  0  0  0  0  0  0  # atno 6908 bound_to 6896
  152.4688  133.7939  159.6972 H   0  0  0  0  0  0  0  0  0  0  0  0  # atno 6909 bound_to 6896
  144.7158  140.0372  143.6438 H   0  0  0  0  0  0  0  0  0  0  0  0  # atno 7974 bound_to 7965
  154.7106  140.0519  157.0546 H   0  0  0  0  0  0  0  0  0  0  0  0  # atno 8008 bound_to 7997
  155.0560  140.3184  155.4657 H   0  0  0  0  0  0  0  0  0  0  0  0  # atno 8009 bound_to 7997
  156.2788  140.2107  156.5686 H   0  0  0  0  0  0  0  0  0  0  0  0  # atno 8010 bound_to 7997
  139.8901  143.6732  152.2613 H   0  0  0  0  0  0  0  0  0  0  0  0  # atno 10167 bound_to 10162
  156.3322  130.7592  151.1712 H   0  0  0  0  0  0  0  0  0  0  0  0  # atno 10718 bound_to 10713
  154.8239  135.3337  154.6955 H   0  0  0  0  0  0  0  0  0  0  0  0  # atno 10763 bound_to 10752
  153.7584  135.6934  153.4935 H   0  0  0  0  0  0  0  0  0  0  0  0  # atno 10764 bound_to 10752
  153.2127  135.4476  155.0348 H   0  0  0  0  0  0  0  0  0  0  0  0  # atno 10765 bound_to 10752
  141.1652  133.6976  156.7639 H   0  0  0  0  0  0  0  0  0  0  0  0  # atno 11005 bound_to 11000
  146.0054  139.3125  143.0902 LP  0  0  0  0  0  0  0  0  0  0  0  0  # atno 17320 bound_to 7965
  145.8744  140.9400  143.0633 LP  0  0  0  0  0  0  0  0  0  0  0  0  # atno 17321 bound_to 7965
  139.7117  144.7619  151.1101 LP  0  0  0  0  0  0  0  0  0  0  0  0  # atno 17342 bound_to 10162
  140.7728  143.5322  150.9410 LP  0  0  0  0  0  0  0  0  0  0  0  0  # atno 17343 bound_to 10162
  157.7432  131.0478  150.4963 LP  0  0  0  0  0  0  0  0  0  0  0  0  # atno 17370 bound_to 10713
  156.5130  130.4144  149.6291 LP  0  0  0  0  0  0  0  0  0  0  0  0  # atno 17371 bound_to 10713
  140.2513  134.8538  157.3670 LP  0  0  0  0  0  0  0  0  0  0  0  0  # atno 17394 bound_to 11000
  140.1700  134.4621  155.7838 LP  0  0  0  0  0  0  0  0  0  0  0  0  # atno 17395 bound_to 11000

$$$$
