#       Name:                AV-unprocessed.smi:3202
#       Creating user name   scv26
#       Creation time:       Fri Mar 27 18:08:06 2020


#       File generated by GOLD software.
#

@<TRIPOS>MOLECULE
AV-unprocessed.smi:3202
    44    45     1
SMALL
NO_CHARGES


@<TRIPOS>ATOM
      1 ****        -6.2212  -0.5515  -0.1321 C.3            1 S1                 0.0000
      2 ****        -4.8366  -0.9468  -0.5535 C.2            1 S1                 0.0000
      3 ****        -3.5925  -0.4325  -0.0847 C.2            1 S1                 0.0000
      4 ****        -2.6489  -1.1339  -0.7841 C.2            1 S1                 0.0000
      5 ****        -1.1533  -1.0725  -0.7860 C.3            1 S1                 0.0000
      6 ****        -0.5179  -0.6928   0.5699 C.3            1 S1                 0.0000
      7 ****        -0.8376  -1.7284   1.6605 C.3            1 S1                 0.0000
      8 ****         0.9533  -0.5708   0.4445 N.4            1 S1                 1.0000
      9 ****         1.4819   0.8038   0.2725 C.3            1 S1                 0.0000
     10 ****         1.1956   1.4160  -1.1044 C.3            1 S1                 0.0000
     11 ****         2.2798   2.4815  -1.3081 C.3            1 S1                 0.0000
     12 ****         3.3026   2.2799  -0.1793 C.3            1 S1                 0.0000
     13 ****         3.0143   0.8972   0.4346 C.3            1 S1                 0.0000
     14 ****         3.4369   0.8466   1.9150 C.3            1 S1                 0.0000
     15 ****         3.7714  -0.1952  -0.3561 C.3            1 S1                 0.0000
     16 ****        -3.3449  -1.9854  -1.6116 N.pl3          1 S1                 0.0000
     17 ****        -4.6798  -1.8852  -1.4746 N.2            1 S1                 0.0000
     18 ****        -2.9289  -2.6354  -2.2635 H              1 S1                 0.0000
     19 ****        -6.1995   0.3175   0.5259 H              1 S1                 0.0000
     20 ****        -6.7139  -1.3621   0.4052 H              1 S1                 0.0000
     21 ****        -6.8388  -0.2974  -0.9941 H              1 S1                 0.0000
     22 ****        -3.4231   0.3363   0.6547 H              1 S1                 0.0000
     23 ****        -0.8523  -0.3575  -1.5502 H              1 S1                 0.0000
     24 ****        -0.7541  -2.0344  -1.1113 H              1 S1                 0.0000
     25 ****        -0.9220   0.2658   0.8985 H              1 S1                 0.0000
     26 ****        -1.9097  -1.8070   1.8407 H              1 S1                 0.0000
     27 ****        -0.3717  -1.4548   2.6079 H              1 S1                 0.0000
     28 ****        -0.4745  -2.7196   1.3863 H              1 S1                 0.0000
     29 ****         1.3467  -0.9174   1.3078 H              1 S1                 0.0000
     30 ****         1.0263   1.4444   1.0303 H              1 S1                 0.0000
     31 ****         1.2847   0.6598  -1.8855 H              1 S1                 0.0000
     32 ****         0.1911   1.8364  -1.1660 H              1 S1                 0.0000
     33 ****         2.7490   2.3599  -2.2851 H              1 S1                 0.0000
     34 ****         1.8608   3.4876  -1.2718 H              1 S1                 0.0000
     35 ****         4.3301   2.3810  -0.5310 H              1 S1                 0.0000
     36 ****         3.1497   3.0586   0.5697 H              1 S1                 0.0000
     37 ****         4.5103   1.0059   2.0235 H              1 S1                 0.0000
     38 ****         3.2008  -0.1198   2.3616 H              1 S1                 0.0000
     39 ****         2.9322   1.6123   2.5050 H              1 S1                 0.0000
     40 ****         4.8497  -0.0426  -0.2970 H              1 S1                 0.0000
     41 ****         3.5051  -0.1977  -1.4132 H              1 S1                 0.0000
     42 ****         3.5690  -1.1917   0.0369 H              1 S1                 0.0000
     43 ****         1.2800  -1.1599  -0.3080 H              1 S1                 0.0000
     44 ****        -5.3889  -2.3999  -1.9565 LP             1 S1                 0.0000
@<TRIPOS>BOND
    1    1   19 1     
    2    1   20 1     
    3    1   21 1     
    4    1    2 1     
    5    2   17 2     
    6    2    3 1     
    7    3    4 2     
    8    3   22 1     
    9    4   16 1     
   10    4    5 1     
   11    5    6 1     
   12    5   23 1     
   13    5   24 1     
   14    6    7 1     
   15    6    8 1     
   16    6   25 1     
   17    7   26 1     
   18    7   27 1     
   19    7   28 1     
   20    8    9 1     
   21    8   29 1     
   22    8   43 1     
   23    9   13 1     
   24    9   10 1     
   25    9   30 1     
   26   10   11 1     
   27   10   31 1     
   28   10   32 1     
   29   11   12 1     
   30   11   33 1     
   31   11   34 1     
   32   12   13 1     
   33   12   35 1     
   34   12   36 1     
   35   13   14 1     
   36   13   15 1     
   37   14   37 1     
   38   14   38 1     
   39   14   39 1     
   40   15   40 1     
   41   15   41 1     
   42   15   42 1     
   43   16   17 1     
   44   16   18 1     
   45   17   44 1     
@<TRIPOS>SUBSTRUCTURE
      1 S1             1
@<TRIPOS>SET
LONE_PAIRS      STATIC     ATOMS    <user>   **** ""
1 44
DONOR_HYDROGENS      STATIC     ATOMS    <user>   **** ""
3 29 43 18
ATOM$BLUE        STATIC     ATOMS    COLORGROUP SYSTEM
1 44
ATOM$RED        STATIC     ATOMS    COLORGROUP SYSTEM
3 29 43 18
