#       Name:                AV-unprocessed.smi:2318
#       Creating user name   scv26
#       Creation time:       Fri Mar 27 12:49:54 2020


#       File generated by GOLD software.
#

@<TRIPOS>MOLECULE
AV-unprocessed.smi:2318
    40    41     1
SMALL
NO_CHARGES


@<TRIPOS>ATOM
      1 ****        -4.3506   4.2715   0.7506 C.3            1 S1                 0.0000
      2 ****        -4.0939   2.8475   0.7445 N.pl3          1 S1                 0.0000
      3 ****        -5.0027   1.8087   0.7264 C.2            1 S1                 0.0000
      4 ****        -4.2912   0.6425   0.7277 C.2            1 S1                 0.0000
      5 ****        -2.9394   1.0838   0.7482 C.2            1 S1                 0.0000
      6 ****        -1.8740   0.1474   0.7573 N.am           1 S1                 0.0000
      7 ****        -0.5550   0.4041   0.7870 C.2            1 S1                 0.0000
      8 ****        -0.0522   1.5277   0.8072 O.2            1 S1                 0.0000
      9 ****         0.1577  -0.7318   0.7891 N.am           1 S1                 0.0000
     10 ****         1.6182  -0.8336   0.8276 C.3            1 S1                 0.0000
     11 ****         2.1167  -1.5061  -0.4770 C.3            1 S1                 0.0000
     12 ****         3.6392  -1.5791  -0.6351 C.3            1 S1                 0.0000
     13 ****         3.8672  -1.8420  -2.1256 C.3            1 S1                 0.0000
     14 ****         2.6573  -1.2402  -2.8525 C.3            1 S1                 0.0000
     15 ****         1.6825  -0.7824  -1.7605 C.3            1 S1                 0.0000
     16 ****         2.0318  -1.5775   2.1181 C.3            1 S1                 0.0000
     17 ****         1.5046  -0.9673   3.1804 F              1 S1                 0.0000
     18 ****         1.5987  -2.8386   2.0922 F              1 S1                 0.0000
     19 ****         3.3557  -1.5777   2.2678 F              1 S1                 0.0000
     20 ****        -2.8191   2.4044   0.7574 N.2            1 S1                 0.0000
     21 ****        -5.4247   4.4586   0.7537 H              1 S1                 0.0000
     22 ****        -3.9132   4.7291  -0.1372 H              1 S1                 0.0000
     23 ****        -3.9099   4.7222   1.6404 H              1 S1                 0.0000
     24 ****        -6.0687   1.9836   0.7144 H              1 S1                 0.0000
     25 ****        -4.6783  -0.3656   0.7168 H              1 S1                 0.0000
     26 ****        -2.1464  -0.8242   0.7422 H              1 S1                 0.0000
     27 ****        -0.3494  -1.6045   0.7733 H              1 S1                 0.0000
     28 ****         2.0542   0.1659   0.8752 H              1 S1                 0.0000
     29 ****         1.7266  -2.5244  -0.5208 H              1 S1                 0.0000
     30 ****         4.0889  -0.6241  -0.3591 H              1 S1                 0.0000
     31 ****         4.0922  -2.3536  -0.0161 H              1 S1                 0.0000
     32 ****         4.8107  -1.4199  -2.4727 H              1 S1                 0.0000
     33 ****         3.9040  -2.9169  -2.3080 H              1 S1                 0.0000
     34 ****         2.9469  -0.4039  -3.4899 H              1 S1                 0.0000
     35 ****         2.1938  -1.9917  -3.4928 H              1 S1                 0.0000
     36 ****         0.6446  -0.9876  -2.0249 H              1 S1                 0.0000
     37 ****         1.7766   0.2965  -1.6254 H              1 S1                 0.0000
     38 ****        -0.6383   2.3379   0.8020 LP             1 S1                 0.0000
     39 ****         0.9423   1.6301   0.8288 LP             1 S1                 0.0000
     40 ****        -1.9787   2.9463   0.7708 LP             1 S1                 0.0000
@<TRIPOS>BOND
    1    1    2 1     
    2    1   21 1     
    3    1   22 1     
    4    1   23 1     
    5    2   20 1     
    6    2    3 1     
    7    3    4 2     
    8    3   24 1     
    9    4    5 1     
   10    4   25 1     
   11    5    6 1     
   12    5   20 2     
   13    6    7 am    
   14    6   26 1     
   15    7    8 2     
   16    7    9 am    
   17    9   10 1     
   18    9   27 1     
   19   10   11 1     
   20   10   16 1     
   21   10   28 1     
   22   11   15 1     
   23   11   12 1     
   24   11   29 1     
   25   12   13 1     
   26   12   30 1     
   27   12   31 1     
   28   13   14 1     
   29   13   32 1     
   30   13   33 1     
   31   14   15 1     
   32   14   34 1     
   33   14   35 1     
   34   15   36 1     
   35   15   37 1     
   36   16   17 1     
   37   16   18 1     
   38   16   19 1     
   39    8   38 1     
   40    8   39 1     
   41   20   40 1     
@<TRIPOS>SUBSTRUCTURE
      1 S1             1
@<TRIPOS>SET
LONE_PAIRS      STATIC     ATOMS    <user>   **** ""
3 38 39 40
DONOR_HYDROGENS      STATIC     ATOMS    <user>   **** ""
2 26 27
ATOM$BLUE        STATIC     ATOMS    COLORGROUP SYSTEM
3 38 39 40
ATOM$RED        STATIC     ATOMS    COLORGROUP SYSTEM
2 26 27
