AV-unprocessed.smi:2597|AV-procd|sdf|10173|dock4
  -GOLD-   2272014183D 1   1.00000     0.00000
 Structure written by MMmdl.
 31 32  0  0  0  0  0  0  0  0  2 V2000
  150.2106  142.8824  156.8673 N   0  3  0  0  0  0  0  0  0  0  0  0
  151.3897  143.1445  157.7143 C   0  0  2  0  0  0  0  0  0  0  0  0
  151.8487  141.8613  158.4366 C   0  0  0  0  0  0  0  0  0  0  0  0
  153.0813  142.1268  159.3155 C   0  0  0  0  0  0  0  0  0  0  0  0
  152.8276  143.2597  160.3221 C   0  0  0  0  0  0  0  0  0  0  0  0
  152.3644  144.5479  159.6161 C   0  0  0  0  0  0  0  0  0  0  0  0
  151.1530  144.3400  158.6772 C   0  0  2  0  0  0  0  0  0  0  0  0
  149.8808  144.2829  159.3993 N   0  0  0  0  0  0  0  0  0  0  0  0
  149.3858  145.2085  160.2966 C   0  0  0  0  0  0  0  0  0  0  0  0
  148.1727  144.6958  160.6585 C   0  0  0  0  0  0  0  0  0  0  0  0
  147.1499  145.2506  161.6021 C   0  0  0  0  0  0  0  0  0  0  0  0
  146.8014  146.5288  161.1154 O   0  0  0  0  0  0  0  0  0  0  0  0
  147.9806  143.4929  159.9835 N   0  0  0  0  0  0  0  0  0  0  0  0
  149.0110  143.2547  159.2367 N   0  0  0  0  0  0  0  0  0  0  0  0
  152.1910  143.4316  157.0319 H   0  0  0  0  0  0  0  0  0  0  0  0
  151.0915  145.2345  158.0550 H   0  0  0  0  0  0  0  0  0  0  0  0
  149.9015  143.7467  156.4454 H   0  0  0  0  0  0  0  0  0  0  0  0
  149.4663  142.4991  157.4323 H   0  0  0  0  0  0  0  0  0  0  0  0
  151.0448  141.4482  159.0451 H   0  0  0  0  0  0  0  0  0  0  0  0
  152.0914  141.0920  157.7027 H   0  0  0  0  0  0  0  0  0  0  0  0
  153.3627  141.2164  159.8455 H   0  0  0  0  0  0  0  0  0  0  0  0
  153.9298  142.3884  158.6820 H   0  0  0  0  0  0  0  0  0  0  0  0
  152.0913  142.9417  161.0592 H   0  0  0  0  0  0  0  0  0  0  0  0
  153.7406  143.4605  160.8835 H   0  0  0  0  0  0  0  0  0  0  0  0
  152.1419  145.3193  160.3546 H   0  0  0  0  0  0  0  0  0  0  0  0
  153.1977  144.9325  159.0263 H   0  0  0  0  0  0  0  0  0  0  0  0
  149.9074  146.1100  160.5832 H   0  0  0  0  0  0  0  0  0  0  0  0
  146.2601  144.6220  161.6499 H   0  0  0  0  0  0  0  0  0  0  0  0
  147.5506  145.3390  162.6119 H   0  0  0  0  0  0  0  0  0  0  0  0
  147.5458  147.1016  161.2192 H   0  0  0  0  0  0  0  0  0  0  0  0
  150.4555  142.2243  156.1413 H   0  0  0  0  0  0  0  0  0  0  0  0
  1  2  1  0  0  0  0
  1 17  1  0  0  0  0
  1 18  1  0  0  0  0
  1 31  1  0  0  0  0
  2 15  1  0  0  0  0
  2  7  1  0  0  0  0
  2  3  1  0  0  0  0
  3  4  1  0  0  0  0
  3 19  1  0  0  0  0
  3 20  1  0  0  0  0
  4  5  1  0  0  0  0
  4 21  1  0  0  0  0
  4 22  1  0  0  0  0
  5  6  1  0  0  0  0
  5 23  1  0  0  0  0
  5 24  1  0  0  0  0
  6  7  1  0  0  0  0
  6 25  1  0  0  0  0
  6 26  1  0  0  0  0
  7 16  1  0  0  0  0
  7  8  1  0  0  0  0
  8 14  1  0  0  0  0
  8  9  1  0  0  0  0
  9 10  2  0  0  0  0
  9 27  1  0  0  0  0
 10 11  1  0  0  0  0
 10 13  1  0  0  0  0
 11 12  1  0  0  0  0
 11 28  1  0  0  0  0
 11 29  1  0  0  0  0
 12 30  1  0  0  0  0
 13 14  2  0  0  0  0
M  CHG  1   1   1
M  END
> <s_m_source_file>
AV-unprocessed.smi

> <i_m_source_file_index>
2597

> <i_lp_mmshare_version>
43012

> <i_f3d_flags>
0

> <s_epik_input>
W05IMl1bQ0BIXTFbQ0gyXVtDSDJdW0NIMl1bQ0gyXVtDQEhdMW4yW2NIXWMobm4yKVtDSDJdW09IXQ==

> <s_epik_cmdline>
J2VwaWtfcHl0aG9uJywgJy1waCcsICc3LjAnLCAnLXRuJywgJzgnLCAnLW1hJywgJzIwMCcsICctbWV0YWxfYmluZGluZycsICctaW1hZScsICc8aW5maWxlLm1hZT4nLCAnLW9tYWUnLCAnPG91dGZpbGUubWFlPic=

> <r_lp_tautomer_probability>
1

> <r_epik_Ionization_Penalty>
0.014346

> <r_epik_Ionization_Penalty_Charging>
0.014316

> <r_epik_Ionization_Penalty_Neutral>
3.00097e-05

> <r_epik_State_Penalty>
0.0111909

> <r_epik_Charging_Adjusted_Penalty>
0.0255069

> <i_epik_Tot_Q>
1

> <i_epik_Tot_abs_Q>
1

> <r_epik_Metal_State_Penalty>
0.011192

> <b_epik_Metal_Only>
0

> <s_lp_Force_Field>
OPLS_2005

> <r_lp_Energy>
16.1833

> <b_lp_Chiralities_Consistent>
1

> <s_lp_Variant>
AV-unprocessed.smi:2597-4

> <Gold.Version>
5.8.1

> <Gold.Id.Protein>
6NUR|6NUR_protein|mol2

> <Gold.PLP.Fitness>
42.6440

> <Gold.PLP.PLP>
-34.6945

> <Gold.PLP.part.hbond>
-4.6636

> <Gold.PLP.part.metal>
0.0000

> <Gold.PLP.part.buried>
-4.8318

> <Gold.PLP.part.nonpolar>
-25.7954

> <Gold.PLP.part.repulsive>
0.2660

> <Gold.PLP.ligand.clash>
0.0000

> <Gold.PLP.ligand.torsion>
0.0532

> <Gold.PLP.Chemscore.Hbond>
2.6637

> <Gold.PLP.Chemscore.CHOScore>
0.0000

> <Gold.PLP.Chemscore.Metal>
0.0000

> <Gold.Chemscore.Hbonds>
donor molecule, donor type, donor heavy atom, donor atom, acceptor molecule, acceptor atom, score
      L1  H     1    17       P1  8028  2.00
      P1  H  6933  6944       L1    13  0.61

> <Gold.PLP.Chemscore.Internal.Correction>
0.0649

> <Gold.Rescore>
     Score         DG    S(hbond)    S(metal)    S(lipo)     H(rot)  DE(clash)    DE(int)     intcor
     12.93     -14.51       1.06        0.00      87.39       1.86       0.04       1.54       ----

> <Gold.Chemscore.Fitness>
12.9310

> <Gold.Chemscore.DG>
-14.5066

> <Gold.Chemscore.ZeroCoef>
-5.4800

> <Gold.Chemscore.Hbond>
1.0633

> <Gold.Chemscore.Metal>
0.0000

> <Gold.Chemscore.Lipo>
87.3861

> <Gold.Chemscore.Internal_Hbond>
0.0000

> <Gold.Chemscore.DEClash>
0.0369

> <Gold.Chemscore.DEInternal>
1.5387

> <Gold.Chemscore.Rot>
1.8551

> <Gold.Chemscore.Internal.Correction>
   9.000000E+99

> <Gold.Chemscore.Hbonds>
donor molecule, donor type, donor heavy atom, donor atom, acceptor molecule, acceptor atom, score
      L1  H     1    17       P1  8028  0.98
      P1  H  6933  6944       L1    13  0.01

> <Gold.Chemscore.Hbond.Weighted>
-3.5513

> <Gold.Chemscore.Metal.Weighted>
-0.0000

> <Gold.Chemscore.Lipo.Weighted>
-10.2242

> <Gold.Chemscore.Internal_Hbond.Weighted>
0.0000

> <Gold.Chemscore.DEClash.Weighted>
0.0369

> <Gold.Chemscore.DEInternal.Weighted>
1.5387

> <Gold.Chemscore.Rot.Weighted>
4.7489

> <Gold.Chemscore.Internal.Correction.Weighted>
   9.000000E+99

> <Gold.Protein.RotatedTorsions>
[ 6907 6896 6895 6894 ] final  163.39 input  -60.11 | X-H torsion
[ 7974 7965 7964 7962 ] final -151.10 input  175.53 | X-H torsion
[ 8008 7997 7996 7995 ] final   87.96 input   59.86 | X-H torsion
[ 10167 10162 10161 10158 ] final  -36.17 input  -65.29 | X-H torsion
[ 10718 10713 10712 10709 ] final   76.05 input   66.30 | X-H torsion
[ 10763 10752 10751 10750 ] final -133.95 input  -60.55 | X-H torsion
[ 11005 11000 10999 10996 ] final -150.49 input  -57.11 | X-H torsion

> <Gold.Protein.ActiveResidues>
 VAL166  LYS551  ARG553  GLY616  TRP617  ASP618  TYR619  PRO620  LYS621  CYS622 
 ASP623  PHE694  ASN695  SER759  ASP760  ASP761  ALA762  ILE779  LEU786  VAL792 
 PHE793  MET794  SER795  GLU796  ALA797  LYS798  CYS799  TRP800  GLU811  SER814 

> <Gold.Protein.RotatedAtoms>
  151.9259  133.3598  159.3913 H   0  0  0  0  0  0  0  0  0  0  0  0  # atno 6907 bound_to 6896
  150.7027  134.4588  159.5380 H   0  0  0  0  0  0  0  0  0  0  0  0  # atno 6908 bound_to 6896
  152.2219  134.8404  160.0535 H   0  0  0  0  0  0  0  0  0  0  0  0  # atno 6909 bound_to 6896
  144.7869  140.4842  143.5800 H   0  0  0  0  0  0  0  0  0  0  0  0  # atno 7974 bound_to 7965
  155.9818  140.3376  155.6670 H   0  0  0  0  0  0  0  0  0  0  0  0  # atno 8008 bound_to 7997
  155.6538  140.0708  157.2596 H   0  0  0  0  0  0  0  0  0  0  0  0  # atno 8009 bound_to 7997
  154.4194  140.1721  156.1690 H   0  0  0  0  0  0  0  0  0  0  0  0  # atno 8010 bound_to 7997
  140.7149  143.3427  151.2323 H   0  0  0  0  0  0  0  0  0  0  0  0  # atno 10167 bound_to 10162
  157.6658  130.9755  150.1441 H   0  0  0  0  0  0  0  0  0  0  0  0  # atno 10718 bound_to 10713
  154.8726  135.3750  154.4656 H   0  0  0  0  0  0  0  0  0  0  0  0  # atno 10763 bound_to 10752
  153.5320  135.7027  153.5683 H   0  0  0  0  0  0  0  0  0  0  0  0  # atno 10764 bound_to 10752
  153.3884  135.3978  155.1871 H   0  0  0  0  0  0  0  0  0  0  0  0  # atno 10765 bound_to 10752
  140.7397  134.3528  157.5150 H   0  0  0  0  0  0  0  0  0  0  0  0  # atno 11005 bound_to 11000
  145.5898  139.1495  143.3189 LP  0  0  0  0  0  0  0  0  0  0  0  0  # atno 17320 bound_to 7965
  146.2104  140.6024  142.9062 LP  0  0  0  0  0  0  0  0  0  0  0  0  # atno 17321 bound_to 7965
  139.6939  143.9646  152.2873 LP  0  0  0  0  0  0  0  0  0  0  0  0  # atno 17342 bound_to 10162
  139.9317  144.6737  150.8356 LP  0  0  0  0  0  0  0  0  0  0  0  0  # atno 17343 bound_to 10162
  156.2256  130.3677  149.8504 LP  0  0  0  0  0  0  0  0  0  0  0  0  # atno 17370 bound_to 10713
  156.6345  130.8679  151.3502 LP  0  0  0  0  0  0  0  0  0  0  0  0  # atno 17371 bound_to 10713
  139.8809  134.9072  156.2940 LP  0  0  0  0  0  0  0  0  0  0  0  0  # atno 17394 bound_to 11000
  140.9848  133.7245  156.0725 LP  0  0  0  0  0  0  0  0  0  0  0  0  # atno 17395 bound_to 11000

$$$$
