AV-unprocessed.smi:2510|AV-procd|sdf|9885|dock2
  -GOLD-   2272013523D 1   1.00000     0.00000
 Structure written by MMmdl.
 48 49  0  0  0  0  0  0  0  0  1 V2000
  146.2981  138.8179  153.2943 C   0  0  0  0  0  0  0  0  0  0  0  0
  146.6505  139.2989  154.7120 C   0  0  0  0  0  0  0  0  0  0  0  0
  148.1597  139.2861  155.0563 C   0  0  0  0  0  0  0  0  0  0  0  0
  148.8789  140.3228  154.1523 C   0  0  0  0  0  0  0  0  0  0  0  0
  148.4112  141.7767  154.3237 C   0  0  0  0  0  0  0  0  0  0  0  0
  148.4519  139.3188  156.5879 C   0  0  2  0  0  0  0  0  0  0  0  0
  149.7413  139.9201  156.9255 N   0  0  0  0  0  0  0  0  0  0  0  0
  149.9027  141.0882  157.5640 C   0  0  0  0  0  0  0  0  0  0  0  0
  148.9747  141.7320  158.0526 O   0  0  0  0  0  0  0  0  0  0  0  0
  151.3305  141.6310  157.6215 C   0  0  0  0  0  0  0  0  0  0  0  0
  151.3414  142.9795  158.2684 C   0  0  0  0  0  0  0  0  0  0  0  0
  152.0098  143.4497  159.3644 C   0  0  0  0  0  0  0  0  0  0  0  0
  151.6473  144.8266  159.4342 C   0  0  0  0  0  0  0  0  0  0  0  0
  152.1042  145.8559  160.4252 C   0  0  0  0  0  0  0  0  0  0  0  0
  150.8097  145.1790  158.4704 N   0  0  0  0  0  0  0  0  0  0  0  0
  150.6279  144.0453  157.7686 N   0  0  0  0  0  0  0  0  0  0  0  0
  148.5190  137.7819  156.5889 C   0  0  2  0  0  0  0  0  0  0  0  0
  149.4698  137.0299  157.5185 C   0  0  0  0  0  0  0  0  0  0  0  0
  148.7809  137.8624  155.0737 C   0  0  2  0  0  0  0  0  0  0  0  0
  150.1708  137.8826  154.7642 O   0  0  0  0  0  0  0  0  0  0  0  0
  150.7787  136.6051  154.8448 C   0  0  0  0  0  0  0  0  0  0  0  0
  150.0330  144.0170  156.9525 H   0  0  0  0  0  0  0  0  0  0  0  0
  145.2408  138.9838  153.0873 H   0  0  0  0  0  0  0  0  0  0  0  0
  146.4831  137.7515  153.1692 H   0  0  0  0  0  0  0  0  0  0  0  0
  146.8691  139.3505  152.5336 H   0  0  0  0  0  0  0  0  0  0  0  0
  146.2589  140.3112  154.8121 H   0  0  0  0  0  0  0  0  0  0  0  0
  146.0814  138.7211  155.4396 H   0  0  0  0  0  0  0  0  0  0  0  0
  149.9595  140.2692  154.2804 H   0  0  0  0  0  0  0  0  0  0  0  0
  148.7238  140.0806  153.1022 H   0  0  0  0  0  0  0  0  0  0  0  0
  148.8646  142.4125  153.5632 H   0  0  0  0  0  0  0  0  0  0  0  0
  148.6938  142.1855  155.2933 H   0  0  0  0  0  0  0  0  0  0  0  0
  147.3293  141.8617  154.2199 H   0  0  0  0  0  0  0  0  0  0  0  0
  147.6235  139.6911  157.1926 H   0  0  0  0  0  0  0  0  0  0  0  0
  150.5633  139.4637  156.5569 H   0  0  0  0  0  0  0  0  0  0  0  0
  151.9670  140.9395  158.1752 H   0  0  0  0  0  0  0  0  0  0  0  0
  151.7355  141.6932  156.6109 H   0  0  0  0  0  0  0  0  0  0  0  0
  152.6781  142.8972  160.0082 H   0  0  0  0  0  0  0  0  0  0  0  0
  152.6225  145.3918  161.2642 H   0  0  0  0  0  0  0  0  0  0  0  0
  151.2617  146.4196  160.8269 H   0  0  0  0  0  0  0  0  0  0  0  0
  152.7910  146.5647  159.9621 H   0  0  0  0  0  0  0  0  0  0  0  0
  147.5067  137.4029  156.7379 H   0  0  0  0  0  0  0  0  0  0  0  0
  150.5102  137.3130  157.3577 H   0  0  0  0  0  0  0  0  0  0  0  0
  149.3967  135.9531  157.3667 H   0  0  0  0  0  0  0  0  0  0  0  0
  149.2341  137.2292  158.5637 H   0  0  0  0  0  0  0  0  0  0  0  0
  148.2138  137.1441  154.4783 H   0  0  0  0  0  0  0  0  0  0  0  0
  151.8462  136.6961  154.6457 H   0  0  0  0  0  0  0  0  0  0  0  0
  150.3554  135.9255  154.1041 H   0  0  0  0  0  0  0  0  0  0  0  0
  150.6564  136.1622  155.8332 H   0  0  0  0  0  0  0  0  0  0  0  0
  1  2  1  0  0  0  0
  1 23  1  0  0  0  0
  1 24  1  0  0  0  0
  1 25  1  0  0  0  0
  2  3  1  0  0  0  0
  2 26  1  0  0  0  0
  2 27  1  0  0  0  0
  3 19  1  0  0  0  0
  3  4  1  0  0  0  0
  3  6  1  0  0  0  0
  4  5  1  0  0  0  0
  4 28  1  0  0  0  0
  4 29  1  0  0  0  0
  5 30  1  0  0  0  0
  5 31  1  0  0  0  0
  5 32  1  0  0  0  0
  6  7  1  0  0  0  0
  6 17  1  0  0  0  0
  6 33  1  0  0  0  0
  7  8  1  0  0  0  0
  7 34  1  0  0  0  0
  8  9  2  0  0  0  0
  8 10  1  0  0  0  0
 10 35  1  0  0  0  0
 10 36  1  0  0  0  0
 10 11  1  0  0  0  0
 11 16  1  0  0  0  0
 11 12  2  0  0  0  0
 12 13  1  0  0  0  0
 12 37  1  0  0  0  0
 13 14  1  0  0  0  0
 13 15  2  0  0  0  0
 14 38  1  0  0  0  0
 14 39  1  0  0  0  0
 14 40  1  0  0  0  0
 15 16  1  0  0  0  0
 16 22  1  0  0  0  0
 17 18  1  0  0  0  0
 17 19  1  0  0  0  0
 17 41  1  0  0  0  0
 18 42  1  0  0  0  0
 18 43  1  0  0  0  0
 18 44  1  0  0  0  0
 19 20  1  0  0  0  0
 19 45  1  0  0  0  0
 20 21  1  0  0  0  0
 21 46  1  0  0  0  0
 21 47  1  0  0  0  0
 21 48  1  0  0  0  0
M  END
> <s_m_source_file>
AV-unprocessed.smi

> <i_m_source_file_index>
2510

> <i_lp_mmshare_version>
43012

> <i_f3d_flags>
0

> <s_epik_input>
W0NIM11PW0NAQEhdMVtDQEhdKFtDSDNdKVtDQEBIXShDMShbQ0gyXVtDSDNdKVtDSDJdW0NIM10pW05IXUMoPU8pW0NIMl1jMltjSF1jKFtDSDNdKVtuSF1uMg==

> <s_epik_cmdline>
J2VwaWtfcHl0aG9uJywgJy1waCcsICc3LjAnLCAnLXRuJywgJzgnLCAnLW1hJywgJzIwMCcsICctbWV0YWxfYmluZGluZycsICctaW1hZScsICc8aW5maWxlLm1hZT4nLCAnLW9tYWUnLCAnPG91dGZpbGUubWFlPic=

> <r_lp_tautomer_probability>
0.5

> <r_epik_Ionization_Penalty>
0.000134763

> <r_epik_Ionization_Penalty_Charging>
0

> <r_epik_Ionization_Penalty_Neutral>
0.000134763

> <r_epik_State_Penalty>
0.41068

> <r_epik_Charging_Adjusted_Penalty>
0.41068

> <i_epik_Tot_Q>
0

> <i_epik_Tot_abs_Q>
0

> <r_epik_Metal_State_Penalty>
0.410661

> <b_epik_Metal_Only>
0

> <s_lp_Force_Field>
OPLS_2005

> <r_lp_Energy>
25.7229

> <b_lp_Chiralities_Consistent>
1

> <s_lp_Variant>
AV-unprocessed.smi:2510-16

> <Gold.Version>
5.8.1

> <Gold.Id.Protein>
6NUR|6NUR_protein|mol2

> <Gold.PLP.Fitness>
30.7829

> <Gold.PLP.PLP>
-28.0415

> <Gold.PLP.part.hbond>
-1.1428

> <Gold.PLP.part.metal>
0.0000

> <Gold.PLP.part.buried>
-3.2991

> <Gold.PLP.part.nonpolar>
-24.9092

> <Gold.PLP.part.repulsive>
0.5245

> <Gold.PLP.ligand.clash>
0.0000

> <Gold.PLP.ligand.torsion>
0.4632

> <Gold.PLP.Chemscore.Hbond>
1.0000

> <Gold.PLP.Chemscore.CHOScore>
0.0000

> <Gold.PLP.Chemscore.Metal>
0.0000

> <Gold.Chemscore.Hbonds>
donor molecule, donor type, donor heavy atom, donor atom, acceptor molecule, acceptor atom, score
      L1  H    16    22       P1  8028  1.00

> <Gold.PLP.Chemscore.Internal.Correction>
0.6678

> <Gold.Rescore>
     Score         DG    S(hbond)    S(metal)    S(lipo)     H(rot)  DE(clash)    DE(int)     intcor
     13.94     -14.82       0.94        0.00      92.65       1.81       0.37       0.51       ----

> <Gold.Chemscore.Fitness>
13.9419

> <Gold.Chemscore.DG>
-14.8222

> <Gold.Chemscore.ZeroCoef>
-5.4800

> <Gold.Chemscore.Hbond>
0.9389

> <Gold.Chemscore.Metal>
0.0000

> <Gold.Chemscore.Lipo>
92.6530

> <Gold.Chemscore.Internal_Hbond>
0.0000

> <Gold.Chemscore.DEClash>
0.3714

> <Gold.Chemscore.DEInternal>
0.5089

> <Gold.Chemscore.Rot>
1.8102

> <Gold.Chemscore.Internal.Correction>
   9.000000E+99

> <Gold.Chemscore.Hbonds>
donor molecule, donor type, donor heavy atom, donor atom, acceptor molecule, acceptor atom, score
      L1  H    16    22       P1  8028  0.92

> <Gold.Chemscore.Hbond.Weighted>
-3.1359

> <Gold.Chemscore.Metal.Weighted>
-0.0000

> <Gold.Chemscore.Lipo.Weighted>
-10.8404

> <Gold.Chemscore.Internal_Hbond.Weighted>
0.0000

> <Gold.Chemscore.DEClash.Weighted>
0.3714

> <Gold.Chemscore.DEInternal.Weighted>
0.5089

> <Gold.Chemscore.Rot.Weighted>
4.6341

> <Gold.Chemscore.Internal.Correction.Weighted>
   9.000000E+99

> <Gold.Protein.RotatedTorsions>
[ 6907 6896 6895 6894 ] final  121.54 input  -60.11 | X-H torsion
[ 7974 7965 7964 7962 ] final  172.22 input  175.53 | X-H torsion
[ 8008 7997 7996 7995 ] final  -87.50 input   59.86 | X-H torsion
[ 10167 10162 10161 10158 ] final   21.76 input  -65.29 | X-H torsion
[ 10718 10713 10712 10709 ] final -170.11 input   66.30 | X-H torsion
[ 10763 10752 10751 10750 ] final -124.04 input  -60.55 | X-H torsion
[ 11005 11000 10999 10996 ] final -107.40 input  -57.11 | X-H torsion

> <Gold.Protein.ActiveResidues>
 VAL166  LYS551  ARG553  GLY616  TRP617  ASP618  TYR619  PRO620  LYS621  CYS622 
 ASP623  PHE694  ASN695  SER759  ASP760  ASP761  ALA762  ILE779  LEU786  VAL792 
 PHE793  MET794  SER795  GLU796  ALA797  LYS798  CYS799  TRP800  GLU811  SER814 

> <Gold.Protein.RotatedAtoms>
  152.4314  133.7284  159.6573 H   0  0  0  0  0  0  0  0  0  0  0  0  # atno 6907 bound_to 6896
  150.8193  133.8270  159.3152 H   0  0  0  0  0  0  0  0  0  0  0  0  # atno 6908 bound_to 6896
  151.5957  135.1053  160.0100 H   0  0  0  0  0  0  0  0  0  0  0  0  # atno 6909 bound_to 6896
  144.7274  139.9466  143.6430 H   0  0  0  0  0  0  0  0  0  0  0  0  # atno 7974 bound_to 7965
  154.6640  140.0565  157.0093 H   0  0  0  0  0  0  0  0  0  0  0  0  # atno 8008 bound_to 7997
  155.1187  140.3245  155.4484 H   0  0  0  0  0  0  0  0  0  0  0  0  # atno 8009 bound_to 7997
  156.2630  140.2001  156.6310 H   0  0  0  0  0  0  0  0  0  0  0  0  # atno 8010 bound_to 7997
  140.5401  143.9692  150.6514 H   0  0  0  0  0  0  0  0  0  0  0  0  # atno 10167 bound_to 10162
  156.7213  130.9271  151.3097 H   0  0  0  0  0  0  0  0  0  0  0  0  # atno 10718 bound_to 10713
  154.8717  135.4077  154.3040 H   0  0  0  0  0  0  0  0  0  0  0  0  # atno 10763 bound_to 10752
  153.3895  135.7014  153.6511 H   0  0  0  0  0  0  0  0  0  0  0  0  # atno 10764 bound_to 10752
  153.5299  135.3669  155.2642 H   0  0  0  0  0  0  0  0  0  0  0  0  # atno 10765 bound_to 10752
  141.0956  133.8978  157.1972 H   0  0  0  0  0  0  0  0  0  0  0  0  # atno 11005 bound_to 11000
  146.0744  139.3732  143.0503 LP  0  0  0  0  0  0  0  0  0  0  0  0  # atno 17320 bound_to 7965
  145.7925  140.9808  143.1041 LP  0  0  0  0  0  0  0  0  0  0  0  0  # atno 17321 bound_to 7965
  140.3090  143.3210  152.0898 LP  0  0  0  0  0  0  0  0  0  0  0  0  # atno 17342 bound_to 10162
  139.4985  144.6648  151.6381 LP  0  0  0  0  0  0  0  0  0  0  0  0  # atno 17343 bound_to 10162
  157.6897  130.9220  150.0479 LP  0  0  0  0  0  0  0  0  0  0  0  0  # atno 17370 bound_to 10713
  156.1592  130.3643  149.9324 LP  0  0  0  0  0  0  0  0  0  0  0  0  # atno 17371 bound_to 10713
  139.9791  135.0104  156.9706 LP  0  0  0  0  0  0  0  0  0  0  0  0  # atno 17394 bound_to 11000
  140.5149  134.0965  155.7278 LP  0  0  0  0  0  0  0  0  0  0  0  0  # atno 17395 bound_to 11000

$$$$
