AV-unprocessed.smi:505|AV-procd|sdf|2749|dock4
  -GOLD-   2262023213D 1   1.00000     0.00000
 Structure written by MMmdl.
 36 37  0  0  0  0  0  0  0  0  2 V2000
  151.9821  144.8998  159.2967 C   0  0  0  0  0  0  0  0  0  0  0  0
  150.9780  143.9318  159.0485 O   0  0  0  0  0  0  0  0  0  0  0  0
  151.2586  143.1409  157.9060 C   0  0  0  0  0  0  0  0  0  0  0  0
  150.0636  142.2194  157.6337 C   0  0  0  0  0  0  0  0  0  0  0  0
  150.4041  141.1650  156.6844 N   0  0  0  0  0  0  0  0  0  0  0  0
  149.8021  140.8988  155.4992 C   0  0  0  0  0  0  0  0  0  0  0  0
  148.7411  141.6797  155.0566 N   0  0  0  0  0  0  0  0  0  0  0  0
  147.9271  141.6253  153.8563 C   0  0  0  0  0  0  0  0  0  0  0  0
  146.4260  141.6849  154.1728 C   0  0  0  0  0  0  0  0  0  0  0  0
  145.9174  140.3795  154.3485 O   0  0  0  0  0  0  0  0  0  0  0  0
  150.3141  139.8678  154.8251 N   0  0  0  0  0  0  0  0  0  0  0  0
  151.3455  139.4463  155.6536 C   0  0  0  0  0  0  0  0  0  0  0  0
  151.4266  140.2172  156.7721 C   0  0  0  0  0  0  0  0  0  0  0  0
  152.4407  140.0310  157.8314 C   0  0  0  0  0  0  0  0  0  0  0  0
  152.4759  140.7716  158.8120 O   0  0  0  0  0  0  0  0  0  0  0  0
  153.2807  138.9816  157.5621 N   0  5  0  0  0  0  0  0  0  0  0  0
  153.2339  138.1717  156.4474 C   0  0  0  0  0  0  0  0  0  0  0  0
  154.0326  137.2490  156.2803 O   0  0  0  0  0  0  0  0  0  0  0  0
  152.2784  138.3862  155.4884 N   0  0  0  0  0  0  0  0  0  0  0  0
  152.2037  137.5399  154.2942 C   0  0  0  0  0  0  0  0  0  0  0  0
  151.7188  145.4827  160.1791 H   0  0  0  0  0  0  0  0  0  0  0  0
  152.0838  145.5881  158.4566 H   0  0  0  0  0  0  0  0  0  0  0  0
  152.9477  144.4274  159.4814 H   0  0  0  0  0  0  0  0  0  0  0  0
  151.4389  143.7852  157.0439 H   0  0  0  0  0  0  0  0  0  0  0  0
  152.1609  142.5498  158.0700 H   0  0  0  0  0  0  0  0  0  0  0  0
  149.7008  141.7708  158.5577 H   0  0  0  0  0  0  0  0  0  0  0  0
  149.2264  142.7988  157.2442 H   0  0  0  0  0  0  0  0  0  0  0  0
  148.5140  142.4559  155.6612 H   0  0  0  0  0  0  0  0  0  0  0  0
  148.1996  142.4826  153.2401 H   0  0  0  0  0  0  0  0  0  0  0  0
  148.1728  140.7338  153.2786 H   0  0  0  0  0  0  0  0  0  0  0  0
  146.2177  142.2989  155.0497 H   0  0  0  0  0  0  0  0  0  0  0  0
  145.8936  142.1343  153.3344 H   0  0  0  0  0  0  0  0  0  0  0  0
  145.2816  140.2117  153.6700 H   0  0  0  0  0  0  0  0  0  0  0  0
  152.0825  136.4923  154.5738 H   0  0  0  0  0  0  0  0  0  0  0  0
  153.1163  137.6325  153.7042 H   0  0  0  0  0  0  0  0  0  0  0  0
  151.3670  137.7999  153.6461 H   0  0  0  0  0  0  0  0  0  0  0  0
  1  2  1  0  0  0  0
  1 21  1  0  0  0  0
  1 22  1  0  0  0  0
  1 23  1  0  0  0  0
  2  3  1  0  0  0  0
  3  4  1  0  0  0  0
  3 24  1  0  0  0  0
  3 25  1  0  0  0  0
  4  5  1  0  0  0  0
  4 26  1  0  0  0  0
  4 27  1  0  0  0  0
  5 13  1  0  0  0  0
  5  6  1  0  0  0  0
  6  7  1  0  0  0  0
  6 11  2  0  0  0  0
  7  8  1  0  0  0  0
  7 28  1  0  0  0  0
  8  9  1  0  0  0  0
  8 29  1  0  0  0  0
  8 30  1  0  0  0  0
  9 10  1  0  0  0  0
  9 31  1  0  0  0  0
  9 32  1  0  0  0  0
 10 33  1  0  0  0  0
 11 12  1  0  0  0  0
 12 19  1  0  0  0  0
 12 13  2  0  0  0  0
 13 14  1  0  0  0  0
 14 15  2  0  0  0  0
 14 16  1  0  0  0  0
 16 17  1  0  0  0  0
 17 18  2  0  0  0  0
 17 19  1  0  0  0  0
 19 20  1  0  0  0  0
 20 34  1  0  0  0  0
 20 35  1  0  0  0  0
 20 36  1  0  0  0  0
M  CHG  1  16  -1
M  END
> <s_m_source_file>
AV-unprocessed.smi

> <i_m_source_file_index>
505

> <i_lp_mmshare_version>
43012

> <i_f3d_flags>
0

> <s_epik_input>
W09IXVtDSDJdW0NIMl1bTkhdYyhuMSluKFtDSDJdW0NIMl1PW0NIM10pYyhjMTIpYyg9TylbbkhdYyg9TyluMltDSDNd

> <s_epik_cmdline>
J2VwaWtfcHl0aG9uJywgJy1waCcsICc3LjAnLCAnLXRuJywgJzgnLCAnLW1hJywgJzIwMCcsICctbWV0YWxfYmluZGluZycsICctaW1hZScsICc8aW5maWxlLm1hZT4nLCAnLW9tYWUnLCAnPG91dGZpbGUubWFlPic=

> <r_lp_tautomer_probability>
1

> <r_epik_Ionization_Penalty>
5.9232

> <r_epik_Ionization_Penalty_Charging>
1.43987e-08

> <r_epik_Ionization_Penalty_Neutral>
5.9232

> <r_epik_State_Penalty>
5.92302

> <r_epik_Charging_Adjusted_Penalty>
5.92302

> <i_epik_Tot_Q>
-1

> <i_epik_Tot_abs_Q>
1

> <r_epik_Metal_State_Penalty>
1.88194

> <b_epik_Metal_Only>
1

> <s_lp_Force_Field>
OPLS_2005

> <r_lp_Energy>
27.5321

> <b_lp_Chiralities_Consistent>
1

> <s_lp_Variant>
AV-unprocessed.smi:505-2

> <Gold.Version>
5.8.1

> <Gold.Id.Protein>
6NUR|6NUR_protein|mol2

> <Gold.PLP.Fitness>
48.8155

> <Gold.PLP.PLP>
-37.9281

> <Gold.PLP.part.hbond>
-4.3867

> <Gold.PLP.part.metal>
0.0000

> <Gold.PLP.part.buried>
-4.4611

> <Gold.PLP.part.nonpolar>
-30.4488

> <Gold.PLP.part.repulsive>
0.3536

> <Gold.PLP.ligand.clash>
0.0000

> <Gold.PLP.ligand.torsion>
0.3094

> <Gold.PLP.Chemscore.Hbond>
3.8277

> <Gold.PLP.Chemscore.CHOScore>
0.0000

> <Gold.PLP.Chemscore.Metal>
0.0000

> <Gold.Chemscore.Hbonds>
donor molecule, donor type, donor heavy atom, donor atom, acceptor molecule, acceptor atom, score
      L1  H     7    28       P1  8028  0.26
      L1  H    10    33       P1 10175  1.00
      P1  H  7989  7998       L1    11  0.55
      P1  H  7997  8008       L1    16  0.66
      P1  H 10752 10765       L1    18  0.15

> <Gold.PLP.Chemscore.Internal.Correction>
0.0231

> <Gold.Rescore>
     Score         DG    S(hbond)    S(metal)    S(lipo)     H(rot)  DE(clash)    DE(int)     intcor
     10.77     -13.63       2.65        0.00      60.15       3.02       1.44       1.42       ----

> <Gold.Chemscore.Fitness>
10.7705

> <Gold.Chemscore.DG>
-13.6327

> <Gold.Chemscore.ZeroCoef>
-5.4800

> <Gold.Chemscore.Hbond>
2.6473

> <Gold.Chemscore.Metal>
0.0000

> <Gold.Chemscore.Lipo>
60.1468

> <Gold.Chemscore.Internal_Hbond>
0.0000

> <Gold.Chemscore.DEClash>
1.4414

> <Gold.Chemscore.DEInternal>
1.4208

> <Gold.Chemscore.Rot>
3.0181

> <Gold.Chemscore.Internal.Correction>
   9.000000E+99

> <Gold.Chemscore.Hbonds>
donor molecule, donor type, donor heavy atom, donor atom, acceptor molecule, acceptor atom, score
      L1  H     7    28       P1  8028  0.27
      L1  H    10    33       P1 10175  0.95
      P1  H  7989  7998       L1    11  0.02
      P1  H 10752 10765       L1    18  0.14

> <Gold.Chemscore.Hbond.Weighted>
-8.8420

> <Gold.Chemscore.Metal.Weighted>
-0.0000

> <Gold.Chemscore.Lipo.Weighted>
-7.0372

> <Gold.Chemscore.Internal_Hbond.Weighted>
0.0000

> <Gold.Chemscore.DEClash.Weighted>
1.4414

> <Gold.Chemscore.DEInternal.Weighted>
1.4208

> <Gold.Chemscore.Rot.Weighted>
7.7264

> <Gold.Chemscore.Internal.Correction.Weighted>
   9.000000E+99

> <Gold.Protein.RotatedTorsions>
[ 6907 6896 6895 6894 ] final  -84.21 input  -60.11 | X-H torsion
[ 7974 7965 7964 7962 ] final  -16.82 input  175.53 | X-H torsion
[ 8008 7997 7996 7995 ] final  -69.07 input   59.86 | X-H torsion
[ 10167 10162 10161 10158 ] final   19.62 input  -65.29 | X-H torsion
[ 10718 10713 10712 10709 ] final  113.51 input   66.30 | X-H torsion
[ 10763 10752 10751 10750 ] final -140.93 input  -60.55 | X-H torsion
[ 11005 11000 10999 10996 ] final   39.61 input  -57.11 | X-H torsion

> <Gold.Protein.ActiveResidues>
 VAL166  LYS551  ARG553  GLY616  TRP617  ASP618  TYR619  PRO620  LYS621  CYS622 
 ASP623  PHE694  ASN695  SER759  ASP760  ASP761  ALA762  ILE779  LEU786  VAL792 
 PHE793  MET794  SER795  GLU796  ALA797  LYS798  CYS799  TRP800  GLU811  SER814 

> <Gold.Protein.RotatedAtoms>
  150.6878  134.3394  159.4861 H   0  0  0  0  0  0  0  0  0  0  0  0  # atno 6907 bound_to 6896
  152.1249  134.9175  160.0570 H   0  0  0  0  0  0  0  0  0  0  0  0  # atno 6908 bound_to 6896
  152.0367  133.3925  159.4357 H   0  0  0  0  0  0  0  0  0  0  0  0  # atno 6909 bound_to 6896
  146.1970  140.3692  142.8437 H   0  0  0  0  0  0  0  0  0  0  0  0  # atno 7974 bound_to 7965
  154.4912  140.0860  156.7599 H   0  0  0  0  0  0  0  0  0  0  0  0  # atno 8008 bound_to 7997
  155.4226  140.3446  155.4254 H   0  0  0  0  0  0  0  0  0  0  0  0  # atno 8009 bound_to 7997
  156.1332  140.1507  156.9021 H   0  0  0  0  0  0  0  0  0  0  0  0  # atno 8010 bound_to 7997
  140.5566  143.9414  150.6613 H   0  0  0  0  0  0  0  0  0  0  0  0  # atno 10167 bound_to 10162
  157.6334  131.0985  150.7052 H   0  0  0  0  0  0  0  0  0  0  0  0  # atno 10718 bound_to 10713
  154.8562  135.3539  154.5786 H   0  0  0  0  0  0  0  0  0  0  0  0  # atno 10763 bound_to 10752
  153.6398  135.6999  153.5250 H   0  0  0  0  0  0  0  0  0  0  0  0  # atno 10764 bound_to 10752
  153.2981  135.4214  155.1186 H   0  0  0  0  0  0  0  0  0  0  0  0  # atno 10765 bound_to 10752
  140.2011  134.3869  155.8096 H   0  0  0  0  0  0  0  0  0  0  0  0  # atno 11005 bound_to 11000
  144.8601  140.7126  143.6113 LP  0  0  0  0  0  0  0  0  0  0  0  0  # atno 17320 bound_to 7965
  145.3612  139.1681  143.4382 LP  0  0  0  0  0  0  0  0  0  0  0  0  # atno 17321 bound_to 7965
  140.2854  143.3361  152.1112 LP  0  0  0  0  0  0  0  0  0  0  0  0  # atno 17342 bound_to 10162
  139.5050  144.6787  151.6063 LP  0  0  0  0  0  0  0  0  0  0  0  0  # atno 17343 bound_to 10162
  156.7387  130.4732  149.5482 LP  0  0  0  0  0  0  0  0  0  0  0  0  # atno 17370 bound_to 10713
  156.1554  130.6338  151.0650 LP  0  0  0  0  0  0  0  0  0  0  0  0  # atno 17371 bound_to 10713
  141.2227  133.7094  156.8259 LP  0  0  0  0  0  0  0  0  0  0  0  0  # atno 17394 bound_to 11000
  140.2053  134.8867  157.3215 LP  0  0  0  0  0  0  0  0  0  0  0  0  # atno 17395 bound_to 11000

$$$$
