#       Name:                AV-unprocessed.smi:2407
#       Creating user name   scv26
#       Creation time:       Fri Mar 27 13:15:12 2020


#       File generated by GOLD software.
#

@<TRIPOS>MOLECULE
AV-unprocessed.smi:2407
    45    46     1
SMALL
NO_CHARGES


@<TRIPOS>ATOM
      1 ****        -2.8238   0.9334   2.3208 C.3            1 S1                 0.0000
      2 ****        -3.0620   0.5921   0.8794 C.2            1 S1                 0.0000
      3 ****        -4.3381   0.1082   0.3876 C.2            1 S1                 0.0000
      4 ****        -4.4742  -0.1851  -0.9235 C.2            1 S1                 0.0000
      5 ****        -3.3668  -0.0286  -1.8641 C.2            1 S1                 0.0000
      6 ****        -3.4519  -0.3041  -3.0608 O.2            1 S1                 0.0000
      7 ****        -2.2224   0.4445  -1.2897 N.am           1 S1                 0.0000
      8 ****        -1.0082   0.6485  -2.0867 C.3            1 S1                 0.0000
      9 ****        -0.2270  -0.6731  -2.2842 C.3            1 S1                 0.0000
     10 ****        -0.1958  -0.9904  -3.6611 O.3            1 S1                 0.0000
     11 ****         1.2255  -0.5884  -1.7924 C.3            1 S1                 0.0000
     12 ****         1.2175  -0.3919  -0.3848 O.3            1 S1                 0.0000
     13 ****         2.4233  -0.3034   0.2795 C.ar           1 S1                 0.0000
     14 ****         3.6808  -0.4500  -0.3604 C.ar           1 S1                 0.0000
     15 ****         4.8755  -0.3516   0.3764 C.ar           1 S1                 0.0000
     16 ****         4.8313  -0.1045   1.7589 C.ar           1 S1                 0.0000
     17 ****         3.5908   0.0453   2.4043 C.ar           1 S1                 0.0000
     18 ****         2.3847  -0.0533   1.6739 C.ar           1 S1                 0.0000
     19 ****         1.0439   0.1247   2.3789 C.3            1 S1                 0.0000
     20 ****         1.1868   0.2624   3.6977 F              1 S1                 0.0000
     21 ****         0.4415   1.2168   1.9096 F              1 S1                 0.0000
     22 ****         0.2624  -0.9326   2.1566 F              1 S1                 0.0000
     23 ****        -2.0771   0.7398   0.0551 N.2            1 S1                 0.0000
     24 ****        -3.7615   0.9791   2.8749 H              1 S1                 0.0000
     25 ****        -2.3327   1.9022   2.4184 H              1 S1                 0.0000
     26 ****        -2.1908   0.1839   2.7960 H              1 S1                 0.0000
     27 ****        -5.1655  -0.0141   1.0709 H              1 S1                 0.0000
     28 ****        -5.4247  -0.5458  -1.2881 H              1 S1                 0.0000
     29 ****        -1.2603   1.1096  -3.0440 H              1 S1                 0.0000
     30 ****        -0.3758   1.3888  -1.5924 H              1 S1                 0.0000
     31 ****        -0.7225  -1.4980  -1.7694 H              1 S1                 0.0000
     32 ****        -1.0860  -1.0807  -3.9666 H              1 S1                 0.0000
     33 ****         1.7430  -1.5193  -2.0308 H              1 S1                 0.0000
     34 ****         1.7484   0.2298  -2.2911 H              1 S1                 0.0000
     35 ****         3.7584  -0.6400  -1.4198 H              1 S1                 0.0000
     36 ****         5.8272  -0.4657  -0.1213 H              1 S1                 0.0000
     37 ****         5.7482  -0.0277   2.3245 H              1 S1                 0.0000
     38 ****         3.5772   0.2397   3.4662 H              1 S1                 0.0000
     39 ****        -4.3112  -0.6545  -3.4333 LP             1 S1                 0.0000
     40 ****        -2.6617  -0.1776  -3.6604 LP             1 S1                 0.0000
     41 ****         0.2973  -1.8494  -3.7986 LP             1 S1                 0.0000
     42 ****         0.2620  -0.2587  -4.1660 LP             1 S1                 0.0000
     43 ****         0.7162  -1.1586   0.0164 LP             1 S1                 0.0000
     44 ****         0.7219   0.4587  -0.2093 LP             1 S1                 0.0000
     45 ****        -1.1970   1.0724   0.3940 LP             1 S1                 0.0000
@<TRIPOS>BOND
    1    1    2 1     
    2    1   24 1     
    3    1   25 1     
    4    1   26 1     
    5    2   23 2     
    6    2    3 1     
    7    3    4 2     
    8    3   27 1     
    9    4    5 1     
   10    4   28 1     
   11    5    6 2     
   12    5    7 am    
   13    7    8 1     
   14    7   23 1     
   15    8    9 1     
   16    8   29 1     
   17    8   30 1     
   18    9   10 1     
   19    9   11 1     
   20    9   31 1     
   21   10   32 1     
   22   11   12 1     
   23   11   33 1     
   24   11   34 1     
   25   12   13 1     
   26   13   18 ar    
   27   13   14 ar    
   28   14   15 ar    
   29   14   35 1     
   30   15   16 ar    
   31   15   36 1     
   32   16   17 ar    
   33   16   37 1     
   34   17   18 ar    
   35   17   38 1     
   36   18   19 1     
   37   19   20 1     
   38   19   21 1     
   39   19   22 1     
   40    6   39 1     
   41    6   40 1     
   42   10   41 1     
   43   10   42 1     
   44   12   43 1     
   45   12   44 1     
   46   23   45 1     
@<TRIPOS>SUBSTRUCTURE
      1 S1             1
@<TRIPOS>SET
LONE_PAIRS      STATIC     ATOMS    <user>   **** ""
7 39 40 41 42 43 44 45
DONOR_HYDROGENS      STATIC     ATOMS    <user>   **** ""
1 32
ATOM$BLUE        STATIC     ATOMS    COLORGROUP SYSTEM
7 39 40 41 42 43 44 45
ATOM$RED        STATIC     ATOMS    COLORGROUP SYSTEM
1 32
