AV-unprocessed.smi:1007|AV-procd|sdf|4403|dock8
  -GOLD-   22720 2343D 1   1.00000     0.00000
 Structure written by MMmdl.
 57 59  0  0  0  0  0  0  0  0  3 V2000
  144.3080  142.4575  160.6180 C   0  0  0  0  0  0  0  0  0  0  0  0
  145.3137  141.8524  159.8204 O   0  0  0  0  0  0  0  0  0  0  0  0
  144.8087  141.0931  158.7316 C   0  0  0  0  0  0  0  0  0  0  0  0
  144.4994  141.9902  157.5180 C   0  0  0  0  0  0  0  0  0  0  0  0
  145.4586  143.0766  157.2965 N   0  0  0  0  0  0  0  0  0  0  0  0
  146.8222  142.7184  157.6851 C   0  0  0  0  0  0  0  0  0  0  0  0
  147.4874  141.7114  156.7237 C   0  0  0  0  0  0  0  0  0  0  0  0
  147.4866  142.2381  155.3340 N   0  3  0  0  0  0  0  0  0  0  0  0
  148.1805  141.3281  154.3860 C   0  0  0  0  0  0  0  0  0  0  0  0
  149.4372  140.6714  154.9918 C   0  0  1  0  0  0  0  0  0  0  0  0
  150.1749  140.0438  153.9603 O   0  0  0  0  0  0  0  0  0  0  0  0
  150.3394  141.7001  155.7021 C   0  0  0  0  0  0  0  0  0  0  0  0
  151.0063  141.1454  156.8877 N   0  0  0  0  0  0  0  0  0  0  0  0
  151.4468  139.8818  157.1370 C   0  0  0  0  0  0  0  0  0  0  0  0
  151.9864  139.8745  158.3875 N   0  3  0  0  0  0  0  0  0  0  0  0
  151.8925  141.1523  158.9435 C   0  0  0  0  0  0  0  0  0  0  0  0
  152.2949  141.6399  160.1812 C   0  0  0  0  0  0  0  0  0  0  0  0
  152.0550  143.0075  160.4450 C   0  0  0  0  0  0  0  0  0  0  0  0
  152.4799  143.5722  161.7900 C   0  0  0  0  0  0  0  0  0  0  0  0
  151.4301  143.8389  159.4792 C   0  0  0  0  0  0  0  0  0  0  0  0
  151.1799  145.3086  159.7726 C   0  0  0  0  0  0  0  0  0  0  0  0
  151.0258  143.3233  158.2271 C   0  0  0  0  0  0  0  0  0  0  0  0
  151.2686  141.9735  157.9845 C   0  0  0  0  0  0  0  0  0  0  0  0
  146.1071  142.6060  154.9149 C   0  0  0  0  0  0  0  0  0  0  0  0
  145.4864  143.5916  155.9256 C   0  0  0  0  0  0  0  0  0  0  0  0
  144.7759  143.0465  161.4067 H   0  0  0  0  0  0  0  0  0  0  0  0
  143.6668  141.7167  161.0951 H   0  0  0  0  0  0  0  0  0  0  0  0
  143.6860  143.1297  160.0254 H   0  0  0  0  0  0  0  0  0  0  0  0
  145.5006  140.2886  158.4809 H   0  0  0  0  0  0  0  0  0  0  0  0
  143.8867  140.6176  159.0672 H   0  0  0  0  0  0  0  0  0  0  0  0
  144.4942  141.3492  156.6355 H   0  0  0  0  0  0  0  0  0  0  0  0
  143.4892  142.3875  157.5993 H   0  0  0  0  0  0  0  0  0  0  0  0
  147.4295  143.6240  157.7215 H   0  0  0  0  0  0  0  0  0  0  0  0
  146.8257  142.3197  158.7003 H   0  0  0  0  0  0  0  0  0  0  0  0
  148.5146  141.5368  157.0458 H   0  0  0  0  0  0  0  0  0  0  0  0
  146.9802  140.7462  156.7571 H   0  0  0  0  0  0  0  0  0  0  0  0
  147.4953  140.5398  154.0703 H   0  0  0  0  0  0  0  0  0  0  0  0
  148.4396  141.8847  153.4838 H   0  0  0  0  0  0  0  0  0  0  0  0
  149.1522  139.9080  155.7141 H   0  0  0  0  0  0  0  0  0  0  0  0
  149.7012  140.1370  153.1474 H   0  0  0  0  0  0  0  0  0  0  0  0
  151.1161  142.0597  155.0255 H   0  0  0  0  0  0  0  0  0  0  0  0
  149.7675  142.5765  156.0097 H   0  0  0  0  0  0  0  0  0  0  0  0
  151.3766  139.0361  156.4682 H   0  0  0  0  0  0  0  0  0  0  0  0
  152.7704  141.0016  160.9116 H   0  0  0  0  0  0  0  0  0  0  0  0
  151.6164  143.9565  162.3332 H   0  0  0  0  0  0  0  0  0  0  0  0
  153.1958  144.3835  161.6568 H   0  0  0  0  0  0  0  0  0  0  0  0
  152.9524  142.8108  162.4114 H   0  0  0  0  0  0  0  0  0  0  0  0
  150.7094  145.8104  158.9264 H   0  0  0  0  0  0  0  0  0  0  0  0
  152.1179  145.8231  159.9836 H   0  0  0  0  0  0  0  0  0  0  0  0
  150.5214  145.4202  160.6343 H   0  0  0  0  0  0  0  0  0  0  0  0
  150.5495  143.9557  157.4930 H   0  0  0  0  0  0  0  0  0  0  0  0
  146.1222  143.0814  153.9354 H   0  0  0  0  0  0  0  0  0  0  0  0
  145.4930  141.7101  154.8161 H   0  0  0  0  0  0  0  0  0  0  0  0
  144.4854  143.8757  155.6032 H   0  0  0  0  0  0  0  0  0  0  0  0
  146.0657  144.5159  155.9099 H   0  0  0  0  0  0  0  0  0  0  0  0
  148.0241  143.0933  155.3578 H   0  0  0  0  0  0  0  0  0  0  0  0
  152.3879  139.0559  158.8270 H   0  0  0  0  0  0  0  0  0  0  0  0
  1  2  1  0  0  0  0
  1 26  1  0  0  0  0
  1 27  1  0  0  0  0
  1 28  1  0  0  0  0
  2  3  1  0  0  0  0
  3  4  1  0  0  0  0
  3 29  1  0  0  0  0
  3 30  1  0  0  0  0
  4  5  1  0  0  0  0
  4 31  1  0  0  0  0
  4 32  1  0  0  0  0
  5 25  1  0  0  0  0
  5  6  1  0  0  0  0
  6  7  1  0  0  0  0
  6 33  1  0  0  0  0
  6 34  1  0  0  0  0
  7  8  1  0  0  0  0
  7 35  1  0  0  0  0
  7 36  1  0  0  0  0
  8  9  1  0  0  0  0
  8 24  1  0  0  0  0
  8 56  1  0  0  0  0
  9 10  1  0  0  0  0
  9 37  1  0  0  0  0
  9 38  1  0  0  0  0
 10 11  1  0  0  0  0
 10 12  1  0  0  0  0
 10 39  1  0  0  0  0
 11 40  1  0  0  0  0
 12 13  1  0  0  0  0
 12 41  1  0  0  0  0
 12 42  1  0  0  0  0
 13 23  1  0  0  0  0
 13 14  1  0  0  0  0
 14 15  2  0  0  0  0
 14 43  1  0  0  0  0
 15 16  1  0  0  0  0
 15 57  1  0  0  0  0
 16 23  2  0  0  0  0
 16 17  1  0  0  0  0
 17 18  2  0  0  0  0
 17 44  1  0  0  0  0
 18 19  1  0  0  0  0
 18 20  1  0  0  0  0
 19 45  1  0  0  0  0
 19 46  1  0  0  0  0
 19 47  1  0  0  0  0
 20 21  1  0  0  0  0
 20 22  2  0  0  0  0
 21 48  1  0  0  0  0
 21 49  1  0  0  0  0
 21 50  1  0  0  0  0
 22 23  1  0  0  0  0
 22 51  1  0  0  0  0
 24 25  1  0  0  0  0
 24 52  1  0  0  0  0
 24 53  1  0  0  0  0
 25 54  1  0  0  0  0
 25 55  1  0  0  0  0
M  CHG  1   8   1
M  CHG  1  15   1
M  END
> <s_m_source_file>
AV-unprocessed.smi

> <i_m_source_file_index>
1007

> <i_lp_mmshare_version>
43012

> <i_f3d_flags>
0

> <s_epik_input>
W0NIM11PW0NIMl1bQ0gyXU4xW0NIMl1bQ0gyXU4oW0NIMl1bQ0gyXTEpW0NIMl1bQ0BIXShbT0hdKVtDSDJdbihbY0hdbjIpYyhjMjMpW2NIXWMoW0NIM10pYyhbY0hdMylbQ0gzXQ==

> <s_epik_cmdline>
J2VwaWtfcHl0aG9uJywgJy1waCcsICc3LjAnLCAnLXRuJywgJzgnLCAnLW1hJywgJzIwMCcsICctbWV0YWxfYmluZGluZycsICctaW1hZScsICc8aW5maWxlLm1hZT4nLCAnLW9tYWUnLCAnPG91dGZpbGUubWFlPic=

> <r_epik_Ionization_Penalty>
1.19231

> <r_epik_Ionization_Penalty_Charging>
1.17974

> <r_epik_Ionization_Penalty_Neutral>
0.0125676

> <r_epik_State_Penalty>
1.24499

> <r_epik_Charging_Adjusted_Penalty>
2.42472

> <i_epik_Tot_Q>
2

> <i_epik_Tot_abs_Q>
2

> <r_epik_Metal_State_Penalty>
5.24866

> <b_epik_Metal_Only>
0

> <s_lp_Force_Field>
OPLS_2005

> <r_lp_Energy>
41.9182

> <b_lp_Chiralities_Consistent>
1

> <s_lp_Variant>
AV-unprocessed.smi:1007-6

> <Gold.Version>
5.8.1

> <Gold.Id.Protein>
6NUR|6NUR_protein|mol2

> <Gold.PLP.Fitness>
60.5955

> <Gold.PLP.PLP>
-48.8373

> <Gold.PLP.part.hbond>
-4.0000

> <Gold.PLP.part.metal>
0.0000

> <Gold.PLP.part.buried>
-7.9594

> <Gold.PLP.part.nonpolar>
-36.5128

> <Gold.PLP.part.repulsive>
0.2816

> <Gold.PLP.ligand.clash>
0.0000

> <Gold.PLP.ligand.torsion>
1.5664

> <Gold.PLP.Chemscore.Hbond>
4.9040

> <Gold.PLP.Chemscore.CHOScore>
0.0000

> <Gold.PLP.Chemscore.Metal>
0.0000

> <Gold.Chemscore.Hbonds>
donor molecule, donor type, donor heavy atom, donor atom, acceptor molecule, acceptor atom, score
      L1  H     8    56       P1  8028  2.00
      L1  H    11    40       P1  7957  1.00
      P1  H  6934  6946       L1     2  0.89
      P1  H  7989  7998       L1    11  0.79

> <Gold.PLP.Chemscore.Internal.Correction>
0.1791

> <Gold.Rescore>
     Score         DG    S(hbond)    S(metal)    S(lipo)     H(rot)  DE(clash)    DE(int)     intcor
     19.69     -22.83       3.05        0.00     118.99       2.64       0.36       2.78       ----

> <Gold.Chemscore.Fitness>
19.6880

> <Gold.Chemscore.DG>
-22.8342

> <Gold.Chemscore.ZeroCoef>
-5.4800

> <Gold.Chemscore.Hbond>
3.0537

> <Gold.Chemscore.Metal>
0.0000

> <Gold.Chemscore.Lipo>
118.9866

> <Gold.Chemscore.Internal_Hbond>
0.0000

> <Gold.Chemscore.DEClash>
0.3622

> <Gold.Chemscore.DEInternal>
2.7841

> <Gold.Chemscore.Rot>
2.6432

> <Gold.Chemscore.Internal.Correction>
   9.000000E+99

> <Gold.Chemscore.Hbonds>
donor molecule, donor type, donor heavy atom, donor atom, acceptor molecule, acceptor atom, score
      L1  H     8    56       P1  8028  0.85
      L1  H    11    40       P1  7957  0.92
      P1  H  6934  6946       L1     2  0.63
      P1  H  7989  7998       L1    11  0.12

> <Gold.Chemscore.Hbond.Weighted>
-10.1993

> <Gold.Chemscore.Metal.Weighted>
-0.0000

> <Gold.Chemscore.Lipo.Weighted>
-13.9214

> <Gold.Chemscore.Internal_Hbond.Weighted>
0.0000

> <Gold.Chemscore.DEClash.Weighted>
0.3622

> <Gold.Chemscore.DEInternal.Weighted>
2.7841

> <Gold.Chemscore.Rot.Weighted>
6.7665

> <Gold.Chemscore.Internal.Correction.Weighted>
   9.000000E+99

> <Gold.Protein.RotatedTorsions>
[ 6907 6896 6895 6894 ] final -173.17 input  -60.11 | X-H torsion
[ 7974 7965 7964 7962 ] final   39.91 input  175.53 | X-H torsion
[ 8008 7997 7996 7995 ] final  -59.80 input   59.86 | X-H torsion
[ 10167 10162 10161 10158 ] final  142.34 input  -65.29 | X-H torsion
[ 10718 10713 10712 10709 ] final -147.19 input   66.30 | X-H torsion
[ 10763 10752 10751 10750 ] final   88.81 input  -60.55 | X-H torsion
[ 11005 11000 10999 10996 ] final  115.90 input  -57.11 | X-H torsion

> <Gold.Protein.ActiveResidues>
 VAL166  LYS551  ARG553  GLY616  TRP617  ASP618  TYR619  PRO620  LYS621  CYS622 
 ASP623  PHE694  ASN695  SER759  ASP760  ASP761  ALA762  ILE779  LEU786  VAL792 
 PHE793  MET794  SER795  GLU796  ALA797  LYS798  CYS799  TRP800  GLU811  SER814 

> <Gold.Protein.RotatedAtoms>
  151.5518  133.3416  159.2954 H   0  0  0  0  0  0  0  0  0  0  0  0  # atno 6907 bound_to 6896
  150.8474  134.7790  159.6992 H   0  0  0  0  0  0  0  0  0  0  0  0  # atno 6908 bound_to 6896
  152.4528  134.5364  159.9878 H   0  0  0  0  0  0  0  0  0  0  0  0  # atno 6909 bound_to 6896
  146.0947  139.5595  142.9453 H   0  0  0  0  0  0  0  0  0  0  0  0  # atno 7974 bound_to 7965
  154.4369  140.1054  156.6172 H   0  0  0  0  0  0  0  0  0  0  0  0  # atno 8008 bound_to 7997
  155.5746  140.3490  155.4505 H   0  0  0  0  0  0  0  0  0  0  0  0  # atno 8009 bound_to 7997
  156.0364  140.1272  157.0192 H   0  0  0  0  0  0  0  0  0  0  0  0  # atno 8010 bound_to 7997
  139.4996  144.6113  151.6265 H   0  0  0  0  0  0  0  0  0  0  0  0  # atno 10167 bound_to 10162
  156.4045  130.7950  151.2163 H   0  0  0  0  0  0  0  0  0  0  0  0  # atno 10718 bound_to 10713
  153.1806  135.4493  155.0023 H   0  0  0  0  0  0  0  0  0  0  0  0  # atno 10763 bound_to 10752
  154.8027  135.3262  154.7511 H   0  0  0  0  0  0  0  0  0  0  0  0  # atno 10764 bound_to 10752
  153.7976  135.6965  153.4916 H   0  0  0  0  0  0  0  0  0  0  0  0  # atno 10765 bound_to 10752
  139.9024  134.9590  156.7116 H   0  0  0  0  0  0  0  0  0  0  0  0  # atno 11005 bound_to 11000
  145.5972  141.0361  143.2038 LP  0  0  0  0  0  0  0  0  0  0  0  0  # atno 17320 bound_to 7965
  144.7386  139.7513  143.7319 LP  0  0  0  0  0  0  0  0  0  0  0  0  # atno 17321 bound_to 7965
  140.5788  143.9981  150.6257 LP  0  0  0  0  0  0  0  0  0  0  0  0  # atno 17342 bound_to 10162
  140.3124  143.3190  152.0866 LP  0  0  0  0  0  0  0  0  0  0  0  0  # atno 17343 bound_to 10162
  157.7505  131.0277  150.4015 LP  0  0  0  0  0  0  0  0  0  0  0  0  # atno 17370 bound_to 10713
  156.4301  130.3970  149.6766 LP  0  0  0  0  0  0  0  0  0  0  0  0  # atno 17371 bound_to 10713
  140.7071  133.9256  155.8060 LP  0  0  0  0  0  0  0  0  0  0  0  0  # atno 17394 bound_to 11000
  141.0328  134.0731  157.3994 LP  0  0  0  0  0  0  0  0  0  0  0  0  # atno 17395 bound_to 11000

$$$$
