AV-unprocessed.smi:249|AV-procd|sdf|1925|dock9
  -GOLD-   2262021 33D 1   1.00000     0.00000
 Structure written by MMmdl.
 64 67  0  0  0  0  0  0  0  0  2 V2000
  145.3356  132.1663  149.8038 C   0  0  0  0  0  0  0  0  0  0  0  0
  143.9280  132.7633  149.6228 C   0  0  0  0  0  0  0  0  0  0  0  0
  143.6073  133.8761  150.5609 N   0  3  1  0  0  0  0  0  0  0  0  0
  143.3773  133.3935  151.9496 C   0  0  0  0  0  0  0  0  0  0  0  0
  142.7873  134.4981  152.8367 C   0  0  0  0  0  0  0  0  0  0  0  0
  143.7087  135.7325  152.8358 C   0  0  2  0  0  0  0  0  0  0  0  0
  143.2722  136.8023  153.7448 N   0  0  0  0  0  0  0  0  0  0  0  0
  141.9533  137.3849  153.5212 C   0  0  0  0  0  0  0  0  0  0  0  0
  144.1471  137.6508  154.3484 C   0  0  0  0  0  0  0  0  0  0  0  0
  143.8623  138.1787  155.5677 N   0  0  0  0  0  0  0  0  0  0  0  0
  144.7295  138.9947  156.1735 C   0  0  0  0  0  0  0  0  0  0  0  0
  145.9251  139.4044  155.7481 N   0  0  0  0  0  0  0  0  0  0  0  0
  146.2229  138.8746  154.5278 C   0  0  0  0  0  0  0  0  0  0  0  0
  145.3980  138.0006  153.7643 C   0  0  0  0  0  0  0  0  0  0  0  0
  146.0280  137.6855  152.5660 N   0  0  0  0  0  0  0  0  0  0  0  0
  147.1616  138.3294  152.6208 C   0  0  0  0  0  0  0  0  0  0  0  0
  147.3703  139.0514  153.7744 N   0  0  0  0  0  0  0  0  0  0  0  0
  148.5334  139.8605  154.0935 C   0  0  0  0  0  0  0  0  0  0  0  0
  148.3908  140.7416  155.3664 C   0  0  2  0  0  0  0  0  0  0  0  0
  147.4157  141.9064  155.0683 C   0  0  0  0  0  0  0  0  0  0  0  0
  147.9808  142.8326  154.1631 O   0  0  0  0  0  0  0  0  0  0  0  0
  149.7561  141.2654  155.9055 C   0  0  1  0  0  0  0  0  0  0  0  0
  149.7746  141.6159  157.3866 C   0  0  0  0  0  0  0  0  0  0  0  0
  151.2631  141.6294  157.7002 C   0  0  0  0  0  0  0  0  0  0  0  0
  151.7918  140.5539  156.9415 O   0  0  0  0  0  0  0  0  0  0  0  0
  150.9265  140.2675  155.8464 C   0  0  0  0  0  0  0  0  0  0  0  0
  143.9676  136.1998  151.3888 C   0  0  0  0  0  0  0  0  0  0  0  0
  144.5254  135.0577  150.5132 C   0  0  2  0  0  0  0  0  0  0  0  0
  144.7566  135.5789  149.0809 C   0  0  0  0  0  0  0  0  0  0  0  0
  145.4940  131.3512  149.0976 H   0  0  0  0  0  0  0  0  0  0  0  0
  145.4790  131.7573  150.8035 H   0  0  0  0  0  0  0  0  0  0  0  0
  146.1185  132.9026  149.6241 H   0  0  0  0  0  0  0  0  0  0  0  0
  143.7999  133.1011  148.5949 H   0  0  0  0  0  0  0  0  0  0  0  0
  143.1867  131.9739  149.7522 H   0  0  0  0  0  0  0  0  0  0  0  0
  142.6935  132.5440  151.9379 H   0  0  0  0  0  0  0  0  0  0  0  0
  144.3141  133.0395  152.3809 H   0  0  0  0  0  0  0  0  0  0  0  0
  141.7908  134.7480  152.4748 H   0  0  0  0  0  0  0  0  0  0  0  0
  142.6610  134.1195  153.8513 H   0  0  0  0  0  0  0  0  0  0  0  0
  144.6744  135.4069  153.2258 H   0  0  0  0  0  0  0  0  0  0  0  0
  141.3527  137.3355  154.4295 H   0  0  0  0  0  0  0  0  0  0  0  0
  141.4115  136.8497  152.7407 H   0  0  0  0  0  0  0  0  0  0  0  0
  142.0314  138.4293  153.2150 H   0  0  0  0  0  0  0  0  0  0  0  0
  144.4237  139.3702  157.1388 H   0  0  0  0  0  0  0  0  0  0  0  0
  147.8860  138.2852  151.8204 H   0  0  0  0  0  0  0  0  0  0  0  0
  149.3964  139.2012  154.1954 H   0  0  0  0  0  0  0  0  0  0  0  0
  148.7298  140.4807  153.2186 H   0  0  0  0  0  0  0  0  0  0  0  0
  147.9345  140.1423  156.1552 H   0  0  0  0  0  0  0  0  0  0  0  0
  146.4958  141.5507  154.6065 H   0  0  0  0  0  0  0  0  0  0  0  0
  147.1347  142.4224  155.9868 H   0  0  0  0  0  0  0  0  0  0  0  0
  148.1780  143.6293  154.6317 H   0  0  0  0  0  0  0  0  0  0  0  0
  150.0370  142.1619  155.3504 H   0  0  0  0  0  0  0  0  0  0  0  0
  149.3025  142.5727  157.6106 H   0  0  0  0  0  0  0  0  0  0  0  0
  149.2772  140.8399  157.9707 H   0  0  0  0  0  0  0  0  0  0  0  0
  151.7174  142.5610  157.3596 H   0  0  0  0  0  0  0  0  0  0  0  0
  151.4729  141.5141  158.7638 H   0  0  0  0  0  0  0  0  0  0  0  0
  150.5783  139.2399  155.9565 H   0  0  0  0  0  0  0  0  0  0  0  0
  151.4804  140.3389  154.9113 H   0  0  0  0  0  0  0  0  0  0  0  0
  143.0554  136.5767  150.9276 H   0  0  0  0  0  0  0  0  0  0  0  0
  144.6717  137.0330  151.3995 H   0  0  0  0  0  0  0  0  0  0  0  0
  145.4903  134.7587  150.9257 H   0  0  0  0  0  0  0  0  0  0  0  0
  145.3557  136.4899  149.0921 H   0  0  0  0  0  0  0  0  0  0  0  0
  143.8138  135.8124  148.5850 H   0  0  0  0  0  0  0  0  0  0  0  0
  145.2960  134.8617  148.4628 H   0  0  0  0  0  0  0  0  0  0  0  0
  142.7110  134.2237  150.2508 H   0  0  0  0  0  0  0  0  0  0  0  0
  1  2  1  0  0  0  0
  1 30  1  0  0  0  0
  1 31  1  0  0  0  0
  1 32  1  0  0  0  0
  2  3  1  0  0  0  0
  2 33  1  0  0  0  0
  2 34  1  0  0  0  0
  3 28  1  0  0  0  0
  3  4  1  0  0  0  0
  3 64  1  0  0  0  0
  4  5  1  0  0  0  0
  4 35  1  0  0  0  0
  4 36  1  0  0  0  0
  5  6  1  0  0  0  0
  5 37  1  0  0  0  0
  5 38  1  0  0  0  0
  6  7  1  0  0  0  0
  6 27  1  0  0  0  0
  6 39  1  0  0  0  0
  7  8  1  0  0  0  0
  7  9  1  0  0  0  0
  8 40  1  0  0  0  0
  8 41  1  0  0  0  0
  8 42  1  0  0  0  0
  9 14  1  0  0  0  0
  9 10  2  0  0  0  0
 10 11  1  0  0  0  0
 11 12  2  0  0  0  0
 11 43  1  0  0  0  0
 12 13  1  0  0  0  0
 13 17  1  0  0  0  0
 13 14  2  0  0  0  0
 14 15  1  0  0  0  0
 15 16  2  0  0  0  0
 16 17  1  0  0  0  0
 16 44  1  0  0  0  0
 17 18  1  0  0  0  0
 18 19  1  0  0  0  0
 18 45  1  0  0  0  0
 18 46  1  0  0  0  0
 19 20  1  0  0  0  0
 19 22  1  0  0  0  0
 19 47  1  0  0  0  0
 20 21  1  0  0  0  0
 20 48  1  0  0  0  0
 20 49  1  0  0  0  0
 21 50  1  0  0  0  0
 22 26  1  0  0  0  0
 22 23  1  0  0  0  0
 22 51  1  0  0  0  0
 23 24  1  0  0  0  0
 23 52  1  0  0  0  0
 23 53  1  0  0  0  0
 24 25  1  0  0  0  0
 24 54  1  0  0  0  0
 24 55  1  0  0  0  0
 25 26  1  0  0  0  0
 26 56  1  0  0  0  0
 26 57  1  0  0  0  0
 27 28  1  0  0  0  0
 27 58  1  0  0  0  0
 27 59  1  0  0  0  0
 28 29  1  0  0  0  0
 28 60  1  0  0  0  0
 29 61  1  0  0  0  0
 29 62  1  0  0  0  0
 29 63  1  0  0  0  0
M  CHG  1   3   1
M  END
> <s_m_source_file>
AV-unprocessed.smi

> <i_m_source_file_index>
249

> <i_lp_mmshare_version>
43012

> <i_f3d_flags>
0

> <s_epik_input>
W0NIM11bQ0gyXU4xW0NIMl1bQ0gyXVtDQEhdKFtDSDJdW0NASF0xW0NIM10pTihbQ0gzXSljKG5bY0hdbjIpYyhjMjMpbltjSF1uM1tDSDJdW0NASF0oW0NIMl1bT0hdKVtDQEBIXTRbQ0gyXVtDSDJdT1tDSDJdNA==

> <s_epik_cmdline>
J2VwaWtfcHl0aG9uJywgJy1waCcsICc3LjAnLCAnLXRuJywgJzgnLCAnLW1hJywgJzIwMCcsICctbWV0YWxfYmluZGluZycsICctaW1hZScsICc8aW5maWxlLm1hZT4nLCAnLW9tYWUnLCAnPG91dGZpbGUubWFlPic=

> <r_lp_tautomer_probability>
1

> <r_epik_Ionization_Penalty>
0.00294688

> <r_epik_Ionization_Penalty_Charging>
0.00169971

> <r_epik_Ionization_Penalty_Neutral>
0.00124717

> <r_epik_State_Penalty>
-0

> <r_epik_Charging_Adjusted_Penalty>
0.00169971

> <i_epik_Tot_Q>
1

> <i_epik_Tot_abs_Q>
1

> <r_epik_Metal_State_Penalty>
-0

> <b_epik_Metal_Only>
0

> <s_lp_Force_Field>
OPLS_2005

> <r_lp_Energy>
53.7488

> <b_lp_Chiralities_Consistent>
1

> <s_lp_Variant>
AV-unprocessed.smi:249-28

> <Gold.Version>
5.8.1

> <Gold.Id.Protein>
6NUR|6NUR_protein|mol2

> <Gold.PLP.Fitness>
46.4829

> <Gold.PLP.PLP>
-34.8675

> <Gold.PLP.part.hbond>
-4.0000

> <Gold.PLP.part.metal>
0.0000

> <Gold.PLP.part.buried>
6.2654

> <Gold.PLP.part.nonpolar>
-39.0046

> <Gold.PLP.part.repulsive>
0.3742

> <Gold.PLP.ligand.clash>
0.0000

> <Gold.PLP.ligand.torsion>
1.7394

> <Gold.PLP.Chemscore.Hbond>
3.0000

> <Gold.PLP.Chemscore.CHOScore>
1.6738

> <Gold.PLP.Chemscore.Metal>
0.0000

> <Gold.Chemscore.Hbonds>
donor molecule, donor type, donor heavy atom, donor atom, acceptor molecule, acceptor atom, score
      L1  H     3    64       P1 10186  2.00
      L1  H    21    50       P1  8028  1.00
      L1  C    16    44       P1  7948  0.62
      L1  C    16    44       P1  7957  0.99

> <Gold.PLP.Chemscore.Internal.Correction>
1.0729

> <Gold.Rescore>
     Score         DG    S(hbond)    S(metal)    S(lipo)     H(rot)  DE(clash)    DE(int)     intcor
      7.31     -17.36       1.97        0.00     103.43       2.65       4.03       6.02       ----

> <Gold.Chemscore.Fitness>
7.3120

> <Gold.Chemscore.DG>
-17.3647

> <Gold.Chemscore.ZeroCoef>
-5.4800

> <Gold.Chemscore.Hbond>
1.9674

> <Gold.Chemscore.Metal>
0.0000

> <Gold.Chemscore.Lipo>
103.4334

> <Gold.Chemscore.Internal_Hbond>
0.0000

> <Gold.Chemscore.DEClash>
4.0324

> <Gold.Chemscore.DEInternal>
6.0204

> <Gold.Chemscore.Rot>
2.6515

> <Gold.Chemscore.Internal.Correction>
   9.000000E+99

> <Gold.Chemscore.Hbonds>
donor molecule, donor type, donor heavy atom, donor atom, acceptor molecule, acceptor atom, score
      L1  H     3    64       P1 10186  0.88
      L1  H    21    50       P1  8028  0.87

> <Gold.Chemscore.Hbond.Weighted>
-6.5710

> <Gold.Chemscore.Metal.Weighted>
-0.0000

> <Gold.Chemscore.Lipo.Weighted>
-12.1017

> <Gold.Chemscore.Internal_Hbond.Weighted>
0.0000

> <Gold.Chemscore.DEClash.Weighted>
4.0324

> <Gold.Chemscore.DEInternal.Weighted>
6.0204

> <Gold.Chemscore.Rot.Weighted>
6.7880

> <Gold.Chemscore.Internal.Correction.Weighted>
   9.000000E+99

> <Gold.Protein.RotatedTorsions>
[ 6907 6896 6895 6894 ] final  -62.76 input  -60.11 | X-H torsion
[ 7974 7965 7964 7962 ] final  -23.14 input  175.53 | X-H torsion
[ 8008 7997 7996 7995 ] final  129.29 input   59.86 | X-H torsion
[ 10167 10162 10161 10158 ] final   29.82 input  -65.29 | X-H torsion
[ 10718 10713 10712 10709 ] final -136.35 input   66.30 | X-H torsion
[ 10763 10752 10751 10750 ] final -166.40 input  -60.55 | X-H torsion
[ 11005 11000 10999 10996 ] final   -6.59 input  -57.11 | X-H torsion

> <Gold.Protein.ActiveResidues>
 VAL166  LYS551  ARG553  GLY616  TRP617  ASP618  TYR619  PRO620  LYS621  CYS622 
 ASP623  PHE694  ASN695  SER759  ASP760  ASP761  ALA762  ILE779  LEU786  VAL792 
 PHE793  MET794  SER795  GLU796  ALA797  LYS798  CYS799  TRP800  GLU811  SER814 

> <Gold.Protein.RotatedAtoms>
  150.7694  134.6527  159.6296 H   0  0  0  0  0  0  0  0  0  0  0  0  # atno 6907 bound_to 6896
  152.3740  134.6689  160.0175 H   0  0  0  0  0  0  0  0  0  0  0  0  # atno 6908 bound_to 6896
  151.7039  133.3275  159.3310 H   0  0  0  0  0  0  0  0  0  0  0  0  # atno 6909 bound_to 6896
  146.1634  140.4575  142.8562 H   0  0  0  0  0  0  0  0  0  0  0  0  # atno 7974 bound_to 7965
  156.2933  140.2624  156.2575 H   0  0  0  0  0  0  0  0  0  0  0  0  # atno 8008 bound_to 7997
  154.9821  140.0389  157.2301 H   0  0  0  0  0  0  0  0  0  0  0  0  # atno 8009 bound_to 7997
  154.7762  140.2787  155.6104 H   0  0  0  0  0  0  0  0  0  0  0  0  # atno 8010 bound_to 7997
  140.4732  144.0730  150.6243 H   0  0  0  0  0  0  0  0  0  0  0  0  # atno 10167 bound_to 10162
  156.2761  130.7294  151.1277 H   0  0  0  0  0  0  0  0  0  0  0  0  # atno 10718 bound_to 10713
  154.6837  135.2959  154.9577 H   0  0  0  0  0  0  0  0  0  0  0  0  # atno 10763 bound_to 10752
  154.0564  135.6637  153.4810 H   0  0  0  0  0  0  0  0  0  0  0  0  # atno 10764 bound_to 10752
  153.0564  135.5142  154.7893 H   0  0  0  0  0  0  0  0  0  0  0  0  # atno 10765 bound_to 10752
  140.7037  133.8968  155.8701 H   0  0  0  0  0  0  0  0  0  0  0  0  # atno 11005 bound_to 11000
  144.8059  140.6298  143.6447 LP  0  0  0  0  0  0  0  0  0  0  0  0  # atno 17320 bound_to 7965
  145.4529  139.1521  143.3908 LP  0  0  0  0  0  0  0  0  0  0  0  0  # atno 17321 bound_to 7965
  140.3951  143.2732  152.0014 LP  0  0  0  0  0  0  0  0  0  0  0  0  # atno 17342 bound_to 10162
  139.4821  144.6045  151.7547 LP  0  0  0  0  0  0  0  0  0  0  0  0  # atno 17343 bound_to 10162
  157.7300  131.0620  150.5748 LP  0  0  0  0  0  0  0  0  0  0  0  0  # atno 17370 bound_to 10713
  156.5850  130.4314  149.5961 LP  0  0  0  0  0  0  0  0  0  0  0  0  # atno 17371 bound_to 10713
  141.0142  134.0978  157.4189 LP  0  0  0  0  0  0  0  0  0  0  0  0  # atno 17394 bound_to 11000
  139.8890  135.0102  156.6653 LP  0  0  0  0  0  0  0  0  0  0  0  0  # atno 17395 bound_to 11000

$$$$
