AV-unprocessed.smi:2775|AV-procd|sdf|10693|dock1
  -GOLD-   2272015133D 1   1.00000     0.00000
 Structure written by MMmdl.
 42 45  0  0  0  0  0  0  0  0  1 V2000
  138.9051  136.7931  153.8841 C   0  0  0  0  0  0  0  0  0  0  0  0
  140.3952  136.5078  153.8781 C   0  0  0  0  0  0  0  0  0  0  0  0
  140.7414  135.2024  153.8537 N   0  0  0  0  0  0  0  0  0  0  0  0
  142.0544  134.8946  153.8408 C   0  0  0  0  0  0  0  0  0  0  0  0
  143.0780  135.8611  153.8567 C   0  0  0  0  0  0  0  0  0  0  0  0
  142.7188  137.2297  153.8964 C   0  0  0  0  0  0  0  0  0  0  0  0
  143.6572  138.2979  153.9016 N   0  0  0  0  0  0  0  0  0  0  0  0
  144.8630  138.3880  154.4953 C   0  0  0  0  0  0  0  0  0  0  0  0
  145.3823  137.5088  155.1788 O   0  0  0  0  0  0  0  0  0  0  0  0
  145.4800  139.5646  154.2876 N   0  0  0  0  0  0  0  0  0  0  0  0
  146.7913  139.9788  154.7902 C   0  0  1  0  0  0  0  0  0  0  0  0
  147.9273  139.6633  153.7993 C   0  0  2  0  0  0  0  0  0  0  0  0
  149.0038  138.6847  154.1837 C   0  0  0  0  0  0  0  0  0  0  0  0
  150.1328  139.5939  154.6775 C   0  0  0  0  0  0  0  0  0  0  0  0
  149.4847  140.8121  155.0363 O   0  0  0  0  0  0  0  0  0  0  0  0
  148.4726  141.0620  154.0659 C   0  0  2  0  0  0  0  0  0  0  0  0
  147.1072  141.4807  154.6246 C   0  0  0  0  0  0  0  0  0  0  0  0
  146.2097  142.4426  153.8226 C   0  0  0  0  0  0  0  0  0  0  0  0
  145.7532  143.0586  155.1479 C   0  0  0  0  0  0  0  0  0  0  0  0
  146.9982  142.4557  155.8054 C   0  0  0  0  0  0  0  0  0  0  0  0
  141.3425  137.5578  153.8959 C   0  0  0  0  0  0  0  0  0  0  0  0
  140.8275  139.2122  153.9211 Cl  0  0  0  0  0  0  0  0  0  0  0  0
  138.6307  137.3552  154.7769 H   0  0  0  0  0  0  0  0  0  0  0  0
  138.3192  135.8731  153.8718 H   0  0  0  0  0  0  0  0  0  0  0  0
  138.6293  137.3802  153.0079 H   0  0  0  0  0  0  0  0  0  0  0  0
  142.2982  133.8428  153.8110 H   0  0  0  0  0  0  0  0  0  0  0  0
  144.1042  135.5312  153.8273 H   0  0  0  0  0  0  0  0  0  0  0  0
  143.3495  139.1317  153.4226 H   0  0  0  0  0  0  0  0  0  0  0  0
  144.9889  140.2414  153.7213 H   0  0  0  0  0  0  0  0  0  0  0  0
  147.0293  139.6173  155.7930 H   0  0  0  0  0  0  0  0  0  0  0  0
  147.5716  139.5677  152.7715 H   0  0  0  0  0  0  0  0  0  0  0  0
  148.6625  138.0229  154.9804 H   0  0  0  0  0  0  0  0  0  0  0  0
  149.3252  138.0637  153.3472 H   0  0  0  0  0  0  0  0  0  0  0  0
  150.6798  139.1676  155.5185 H   0  0  0  0  0  0  0  0  0  0  0  0
  150.8426  139.7936  153.8735 H   0  0  0  0  0  0  0  0  0  0  0  0
  148.8202  141.5873  153.1752 H   0  0  0  0  0  0  0  0  0  0  0  0
  146.7855  143.1456  153.2187 H   0  0  0  0  0  0  0  0  0  0  0  0
  145.4140  141.9826  153.2372 H   0  0  0  0  0  0  0  0  0  0  0  0
  145.7185  144.1483  155.1543 H   0  0  0  0  0  0  0  0  0  0  0  0
  144.8245  142.6246  155.5192 H   0  0  0  0  0  0  0  0  0  0  0  0
  146.8171  141.9856  156.7723 H   0  0  0  0  0  0  0  0  0  0  0  0
  147.8326  143.1573  155.8488 H   0  0  0  0  0  0  0  0  0  0  0  0
  1  2  1  0  0  0  0
  1 23  1  0  0  0  0
  1 24  1  0  0  0  0
  1 25  1  0  0  0  0
  2 21  1  0  0  0  0
  2  3  2  0  0  0  0
  3  4  1  0  0  0  0
  4  5  2  0  0  0  0
  4 26  1  0  0  0  0
  5  6  1  0  0  0  0
  5 27  1  0  0  0  0
  6  7  1  0  0  0  0
  6 21  2  0  0  0  0
  7  8  1  0  0  0  0
  7 28  1  0  0  0  0
  8  9  2  0  0  0  0
  8 10  1  0  0  0  0
 10 11  1  0  0  0  0
 10 29  1  0  0  0  0
 11 17  1  0  0  0  0
 11 12  1  0  0  0  0
 11 30  1  0  0  0  0
 12 16  1  0  0  0  0
 12 13  1  0  0  0  0
 12 31  1  0  0  0  0
 13 14  1  0  0  0  0
 13 32  1  0  0  0  0
 13 33  1  0  0  0  0
 14 15  1  0  0  0  0
 14 34  1  0  0  0  0
 14 35  1  0  0  0  0
 15 16  1  0  0  0  0
 16 17  1  0  0  0  0
 16 36  1  0  0  0  0
 17 20  1  0  0  0  0
 17 18  1  0  0  0  0
 18 19  1  0  0  0  0
 18 37  1  0  0  0  0
 18 38  1  0  0  0  0
 19 20  1  0  0  0  0
 19 39  1  0  0  0  0
 19 40  1  0  0  0  0
 20 41  1  0  0  0  0
 20 42  1  0  0  0  0
 21 22  1  0  0  0  0
M  END
> <s_m_source_file>
AV-unprocessed.smi

> <i_m_source_file_index>
2775

> <i_lp_mmshare_version>
43012

> <i_f3d_flags>
0

> <s_epik_input>
W0NIM11jMW5bY0hdW2NIXWMoYzFDbClbTkhdQyg9TylbTkhdW0NAQEhdMltDQEhdKFtDSDJdW0NIMl1PMylbQ0BASF0zQzI0W0NIMl1bQ0gyXVtDSDJdNA==

> <s_epik_cmdline>
J2VwaWtfcHl0aG9uJywgJy1waCcsICc3LjAnLCAnLXRuJywgJzgnLCAnLW1hJywgJzIwMCcsICctbWV0YWxfYmluZGluZycsICctaW1hZScsICc8aW5maWxlLm1hZT4nLCAnLW9tYWUnLCAnPG91dGZpbGUubWFlPic=

> <r_epik_Ionization_Penalty>
0.01026

> <r_epik_Ionization_Penalty_Charging>
0

> <r_epik_Ionization_Penalty_Neutral>
0.01026

> <r_epik_State_Penalty>
0.00780685

> <r_epik_Charging_Adjusted_Penalty>
0.00780685

> <i_epik_Tot_Q>
0

> <i_epik_Tot_abs_Q>
0

> <r_epik_Metal_State_Penalty>
0.00767411

> <b_epik_Metal_Only>
0

> <s_lp_Force_Field>
OPLS_2005

> <r_lp_Energy>
55.7344

> <b_lp_Chiralities_Consistent>
1

> <s_lp_Variant>
AV-unprocessed.smi:2775-6

> <Gold.Version>
5.8.1

> <Gold.Id.Protein>
6NUR|6NUR_protein|mol2

> <Gold.PLP.Fitness>
45.5422

> <Gold.PLP.PLP>
-35.3316

> <Gold.PLP.part.hbond>
-3.1466

> <Gold.PLP.part.metal>
0.0000

> <Gold.PLP.part.buried>
-2.6256

> <Gold.PLP.part.nonpolar>
-30.9476

> <Gold.PLP.part.repulsive>
0.3218

> <Gold.PLP.ligand.clash>
0.0000

> <Gold.PLP.ligand.torsion>
0.5046

> <Gold.PLP.Chemscore.Hbond>
2.6753

> <Gold.PLP.Chemscore.CHOScore>
1.0000

> <Gold.PLP.Chemscore.Metal>
0.0000

> <Gold.Chemscore.Hbonds>
donor molecule, donor type, donor heavy atom, donor atom, acceptor molecule, acceptor atom, score
      L1  H     7    28       P1 10175  1.00
      L1  H    10    29       P1 10175  0.91
      P1  H 11000 11005       L1     3  0.69
      L1  C     4    26       P1 10957  1.00

> <Gold.PLP.Chemscore.Internal.Correction>
0.1940

> <Gold.Rescore>
     Score         DG    S(hbond)    S(metal)    S(lipo)     H(rot)  DE(clash)    DE(int)     intcor
     19.44     -20.30       2.15        0.00      87.27       1.00       0.34       0.53       ----

> <Gold.Chemscore.Fitness>
19.4405

> <Gold.Chemscore.DG>
-20.3043

> <Gold.Chemscore.ZeroCoef>
-5.4800

> <Gold.Chemscore.Hbond>
2.1477

> <Gold.Chemscore.Metal>
0.0000

> <Gold.Chemscore.Lipo>
87.2723

> <Gold.Chemscore.Internal_Hbond>
0.0000

> <Gold.Chemscore.DEClash>
0.3358

> <Gold.Chemscore.DEInternal>
0.5280

> <Gold.Chemscore.Rot>
1.0000

> <Gold.Chemscore.Internal.Correction>
   9.000000E+99

> <Gold.Chemscore.Hbonds>
donor molecule, donor type, donor heavy atom, donor atom, acceptor molecule, acceptor atom, score
      L1  H     7    28       P1 10175  0.96
      L1  H    10    29       P1 10175  0.88
      P1  H 11000 11005       L1     3  0.08

> <Gold.Chemscore.Hbond.Weighted>
-7.1735

> <Gold.Chemscore.Metal.Weighted>
-0.0000

> <Gold.Chemscore.Lipo.Weighted>
-10.2109

> <Gold.Chemscore.Internal_Hbond.Weighted>
0.0000

> <Gold.Chemscore.DEClash.Weighted>
0.3358

> <Gold.Chemscore.DEInternal.Weighted>
0.5280

> <Gold.Chemscore.Rot.Weighted>
2.5600

> <Gold.Chemscore.Internal.Correction.Weighted>
   9.000000E+99

> <Gold.Protein.RotatedTorsions>
[ 6907 6896 6895 6894 ] final  166.74 input  -60.11 | X-H torsion
[ 7974 7965 7964 7962 ] final  136.06 input  175.53 | X-H torsion
[ 8008 7997 7996 7995 ] final -175.90 input   59.86 | X-H torsion
[ 10167 10162 10161 10158 ] final -134.20 input  -65.29 | X-H torsion
[ 10718 10713 10712 10709 ] final  109.57 input   66.30 | X-H torsion
[ 10763 10752 10751 10750 ] final -139.65 input  -60.55 | X-H torsion
[ 11005 11000 10999 10996 ] final   33.60 input  -57.11 | X-H torsion

> <Gold.Protein.ActiveResidues>
 VAL166  LYS551  ARG553  GLY616  TRP617  ASP618  TYR619  PRO620  LYS621  CYS622 
 ASP623  PHE694  ASN695  SER759  ASP760  ASP761  ALA762  ILE779  LEU786  VAL792 
 PHE793  MET794  SER795  GLU796  ALA797  LYS798  CYS799  TRP800  GLU811  SER814 

> <Gold.Protein.RotatedAtoms>
  151.8743  133.3482  159.3744 H   0  0  0  0  0  0  0  0  0  0  0  0  # atno 6907 bound_to 6896
  150.7144  134.5082  159.5604 H   0  0  0  0  0  0  0  0  0  0  0  0  # atno 6908 bound_to 6896
  152.2621  134.8023  160.0480 H   0  0  0  0  0  0  0  0  0  0  0  0  # atno 6909 bound_to 6896
  144.9602  139.4719  143.5483 H   0  0  0  0  0  0  0  0  0  0  0  0  # atno 7974 bound_to 7965
  155.9883  140.1195  157.0662 H   0  0  0  0  0  0  0  0  0  0  0  0  # atno 8008 bound_to 7997
  154.4203  140.1131  156.5598 H   0  0  0  0  0  0  0  0  0  0  0  0  # atno 8009 bound_to 7997
  155.6378  140.3473  155.4706 H   0  0  0  0  0  0  0  0  0  0  0  0  # atno 8010 bound_to 7997
  139.8904  143.6729  152.2613 H   0  0  0  0  0  0  0  0  0  0  0  0  # atno 10167 bound_to 10162
  157.6535  131.0916  150.6474 H   0  0  0  0  0  0  0  0  0  0  0  0  # atno 10718 bound_to 10713
  154.8603  135.3576  154.5580 H   0  0  0  0  0  0  0  0  0  0  0  0  # atno 10763 bound_to 10752
  153.6196  135.7006  153.5320 H   0  0  0  0  0  0  0  0  0  0  0  0  # atno 10764 bound_to 10752
  153.3140  135.4170  155.1320 H   0  0  0  0  0  0  0  0  0  0  0  0  # atno 10765 bound_to 10752
  140.2615  134.3187  155.7856 H   0  0  0  0  0  0  0  0  0  0  0  0  # atno 11005 bound_to 11000
  146.3350  139.8746  142.8834 LP  0  0  0  0  0  0  0  0  0  0  0  0  # atno 17320 bound_to 7965
  145.2712  141.0109  143.3771 LP  0  0  0  0  0  0  0  0  0  0  0  0  # atno 17321 bound_to 7965
  139.7115  144.7619  151.1105 LP  0  0  0  0  0  0  0  0  0  0  0  0  # atno 17342 bound_to 10162
  140.7727  143.5325  150.9406 LP  0  0  0  0  0  0  0  0  0  0  0  0  # atno 17343 bound_to 10162
  156.6782  130.4559  149.5636 LP  0  0  0  0  0  0  0  0  0  0  0  0  # atno 17370 bound_to 10713
  156.1948  130.6582  151.1102 LP  0  0  0  0  0  0  0  0  0  0  0  0  # atno 17371 bound_to 10713
  141.2189  133.7412  156.9194 LP  0  0  0  0  0  0  0  0  0  0  0  0  # atno 17394 bound_to 11000
  140.1460  134.9262  157.2530 LP  0  0  0  0  0  0  0  0  0  0  0  0  # atno 17395 bound_to 11000

$$$$
