AV-unprocessed.smi:2941|AV-procd|sdf|11264|dock9
  -GOLD-   2272016153D 1   1.00000     0.00000
 Structure written by MMmdl.
 36 37  0  0  0  0  0  0  0  0  1 V2000
  151.6637  145.0597  160.2901 C   0  0  0  0  0  0  0  0  0  0  0  0
  151.2970  143.8025  160.8308 O   0  0  0  0  0  0  0  0  0  0  0  0
  152.3586  142.8640  160.7941 C   0  0  0  0  0  0  0  0  0  0  0  0
  152.8261  142.7039  159.3398 C   0  0  0  0  0  0  0  0  0  0  0  0
  152.4962  141.3737  158.8105 N   0  0  0  0  0  0  0  0  0  0  0  0
  151.8154  141.3297  157.5784 C   0  0  0  0  0  0  0  0  0  0  0  0
  151.4717  140.1686  156.9902 C   0  0  0  0  0  0  0  0  0  0  0  0
  150.7587  140.1651  155.6905 C   0  0  0  0  0  0  0  0  0  0  0  0
  151.2483  139.6209  154.6997 O   0  0  0  0  0  0  0  0  0  0  0  0
  149.4383  140.8546  155.5977 C   0  0  0  0  0  0  0  0  0  0  0  0
  148.7508  141.1275  156.8022 C   0  0  0  0  0  0  0  0  0  0  0  0
  147.4971  141.7672  156.7855 C   0  0  0  0  0  0  0  0  0  0  0  0
  146.8480  142.0150  157.9475 F   0  0  0  0  0  0  0  0  0  0  0  0
  146.9182  142.1477  155.5617 C   0  0  0  0  0  0  0  0  0  0  0  0
  147.5981  141.8951  154.3562 C   0  0  0  0  0  0  0  0  0  0  0  0
  148.8550  141.2565  154.3648 C   0  0  0  0  0  0  0  0  0  0  0  0
  149.4903  141.0715  153.1682 O   0  0  0  0  0  0  0  0  0  0  0  0
  151.8099  138.9385  157.6789 C   0  0  0  0  0  0  0  0  0  0  0  0
  152.4530  138.9744  158.8627 C   0  0  0  0  0  0  0  0  0  0  0  0
  152.7947  137.7769  159.5563 C   0  0  0  0  0  0  0  0  0  0  0  0
  153.0574  136.7909  160.1024 N   0  0  0  0  0  0  0  0  0  0  0  0
  152.8334  140.2423  159.5012 C   0  0  0  0  0  0  0  0  0  0  0  0
  153.4142  140.2918  160.5867 O   0  0  0  0  0  0  0  0  0  0  0  0
  150.8187  145.7454  160.3518 H   0  0  0  0  0  0  0  0  0  0  0  0
  151.9474  144.9696  159.2409 H   0  0  0  0  0  0  0  0  0  0  0  0
  152.4954  145.4999  160.8417 H   0  0  0  0  0  0  0  0  0  0  0  0
  153.1814  143.2087  161.4225 H   0  0  0  0  0  0  0  0  0  0  0  0
  152.0209  141.9043  161.1887 H   0  0  0  0  0  0  0  0  0  0  0  0
  152.3674  143.4784  158.7233 H   0  0  0  0  0  0  0  0  0  0  0  0
  153.8994  142.8895  159.2720 H   0  0  0  0  0  0  0  0  0  0  0  0
  151.5998  142.2981  157.1486 H   0  0  0  0  0  0  0  0  0  0  0  0
  149.1777  140.8379  157.7519 H   0  0  0  0  0  0  0  0  0  0  0  0
  145.9563  142.6389  155.5474 H   0  0  0  0  0  0  0  0  0  0  0  0
  147.1532  142.2028  153.4210 H   0  0  0  0  0  0  0  0  0  0  0  0
  149.0256  140.4884  152.5872 H   0  0  0  0  0  0  0  0  0  0  0  0
  151.5447  137.9816  157.2526 H   0  0  0  0  0  0  0  0  0  0  0  0
  1  2  1  0  0  0  0
  1 24  1  0  0  0  0
  1 25  1  0  0  0  0
  1 26  1  0  0  0  0
  2  3  1  0  0  0  0
  3  4  1  0  0  0  0
  3 27  1  0  0  0  0
  3 28  1  0  0  0  0
  4  5  1  0  0  0  0
  4 29  1  0  0  0  0
  4 30  1  0  0  0  0
  5 22  1  0  0  0  0
  5  6  1  0  0  0  0
  6  7  2  0  0  0  0
  6 31  1  0  0  0  0
  7  8  1  0  0  0  0
  7 18  1  0  0  0  0
  8  9  2  0  0  0  0
  8 10  1  0  0  0  0
 10 16  1  0  0  0  0
 10 11  2  0  0  0  0
 11 12  1  0  0  0  0
 11 32  1  0  0  0  0
 12 13  1  0  0  0  0
 12 14  2  0  0  0  0
 14 15  1  0  0  0  0
 14 33  1  0  0  0  0
 15 16  2  0  0  0  0
 15 34  1  0  0  0  0
 16 17  1  0  0  0  0
 17 35  1  0  0  0  0
 18 19  2  0  0  0  0
 18 36  1  0  0  0  0
 19 20  1  0  0  0  0
 19 22  1  0  0  0  0
 20 21  3  0  0  0  0
 22 23  2  0  0  0  0
M  END
> <s_m_source_file>
AV-unprocessed.smi

> <i_m_source_file_index>
2941

> <i_lp_mmshare_version>
43012

> <i_f3d_flags>
0

> <s_epik_input>
W0NIM11PW0NIMl1bQ0gyXW4xW2NIXWMoW2NIXWMoQyNOKWMxPU8pQyg9TyljMltjSF1jKEYpW2NIXVtjSF1jMltPSF0=

> <s_epik_cmdline>
J2VwaWtfcHl0aG9uJywgJy1waCcsICc3LjAnLCAnLXRuJywgJzgnLCAnLW1hJywgJzIwMCcsICctbWV0YWxfYmluZGluZycsICctaW1hZScsICc8aW5maWxlLm1hZT4nLCAnLW9tYWUnLCAnPG91dGZpbGUubWFlPic=

> <r_epik_Ionization_Penalty>
0.27579

> <r_epik_Ionization_Penalty_Charging>
5.62591e-11

> <r_epik_Ionization_Penalty_Neutral>
0.27579

> <r_epik_State_Penalty>
0.26814

> <r_epik_Charging_Adjusted_Penalty>
0.26814

> <i_epik_Tot_Q>
0

> <i_epik_Tot_abs_Q>
0

> <r_epik_Metal_State_Penalty>
0.26814

> <b_epik_Metal_Only>
0

> <s_lp_Force_Field>
OPLS_2005

> <r_lp_Energy>
22.041

> <b_lp_Chiralities_Consistent>
1

> <s_lp_Variant>
AV-unprocessed.smi:2941-1

> <Gold.Version>
5.8.1

> <Gold.Id.Protein>
6NUR|6NUR_protein|mol2

> <Gold.PLP.Fitness>
53.9346

> <Gold.PLP.PLP>
-45.1808

> <Gold.PLP.part.hbond>
-4.6872

> <Gold.PLP.part.metal>
0.0000

> <Gold.PLP.part.buried>
-7.0216

> <Gold.PLP.part.nonpolar>
-33.7015

> <Gold.PLP.part.repulsive>
0.2033

> <Gold.PLP.ligand.clash>
0.0000

> <Gold.PLP.ligand.torsion>
1.7055

> <Gold.PLP.Chemscore.Hbond>
3.4800

> <Gold.PLP.Chemscore.CHOScore>
0.0000

> <Gold.PLP.Chemscore.Metal>
0.0000

> <Gold.Chemscore.Hbonds>
donor molecule, donor type, donor heavy atom, donor atom, acceptor molecule, acceptor atom, score
      L1  H    17    35       P1  7957  0.45
      P1  H  6896  6908       L1    21  1.00
      P1  H  7989  7998       L1     9  1.00
      P1  H  8011  8017       L1    17  1.00

> <Gold.PLP.Chemscore.Internal.Correction>
1.7248

> <Gold.Rescore>
     Score         DG    S(hbond)    S(metal)    S(lipo)     H(rot)  DE(clash)    DE(int)     intcor
     19.69     -21.44       3.34        0.00      85.62       2.04       0.01       1.75       ----

> <Gold.Chemscore.Fitness>
19.6860

> <Gold.Chemscore.DG>
-21.4421

> <Gold.Chemscore.ZeroCoef>
-5.4800

> <Gold.Chemscore.Hbond>
3.3398

> <Gold.Chemscore.Metal>
0.0000

> <Gold.Chemscore.Lipo>
85.6151

> <Gold.Chemscore.Internal_Hbond>
0.0000

> <Gold.Chemscore.DEClash>
0.0073

> <Gold.Chemscore.DEInternal>
1.7487

> <Gold.Chemscore.Rot>
2.0351

> <Gold.Chemscore.Internal.Correction>
   9.000000E+99

> <Gold.Chemscore.Hbonds>
donor molecule, donor type, donor heavy atom, donor atom, acceptor molecule, acceptor atom, score
      L1  H    17    35       P1  7957  0.45
      P1  H  6896  6908       L1    21  0.94
      P1  H  7989  7998       L1     9  0.70
      P1  H  8011  8017       L1    17  0.51

> <Gold.Chemscore.Hbond.Weighted>
-11.1550

> <Gold.Chemscore.Metal.Weighted>
-0.0000

> <Gold.Chemscore.Lipo.Weighted>
-10.0170

> <Gold.Chemscore.Internal_Hbond.Weighted>
0.0000

> <Gold.Chemscore.DEClash.Weighted>
0.0073

> <Gold.Chemscore.DEInternal.Weighted>
1.7487

> <Gold.Chemscore.Rot.Weighted>
5.2099

> <Gold.Chemscore.Internal.Correction.Weighted>
   9.000000E+99

> <Gold.Protein.RotatedTorsions>
[ 6907 6896 6895 6894 ] final  -90.74 input  -60.11 | X-H torsion
[ 7974 7965 7964 7962 ] final   58.04 input  175.53 | X-H torsion
[ 8008 7997 7996 7995 ] final  -65.90 input   59.86 | X-H torsion
[ 10167 10162 10161 10158 ] final  -67.11 input  -65.29 | X-H torsion
[ 10718 10713 10712 10709 ] final  -48.11 input   66.30 | X-H torsion
[ 10763 10752 10751 10750 ] final -103.49 input  -60.55 | X-H torsion
[ 11005 11000 10999 10996 ] final  -45.29 input  -57.11 | X-H torsion

> <Gold.Protein.ActiveResidues>
 VAL166  LYS551  ARG553  GLY616  TRP617  ASP618  TYR619  PRO620  LYS621  CYS622 
 ASP623  PHE694  ASN695  SER759  ASP760  ASP761  ALA762  ILE779  LEU786  VAL792 
 PHE793  MET794  SER795  GLU796  ALA797  LYS798  CYS799  TRP800  GLU811  SER814 

> <Gold.Protein.RotatedAtoms>
  150.6885  134.2386  159.4462 H   0  0  0  0  0  0  0  0  0  0  0  0  # atno 6907 bound_to 6896
  152.0331  134.9753  160.0582 H   0  0  0  0  0  0  0  0  0  0  0  0  # atno 6908 bound_to 6896
  152.1284  133.4359  159.4746 H   0  0  0  0  0  0  0  0  0  0  0  0  # atno 6909 bound_to 6896
  145.9225  139.3741  143.0469 H   0  0  0  0  0  0  0  0  0  0  0  0  # atno 7974 bound_to 7965
  154.4700  140.0924  156.7121 H   0  0  0  0  0  0  0  0  0  0  0  0  # atno 8008 bound_to 7997
  155.4750  140.3465  155.4313 H   0  0  0  0  0  0  0  0  0  0  0  0  # atno 8009 bound_to 7997
  156.1023  140.1425  156.9439 H   0  0  0  0  0  0  0  0  0  0  0  0  # atno 8010 bound_to 7997
  140.5607  143.2313  151.6733 H   0  0  0  0  0  0  0  0  0  0  0  0  # atno 10167 bound_to 10162
  156.2020  130.4156  149.9229 H   0  0  0  0  0  0  0  0  0  0  0  0  # atno 10718 bound_to 10713
  154.7811  135.4821  153.9846 H   0  0  0  0  0  0  0  0  0  0  0  0  # atno 10763 bound_to 10752
  153.1495  135.6788  153.8911 H   0  0  0  0  0  0  0  0  0  0  0  0  # atno 10764 bound_to 10752
  153.8560  135.3161  155.3413 H   0  0  0  0  0  0  0  0  0  0  0  0  # atno 10765 bound_to 10752
  141.0506  133.6744  156.2993 H   0  0  0  0  0  0  0  0  0  0  0  0  # atno 11005 bound_to 11000
  145.8531  140.9518  143.0739 LP  0  0  0  0  0  0  0  0  0  0  0  0  # atno 17320 bound_to 7965
  144.6754  140.0432  143.7480 LP  0  0  0  0  0  0  0  0  0  0  0  0  # atno 17321 bound_to 7965
  139.5069  144.3666  152.0511 LP  0  0  0  0  0  0  0  0  0  0  0  0  # atno 17342 bound_to 10162
  140.2792  144.3878  150.6124 LP  0  0  0  0  0  0  0  0  0  0  0  0  # atno 17343 bound_to 10162
  156.6935  130.8905  151.3591 LP  0  0  0  0  0  0  0  0  0  0  0  0  # atno 17370 bound_to 10713
  157.6991  130.9313  150.0731 LP  0  0  0  0  0  0  0  0  0  0  0  0  # atno 17371 bound_to 10713
  140.6062  134.5504  157.5526 LP  0  0  0  0  0  0  0  0  0  0  0  0  # atno 17394 bound_to 11000
  139.9347  134.7897  156.0834 LP  0  0  0  0  0  0  0  0  0  0  0  0  # atno 17395 bound_to 11000

$$$$
