AV-unprocessed.smi:1830|AV-procd|sdf|7443|dock2
  -GOLD-   22720 9133D 1   1.00000     0.00000
 Structure written by MMmdl.
 52 55  0  0  0  0  0  0  0  0  1 V2000
  144.6484  136.6232  151.6978 O   0  0  0  0  0  0  0  0  0  0  0  0
  145.8520  136.3848  151.7937 C   0  0  0  0  0  0  0  0  0  0  0  0
  146.7759  137.3245  152.0383 N   0  0  0  0  0  0  0  0  0  0  0  0
  146.5130  138.7497  152.2204 C   0  0  0  0  0  0  0  0  0  0  0  0
  147.3643  139.3667  153.3450 C   0  0  1  0  0  0  0  0  0  0  0  0
  148.8555  138.9514  153.3112 C   0  0  0  0  0  0  0  0  0  0  0  0
  149.5771  139.6399  154.3636 N   0  0  0  0  0  0  0  0  0  0  0  0
  151.0035  139.4232  154.4296 C   0  0  0  0  0  0  0  0  0  0  0  0
  151.5165  140.5596  155.3317 C   0  0  0  0  0  0  0  0  0  0  0  0
  150.4043  141.6305  155.2724 C   0  0  0  0  0  0  0  0  0  0  0  0
  149.4442  141.0652  154.2239 C   0  0  2  0  0  0  0  0  0  0  0  0
  147.9693  141.4854  154.3105 C   0  0  0  0  0  0  0  0  0  0  0  0
  147.2457  140.7943  153.2883 O   0  0  0  0  0  0  0  0  0  0  0  0
  146.4197  135.1745  151.6600 N   0  0  0  0  0  0  0  0  0  0  0  0
  145.8018  133.9238  151.3672 C   0  0  0  0  0  0  0  0  0  0  0  0
  144.7489  133.7897  150.4287 C   0  0  0  0  0  0  0  0  0  0  0  0
  144.1863  132.5208  150.2032 C   0  0  0  0  0  0  0  0  0  0  0  0
  144.6886  131.4288  150.9315 C   0  0  0  0  0  0  0  0  0  0  0  0
  145.6771  131.5419  151.8410 N   0  0  0  0  0  0  0  0  0  0  0  0
  146.2297  132.7599  152.0621 C   0  0  0  0  0  0  0  0  0  0  0  0
  147.2352  132.8519  153.0471 N   0  0  0  0  0  0  0  0  0  0  0  0
  147.3644  131.6431  153.8570 C   0  0  0  0  0  0  0  0  0  0  0  0
  148.8599  131.4513  154.1174 C   0  0  0  0  0  0  0  0  0  0  0  0
  149.5091  132.1319  152.9187 C   0  0  0  0  0  0  0  0  0  0  0  0
  148.5696  133.3083  152.6613 C   0  0  0  0  0  0  0  0  0  0  0  0
  147.7406  137.0341  152.1041 H   0  0  0  0  0  0  0  0  0  0  0  0
  146.7384  139.2519  151.2793 H   0  0  0  0  0  0  0  0  0  0  0  0
  145.4541  138.9313  152.4111 H   0  0  0  0  0  0  0  0  0  0  0  0
  146.9395  139.0398  154.2957 H   0  0  0  0  0  0  0  0  0  0  0  0
  148.9500  137.8726  153.4378 H   0  0  0  0  0  0  0  0  0  0  0  0
  149.2961  139.1979  152.3446 H   0  0  0  0  0  0  0  0  0  0  0  0
  151.2434  138.4342  154.8209 H   0  0  0  0  0  0  0  0  0  0  0  0
  151.4447  139.5107  153.4354 H   0  0  0  0  0  0  0  0  0  0  0  0
  151.6521  140.2126  156.3566 H   0  0  0  0  0  0  0  0  0  0  0  0
  152.4744  140.9417  154.9775 H   0  0  0  0  0  0  0  0  0  0  0  0
  149.9122  141.7151  156.2423 H   0  0  0  0  0  0  0  0  0  0  0  0
  150.7823  142.6152  154.9964 H   0  0  0  0  0  0  0  0  0  0  0  0
  149.8194  141.3591  153.2410 H   0  0  0  0  0  0  0  0  0  0  0  0
  147.5491  141.2468  155.2890 H   0  0  0  0  0  0  0  0  0  0  0  0
  147.8650  142.5603  154.1634 H   0  0  0  0  0  0  0  0  0  0  0  0
  147.4287  135.1567  151.6858 H   0  0  0  0  0  0  0  0  0  0  0  0
  144.3518  134.6344  149.8879 H   0  0  0  0  0  0  0  0  0  0  0  0
  143.3849  132.3891  149.4914 H   0  0  0  0  0  0  0  0  0  0  0  0
  144.2805  130.4395  150.7871 H   0  0  0  0  0  0  0  0  0  0  0  0
  146.8077  131.7351  154.7897 H   0  0  0  0  0  0  0  0  0  0  0  0
  146.9682  130.7815  153.3163 H   0  0  0  0  0  0  0  0  0  0  0  0
  149.1462  131.9685  155.0345 H   0  0  0  0  0  0  0  0  0  0  0  0
  149.1413  130.4027  154.2179 H   0  0  0  0  0  0  0  0  0  0  0  0
  150.5376  132.4419  153.1061 H   0  0  0  0  0  0  0  0  0  0  0  0
  149.5062  131.4582  152.0605 H   0  0  0  0  0  0  0  0  0  0  0  0
  148.6436  133.6714  151.6361 H   0  0  0  0  0  0  0  0  0  0  0  0
  148.8340  134.1429  153.3115 H   0  0  0  0  0  0  0  0  0  0  0  0
  1  2  2  0  0  0  0
  2  3  1  0  0  0  0
  2 14  1  0  0  0  0
  3  4  1  0  0  0  0
  3 26  1  0  0  0  0
  4  5  1  0  0  0  0
  4 27  1  0  0  0  0
  4 28  1  0  0  0  0
  5 13  1  0  0  0  0
  5  6  1  0  0  0  0
  5 29  1  0  0  0  0
  6  7  1  0  0  0  0
  6 30  1  0  0  0  0
  6 31  1  0  0  0  0
  7 11  1  0  0  0  0
  7  8  1  0  0  0  0
  8  9  1  0  0  0  0
  8 32  1  0  0  0  0
  8 33  1  0  0  0  0
  9 10  1  0  0  0  0
  9 34  1  0  0  0  0
  9 35  1  0  0  0  0
 10 11  1  0  0  0  0
 10 36  1  0  0  0  0
 10 37  1  0  0  0  0
 11 12  1  0  0  0  0
 11 38  1  0  0  0  0
 12 13  1  0  0  0  0
 12 39  1  0  0  0  0
 12 40  1  0  0  0  0
 14 15  1  0  0  0  0
 14 41  1  0  0  0  0
 15 20  1  0  0  0  0
 15 16  2  0  0  0  0
 16 17  1  0  0  0  0
 16 42  1  0  0  0  0
 17 18  2  0  0  0  0
 17 43  1  0  0  0  0
 18 19  1  0  0  0  0
 18 44  1  0  0  0  0
 19 20  2  0  0  0  0
 20 21  1  0  0  0  0
 21 25  1  0  0  0  0
 21 22  1  0  0  0  0
 22 23  1  0  0  0  0
 22 45  1  0  0  0  0
 22 46  1  0  0  0  0
 23 24  1  0  0  0  0
 23 47  1  0  0  0  0
 23 48  1  0  0  0  0
 24 25  1  0  0  0  0
 24 49  1  0  0  0  0
 24 50  1  0  0  0  0
 25 51  1  0  0  0  0
 25 52  1  0  0  0  0
M  END
> <s_m_source_file>
AV-unprocessed.smi

> <i_m_source_file_index>
1830

> <i_lp_mmshare_version>
43012

> <i_f3d_flags>
0

> <s_epik_input>
W0NIMl0xW0NIMl1bQ0gyXVtDQEhdKE4xMilbQ0gyXU9bQ0BASF0oW0NIMl0yKVtDSDJdW05IXUMoPU8pW05IXWMzW2NIXVtjSF1bY0hdbmMzTjRbQ0gyXVtDSDJdW0NIMl1bQ0gyXTQ=

> <s_epik_cmdline>
J2VwaWtfcHl0aG9uJywgJy1waCcsICc3LjAnLCAnLXRuJywgJzgnLCAnLW1hJywgJzIwMCcsICctbWV0YWxfYmluZGluZycsICctaW1hZScsICc8aW5maWxlLm1hZT4nLCAnLW9tYWUnLCAnPG91dGZpbGUubWFlPic=

> <r_lp_tautomer_probability>
1

> <r_epik_Ionization_Penalty>
1.16487

> <r_epik_Ionization_Penalty_Charging>
0

> <r_epik_Ionization_Penalty_Neutral>
1.16487

> <r_epik_State_Penalty>
1.21807

> <r_epik_Charging_Adjusted_Penalty>
1.21807

> <i_epik_Tot_Q>
0

> <i_epik_Tot_abs_Q>
0

> <r_epik_Metal_State_Penalty>
1.19922

> <b_epik_Metal_Only>
0

> <s_lp_Force_Field>
OPLS_2005

> <r_lp_Energy>
78.4181

> <b_lp_Chiralities_Consistent>
1

> <s_lp_Variant>
AV-unprocessed.smi:1830-12

> <Gold.Version>
5.8.1

> <Gold.Id.Protein>
6NUR|6NUR_protein|mol2

> <Gold.PLP.Fitness>
46.5473

> <Gold.PLP.PLP>
-42.2751

> <Gold.PLP.part.hbond>
-1.7752

> <Gold.PLP.part.metal>
0.0000

> <Gold.PLP.part.buried>
-2.1700

> <Gold.PLP.part.nonpolar>
-40.4699

> <Gold.PLP.part.repulsive>
3.4849

> <Gold.PLP.ligand.clash>
0.0000

> <Gold.PLP.ligand.torsion>
0.6583

> <Gold.PLP.Chemscore.Hbond>
1.8240

> <Gold.PLP.Chemscore.CHOScore>
0.0000

> <Gold.PLP.Chemscore.Metal>
0.0000

> <Gold.Chemscore.Hbonds>
donor molecule, donor type, donor heavy atom, donor atom, acceptor molecule, acceptor atom, score
      L1  H     3    26       P1  7948  0.81
      L1  H    14    41       P1  7948  0.90

> <Gold.PLP.Chemscore.Internal.Correction>
0.1168

> <Gold.Rescore>
     Score         DG    S(hbond)    S(metal)    S(lipo)     H(rot)  DE(clash)    DE(int)     intcor
     17.88     -18.84       1.52        0.00     100.76       1.37       0.07       0.88       ----

> <Gold.Chemscore.Fitness>
17.8828

> <Gold.Chemscore.DG>
-18.8405

> <Gold.Chemscore.ZeroCoef>
-5.4800

> <Gold.Chemscore.Hbond>
1.5242

> <Gold.Chemscore.Metal>
0.0000

> <Gold.Chemscore.Lipo>
100.7563

> <Gold.Chemscore.Internal_Hbond>
0.0000

> <Gold.Chemscore.DEClash>
0.0742

> <Gold.Chemscore.DEInternal>
0.8836

> <Gold.Chemscore.Rot>
1.3746

> <Gold.Chemscore.Internal.Correction>
   9.000000E+99

> <Gold.Chemscore.Hbonds>
donor molecule, donor type, donor heavy atom, donor atom, acceptor molecule, acceptor atom, score
      L1  H     3    26       P1  7948  0.80
      L1  H    14    41       P1  7948  0.78

> <Gold.Chemscore.Hbond.Weighted>
-5.0909

> <Gold.Chemscore.Metal.Weighted>
-0.0000

> <Gold.Chemscore.Lipo.Weighted>
-11.7885

> <Gold.Chemscore.Internal_Hbond.Weighted>
0.0000

> <Gold.Chemscore.DEClash.Weighted>
0.0742

> <Gold.Chemscore.DEInternal.Weighted>
0.8836

> <Gold.Chemscore.Rot.Weighted>
3.5189

> <Gold.Chemscore.Internal.Correction.Weighted>
   9.000000E+99

> <Gold.Protein.RotatedTorsions>
[ 6907 6896 6895 6894 ] final  172.13 input  -60.11 | X-H torsion
[ 7974 7965 7964 7962 ] final  -47.18 input  175.53 | X-H torsion
[ 8008 7997 7996 7995 ] final   90.12 input   59.86 | X-H torsion
[ 10167 10162 10161 10158 ] final   -1.88 input  -65.29 | X-H torsion
[ 10718 10713 10712 10709 ] final   79.21 input   66.30 | X-H torsion
[ 10763 10752 10751 10750 ] final -160.88 input  -60.55 | X-H torsion
[ 11005 11000 10999 10996 ] final  -40.38 input  -57.11 | X-H torsion

> <Gold.Protein.ActiveResidues>
 VAL166  LYS551  ARG553  GLY616  TRP617  ASP618  TYR619  PRO620  LYS621  CYS622 
 ASP623  PHE694  ASN695  SER759  ASP760  ASP761  ALA762  ILE779  LEU786  VAL792 
 PHE793  MET794  SER795  GLU796  ALA797  LYS798  CYS799  TRP800  GLU811  SER814 

> <Gold.Protein.RotatedAtoms>
  151.7892  133.3357  159.3493 H   0  0  0  0  0  0  0  0  0  0  0  0  # atno 6907 bound_to 6896
  150.7398  134.5859  159.5972 H   0  0  0  0  0  0  0  0  0  0  0  0  # atno 6908 bound_to 6896
  152.3222  134.7367  160.0362 H   0  0  0  0  0  0  0  0  0  0  0  0  # atno 6909 bound_to 6896
  145.9642  140.7448  142.9442 H   0  0  0  0  0  0  0  0  0  0  0  0  # atno 7974 bound_to 7965
  156.0082  140.3353  155.6914 H   0  0  0  0  0  0  0  0  0  0  0  0  # atno 8008 bound_to 7997
  155.6195  140.0673  157.2700 H   0  0  0  0  0  0  0  0  0  0  0  0  # atno 8009 bound_to 7997
  154.4272  140.1779  156.1344 H   0  0  0  0  0  0  0  0  0  0  0  0  # atno 8010 bound_to 7997
  140.6828  143.6722  150.8175 H   0  0  0  0  0  0  0  0  0  0  0  0  # atno 10167 bound_to 10162
  157.6769  130.9903  150.1899 H   0  0  0  0  0  0  0  0  0  0  0  0  # atno 10718 bound_to 10713
  154.7352  135.3055  154.8824 H   0  0  0  0  0  0  0  0  0  0  0  0  # atno 10763 bound_to 10752
  153.9655  135.6748  153.4750 H   0  0  0  0  0  0  0  0  0  0  0  0  # atno 10764 bound_to 10752
  153.0955  135.4938  154.8693 H   0  0  0  0  0  0  0  0  0  0  0  0  # atno 10765 bound_to 10752
  141.0170  133.6880  156.2313 H   0  0  0  0  0  0  0  0  0  0  0  0  # atno 11005 bound_to 11000
  144.6822  140.2642  143.7315 LP  0  0  0  0  0  0  0  0  0  0  0  0  # atno 17320 bound_to 7965
  145.7997  139.1959  143.2055 LP  0  0  0  0  0  0  0  0  0  0  0  0  # atno 17321 bound_to 7965
  140.0425  143.5331  152.2711 LP  0  0  0  0  0  0  0  0  0  0  0  0  # atno 17342 bound_to 10162
  139.6164  144.7620  151.2837 LP  0  0  0  0  0  0  0  0  0  0  0  0  # atno 17343 bound_to 10162
  156.2612  130.3711  149.8128 LP  0  0  0  0  0  0  0  0  0  0  0  0  # atno 17370 bound_to 10713
  156.5873  130.8491  151.3399 LP  0  0  0  0  0  0  0  0  0  0  0  0  # atno 17371 bound_to 10713
  140.6637  134.4940  157.5584 LP  0  0  0  0  0  0  0  0  0  0  0  0  # atno 17394 bound_to 11000
  139.9123  134.8319  156.1485 LP  0  0  0  0  0  0  0  0  0  0  0  0  # atno 17395 bound_to 11000

$$$$
