AV-unprocessed.smi:3176|AV-procd|sdf|12124|dock7
  -GOLD-   2272017563D 1   1.00000     0.00000
 Structure written by MMmdl.
 32 33  0  0  0  0  0  0  0  0  1 V2000
  152.8148  139.8627  154.8824 O   0  0  0  0  0  0  0  0  0  0  0  0
  151.9327  139.1841  155.4099 C   0  0  0  0  0  0  0  0  0  0  0  0
  151.0737  139.6714  156.3184 N   0  0  0  0  0  0  0  0  0  0  0  0
  151.0700  141.0429  156.8148 C   0  0  0  0  0  0  0  0  0  0  0  0
  152.0007  141.2089  158.0281 C   0  0  0  0  0  0  0  0  0  0  0  0
  151.8676  142.5756  158.6721 C   0  0  0  0  0  0  0  0  0  0  0  0
  152.5440  142.8726  159.8745 C   0  0  0  0  0  0  0  0  0  0  0  0
  152.3936  144.1582  160.4293 C   0  0  0  0  0  0  0  0  0  0  0  0
  151.5777  145.0928  159.7630 C   0  0  0  0  0  0  0  0  0  0  0  0
  150.9464  144.6987  158.5663 C   0  0  0  0  0  0  0  0  0  0  0  0
  151.0846  143.4688  158.0254 N   0  0  0  0  0  0  0  0  0  0  0  0
  151.7653  137.7073  155.0357 C   0  0  2  0  0  0  0  0  0  0  0  0
  150.3572  137.3547  154.5213 C   0  0  0  0  0  0  0  0  0  0  0  0
  149.7643  136.5188  155.6385 C   0  0  0  0  0  0  0  0  0  0  0  0
  151.0059  135.8721  156.2347 C   0  0  0  0  0  0  0  0  0  0  0  0
  151.9568  136.9251  156.2134 O   0  0  0  0  0  0  0  0  0  0  0  0
  150.3747  139.0470  156.6939 H   0  0  0  0  0  0  0  0  0  0  0  0
  151.3578  141.7287  156.0161 H   0  0  0  0  0  0  0  0  0  0  0  0
  150.0469  141.2999  157.0911 H   0  0  0  0  0  0  0  0  0  0  0  0
  151.7828  140.4426  158.7736 H   0  0  0  0  0  0  0  0  0  0  0  0
  153.0396  141.0584  157.7315 H   0  0  0  0  0  0  0  0  0  0  0  0
  153.1655  142.1346  160.3605 H   0  0  0  0  0  0  0  0  0  0  0  0
  152.8955  144.4223  161.3484 H   0  0  0  0  0  0  0  0  0  0  0  0
  151.4395  146.0879  160.1592 H   0  0  0  0  0  0  0  0  0  0  0  0
  150.3140  145.3900  158.0288 H   0  0  0  0  0  0  0  0  0  0  0  0
  152.5106  137.4190  154.2923 H   0  0  0  0  0  0  0  0  0  0  0  0
  149.7377  138.2218  154.2866 H   0  0  0  0  0  0  0  0  0  0  0  0
  150.4380  136.7581  153.6119 H   0  0  0  0  0  0  0  0  0  0  0  0
  149.2876  137.1642  156.3777 H   0  0  0  0  0  0  0  0  0  0  0  0
  149.0291  135.7938  155.2883 H   0  0  0  0  0  0  0  0  0  0  0  0
  150.8434  135.4960  157.2449 H   0  0  0  0  0  0  0  0  0  0  0  0
  151.3561  135.0491  155.6096 H   0  0  0  0  0  0  0  0  0  0  0  0
  1  2  2  0  0  0  0
  2  3  1  0  0  0  0
  2 12  1  0  0  0  0
  3  4  1  0  0  0  0
  3 17  1  0  0  0  0
  4  5  1  0  0  0  0
  4 18  1  0  0  0  0
  4 19  1  0  0  0  0
  5  6  1  0  0  0  0
  5 20  1  0  0  0  0
  5 21  1  0  0  0  0
  6 11  1  0  0  0  0
  6  7  2  0  0  0  0
  7  8  1  0  0  0  0
  7 22  1  0  0  0  0
  8  9  2  0  0  0  0
  8 23  1  0  0  0  0
  9 10  1  0  0  0  0
  9 24  1  0  0  0  0
 10 11  2  0  0  0  0
 10 25  1  0  0  0  0
 12 16  1  0  0  0  0
 12 13  1  0  0  0  0
 12 26  1  0  0  0  0
 13 14  1  0  0  0  0
 13 27  1  0  0  0  0
 13 28  1  0  0  0  0
 14 15  1  0  0  0  0
 14 29  1  0  0  0  0
 14 30  1  0  0  0  0
 15 16  1  0  0  0  0
 15 31  1  0  0  0  0
 15 32  1  0  0  0  0
M  END
> <s_m_source_file>
AV-unprocessed.smi

> <i_m_source_file_index>
3176

> <i_lp_mmshare_version>
43012

> <i_f3d_flags>
0

> <s_epik_input>
TzFbQ0gyXVtDSDJdW0NIMl1bQ0BIXTFDKD1PKVtOSF1bQ0gyXVtDSDJdYzJbY0hdW2NIXVtjSF1bY0hdbjI=

> <s_epik_cmdline>
J2VwaWtfcHl0aG9uJywgJy1waCcsICc3LjAnLCAnLXRuJywgJzgnLCAnLW1hJywgJzIwMCcsICctbWV0YWxfYmluZGluZycsICctaW1hZScsICc8aW5maWxlLm1hZT4nLCAnLW9tYWUnLCAnPG91dGZpbGUubWFlPic=

> <r_epik_Ionization_Penalty>
0.0282744

> <r_epik_Ionization_Penalty_Charging>
0

> <r_epik_Ionization_Penalty_Neutral>
0.0282744

> <r_epik_State_Penalty>
0.0231919

> <r_epik_Charging_Adjusted_Penalty>
0.0231919

> <i_epik_Tot_Q>
0

> <i_epik_Tot_abs_Q>
0

> <r_epik_Metal_State_Penalty>
0.02213

> <b_epik_Metal_Only>
0

> <s_lp_Force_Field>
OPLS_2005

> <r_lp_Energy>
16.3652

> <b_lp_Chiralities_Consistent>
1

> <s_lp_Variant>
AV-unprocessed.smi:3176-1

> <Gold.Version>
5.8.1

> <Gold.Id.Protein>
6NUR|6NUR_protein|mol2

> <Gold.PLP.Fitness>
39.2359

> <Gold.PLP.PLP>
-32.6695

> <Gold.PLP.part.hbond>
-2.8457

> <Gold.PLP.part.metal>
0.0000

> <Gold.PLP.part.buried>
-3.2880

> <Gold.PLP.part.nonpolar>
-27.5386

> <Gold.PLP.part.repulsive>
0.2497

> <Gold.PLP.ligand.clash>
0.0000

> <Gold.PLP.ligand.torsion>
0.2554

> <Gold.PLP.Chemscore.Hbond>
1.4320

> <Gold.PLP.Chemscore.CHOScore>
0.9219

> <Gold.PLP.Chemscore.Metal>
0.0000

> <Gold.Chemscore.Hbonds>
donor molecule, donor type, donor heavy atom, donor atom, acceptor molecule, acceptor atom, score
      P1  H  7989  7998       L1     1  0.43
      P1  H  7997  8009       L1     1  1.00
      L1  C    10    25       P1  8028  0.09
      L1  C    10    25       P1  8029  0.70

> <Gold.PLP.Chemscore.Internal.Correction>
0.0156

> <Gold.Rescore>
     Score         DG    S(hbond)    S(metal)    S(lipo)     H(rot)  DE(clash)    DE(int)     intcor
     16.02     -16.31       1.24        0.00      90.24       1.52       0.02       0.26       ----

> <Gold.Chemscore.Fitness>
16.0207

> <Gold.Chemscore.DG>
-16.3059

> <Gold.Chemscore.ZeroCoef>
-5.4800

> <Gold.Chemscore.Hbond>
1.2420

> <Gold.Chemscore.Metal>
0.0000

> <Gold.Chemscore.Lipo>
90.2412

> <Gold.Chemscore.Internal_Hbond>
0.0000

> <Gold.Chemscore.DEClash>
0.0234

> <Gold.Chemscore.DEInternal>
0.2618

> <Gold.Chemscore.Rot>
1.5159

> <Gold.Chemscore.Internal.Correction>
   9.000000E+99

> <Gold.Chemscore.Hbonds>
donor molecule, donor type, donor heavy atom, donor atom, acceptor molecule, acceptor atom, score
      P1  H  7989  7998       L1     1  0.10
      P1  H  7997  8009       L1     1  0.97

> <Gold.Chemscore.Hbond.Weighted>
-4.1484

> <Gold.Chemscore.Metal.Weighted>
-0.0000

> <Gold.Chemscore.Lipo.Weighted>
-10.5582

> <Gold.Chemscore.Internal_Hbond.Weighted>
0.0000

> <Gold.Chemscore.DEClash.Weighted>
0.0234

> <Gold.Chemscore.DEInternal.Weighted>
0.2618

> <Gold.Chemscore.Rot.Weighted>
3.8807

> <Gold.Chemscore.Internal.Correction.Weighted>
   9.000000E+99

> <Gold.Protein.RotatedTorsions>
[ 6907 6896 6895 6894 ] final    8.18 input  -60.11 | X-H torsion
[ 7974 7965 7964 7962 ] final  106.74 input  175.53 | X-H torsion
[ 8008 7997 7996 7995 ] final -132.22 input   59.86 | X-H torsion
[ 10167 10162 10161 10158 ] final -150.81 input  -65.29 | X-H torsion
[ 10718 10713 10712 10709 ] final -106.16 input   66.30 | X-H torsion
[ 10763 10752 10751 10750 ] final   18.37 input  -60.55 | X-H torsion
[ 11005 11000 10999 10996 ] final  -67.15 input  -57.11 | X-H torsion

> <Gold.Protein.ActiveResidues>
 VAL166  LYS551  ARG553  GLY616  TRP617  ASP618  TYR619  PRO620  LYS621  CYS622 
 ASP623  PHE694  ASN695  SER759  ASP760  ASP761  ALA762  ILE779  LEU786  VAL792 
 PHE793  MET794  SER795  GLU796  ALA797  LYS798  CYS799  TRP800  GLU811  SER814 

> <Gold.Protein.RotatedAtoms>
  151.7019  135.0928  160.0252 H   0  0  0  0  0  0  0  0  0  0  0  0  # atno 6907 bound_to 6896
  152.3715  133.6421  159.6099 H   0  0  0  0  0  0  0  0  0  0  0  0  # atno 6908 bound_to 6896
  150.7677  133.9178  159.3430 H   0  0  0  0  0  0  0  0  0  0  0  0  # atno 6909 bound_to 6896
  145.3026  139.2565  143.3805 H   0  0  0  0  0  0  0  0  0  0  0  0  # atno 7974 bound_to 7965
  155.3253  140.0464  157.3041 H   0  0  0  0  0  0  0  0  0  0  0  0  # atno 8008 bound_to 7997
  154.5358  140.2272  155.8691 H   0  0  0  0  0  0  0  0  0  0  0  0  # atno 8009 bound_to 7997
  156.1833  140.3068  155.9196 H   0  0  0  0  0  0  0  0  0  0  0  0  # atno 8010 bound_to 7997
  139.7321  143.8791  152.2538 H   0  0  0  0  0  0  0  0  0  0  0  0  # atno 10167 bound_to 10162
  156.0378  130.5599  150.7642 H   0  0  0  0  0  0  0  0  0  0  0  0  # atno 10718 bound_to 10713
  153.1255  135.6728  153.9264 H   0  0  0  0  0  0  0  0  0  0  0  0  # atno 10763 bound_to 10752
  153.8767  135.3063  155.3445 H   0  0  0  0  0  0  0  0  0  0  0  0  # atno 10764 bound_to 10752
  154.7661  135.4963  153.9637 H   0  0  0  0  0  0  0  0  0  0  0  0  # atno 10765 bound_to 10752
  141.1501  133.6713  156.6249 H   0  0  0  0  0  0  0  0  0  0  0  0  # atno 11005 bound_to 11000
  146.3146  140.3544  142.8659 LP  0  0  0  0  0  0  0  0  0  0  0  0  # atno 17320 bound_to 7965
  144.9081  140.7724  143.5825 LP  0  0  0  0  0  0  0  0  0  0  0  0  # atno 17321 bound_to 7965
  139.8718  144.7064  150.8979 LP  0  0  0  0  0  0  0  0  0  0  0  0  # atno 17342 bound_to 10162
  140.7773  143.3732  151.1610 LP  0  0  0  0  0  0  0  0  0  0  0  0  # atno 17343 bound_to 10162
  157.5153  131.0928  151.0147 LP  0  0  0  0  0  0  0  0  0  0  0  0  # atno 17370 bound_to 10713
  157.0492  130.5780  149.5367 LP  0  0  0  0  0  0  0  0  0  0  0  0  # atno 17371 bound_to 10713
  140.3511  134.7767  157.4468 LP  0  0  0  0  0  0  0  0  0  0  0  0  # atno 17394 bound_to 11000
  140.0860  134.5666  155.8492 LP  0  0  0  0  0  0  0  0  0  0  0  0  # atno 17395 bound_to 11000

$$$$
