AV-unprocessed.smi:861|AV-procd|sdf|3971|dock5
  -GOLD-   22720 1443D 1   1.00000     0.00000
 Structure written by MMmdl.
 43 44  0  0  0  0  0  0  0  0  1 V2000
  152.2859  141.9716  159.9964 C   0  0  0  0  0  0  0  0  0  0  0  0
  152.1641  142.4975  158.5559 C   0  0  0  0  0  0  0  0  0  0  0  0
  151.8476  144.0011  158.5642 C   0  0  0  0  0  0  0  0  0  0  0  0
  151.1168  141.7241  157.7281 C   0  0  0  0  0  0  0  0  0  0  0  0
  150.9802  142.2198  156.2745 C   0  0  0  0  0  0  0  0  0  0  0  0
  150.5458  141.2080  155.3111 N   0  0  0  0  0  0  0  0  0  0  0  0
  149.0954  141.0544  155.3393 C   0  0  0  0  0  0  0  0  0  0  0  0
  148.6106  139.9919  154.3399 C   0  0  0  0  0  0  0  0  0  0  0  0
  149.2596  138.7562  154.6164 O   0  0  0  0  0  0  0  0  0  0  0  0
  150.6805  138.8401  154.5378 C   0  0  2  0  0  0  0  0  0  0  0  0
  151.2845  137.4589  154.8447 C   0  0  0  0  0  0  0  0  0  0  0  0
  150.7683  136.4176  153.9631 N   0  0  0  0  0  0  0  0  0  0  0  0
  150.9381  135.0588  154.2666 C   0  0  0  0  0  0  0  0  0  0  0  0
  150.1706  134.1063  153.5668 C   0  0  0  0  0  0  0  0  0  0  0  0
  150.3619  132.7509  153.8859 C   0  0  0  0  0  0  0  0  0  0  0  0
  151.3097  132.4502  154.8810 C   0  0  0  0  0  0  0  0  0  0  0  0
  152.0228  133.4048  155.5195 N   0  0  0  0  0  0  0  0  0  0  0  0
  151.8398  134.6941  155.2130 N   0  0  0  0  0  0  0  0  0  0  0  0
  151.1619  139.9030  155.5462 C   0  0  0  0  0  0  0  0  0  0  0  0
  151.3323  142.0309  160.5220 H   0  0  0  0  0  0  0  0  0  0  0  0
  153.0124  142.5541  160.5638 H   0  0  0  0  0  0  0  0  0  0  0  0
  152.6193  140.9347  160.0233 H   0  0  0  0  0  0  0  0  0  0  0  0
  153.1338  142.3757  158.0715 H   0  0  0  0  0  0  0  0  0  0  0  0
  150.8804  144.1991  159.0273 H   0  0  0  0  0  0  0  0  0  0  0  0
  151.8210  144.4049  157.5516 H   0  0  0  0  0  0  0  0  0  0  0  0
  152.6029  144.5595  159.1179 H   0  0  0  0  0  0  0  0  0  0  0  0
  151.3573  140.6600  157.7328 H   0  0  0  0  0  0  0  0  0  0  0  0
  150.1545  141.8190  158.2302 H   0  0  0  0  0  0  0  0  0  0  0  0
  150.3015  143.0734  156.2423 H   0  0  0  0  0  0  0  0  0  0  0  0
  151.9508  142.5981  155.9549 H   0  0  0  0  0  0  0  0  0  0  0  0
  148.7722  140.7753  156.3435 H   0  0  0  0  0  0  0  0  0  0  0  0
  148.6161  142.0070  155.1111 H   0  0  0  0  0  0  0  0  0  0  0  0
  147.5325  139.8545  154.4243 H   0  0  0  0  0  0  0  0  0  0  0  0
  148.8166  140.3003  153.3140 H   0  0  0  0  0  0  0  0  0  0  0  0
  150.9713  139.1453  153.5305 H   0  0  0  0  0  0  0  0  0  0  0  0
  152.3620  137.4984  154.6834 H   0  0  0  0  0  0  0  0  0  0  0  0
  151.1491  137.1981  155.8948 H   0  0  0  0  0  0  0  0  0  0  0  0
  150.0505  136.6759  153.3019 H   0  0  0  0  0  0  0  0  0  0  0  0
  149.4572  134.4021  152.8114 H   0  0  0  0  0  0  0  0  0  0  0  0
  149.8048  131.9717  153.3878 H   0  0  0  0  0  0  0  0  0  0  0  0
  151.5015  131.4274  155.1696 H   0  0  0  0  0  0  0  0  0  0  0  0
  152.2458  139.9791  155.4722 H   0  0  0  0  0  0  0  0  0  0  0  0
  150.9398  139.5681  156.5605 H   0  0  0  0  0  0  0  0  0  0  0  0
  1  2  1  0  0  0  0
  1 20  1  0  0  0  0
  1 21  1  0  0  0  0
  1 22  1  0  0  0  0
  2  3  1  0  0  0  0
  2  4  1  0  0  0  0
  2 23  1  0  0  0  0
  3 24  1  0  0  0  0
  3 25  1  0  0  0  0
  3 26  1  0  0  0  0
  4  5  1  0  0  0  0
  4 27  1  0  0  0  0
  4 28  1  0  0  0  0
  5  6  1  0  0  0  0
  5 29  1  0  0  0  0
  5 30  1  0  0  0  0
  6 19  1  0  0  0  0
  6  7  1  0  0  0  0
  7  8  1  0  0  0  0
  7 31  1  0  0  0  0
  7 32  1  0  0  0  0
  8  9  1  0  0  0  0
  8 33  1  0  0  0  0
  8 34  1  0  0  0  0
  9 10  1  0  0  0  0
 10 11  1  0  0  0  0
 10 19  1  0  0  0  0
 10 35  1  0  0  0  0
 11 12  1  0  0  0  0
 11 36  1  0  0  0  0
 11 37  1  0  0  0  0
 12 13  1  0  0  0  0
 12 38  1  0  0  0  0
 13 18  1  0  0  0  0
 13 14  2  0  0  0  0
 14 15  1  0  0  0  0
 14 39  1  0  0  0  0
 15 16  2  0  0  0  0
 15 40  1  0  0  0  0
 16 17  1  0  0  0  0
 16 41  1  0  0  0  0
 17 18  2  0  0  0  0
 19 42  1  0  0  0  0
 19 43  1  0  0  0  0
M  END
> <s_m_source_file>
AV-unprocessed.smi

> <i_m_source_file_index>
861

> <i_lp_mmshare_version>
43012

> <i_f3d_flags>
0

> <s_epik_input>
W0NIM11bQ0hdKFtDSDNdKVtDSDJdW0NIMl1OMVtDSDJdW0NIMl1PW0NASF0oW0NIMl0xKVtDSDJdW05IXWMyW2NIXVtjSF1bY0hdbm4y

> <s_epik_cmdline>
J2VwaWtfcHl0aG9uJywgJy1waCcsICc3LjAnLCAnLXRuJywgJzgnLCAnLW1hJywgJzIwMCcsICctbWV0YWxfYmluZGluZycsICctaW1hZScsICc8aW5maWxlLm1hZT4nLCAnLW9tYWUnLCAnPG91dGZpbGUubWFlPic=

> <r_lp_tautomer_probability>
0.999978

> <r_epik_Ionization_Penalty>
1.1508

> <r_epik_Ionization_Penalty_Charging>
0

> <r_epik_Ionization_Penalty_Neutral>
1.1508

> <r_epik_State_Penalty>
1.22808

> <r_epik_Charging_Adjusted_Penalty>
1.22808

> <i_epik_Tot_Q>
0

> <i_epik_Tot_abs_Q>
0

> <r_epik_Metal_State_Penalty>
1.22149

> <b_epik_Metal_Only>
0

> <s_lp_Force_Field>
OPLS_2005

> <r_lp_Energy>
31.1204

> <b_lp_Chiralities_Consistent>
1

> <s_lp_Variant>
AV-unprocessed.smi:861-6

> <Gold.Version>
5.8.1

> <Gold.Id.Protein>
6NUR|6NUR_protein|mol2

> <Gold.PLP.Fitness>
39.5063

> <Gold.PLP.PLP>
-35.8756

> <Gold.PLP.part.hbond>
-3.8518

> <Gold.PLP.part.metal>
0.0000

> <Gold.PLP.part.buried>
-2.8489

> <Gold.PLP.part.nonpolar>
-29.1517

> <Gold.PLP.part.repulsive>
0.3113

> <Gold.PLP.ligand.clash>
0.0000

> <Gold.PLP.ligand.torsion>
0.5326

> <Gold.PLP.Chemscore.Hbond>
1.5464

> <Gold.PLP.Chemscore.CHOScore>
0.0000

> <Gold.PLP.Chemscore.Metal>
0.0000

> <Gold.Chemscore.Hbonds>
donor molecule, donor type, donor heavy atom, donor atom, acceptor molecule, acceptor atom, score
      L1  H    12    38       P1  7948  0.68
      P1  H 10752 10763       L1    18  0.42

> <Gold.PLP.Chemscore.Internal.Correction>
0.0567

> <Gold.Rescore>
     Score         DG    S(hbond)    S(metal)    S(lipo)     H(rot)  DE(clash)    DE(int)     intcor
     14.14     -14.98       0.78        0.00      95.28       1.66       0.17       0.68       ----

> <Gold.Chemscore.Fitness>
14.1399

> <Gold.Chemscore.DG>
-14.9839

> <Gold.Chemscore.ZeroCoef>
-5.4800

> <Gold.Chemscore.Hbond>
0.7793

> <Gold.Chemscore.Metal>
0.0000

> <Gold.Chemscore.Lipo>
95.2847

> <Gold.Chemscore.Internal_Hbond>
0.0000

> <Gold.Chemscore.DEClash>
0.1675

> <Gold.Chemscore.DEInternal>
0.6764

> <Gold.Chemscore.Rot>
1.6591

> <Gold.Chemscore.Internal.Correction>
   9.000000E+99

> <Gold.Chemscore.Hbonds>
donor molecule, donor type, donor heavy atom, donor atom, acceptor molecule, acceptor atom, score
      L1  H    12    38       P1  7948  0.07
      P1  H 10752 10763       L1    18  0.26

> <Gold.Chemscore.Hbond.Weighted>
-2.6030

> <Gold.Chemscore.Metal.Weighted>
-0.0000

> <Gold.Chemscore.Lipo.Weighted>
-11.1483

> <Gold.Chemscore.Internal_Hbond.Weighted>
0.0000

> <Gold.Chemscore.DEClash.Weighted>
0.1675

> <Gold.Chemscore.DEInternal.Weighted>
0.6764

> <Gold.Chemscore.Rot.Weighted>
4.2474

> <Gold.Chemscore.Internal.Correction.Weighted>
   9.000000E+99

> <Gold.Protein.RotatedTorsions>
[ 6907 6896 6895 6894 ] final  107.20 input  -60.11 | X-H torsion
[ 7974 7965 7964 7962 ] final -165.60 input  175.53 | X-H torsion
[ 8008 7997 7996 7995 ] final   79.17 input   59.86 | X-H torsion
[ 10167 10162 10161 10158 ] final  -13.14 input  -65.29 | X-H torsion
[ 10718 10713 10712 10709 ] final   48.21 input   66.30 | X-H torsion
[ 10763 10752 10751 10750 ] final   88.12 input  -60.55 | X-H torsion
[ 11005 11000 10999 10996 ] final   90.33 input  -57.11 | X-H torsion

> <Gold.Protein.ActiveResidues>
 VAL166  LYS551  ARG553  GLY616  TRP617  ASP618  TYR619  PRO620  LYS621  CYS622 
 ASP623  PHE694  ASN695  SER759  ASP760  ASP761  ALA762  ILE779  LEU786  VAL792 
 PHE793  MET794  SER795  GLU796  ALA797  LYS798  CYS799  TRP800  GLU811  SER814 

> <Gold.Protein.RotatedAtoms>
  152.5164  133.9270  159.7561 H   0  0  0  0  0  0  0  0  0  0  0  0  # atno 6907 bound_to 6896
  150.9629  133.6418  159.2758 H   0  0  0  0  0  0  0  0  0  0  0  0  # atno 6908 bound_to 6896
  151.3657  135.0918  159.9502 H   0  0  0  0  0  0  0  0  0  0  0  0  # atno 6909 bound_to 6896
  144.7266  140.2789  143.6239 H   0  0  0  0  0  0  0  0  0  0  0  0  # atno 7974 bound_to 7965
  155.8660  140.3451  155.5788 H   0  0  0  0  0  0  0  0  0  0  0  0  # atno 8008 bound_to 7997
  155.7881  140.0868  157.2043 H   0  0  0  0  0  0  0  0  0  0  0  0  # atno 8009 bound_to 7997
  154.4014  140.1488  156.3118 H   0  0  0  0  0  0  0  0  0  0  0  0  # atno 8010 bound_to 7997
  140.7176  143.5458  150.9357 H   0  0  0  0  0  0  0  0  0  0  0  0  # atno 10167 bound_to 10162
  157.4663  130.8228  149.7940 H   0  0  0  0  0  0  0  0  0  0  0  0  # atno 10718 bound_to 10713
  153.1736  135.4518  154.9935 H   0  0  0  0  0  0  0  0  0  0  0  0  # atno 10763 bound_to 10752
  154.7983  135.3246  154.7616 H   0  0  0  0  0  0  0  0  0  0  0  0  # atno 10764 bound_to 10752
  153.8089  135.6956  153.4899 H   0  0  0  0  0  0  0  0  0  0  0  0  # atno 10765 bound_to 10752
  139.8858  134.8607  156.3269 H   0  0  0  0  0  0  0  0  0  0  0  0  # atno 11005 bound_to 11000
  145.7968  139.1948  143.2071 LP  0  0  0  0  0  0  0  0  0  0  0  0  # atno 17320 bound_to 7965
  146.0709  140.7869  142.9688 LP  0  0  0  0  0  0  0  0  0  0  0  0  # atno 17321 bound_to 7965
  139.9181  143.6639  152.3102 LP  0  0  0  0  0  0  0  0  0  0  0  0  # atno 17342 bound_to 10162
  139.7046  144.7630  151.1215 LP  0  0  0  0  0  0  0  0  0  0  0  0  # atno 17343 bound_to 10162
  156.0052  130.3859  150.2457 LP  0  0  0  0  0  0  0  0  0  0  0  0  # atno 17370 bound_to 10713
  157.0637  131.0097  151.3214 LP  0  0  0  0  0  0  0  0  0  0  0  0  # atno 17371 bound_to 10713
  140.9749  133.7304  156.0587 LP  0  0  0  0  0  0  0  0  0  0  0  0  # atno 17394 bound_to 11000
  140.7824  134.3710  157.5484 LP  0  0  0  0  0  0  0  0  0  0  0  0  # atno 17395 bound_to 11000

$$$$
