AV-unprocessed.smi:261|AV-procd|sdf|1994|dock3
  -GOLD-   2262021183D 1   1.00000     0.00000
 Structure written by MMmdl.
 51 54  0  0  0  0  0  0  0  0  1 V2000
  147.7522  133.5415  153.5418 C   0  0  0  0  0  0  0  0  0  0  0  0
  148.6321  132.9262  154.4688 O   0  0  0  0  0  0  0  0  0  0  0  0
  149.9848  133.3490  154.3474 C   0  0  2  0  0  0  0  0  0  0  0  0
  150.8571  132.8223  155.4951 C   0  0  0  0  0  0  0  0  0  0  0  0
  150.6427  133.8170  156.6476 C   0  0  2  0  0  0  0  0  0  0  0  0
  149.4925  133.3724  157.5767 C   0  0  0  0  0  0  0  0  0  0  0  0
  148.7488  132.3178  157.2258 N   0  0  0  0  0  0  0  0  0  0  0  0
  149.2720  133.9964  158.6122 O   0  0  0  0  0  0  0  0  0  0  0  0
  150.3991  135.0780  155.9454 N   0  0  0  0  0  0  0  0  0  0  0  0
  150.5395  136.3222  156.4827 C   0  0  0  0  0  0  0  0  0  0  0  0
  150.6617  136.4177  157.8335 N   0  0  0  0  0  0  0  0  0  0  0  0
  150.8090  137.6049  158.4264 C   0  0  0  0  0  0  0  0  0  0  0  0
  150.8608  138.8132  157.8671 N   0  0  0  0  0  0  0  0  0  0  0  0
  150.7375  138.7347  156.5122 C   0  0  0  0  0  0  0  0  0  0  0  0
  150.5747  137.5445  155.7431 C   0  0  0  0  0  0  0  0  0  0  0  0
  150.4877  137.8793  154.3955 N   0  0  0  0  0  0  0  0  0  0  0  0
  150.5952  139.1783  154.3699 C   0  0  0  0  0  0  0  0  0  0  0  0
  150.7410  139.7752  155.6000 N   0  0  0  0  0  0  0  0  0  0  0  0
  150.8778  141.1994  155.8627 C   0  0  0  0  0  0  0  0  0  0  0  0
  150.5493  141.5999  157.3184 C   0  0  2  0  0  0  0  0  0  0  0  0
  149.2845  142.2310  157.3488 O   0  0  0  0  0  0  0  0  0  0  0  0
  151.5847  142.5466  157.9598 C   0  0  1  0  0  0  0  0  0  0  0  0
  151.5552  143.9780  157.4224 C   0  0  0  0  0  0  0  0  0  0  0  0
  152.1209  144.8031  158.5682 C   0  0  0  0  0  0  0  0  0  0  0  0
  152.0686  143.8573  159.7713 C   0  0  0  0  0  0  0  0  0  0  0  0
  151.2973  142.7476  159.3348 O   0  0  0  0  0  0  0  0  0  0  0  0
  150.0302  134.8672  154.5485 C   0  0  0  0  0  0  0  0  0  0  0  0
  150.3796  133.0768  153.3670 H   0  0  0  0  0  0  0  0  0  0  0  0
  151.5622  133.8683  157.2302 H   0  0  0  0  0  0  0  0  0  0  0  0
  146.7407  133.1675  153.6991 H   0  0  0  0  0  0  0  0  0  0  0  0
  148.0295  133.3244  152.5104 H   0  0  0  0  0  0  0  0  0  0  0  0
  147.7328  134.6235  153.6774 H   0  0  0  0  0  0  0  0  0  0  0  0
  150.6473  131.7870  155.7647 H   0  0  0  0  0  0  0  0  0  0  0  0
  151.9035  132.8582  155.1889 H   0  0  0  0  0  0  0  0  0  0  0  0
  147.9883  132.0209  157.8197 H   0  0  0  0  0  0  0  0  0  0  0  0
  148.9457  131.8284  156.3650 H   0  0  0  0  0  0  0  0  0  0  0  0
  150.8990  137.5829  159.5025 H   0  0  0  0  0  0  0  0  0  0  0  0
  150.5626  139.7409  153.4479 H   0  0  0  0  0  0  0  0  0  0  0  0
  151.8908  141.5080  155.6011 H   0  0  0  0  0  0  0  0  0  0  0  0
  150.2145  141.7315  155.1800 H   0  0  0  0  0  0  0  0  0  0  0  0
  150.4749  140.6898  157.9146 H   0  0  0  0  0  0  0  0  0  0  0  0
  149.2043  142.7787  156.5825 H   0  0  0  0  0  0  0  0  0  0  0  0
  152.5947  142.1425  157.8664 H   0  0  0  0  0  0  0  0  0  0  0  0
  152.1223  144.0911  156.4982 H   0  0  0  0  0  0  0  0  0  0  0  0
  150.5277  144.2868  157.2252 H   0  0  0  0  0  0  0  0  0  0  0  0
  153.1466  145.1158  158.3692 H   0  0  0  0  0  0  0  0  0  0  0  0
  151.5224  145.6997  158.7332 H   0  0  0  0  0  0  0  0  0  0  0  0
  153.0706  143.5150  160.0346 H   0  0  0  0  0  0  0  0  0  0  0  0
  151.6251  144.3220  160.6520 H   0  0  0  0  0  0  0  0  0  0  0  0
  150.8000  135.3061  153.9121 H   0  0  0  0  0  0  0  0  0  0  0  0
  149.0776  135.3378  154.3006 H   0  0  0  0  0  0  0  0  0  0  0  0
  1  2  1  0  0  0  0
  1 30  1  0  0  0  0
  1 31  1  0  0  0  0
  1 32  1  0  0  0  0
  2  3  1  0  0  0  0
  3 28  1  0  0  0  0
  3 27  1  0  0  0  0
  3  4  1  0  0  0  0
  4  5  1  0  0  0  0
  4 33  1  0  0  0  0
  4 34  1  0  0  0  0
  5 29  1  0  0  0  0
  5  6  1  0  0  0  0
  5  9  1  0  0  0  0
  6  7  1  0  0  0  0
  6  8  2  0  0  0  0
  7 35  1  0  0  0  0
  7 36  1  0  0  0  0
  9 10  1  0  0  0  0
  9 27  1  0  0  0  0
 10 15  1  0  0  0  0
 10 11  2  0  0  0  0
 11 12  1  0  0  0  0
 12 13  2  0  0  0  0
 12 37  1  0  0  0  0
 13 14  1  0  0  0  0
 14 18  1  0  0  0  0
 14 15  2  0  0  0  0
 15 16  1  0  0  0  0
 16 17  2  0  0  0  0
 17 18  1  0  0  0  0
 17 38  1  0  0  0  0
 18 19  1  0  0  0  0
 19 20  1  0  0  0  0
 19 39  1  0  0  0  0
 19 40  1  0  0  0  0
 20 21  1  0  0  0  0
 20 22  1  0  0  0  0
 20 41  1  0  0  0  0
 21 42  1  0  0  0  0
 22 26  1  0  0  0  0
 22 23  1  0  0  0  0
 22 43  1  0  0  0  0
 23 24  1  0  0  0  0
 23 44  1  0  0  0  0
 23 45  1  0  0  0  0
 24 25  1  0  0  0  0
 24 46  1  0  0  0  0
 24 47  1  0  0  0  0
 25 26  1  0  0  0  0
 25 48  1  0  0  0  0
 25 49  1  0  0  0  0
 27 50  1  0  0  0  0
 27 51  1  0  0  0  0
M  END
> <s_m_source_file>
AV-unprocessed.smi

> <i_m_source_file_index>
261

> <i_lp_mmshare_version>
43012

> <i_f3d_flags>
0

> <s_epik_input>
W0NIM11PW0NASF0xW0NIMl1bQ0BASF0oQyg9TylbTkgyXSlOKFtDSDJdMSljKG5bY0hdbjIpYyhjMjMpbltjSF1uM1tDSDJdW0NASF0oW09IXSlbQ0BASF00W0NIMl1bQ0gyXVtDSDJdTzQ=

> <s_epik_cmdline>
J2VwaWtfcHl0aG9uJywgJy1waCcsICc3LjAnLCAnLXRuJywgJzgnLCAnLW1hJywgJzIwMCcsICctbWV0YWxfYmluZGluZycsICctaW1hZScsICc8aW5maWxlLm1hZT4nLCAnLW9tYWUnLCAnPG91dGZpbGUubWFlPic=

> <r_lp_tautomer_probability>
1

> <r_epik_Ionization_Penalty>
0.000713824

> <r_epik_Ionization_Penalty_Charging>
0

> <r_epik_Ionization_Penalty_Neutral>
0.000713824

> <r_epik_State_Penalty>
0.000402132

> <r_epik_Charging_Adjusted_Penalty>
0.000402132

> <i_epik_Tot_Q>
0

> <i_epik_Tot_abs_Q>
0

> <r_epik_Metal_State_Penalty>
-0

> <b_epik_Metal_Only>
0

> <s_lp_Force_Field>
OPLS_2005

> <r_lp_Energy>
42.3495

> <b_lp_Chiralities_Consistent>
1

> <s_lp_Variant>
AV-unprocessed.smi:261-12

> <Gold.Version>
5.8.1

> <Gold.Id.Protein>
6NUR|6NUR_protein|mol2

> <Gold.PLP.Fitness>
48.7856

> <Gold.PLP.PLP>
-42.2309

> <Gold.PLP.part.hbond>
-2.0630

> <Gold.PLP.part.metal>
0.0000

> <Gold.PLP.part.buried>
-4.0488

> <Gold.PLP.part.nonpolar>
-35.6647

> <Gold.PLP.part.repulsive>
0.3075

> <Gold.PLP.ligand.clash>
0.0000

> <Gold.PLP.ligand.torsion>
1.2492

> <Gold.PLP.Chemscore.Hbond>
1.9920

> <Gold.PLP.Chemscore.CHOScore>
0.9935

> <Gold.PLP.Chemscore.Metal>
0.0000

> <Gold.Chemscore.Hbonds>
donor molecule, donor type, donor heavy atom, donor atom, acceptor molecule, acceptor atom, score
      L1  H    21    42       P1  8028  0.65
      P1  H  6896  6909       L1     8  1.00
      L1  C    17    38       P1  7957  1.00

> <Gold.PLP.Chemscore.Internal.Correction>
0.0963

> <Gold.Rescore>
     Score         DG    S(hbond)    S(metal)    S(lipo)     H(rot)  DE(clash)    DE(int)     intcor
      9.20     -14.08       1.88        0.00      89.48       3.18       0.12       4.76       ----

> <Gold.Chemscore.Fitness>
9.2039

> <Gold.Chemscore.DG>
-14.0766

> <Gold.Chemscore.ZeroCoef>
-5.4800

> <Gold.Chemscore.Hbond>
1.8791

> <Gold.Chemscore.Metal>
0.0000

> <Gold.Chemscore.Lipo>
89.4787

> <Gold.Chemscore.Internal_Hbond>
0.0000

> <Gold.Chemscore.DEClash>
0.1177

> <Gold.Chemscore.DEInternal>
4.7550

> <Gold.Chemscore.Rot>
3.1831

> <Gold.Chemscore.Internal.Correction>
   9.000000E+99

> <Gold.Chemscore.Hbonds>
donor molecule, donor type, donor heavy atom, donor atom, acceptor molecule, acceptor atom, score
      L1  H    21    42       P1  8028  0.62
      P1  H  6896  6909       L1     8  0.77

> <Gold.Chemscore.Hbond.Weighted>
-6.2763

> <Gold.Chemscore.Metal.Weighted>
-0.0000

> <Gold.Chemscore.Lipo.Weighted>
-10.4690

> <Gold.Chemscore.Internal_Hbond.Weighted>
0.0000

> <Gold.Chemscore.DEClash.Weighted>
0.1177

> <Gold.Chemscore.DEInternal.Weighted>
4.7550

> <Gold.Chemscore.Rot.Weighted>
8.1486

> <Gold.Chemscore.Internal.Correction.Weighted>
   9.000000E+99

> <Gold.Protein.RotatedTorsions>
[ 6907 6896 6895 6894 ] final   30.09 input  -60.11 | X-H torsion
[ 7974 7965 7964 7962 ] final   25.35 input  175.53 | X-H torsion
[ 8008 7997 7996 7995 ] final -104.10 input   59.86 | X-H torsion
[ 10167 10162 10161 10158 ] final   68.00 input  -65.29 | X-H torsion
[ 10718 10713 10712 10709 ] final  -59.99 input   66.30 | X-H torsion
[ 10763 10752 10751 10750 ] final   52.16 input  -60.55 | X-H torsion
[ 11005 11000 10999 10996 ] final -160.58 input  -57.11 | X-H torsion

> <Gold.Protein.ActiveResidues>
 VAL166  LYS551  ARG553  GLY616  TRP617  ASP618  TYR619  PRO620  LYS621  CYS622 
 ASP623  PHE694  ASN695  SER759  ASP760  ASP761  ALA762  ILE779  LEU786  VAL792 
 PHE793  MET794  SER795  GLU796  ALA797  LYS798  CYS799  TRP800  GLU811  SER814 

> <Gold.Protein.RotatedAtoms>
  152.0410  134.9711  160.0573 H   0  0  0  0  0  0  0  0  0  0  0  0  # atno 6907 bound_to 6896
  152.1150  133.4317  159.4657 H   0  0  0  0  0  0  0  0  0  0  0  0  # atno 6908 bound_to 6896
  150.6845  134.2522  159.4558 H   0  0  0  0  0  0  0  0  0  0  0  0  # atno 6909 bound_to 6896
  146.1893  139.7478  142.8844 H   0  0  0  0  0  0  0  0  0  0  0  0  # atno 7974 bound_to 7965
  154.8805  140.0419  157.1779 H   0  0  0  0  0  0  0  0  0  0  0  0  # atno 8008 bound_to 7997
  154.8644  140.2949  155.5498 H   0  0  0  0  0  0  0  0  0  0  0  0  # atno 8009 bound_to 7997
  156.2999  140.2441  156.3624 H   0  0  0  0  0  0  0  0  0  0  0  0  # atno 8010 bound_to 7997
  140.0834  144.5051  150.7146 H   0  0  0  0  0  0  0  0  0  0  0  0  # atno 10167 bound_to 10162
  156.1022  130.4185  150.0792 H   0  0  0  0  0  0  0  0  0  0  0  0  # atno 10718 bound_to 10713
  152.9787  135.5822  154.4533 H   0  0  0  0  0  0  0  0  0  0  0  0  # atno 10763 bound_to 10752
  154.4119  135.2770  155.2033 H   0  0  0  0  0  0  0  0  0  0  0  0  # atno 10764 bound_to 10752
  154.3820  135.6144  153.5850 H   0  0  0  0  0  0  0  0  0  0  0  0  # atno 10765 bound_to 10752
  140.6299  134.4662  157.5229 H   0  0  0  0  0  0  0  0  0  0  0  0  # atno 11005 bound_to 11000
  145.3843  141.0363  143.3160 LP  0  0  0  0  0  0  0  0  0  0  0  0  # atno 17320 bound_to 7965
  144.8455  139.5403  143.6880 LP  0  0  0  0  0  0  0  0  0  0  0  0  # atno 17321 bound_to 7965
  140.7066  143.2472  151.4708 LP  0  0  0  0  0  0  0  0  0  0  0  0  # atno 17342 bound_to 10162
  139.5766  144.1805  152.1911 LP  0  0  0  0  0  0  0  0  0  0  0  0  # atno 17343 bound_to 10162
  156.8776  130.9545  151.3603 LP  0  0  0  0  0  0  0  0  0  0  0  0  # atno 17370 bound_to 10713
  157.6194  130.8643  149.9083 LP  0  0  0  0  0  0  0  0  0  0  0  0  # atno 17371 bound_to 10713
  139.9120  134.8325  156.1496 LP  0  0  0  0  0  0  0  0  0  0  0  0  # atno 17394 bound_to 11000
  141.0682  133.6809  156.2088 LP  0  0  0  0  0  0  0  0  0  0  0  0  # atno 17395 bound_to 11000

$$$$
