AV-unprocessed.smi:1041|AV-procd|sdf|4531|dock9
  -GOLD-   22720 2553D 1   1.00000     0.00000
 Structure written by MMmdl.
 53 54  0  0  0  0  0  0  0  0  2 V2000
  143.7323  132.6559  149.0639 C   0  0  0  0  0  0  0  0  0  0  0  0
  144.2715  131.5137  149.7062 O   0  0  0  0  0  0  0  0  0  0  0  0
  145.5938  131.7250  150.1725 C   0  0  0  0  0  0  0  0  0  0  0  0
  145.8396  130.8285  151.3960 C   0  0  0  0  0  0  0  0  0  0  0  0
  147.1107  131.1483  152.0945 N   0  3  2  0  0  0  0  0  0  0  0  0
  147.4288  130.1564  153.1545 C   0  0  0  0  0  0  0  0  0  0  0  0
  148.8026  130.4323  153.7948 C   0  0  0  0  0  0  0  0  0  0  0  0
  148.9127  131.8662  154.3451 C   0  0  2  0  0  0  0  0  0  0  0  0
  148.1049  132.0522  155.6514 C   0  0  0  0  0  0  0  0  0  0  0  0
  148.1989  133.4176  156.1558 N   0  0  0  0  0  0  0  0  0  0  0  0
  148.9800  133.8223  157.1694 C   0  0  0  0  0  0  0  0  0  0  0  0
  149.7792  133.0887  157.7505 O   0  0  0  0  0  0  0  0  0  0  0  0
  148.7938  135.2679  157.6274 C   0  0  0  0  0  0  0  0  0  0  0  0
  148.4692  135.4217  159.1115 C   0  0  0  0  0  0  0  0  0  0  0  0
  147.5169  134.6897  159.7439 C   0  0  0  0  0  0  0  0  0  0  0  0
  146.6684  133.6221  159.0755 C   0  0  0  0  0  0  0  0  0  0  0  0
  147.2456  134.8775  161.0879 N   0  0  0  0  0  0  0  0  0  0  0  0
  147.9677  135.8448  161.7670 C   0  0  0  0  0  0  0  0  0  0  0  0
  147.5901  135.9735  163.2268 C   0  0  0  0  0  0  0  0  0  0  0  0
  148.8922  136.5960  161.2505 N   0  0  0  0  0  0  0  0  0  0  0  0
  149.2106  136.4405  159.8920 C   0  0  0  0  0  0  0  0  0  0  0  0
  150.0761  137.1433  159.3717 O   0  0  0  0  0  0  0  0  0  0  0  0
  148.5429  132.8527  153.2175 C   0  0  0  0  0  0  0  0  0  0  0  0
  147.1646  132.5418  152.6110 C   0  0  0  0  0  0  0  0  0  0  0  0
  146.5342  134.3066  161.5215 H   0  0  0  0  0  0  0  0  0  0  0  0
  142.7156  132.4444  148.7329 H   0  0  0  0  0  0  0  0  0  0  0  0
  144.3212  132.9303  148.1877 H   0  0  0  0  0  0  0  0  0  0  0  0
  143.6942  133.5095  149.7419 H   0  0  0  0  0  0  0  0  0  0  0  0
  146.3184  131.5355  149.3805 H   0  0  0  0  0  0  0  0  0  0  0  0
  145.7107  132.7696  150.4650 H   0  0  0  0  0  0  0  0  0  0  0  0
  145.0082  130.9054  152.0981 H   0  0  0  0  0  0  0  0  0  0  0  0
  145.8570  129.7925  151.0545 H   0  0  0  0  0  0  0  0  0  0  0  0
  146.6426  130.1640  153.9103 H   0  0  0  0  0  0  0  0  0  0  0  0
  147.4362  129.1542  152.7241 H   0  0  0  0  0  0  0  0  0  0  0  0
  148.9998  129.7069  154.5850 H   0  0  0  0  0  0  0  0  0  0  0  0
  149.5789  130.2773  153.0441 H   0  0  0  0  0  0  0  0  0  0  0  0
  149.9596  132.0402  154.5989 H   0  0  0  0  0  0  0  0  0  0  0  0
  147.0640  131.7577  155.5156 H   0  0  0  0  0  0  0  0  0  0  0  0
  148.5020  131.3909  156.4222 H   0  0  0  0  0  0  0  0  0  0  0  0
  147.5753  134.0967  155.7432 H   0  0  0  0  0  0  0  0  0  0  0  0
  149.7075  135.8136  157.3924 H   0  0  0  0  0  0  0  0  0  0  0  0
  148.0233  135.7511  157.0244 H   0  0  0  0  0  0  0  0  0  0  0  0
  147.2976  132.8138  158.7024 H   0  0  0  0  0  0  0  0  0  0  0  0
  146.1129  134.0436  158.2380 H   0  0  0  0  0  0  0  0  0  0  0  0
  145.9467  133.1896  159.7697 H   0  0  0  0  0  0  0  0  0  0  0  0
  148.0162  136.8787  163.6609 H   0  0  0  0  0  0  0  0  0  0  0  0
  147.9613  135.1168  163.7898 H   0  0  0  0  0  0  0  0  0  0  0  0
  146.5065  136.0208  163.3411 H   0  0  0  0  0  0  0  0  0  0  0  0
  148.5755  133.8841  153.5680 H   0  0  0  0  0  0  0  0  0  0  0  0
  149.2953  132.7899  152.4302 H   0  0  0  0  0  0  0  0  0  0  0  0
  146.9727  133.2517  151.8079 H   0  0  0  0  0  0  0  0  0  0  0  0
  146.3789  132.6910  153.3525 H   0  0  0  0  0  0  0  0  0  0  0  0
  147.8428  131.0624  151.4036 H   0  0  0  0  0  0  0  0  0  0  0  0
  1  2  1  0  0  0  0
  1 26  1  0  0  0  0
  1 27  1  0  0  0  0
  1 28  1  0  0  0  0
  2  3  1  0  0  0  0
  3  4  1  0  0  0  0
  3 29  1  0  0  0  0
  3 30  1  0  0  0  0
  4  5  1  0  0  0  0
  4 31  1  0  0  0  0
  4 32  1  0  0  0  0
  5 24  1  0  0  0  0
  5  6  1  0  0  0  0
  5 53  1  0  0  0  0
  6  7  1  0  0  0  0
  6 33  1  0  0  0  0
  6 34  1  0  0  0  0
  7  8  1  0  0  0  0
  7 35  1  0  0  0  0
  7 36  1  0  0  0  0
  8  9  1  0  0  0  0
  8 23  1  0  0  0  0
  8 37  1  0  0  0  0
  9 10  1  0  0  0  0
  9 38  1  0  0  0  0
  9 39  1  0  0  0  0
 10 11  1  0  0  0  0
 10 40  1  0  0  0  0
 11 12  2  0  0  0  0
 11 13  1  0  0  0  0
 13 41  1  0  0  0  0
 13 42  1  0  0  0  0
 13 14  1  0  0  0  0
 14 21  1  0  0  0  0
 14 15  2  0  0  0  0
 15 16  1  0  0  0  0
 15 17  1  0  0  0  0
 16 43  1  0  0  0  0
 16 44  1  0  0  0  0
 16 45  1  0  0  0  0
 17 25  1  0  0  0  0
 17 18  1  0  0  0  0
 18 19  1  0  0  0  0
 18 20  2  0  0  0  0
 19 46  1  0  0  0  0
 19 47  1  0  0  0  0
 19 48  1  0  0  0  0
 20 21  1  0  0  0  0
 21 22  2  0  0  0  0
 23 24  1  0  0  0  0
 23 49  1  0  0  0  0
 23 50  1  0  0  0  0
 24 51  1  0  0  0  0
 24 52  1  0  0  0  0
M  CHG  1   5   1
M  END
> <s_m_source_file>
AV-unprocessed.smi

> <i_m_source_file_index>
1041

> <i_lp_mmshare_version>
43012

> <i_f3d_flags>
0

> <s_epik_input>
W0NIM11PW0NIMl1bQ0gyXU4xW0NIMl1bQ0gyXVtDSF0oW0NIMl1bQ0gyXTEpW0NIMl1bTkhdQyg9TylbQ0gyXWMyYyhbQ0gzXSluYyhbQ0gzXSlbbkhdYzI9Tw==

> <s_epik_cmdline>
J2VwaWtfcHl0aG9uJywgJy1waCcsICc3LjAnLCAnLXRuJywgJzgnLCAnLW1hJywgJzIwMCcsICctbWV0YWxfYmluZGluZycsICctaW1hZScsICc8aW5maWxlLm1hZT4nLCAnLW9tYWUnLCAnPG91dGZpbGUubWFlPic=

> <r_lp_tautomer_probability>
0.156392

> <r_epik_Ionization_Penalty>
0.0240251

> <r_epik_Ionization_Penalty_Charging>
0.0239146

> <r_epik_Ionization_Penalty_Neutral>
0.000110474

> <r_epik_State_Penalty>
1.15942

> <r_epik_Charging_Adjusted_Penalty>
1.18333

> <i_epik_Tot_Q>
1

> <i_epik_Tot_abs_Q>
1

> <r_epik_Metal_State_Penalty>
1.33297

> <b_epik_Metal_Only>
0

> <s_lp_Force_Field>
OPLS_2005

> <r_lp_Energy>
25.6342

> <b_lp_Chiralities_Consistent>
1

> <s_lp_Variant>
AV-unprocessed.smi:1041-4

> <Gold.Version>
5.8.1

> <Gold.Id.Protein>
6NUR|6NUR_protein|mol2

> <Gold.PLP.Fitness>
47.9233

> <Gold.PLP.PLP>
-38.1642

> <Gold.PLP.part.hbond>
-3.9072

> <Gold.PLP.part.metal>
0.0000

> <Gold.PLP.part.buried>
-4.5569

> <Gold.PLP.part.nonpolar>
-31.4033

> <Gold.PLP.part.repulsive>
0.2041

> <Gold.PLP.ligand.clash>
0.0000

> <Gold.PLP.ligand.torsion>
0.5169

> <Gold.PLP.Chemscore.Hbond>
3.5551

> <Gold.PLP.Chemscore.CHOScore>
0.0000

> <Gold.PLP.Chemscore.Metal>
0.0000

> <Gold.Chemscore.Hbonds>
donor molecule, donor type, donor heavy atom, donor atom, acceptor molecule, acceptor atom, score
      L1  H     5    53       P1 10747  1.00
      P1  H  6896  6909       L1    12  1.00
      P1  H  6931  6943       L1    20  1.00
      P1  H 10785 10796       L1     2  0.49

> <Gold.PLP.Chemscore.Internal.Correction>
0.1275

> <Gold.Rescore>
     Score         DG    S(hbond)    S(metal)    S(lipo)     H(rot)  DE(clash)    DE(int)     intcor
     18.11     -19.82       3.21        0.00      84.13       2.43       0.02       1.68       ----

> <Gold.Chemscore.Fitness>
18.1101

> <Gold.Chemscore.DG>
-19.8179

> <Gold.Chemscore.ZeroCoef>
-5.4800

> <Gold.Chemscore.Hbond>
3.2075

> <Gold.Chemscore.Metal>
0.0000

> <Gold.Chemscore.Lipo>
84.1323

> <Gold.Chemscore.Internal_Hbond>
0.0000

> <Gold.Chemscore.DEClash>
0.0230

> <Gold.Chemscore.DEInternal>
1.6848

> <Gold.Chemscore.Rot>
2.4291

> <Gold.Chemscore.Internal.Correction>
   9.000000E+99

> <Gold.Chemscore.Hbonds>
donor molecule, donor type, donor heavy atom, donor atom, acceptor molecule, acceptor atom, score
      L1  H     5    53       P1 10747  0.99
      P1  H  6896  6909       L1    12  0.99
      P1  H  6931  6943       L1    20  0.87
      P1  H 10785 10796       L1     2  0.10

> <Gold.Chemscore.Hbond.Weighted>
-10.7130

> <Gold.Chemscore.Metal.Weighted>
-0.0000

> <Gold.Chemscore.Lipo.Weighted>
-9.8435

> <Gold.Chemscore.Internal_Hbond.Weighted>
0.0000

> <Gold.Chemscore.DEClash.Weighted>
0.0230

> <Gold.Chemscore.DEInternal.Weighted>
1.6848

> <Gold.Chemscore.Rot.Weighted>
6.2186

> <Gold.Chemscore.Internal.Correction.Weighted>
   9.000000E+99

> <Gold.Protein.RotatedTorsions>
[ 6907 6896 6895 6894 ] final  -16.92 input  -60.11 | X-H torsion
[ 7974 7965 7964 7962 ] final  159.66 input  175.53 | X-H torsion
[ 8008 7997 7996 7995 ] final   29.57 input   59.86 | X-H torsion
[ 10167 10162 10161 10158 ] final  -58.24 input  -65.29 | X-H torsion
[ 10718 10713 10712 10709 ] final  -81.87 input   66.30 | X-H torsion
[ 10763 10752 10751 10750 ] final  -47.77 input  -60.55 | X-H torsion
[ 11005 11000 10999 10996 ] final  -31.36 input  -57.11 | X-H torsion

> <Gold.Protein.ActiveResidues>
 VAL166  LYS551  ARG553  GLY616  TRP617  ASP618  TYR619  PRO620  LYS621  CYS622 
 ASP623  PHE694  ASN695  SER759  ASP760  ASP761  ALA762  ILE779  LEU786  VAL792 
 PHE793  MET794  SER795  GLU796  ALA797  LYS798  CYS799  TRP800  GLU811  SER814 

> <Gold.Protein.RotatedAtoms>
  151.3012  135.0769  159.9239 H   0  0  0  0  0  0  0  0  0  0  0  0  # atno 6907 bound_to 6896
  152.5297  133.9831  159.7826 H   0  0  0  0  0  0  0  0  0  0  0  0  # atno 6908 bound_to 6896
  151.0118  133.5907  159.2712 H   0  0  0  0  0  0  0  0  0  0  0  0  # atno 6909 bound_to 6896
  144.7778  139.7648  143.6271 H   0  0  0  0  0  0  0  0  0  0  0  0  # atno 7974 bound_to 7965
  155.0766  140.3206  155.4614 H   0  0  0  0  0  0  0  0  0  0  0  0  # atno 8008 bound_to 7997
  156.2777  140.2102  156.5840 H   0  0  0  0  0  0  0  0  0  0  0  0  # atno 8009 bound_to 7997
  154.7012  140.0507  157.0447 H   0  0  0  0  0  0  0  0  0  0  0  0  # atno 8010 bound_to 7997
  140.6209  143.2419  151.5483 H   0  0  0  0  0  0  0  0  0  0  0  0  # atno 10167 bound_to 10162
  156.0043  130.4617  150.4018 H   0  0  0  0  0  0  0  0  0  0  0  0  # atno 10718 bound_to 10713
  154.0668  135.6610  153.4819 H   0  0  0  0  0  0  0  0  0  0  0  0  # atno 10763 bound_to 10752
  153.0406  135.5148  154.7606 H   0  0  0  0  0  0  0  0  0  0  0  0  # atno 10764 bound_to 10752
  154.6659  135.3022  154.9773 H   0  0  0  0  0  0  0  0  0  0  0  0  # atno 10765 bound_to 10752
  140.9462  133.7249  156.1150 H   0  0  0  0  0  0  0  0  0  0  0  0  # atno 11005 bound_to 11000
  146.1969  139.5240  142.9769 LP  0  0  0  0  0  0  0  0  0  0  0  0  # atno 17320 bound_to 7965
  145.6135  141.0335  143.1954 LP  0  0  0  0  0  0  0  0  0  0  0  0  # atno 17321 bound_to 7965
  139.5438  144.2576  152.1402 LP  0  0  0  0  0  0  0  0  0  0  0  0  # atno 17342 bound_to 10162
  140.1796  144.4857  150.6535 LP  0  0  0  0  0  0  0  0  0  0  0  0  # atno 17343 bound_to 10162
  157.2087  131.0455  151.2611 LP  0  0  0  0  0  0  0  0  0  0  0  0  # atno 17370 bound_to 10713
  157.3909  130.7281  149.6697 LP  0  0  0  0  0  0  0  0  0  0  0  0  # atno 17371 bound_to 10713
  140.7666  134.3879  157.5516 LP  0  0  0  0  0  0  0  0  0  0  0  0  # atno 17394 bound_to 11000
  139.8834  134.8996  156.2769 LP  0  0  0  0  0  0  0  0  0  0  0  0  # atno 17395 bound_to 11000

$$$$
