#       Name:                AV-unprocessed.smi:2446
#       Creating user name   scv26
#       Creation time:       Fri Mar 27 13:28:09 2020


#       File generated by GOLD software.
#

@<TRIPOS>MOLECULE
AV-unprocessed.smi:2446
    42    43     1
SMALL
NO_CHARGES


@<TRIPOS>ATOM
      1 ****        -2.4454  -1.3066   0.1457 C.3            1 S1                 0.0000
      2 ****        -3.2182   0.0016   0.1522 C.ar           1 S1                 0.0000
      3 ****        -4.6299  -0.0249   0.1440 C.ar           1 S1                 0.0000
      4 ****        -5.3297   1.1289   0.1527 N.pl3          1 S1                 1.0000
      5 ****        -4.7378   2.3410   0.1756 C.ar           1 S1                 0.0000
      6 ****        -3.3321   2.4369   0.1855 C.ar           1 S1                 0.0000
      7 ****        -2.5503   1.2533   0.1604 C.ar           1 S1                 0.0000
      8 ****        -1.1272   1.2577   0.1840 N.am           1 S1                 0.0000
      9 ****        -0.2704   2.2303  -0.1844 C.2            1 S1                 0.0000
     10 ****        -0.6039   3.3399  -0.5937 O.2            1 S1                 0.0000
     11 ****         1.0272   1.8868  -0.0848 N.am           1 S1                 0.0000
     12 ****         2.2095   2.6928  -0.3992 C.3            1 S1                 0.0000
     13 ****         3.4034   1.7639  -0.6828 C.3            1 S1                 0.0000
     14 ****         4.6829   2.5681  -0.9593 C.3            1 S1                 0.0000
     15 ****         4.9983   3.5316   0.1957 C.3            1 S1                 0.0000
     16 ****         3.8142   4.4780   0.4848 C.3            1 S1                 0.0000
     17 ****         4.1242   5.4647   1.6293 C.3            1 S1                 0.0000
     18 ****         4.3491   4.8129   2.7705 F              1 S1                 0.0000
     19 ****         5.2007   6.1906   1.3274 F              1 S1                 0.0000
     20 ****         3.0971   6.2967   1.8029 F              1 S1                 0.0000
     21 ****         2.5369   3.6570   0.7610 C.3            1 S1                 0.0000
     22 ****        -3.1186  -2.1641   0.1659 H              1 S1                 0.0000
     23 ****        -1.7929  -1.3707   1.0171 H              1 S1                 0.0000
     24 ****        -1.8312  -1.3819  -0.7520 H              1 S1                 0.0000
     25 ****        -5.2190  -0.9305   0.1322 H              1 S1                 0.0000
     26 ****        -5.4016   3.1932   0.1914 H              1 S1                 0.0000
     27 ****        -2.8842   3.4177   0.2253 H              1 S1                 0.0000
     28 ****        -0.7006   0.3780   0.4355 H              1 S1                 0.0000
     29 ****         1.2158   0.9571   0.2621 H              1 S1                 0.0000
     30 ****         2.0239   3.2734  -1.3048 H              1 S1                 0.0000
     31 ****         3.5701   1.1018   0.1682 H              1 S1                 0.0000
     32 ****         3.1833   1.1212  -1.5362 H              1 S1                 0.0000
     33 ****         5.5213   1.8887  -1.1149 H              1 S1                 0.0000
     34 ****         4.5670   3.1327  -1.8852 H              1 S1                 0.0000
     35 ****         5.2409   2.9572   1.0908 H              1 S1                 0.0000
     36 ****         5.8899   4.1091  -0.0497 H              1 S1                 0.0000
     37 ****         3.6378   5.0710  -0.4144 H              1 S1                 0.0000
     38 ****         1.6987   4.3329   0.9298 H              1 S1                 0.0000
     39 ****         2.6600   3.0895   1.6846 H              1 S1                 0.0000
     40 ****        -6.3490   1.0829   0.1473 H              1 S1                 0.0000
     41 ****        -1.5731   3.5733  -0.6723 LP             1 S1                 0.0000
     42 ****         0.0939   4.0094  -0.8483 LP             1 S1                 0.0000
@<TRIPOS>BOND
    1    1    2 1     
    2    1   22 1     
    3    1   23 1     
    4    1   24 1     
    5    2    7 ar    
    6    2    3 ar    
    7    3    4 ar    
    8    3   25 1     
    9    4    5 ar    
   10    4   40 1     
   11    5    6 ar    
   12    5   26 1     
   13    6    7 ar    
   14    6   27 1     
   15    7    8 1     
   16    8    9 am    
   17    8   28 1     
   18    9   10 2     
   19    9   11 am    
   20   11   12 1     
   21   11   29 1     
   22   12   21 1     
   23   12   13 1     
   24   12   30 1     
   25   13   14 1     
   26   13   31 1     
   27   13   32 1     
   28   14   15 1     
   29   14   33 1     
   30   14   34 1     
   31   15   16 1     
   32   15   35 1     
   33   15   36 1     
   34   16   17 1     
   35   16   21 1     
   36   16   37 1     
   37   17   18 1     
   38   17   19 1     
   39   17   20 1     
   40   21   38 1     
   41   21   39 1     
   42   10   41 1     
   43   10   42 1     
@<TRIPOS>SUBSTRUCTURE
      1 S1             1
@<TRIPOS>SET
LONE_PAIRS      STATIC     ATOMS    <user>   **** ""
2 41 42
DONOR_HYDROGENS      STATIC     ATOMS    <user>   **** ""
3 40 28 29
ATOM$BLUE        STATIC     ATOMS    COLORGROUP SYSTEM
2 41 42
ATOM$RED        STATIC     ATOMS    COLORGROUP SYSTEM
3 40 28 29
