AV-unprocessed.smi:2022|AV-procd|sdf|8187|dock6
  -GOLD-   2272010443D 1   1.00000     0.00000
 Structure written by MMmdl.
 34 35  0  0  0  0  0  0  0  0  1 V2000
  148.3750  130.0168  154.5444 C   0  0  0  0  0  0  0  0  0  0  0  0
  148.7440  131.4383  154.7978 C   0  0  0  0  0  0  0  0  0  0  0  0
  148.5024  132.5968  154.1146 C   0  0  0  0  0  0  0  0  0  0  0  0
  149.1451  133.5792  154.9140 C   0  0  0  0  0  0  0  0  0  0  0  0
  149.1286  134.9464  154.5377 N   0  0  0  0  0  0  0  0  0  0  0  0
  149.5115  136.0037  155.2734 C   0  0  0  0  0  0  0  0  0  0  0  0
  149.9357  135.9486  156.4282 O   0  0  0  0  0  0  0  0  0  0  0  0
  149.3760  137.1472  154.5861 N   0  0  0  0  0  0  0  0  0  0  0  0
  149.7419  138.4802  155.0649 C   0  0  2  0  0  0  0  0  0  0  0  0
  149.0508  139.5782  154.2157 C   0  0  0  0  0  0  0  0  0  0  0  0
  149.7488  140.9541  154.1886 C   0  0  0  0  0  0  0  0  0  0  0  0
  150.0500  141.5724  155.5689 C   0  0  0  0  0  0  0  0  0  0  0  0
  150.8777  140.7107  156.5522 C   0  0  0  0  0  0  0  0  0  0  0  0
  151.7178  139.7000  155.9108 N   0  0  0  0  0  0  0  0  0  0  0  0
  151.2665  138.6330  155.2292 C   0  0  0  0  0  0  0  0  0  0  0  0
  152.0393  137.8140  154.7330 O   0  0  0  0  0  0  0  0  0  0  0  0
  149.7248  133.0674  155.9890 N   0  0  0  0  0  0  0  0  0  0  0  0
  149.4711  131.6923  155.9197 O   0  0  0  0  0  0  0  0  0  0  0  0
  147.5826  129.9478  153.7990 H   0  0  0  0  0  0  0  0  0  0  0  0
  148.0213  129.5382  155.4577 H   0  0  0  0  0  0  0  0  0  0  0  0
  149.2345  129.4552  154.1780 H   0  0  0  0  0  0  0  0  0  0  0  0
  147.9563  132.7178  153.1909 H   0  0  0  0  0  0  0  0  0  0  0  0
  148.8016  135.1394  153.6026 H   0  0  0  0  0  0  0  0  0  0  0  0
  149.0219  137.0951  153.6420 H   0  0  0  0  0  0  0  0  0  0  0  0
  149.3417  138.5524  156.0772 H   0  0  0  0  0  0  0  0  0  0  0  0
  148.9639  139.2355  153.1834 H   0  0  0  0  0  0  0  0  0  0  0  0
  148.0266  139.7032  154.5694 H   0  0  0  0  0  0  0  0  0  0  0  0
  150.6751  140.8791  153.6173 H   0  0  0  0  0  0  0  0  0  0  0  0
  149.1264  141.6488  153.6238 H   0  0  0  0  0  0  0  0  0  0  0  0
  150.5856  142.5071  155.3989 H   0  0  0  0  0  0  0  0  0  0  0  0
  149.1147  141.8579  156.0519 H   0  0  0  0  0  0  0  0  0  0  0  0
  151.5174  141.3583  157.1520 H   0  0  0  0  0  0  0  0  0  0  0  0
  150.2161  140.2211  157.2677 H   0  0  0  0  0  0  0  0  0  0  0  0
  152.7171  139.8079  156.0087 H   0  0  0  0  0  0  0  0  0  0  0  0
  1  2  1  0  0  0  0
  1 19  1  0  0  0  0
  1 20  1  0  0  0  0
  1 21  1  0  0  0  0
  2 18  1  0  0  0  0
  2  3  2  0  0  0  0
  3  4  1  0  0  0  0
  3 22  1  0  0  0  0
  4  5  1  0  0  0  0
  4 17  2  0  0  0  0
  5  6  1  0  0  0  0
  5 23  1  0  0  0  0
  6  7  2  0  0  0  0
  6  8  1  0  0  0  0
  8  9  1  0  0  0  0
  8 24  1  0  0  0  0
  9 15  1  0  0  0  0
  9 10  1  0  0  0  0
  9 25  1  0  0  0  0
 10 11  1  0  0  0  0
 10 26  1  0  0  0  0
 10 27  1  0  0  0  0
 11 12  1  0  0  0  0
 11 28  1  0  0  0  0
 11 29  1  0  0  0  0
 12 13  1  0  0  0  0
 12 30  1  0  0  0  0
 12 31  1  0  0  0  0
 13 14  1  0  0  0  0
 13 32  1  0  0  0  0
 13 33  1  0  0  0  0
 14 15  1  0  0  0  0
 14 34  1  0  0  0  0
 15 16  2  0  0  0  0
 17 18  1  0  0  0  0
M  END
> <s_m_source_file>
AV-unprocessed.smi

> <i_m_source_file_index>
2022

> <i_lp_mmshare_version>
43012

> <i_f3d_flags>
0

> <s_epik_input>
W0NIM11jMVtjSF1jKG5vMSlbTkhdQyg9TylbTkhdW0NAQEhdMltDSDJdW0NIMl1bQ0gyXVtDSDJdW05IXUMyPU8=

> <s_epik_cmdline>
J2VwaWtfcHl0aG9uJywgJy1waCcsICc3LjAnLCAnLXRuJywgJzgnLCAnLW1hJywgJzIwMCcsICctbWV0YWxfYmluZGluZycsICctaW1hZScsICc8aW5maWxlLm1hZT4nLCAnLW9tYWUnLCAnPG91dGZpbGUubWFlPic=

> <r_lp_tautomer_probability>
1

> <r_epik_Ionization_Penalty>
2.27343e-05

> <r_epik_Ionization_Penalty_Charging>
0

> <r_epik_Ionization_Penalty_Neutral>
2.27343e-05

> <r_epik_State_Penalty>
-0

> <r_epik_Charging_Adjusted_Penalty>
0

> <i_epik_Tot_Q>
0

> <i_epik_Tot_abs_Q>
0

> <r_epik_Metal_State_Penalty>
-0

> <b_epik_Metal_Only>
0

> <s_lp_Force_Field>
OPLS_2005

> <r_lp_Energy>
12.0489

> <b_lp_Chiralities_Consistent>
1

> <s_lp_Variant>
AV-unprocessed.smi:2022-1

> <Gold.Version>
5.8.1

> <Gold.Id.Protein>
6NUR|6NUR_protein|mol2

> <Gold.PLP.Fitness>
35.4032

> <Gold.PLP.PLP>
-29.7695

> <Gold.PLP.part.hbond>
-2.0000

> <Gold.PLP.part.metal>
0.0000

> <Gold.PLP.part.buried>
-4.0880

> <Gold.PLP.part.nonpolar>
-24.3339

> <Gold.PLP.part.repulsive>
0.3639

> <Gold.PLP.ligand.clash>
0.0000

> <Gold.PLP.ligand.torsion>
0.1738

> <Gold.PLP.Chemscore.Hbond>
1.9760

> <Gold.PLP.Chemscore.CHOScore>
0.0000

> <Gold.PLP.Chemscore.Metal>
0.0000

> <Gold.Chemscore.Hbonds>
donor molecule, donor type, donor heavy atom, donor atom, acceptor molecule, acceptor atom, score
      L1  H     5    23       P1  7948  0.98
      L1  H     8    24       P1  7948  1.00

> <Gold.PLP.Chemscore.Internal.Correction>
0.0533

> <Gold.Rescore>
     Score         DG    S(hbond)    S(metal)    S(lipo)     H(rot)  DE(clash)    DE(int)     intcor
     11.95     -13.34       1.52        0.00      45.81       1.00       0.03       1.36       ----

> <Gold.Chemscore.Fitness>
11.9549

> <Gold.Chemscore.DG>
-13.3435

> <Gold.Chemscore.ZeroCoef>
-5.4800

> <Gold.Chemscore.Hbond>
1.5162

> <Gold.Chemscore.Metal>
0.0000

> <Gold.Chemscore.Lipo>
45.8066

> <Gold.Chemscore.Internal_Hbond>
0.0000

> <Gold.Chemscore.DEClash>
0.0299

> <Gold.Chemscore.DEInternal>
1.3587

> <Gold.Chemscore.Rot>
1.0000

> <Gold.Chemscore.Internal.Correction>
   9.000000E+99

> <Gold.Chemscore.Hbonds>
donor molecule, donor type, donor heavy atom, donor atom, acceptor molecule, acceptor atom, score
      L1  H     5    23       P1  7948  0.60
      L1  H     8    24       P1  7948  0.93

> <Gold.Chemscore.Hbond.Weighted>
-5.0642

> <Gold.Chemscore.Metal.Weighted>
-0.0000

> <Gold.Chemscore.Lipo.Weighted>
-5.3594

> <Gold.Chemscore.Internal_Hbond.Weighted>
0.0000

> <Gold.Chemscore.DEClash.Weighted>
0.0299

> <Gold.Chemscore.DEInternal.Weighted>
1.3587

> <Gold.Chemscore.Rot.Weighted>
2.5600

> <Gold.Chemscore.Internal.Correction.Weighted>
   9.000000E+99

> <Gold.Protein.RotatedTorsions>
[ 6907 6896 6895 6894 ] final  131.20 input  -60.11 | X-H torsion
[ 7974 7965 7964 7962 ] final  108.96 input  175.53 | X-H torsion
[ 8008 7997 7996 7995 ] final  120.46 input   59.86 | X-H torsion
[ 10167 10162 10161 10158 ] final   72.55 input  -65.29 | X-H torsion
[ 10718 10713 10712 10709 ] final  -42.07 input   66.30 | X-H torsion
[ 10763 10752 10751 10750 ] final  -16.69 input  -60.55 | X-H torsion
[ 11005 11000 10999 10996 ] final  -34.94 input  -57.11 | X-H torsion

> <Gold.Protein.ActiveResidues>
 VAL166  LYS551  ARG553  GLY616  TRP617  ASP618  TYR619  PRO620  LYS621  CYS622 
 ASP623  PHE694  ASN695  SER759  ASP760  ASP761  ALA762  ILE779  LEU786  VAL792 
 PHE793  MET794  SER795  GLU796  ALA797  LYS798  CYS799  TRP800  GLU811  SER814 

> <Gold.Protein.RotatedAtoms>
  152.3450  133.6112  159.5903 H   0  0  0  0  0  0  0  0  0  0  0  0  # atno 6907 bound_to 6896
  150.7502  133.9663  159.3540 H   0  0  0  0  0  0  0  0  0  0  0  0  # atno 6908 bound_to 6896
  151.7522  135.0831  160.0383 H   0  0  0  0  0  0  0  0  0  0  0  0  # atno 6909 bound_to 6896
  145.2740  139.2656  143.3951 H   0  0  0  0  0  0  0  0  0  0  0  0  # atno 7974 bound_to 7965
  156.2643  140.2830  156.1154 H   0  0  0  0  0  0  0  0  0  0  0  0  # atno 8008 bound_to 7997
  155.1213  140.0392  157.2768 H   0  0  0  0  0  0  0  0  0  0  0  0  # atno 8009 bound_to 7997
  154.6668  140.2579  155.7055 H   0  0  0  0  0  0  0  0  0  0  0  0  # atno 8010 bound_to 7997
  140.0341  144.5442  150.7484 H   0  0  0  0  0  0  0  0  0  0  0  0  # atno 10167 bound_to 10162
  156.2636  130.4199  149.8515 H   0  0  0  0  0  0  0  0  0  0  0  0  # atno 10718 bound_to 10713
  153.5624  135.7009  153.5541 H   0  0  0  0  0  0  0  0  0  0  0  0  # atno 10763 bound_to 10752
  153.3417  135.4019  155.1577 H   0  0  0  0  0  0  0  0  0  0  0  0  # atno 10764 bound_to 10752
  154.8646  135.3744  154.5142 H   0  0  0  0  0  0  0  0  0  0  0  0  # atno 10765 bound_to 10752
  140.9757  133.7084  156.1598 H   0  0  0  0  0  0  0  0  0  0  0  0  # atno 11005 bound_to 11000
  146.3237  140.3190  142.8632 LP  0  0  0  0  0  0  0  0  0  0  0  0  # atno 17320 bound_to 7965
  144.9310  140.7975  143.5689 LP  0  0  0  0  0  0  0  0  0  0  0  0  # atno 17321 bound_to 7965
  140.7289  143.2667  151.4022 LP  0  0  0  0  0  0  0  0  0  0  0  0  # atno 17342 bound_to 10162
  139.6057  144.1203  152.2246 LP  0  0  0  0  0  0  0  0  0  0  0  0  # atno 17343 bound_to 10162
  156.6022  130.8551  151.3434 LP  0  0  0  0  0  0  0  0  0  0  0  0  # atno 17370 bound_to 10713
  157.7259  130.9622  150.1634 LP  0  0  0  0  0  0  0  0  0  0  0  0  # atno 17371 bound_to 10713
  140.7263  134.4303  157.5570 LP  0  0  0  0  0  0  0  0  0  0  0  0  # atno 17394 bound_to 11000
  139.8929  134.8743  156.2247 LP  0  0  0  0  0  0  0  0  0  0  0  0  # atno 17395 bound_to 11000

$$$$
