AV-unprocessed.smi:1072|AV-procd|sdf|4687|dock6
  -GOLD-   22720 3203D 1   1.00000     0.00000
 Structure written by MMmdl.
 45 46  0  0  0  0  0  0  0  0  2 V2000
  147.5252  136.8000  163.4379 C   0  0  0  0  0  0  0  0  0  0  0  0
  147.4821  136.3456  161.9946 C   0  0  0  0  0  0  0  0  0  0  0  0
  146.4263  135.7786  161.5492 N   0  0  0  0  0  0  0  0  0  0  0  0
  146.3804  135.3572  160.2094 C   0  0  0  0  0  0  0  0  0  0  0  0
  145.0889  134.6921  159.7661 C   0  0  0  0  0  0  0  0  0  0  0  0
  147.4420  135.5445  159.3738 C   0  0  0  0  0  0  0  0  0  0  0  0
  147.4395  135.1035  157.9100 C   0  0  0  0  0  0  0  0  0  0  0  0
  148.6183  134.2308  157.4727 C   0  0  0  0  0  0  0  0  0  0  0  0
  149.4749  133.8905  158.2881 O   0  0  0  0  0  0  0  0  0  0  0  0
  148.6398  133.8859  156.1733 N   0  0  0  0  0  0  0  0  0  0  0  0
  149.6345  133.0768  155.4542 C   0  0  1  0  0  0  0  0  0  0  0  0
  151.0327  133.2985  156.0708 C   0  0  0  0  0  0  0  0  0  0  0  0
  149.2690  131.5690  155.4729 C   0  0  0  0  0  0  0  0  0  0  0  0
  147.9477  131.2670  154.7435 C   0  0  0  0  0  0  0  0  0  0  0  0
  147.9845  131.7600  153.2857 C   0  0  1  0  0  0  0  0  0  0  0  0
  146.6629  131.4697  152.5606 C   0  0  0  0  0  0  0  0  0  0  0  0
  148.3404  133.2572  153.2343 C   0  0  0  0  0  0  0  0  0  0  0  0
  149.6538  133.5570  153.9830 C   0  0  0  0  0  0  0  0  0  0  0  0
  148.6385  136.2054  159.9251 C   0  0  0  0  0  0  0  0  0  0  0  0
  149.6194  136.4109  159.2113 O   0  0  0  0  0  0  0  0  0  0  0  0
  148.6088  136.5751  161.2374 N   0  5  0  0  0  0  0  0  0  0  0  0
  146.5322  136.7717  163.8882 H   0  0  0  0  0  0  0  0  0  0  0  0
  147.8994  137.8222  163.5047 H   0  0  0  0  0  0  0  0  0  0  0  0
  148.1842  136.1522  164.0163 H   0  0  0  0  0  0  0  0  0  0  0  0
  145.2724  133.6582  159.4732 H   0  0  0  0  0  0  0  0  0  0  0  0
  144.6539  135.2224  158.9189 H   0  0  0  0  0  0  0  0  0  0  0  0
  144.3520  134.6867  160.5699 H   0  0  0  0  0  0  0  0  0  0  0  0
  146.5173  134.5771  157.6634 H   0  0  0  0  0  0  0  0  0  0  0  0
  147.4192  135.9989  157.2879 H   0  0  0  0  0  0  0  0  0  0  0  0
  147.8746  134.2274  155.6100 H   0  0  0  0  0  0  0  0  0  0  0  0
  151.8037  132.7858  155.4949 H   0  0  0  0  0  0  0  0  0  0  0  0
  151.0956  132.9208  157.0914 H   0  0  0  0  0  0  0  0  0  0  0  0
  151.2920  134.3576  156.0947 H   0  0  0  0  0  0  0  0  0  0  0  0
  150.0673  131.0015  154.9931 H   0  0  0  0  0  0  0  0  0  0  0  0
  149.2180  131.1894  156.4933 H   0  0  0  0  0  0  0  0  0  0  0  0
  147.7596  130.1930  154.7669 H   0  0  0  0  0  0  0  0  0  0  0  0
  147.1169  131.7327  155.2750 H   0  0  0  0  0  0  0  0  0  0  0  0
  148.7719  131.2116  152.7664 H   0  0  0  0  0  0  0  0  0  0  0  0
  145.8289  131.9903  153.0324 H   0  0  0  0  0  0  0  0  0  0  0  0
  146.4367  130.4032  152.5689 H   0  0  0  0  0  0  0  0  0  0  0  0
  146.7079  131.7884  151.5188 H   0  0  0  0  0  0  0  0  0  0  0  0
  148.4345  133.5793  152.1965 H   0  0  0  0  0  0  0  0  0  0  0  0
  147.5275  133.8458  153.6614 H   0  0  0  0  0  0  0  0  0  0  0  0
  149.8608  134.6273  153.9392 H   0  0  0  0  0  0  0  0  0  0  0  0
  150.4744  133.0724  153.4517 H   0  0  0  0  0  0  0  0  0  0  0  0
  1  2  1  0  0  0  0
  1 22  1  0  0  0  0
  1 23  1  0  0  0  0
  1 24  1  0  0  0  0
  2 21  1  0  0  0  0
  2  3  2  0  0  0  0
  3  4  1  0  0  0  0
  4  5  1  0  0  0  0
  4  6  2  0  0  0  0
  5 25  1  0  0  0  0
  5 26  1  0  0  0  0
  5 27  1  0  0  0  0
  6  7  1  0  0  0  0
  6 19  1  0  0  0  0
  7  8  1  0  0  0  0
  7 28  1  0  0  0  0
  7 29  1  0  0  0  0
  8  9  2  0  0  0  0
  8 10  1  0  0  0  0
 10 11  1  0  0  0  0
 10 30  1  0  0  0  0
 11 18  1  0  0  0  0
 11 12  1  0  0  0  0
 11 13  1  0  0  0  0
 12 31  1  0  0  0  0
 12 32  1  0  0  0  0
 12 33  1  0  0  0  0
 13 14  1  0  0  0  0
 13 34  1  0  0  0  0
 13 35  1  0  0  0  0
 14 15  1  0  0  0  0
 14 36  1  0  0  0  0
 14 37  1  0  0  0  0
 15 16  1  0  0  0  0
 15 17  1  0  0  0  0
 15 38  1  0  0  0  0
 16 39  1  0  0  0  0
 16 40  1  0  0  0  0
 16 41  1  0  0  0  0
 17 18  1  0  0  0  0
 17 42  1  0  0  0  0
 17 43  1  0  0  0  0
 18 44  1  0  0  0  0
 18 45  1  0  0  0  0
 19 20  2  0  0  0  0
 19 21  1  0  0  0  0
M  CHG  1  21  -1
M  END
> <s_m_source_file>
AV-unprocessed.smi

> <i_m_source_file_index>
1072

> <i_lp_mmshare_version>
43012

> <i_f3d_flags>
0

> <s_epik_input>
W0NIM11jMW5jKFtDSDNdKWMoYyg9TylbbkhdMSlbQ0gyXUMoPU8pW05IXVtDQEBdMihbQ0gzXSlbQ0gyXVtDSDJdW0NAQEhdKFtDSDNdKVtDSDJdW0NIMl0y

> <s_epik_cmdline>
J2VwaWtfcHl0aG9uJywgJy1waCcsICc3LjAnLCAnLXRuJywgJzgnLCAnLW1hJywgJzIwMCcsICctbWV0YWxfYmluZGluZycsICctaW1hZScsICc8aW5maWxlLm1hZT4nLCAnLW9tYWUnLCAnPG91dGZpbGUubWFlPic=

> <r_lp_tautomer_probability>
0.839158

> <r_epik_Ionization_Penalty>
6.73882

> <r_epik_Ionization_Penalty_Charging>
8.02239e-08

> <r_epik_Ionization_Penalty_Neutral>
6.73882

> <r_epik_State_Penalty>
4.55873

> <r_epik_Charging_Adjusted_Penalty>
4.55873

> <i_epik_Tot_Q>
-1

> <i_epik_Tot_abs_Q>
1

> <r_epik_Metal_State_Penalty>
0.872514

> <b_epik_Metal_Only>
1

> <s_lp_Force_Field>
OPLS_2005

> <r_lp_Energy>
14.8033

> <b_lp_Chiralities_Consistent>
1

> <s_lp_Variant>
AV-unprocessed.smi:1072-5

> <Gold.Version>
5.8.1

> <Gold.Id.Protein>
6NUR|6NUR_protein|mol2

> <Gold.PLP.Fitness>
36.4408

> <Gold.PLP.PLP>
-27.6875

> <Gold.PLP.part.hbond>
-3.0000

> <Gold.PLP.part.metal>
0.0000

> <Gold.PLP.part.buried>
-3.0433

> <Gold.PLP.part.nonpolar>
-22.9306

> <Gold.PLP.part.repulsive>
0.0118

> <Gold.PLP.ligand.clash>
0.0000

> <Gold.PLP.ligand.torsion>
0.6165

> <Gold.PLP.Chemscore.Hbond>
3.3273

> <Gold.PLP.Chemscore.CHOScore>
0.0000

> <Gold.PLP.Chemscore.Metal>
0.0000

> <Gold.Chemscore.Hbonds>
donor molecule, donor type, donor heavy atom, donor atom, acceptor molecule, acceptor atom, score
      P1  H  6896  6907       L1    20  0.93
      P1  H  6896  6909       L1     9  0.32
      P1  H  6931  6943       L1    21  1.90

> <Gold.PLP.Chemscore.Internal.Correction>
0.0047

> <Gold.Rescore>
     Score         DG    S(hbond)    S(metal)    S(lipo)     H(rot)  DE(clash)    DE(int)     intcor
      8.03     -13.96       1.55        0.00      59.55       1.43       0.06       5.87       ----

> <Gold.Chemscore.Fitness>
8.0333

> <Gold.Chemscore.DG>
-13.9637

> <Gold.Chemscore.ZeroCoef>
-5.4800

> <Gold.Chemscore.Hbond>
1.5530

> <Gold.Chemscore.Metal>
0.0000

> <Gold.Chemscore.Lipo>
59.5519

> <Gold.Chemscore.Internal_Hbond>
0.0000

> <Gold.Chemscore.DEClash>
0.0632

> <Gold.Chemscore.DEInternal>
5.8672

> <Gold.Chemscore.Rot>
1.4339

> <Gold.Chemscore.Internal.Correction>
   9.000000E+99

> <Gold.Chemscore.Hbonds>
donor molecule, donor type, donor heavy atom, donor atom, acceptor molecule, acceptor atom, score
      P1  H  6896  6907       L1    20  0.44
      P1  H  6896  6909       L1     9  0.31
      P1  H  6931  6943       L1    21  0.21

> <Gold.Chemscore.Hbond.Weighted>
-5.1869

> <Gold.Chemscore.Metal.Weighted>
-0.0000

> <Gold.Chemscore.Lipo.Weighted>
-6.9676

> <Gold.Chemscore.Internal_Hbond.Weighted>
0.0000

> <Gold.Chemscore.DEClash.Weighted>
0.0632

> <Gold.Chemscore.DEInternal.Weighted>
5.8672

> <Gold.Chemscore.Rot.Weighted>
3.6708

> <Gold.Chemscore.Internal.Correction.Weighted>
   9.000000E+99

> <Gold.Protein.RotatedTorsions>
[ 6907 6896 6895 6894 ] final  -33.76 input  -60.11 | X-H torsion
[ 7974 7965 7964 7962 ] final  -77.73 input  175.53 | X-H torsion
[ 8008 7997 7996 7995 ] final  -92.00 input   59.86 | X-H torsion
[ 10167 10162 10161 10158 ] final    3.77 input  -65.29 | X-H torsion
[ 10718 10713 10712 10709 ] final -157.12 input   66.30 | X-H torsion
[ 10763 10752 10751 10750 ] final -139.21 input  -60.55 | X-H torsion
[ 11005 11000 10999 10996 ] final -135.53 input  -57.11 | X-H torsion

> <Gold.Protein.ActiveResidues>
 VAL166  LYS551  ARG553  GLY616  TRP617  ASP618  TYR619  PRO620  LYS621  CYS622 
 ASP623  PHE694  ASN695  SER759  ASP760  ASP761  ALA762  ILE779  LEU786  VAL792 
 PHE793  MET794  SER795  GLU796  ALA797  LYS798  CYS799  TRP800  GLU811  SER814 

> <Gold.Protein.RotatedAtoms>
  151.0614  134.9739  159.8262 H   0  0  0  0  0  0  0  0  0  0  0  0  # atno 6907 bound_to 6896
  152.5396  134.2412  159.8873 H   0  0  0  0  0  0  0  0  0  0  0  0  # atno 6908 bound_to 6896
  151.2433  133.4345  159.2642 H   0  0  0  0  0  0  0  0  0  0  0  0  # atno 6909 bound_to 6896
  145.5958  140.9419  143.1267 H   0  0  0  0  0  0  0  0  0  0  0  0  # atno 7974 bound_to 7965
  154.7176  140.0513  157.0609 H   0  0  0  0  0  0  0  0  0  0  0  0  # atno 8008 bound_to 7997
  155.0470  140.3175  155.4686 H   0  0  0  0  0  0  0  0  0  0  0  0  # atno 8009 bound_to 7997
  156.2807  140.2122  156.5595 H   0  0  0  0  0  0  0  0  0  0  0  0  # atno 8010 bound_to 7997
  140.6569  143.7404  150.7669 H   0  0  0  0  0  0  0  0  0  0  0  0  # atno 10167 bound_to 10162
  156.5359  130.8541  151.2732 H   0  0  0  0  0  0  0  0  0  0  0  0  # atno 10718 bound_to 10713
  154.8616  135.3589  154.5509 H   0  0  0  0  0  0  0  0  0  0  0  0  # atno 10763 bound_to 10752
  153.6127  135.7009  153.5345 H   0  0  0  0  0  0  0  0  0  0  0  0  # atno 10764 bound_to 10752
  153.3195  135.4155  155.1365 H   0  0  0  0  0  0  0  0  0  0  0  0  # atno 10765 bound_to 10752
  140.8890  134.1836  157.4541 H   0  0  0  0  0  0  0  0  0  0  0  0  # atno 11005 bound_to 11000
  144.7331  139.7665  143.7339 LP  0  0  0  0  0  0  0  0  0  0  0  0  # atno 17320 bound_to 7965
  146.1613  139.4728  142.9986 LP  0  0  0  0  0  0  0  0  0  0  0  0  # atno 17321 bound_to 7965
  140.1066  143.4738  152.2395 LP  0  0  0  0  0  0  0  0  0  0  0  0  # atno 17342 bound_to 10162
  139.5793  144.7503  151.3681 LP  0  0  0  0  0  0  0  0  0  0  0  0  # atno 17343 bound_to 10162
  157.7414  130.9869  150.2441 LP  0  0  0  0  0  0  0  0  0  0  0  0  # atno 17370 bound_to 10713
  156.3016  130.3759  149.7745 LP  0  0  0  0  0  0  0  0  0  0  0  0  # atno 17371 bound_to 10713
  139.8727  134.9850  156.5263 LP  0  0  0  0  0  0  0  0  0  0  0  0  # atno 17394 bound_to 11000
  140.8370  133.8234  155.9038 LP  0  0  0  0  0  0  0  0  0  0  0  0  # atno 17395 bound_to 11000

$$$$
