#       Name:                AV-unprocessed.smi:1877
#       Creating user name   scv26
#       Creation time:       Fri Mar 27 09:35:12 2020


#       File generated by GOLD software.
#

@<TRIPOS>MOLECULE
AV-unprocessed.smi:1877
    35    37     1
SMALL
NO_CHARGES


@<TRIPOS>ATOM
      1 ****        -1.1349   3.1062  -0.3786 O.3            1 S1                 0.0000
      2 ****        -0.7522   1.7545  -0.2293 C.3            1 S1                 0.0000
      3 ****         0.7867   1.7020  -0.1432 C.3            1 S1                 0.0000
      4 ****         1.3041   0.3282  -0.1153 N.pl3          1 S1                 0.0000
      5 ****         1.7412  -0.4211   0.9332 C.2            1 S1                 0.0000
      6 ****         2.1001  -1.6408   0.4449 N.pl3          1 S1                 1.0000
      7 ****         1.8943  -1.6693  -0.9363 C.ar           1 S1                 0.0000
      8 ****         2.1073  -2.6786  -1.8701 C.ar           1 S1                 0.0000
      9 ****         1.7906  -2.3770  -3.2113 C.ar           1 S1                 0.0000
     10 ****         1.2840  -1.1138  -3.5809 C.ar           1 S1                 0.0000
     11 ****         1.0712  -0.0982  -2.6256 C.ar           1 S1                 0.0000
     12 ****         1.3864  -0.4052  -1.3029 C.ar           1 S1                 0.0000
     13 ****        -1.4183   1.0909   0.9710 C.ar           1 S1                 0.0000
     14 ****        -1.4997   1.7716   2.2063 C.ar           1 S1                 0.0000
     15 ****        -2.0978   1.1547   3.3219 C.ar           1 S1                 0.0000
     16 ****        -2.1709   1.8148   4.5016 F              1 S1                 0.0000
     17 ****        -2.6165  -0.1491   3.2116 C.ar           1 S1                 0.0000
     18 ****        -2.5345  -0.8359   1.9855 C.ar           1 S1                 0.0000
     19 ****        -1.9364  -0.2209   0.8683 C.ar           1 S1                 0.0000
     20 ****        -1.8534  -0.9029  -0.2994 F              1 S1                 0.0000
     21 ****        -2.0656   3.1393  -0.5409 H              1 S1                 0.0000
     22 ****        -1.0790   1.2504  -1.1388 H              1 S1                 0.0000
     23 ****         1.2443   2.2188  -0.9881 H              1 S1                 0.0000
     24 ****         1.1386   2.2073   0.7576 H              1 S1                 0.0000
     25 ****         1.7847  -0.1082   1.9665 H              1 S1                 0.0000
     26 ****         2.4952  -3.6472  -1.5902 H              1 S1                 0.0000
     27 ****         1.9398  -3.1296  -3.9719 H              1 S1                 0.0000
     28 ****         1.0534  -0.9195  -4.6183 H              1 S1                 0.0000
     29 ****         0.6818   0.8660  -2.9171 H              1 S1                 0.0000
     30 ****        -1.0989   2.7698   2.3047 H              1 S1                 0.0000
     31 ****        -3.0743  -0.6230   4.0674 H              1 S1                 0.0000
     32 ****        -2.9290  -1.8379   1.9028 H              1 S1                 0.0000
     33 ****         2.4581  -2.3967   1.0148 H              1 S1                 0.0000
     34 ****        -0.6437   3.5125  -1.1491 LP             1 S1                 0.0000
     35 ****        -0.9203   3.6116   0.4572 LP             1 S1                 0.0000
@<TRIPOS>BOND
    1    1    2 1     
    2    1   21 1     
    3    2    3 1     
    4    2   13 1     
    5    2   22 1     
    6    3    4 1     
    7    3   23 1     
    8    3   24 1     
    9    4   12 1     
   10    4    5 1     
   11    5    6 2     
   12    5   25 1     
   13    6    7 1     
   14    6   33 1     
   15    7   12 ar    
   16    7    8 ar    
   17    8    9 ar    
   18    8   26 1     
   19    9   10 ar    
   20    9   27 1     
   21   10   11 ar    
   22   10   28 1     
   23   11   12 ar    
   24   11   29 1     
   25   13   19 ar    
   26   13   14 ar    
   27   14   15 ar    
   28   14   30 1     
   29   15   16 1     
   30   15   17 ar    
   31   17   18 ar    
   32   17   31 1     
   33   18   19 ar    
   34   18   32 1     
   35   19   20 1     
   36    1   34 1     
   37    1   35 1     
@<TRIPOS>SUBSTRUCTURE
      1 S1             1
@<TRIPOS>SET
LONE_PAIRS      STATIC     ATOMS    <user>   **** ""
2 34 35
DONOR_HYDROGENS      STATIC     ATOMS    <user>   **** ""
2 21 33
ATOM$BLUE        STATIC     ATOMS    COLORGROUP SYSTEM
2 34 35
ATOM$RED        STATIC     ATOMS    COLORGROUP SYSTEM
2 21 33
