#       Name:                AV-unprocessed.smi:3220
#       Creating user name   scv26
#       Creation time:       Fri Mar 27 18:14:10 2020


#       File generated by GOLD software.
#

@<TRIPOS>MOLECULE
AV-unprocessed.smi:3220
    38    39     1
SMALL
NO_CHARGES


@<TRIPOS>ATOM
      1 ****        -0.6646  -3.0149  -1.9968 C.3            1 S1                 0.0000
      2 ****        -0.0942  -2.1373  -0.8745 C.3            1 S1                 0.0000
      3 ****         1.4452  -2.2416  -0.8098 C.3            1 S1                 0.0000
      4 ****         2.0081  -1.5729   0.3500 N.pl3          1 S1                 0.0000
      5 ****         2.6609  -0.3592   0.4078 C.2            1 S1                 0.0000
      6 ****         2.9952  -0.1398   1.7133 C.2            1 S1                 0.0000
      7 ****         2.5022  -1.2926   2.3864 C.2            1 S1                 0.0000
      8 ****         1.9159  -2.1505   1.5673 N.2            1 S1                 0.0000
      9 ****        -0.5139  -0.7540  -1.0972 N.am           1 S1                 0.0000
     10 ****        -0.8920   0.1158  -0.1470 C.2            1 S1                 0.0000
     11 ****        -0.9515  -0.1721   1.0491 O.2            1 S1                 0.0000
     12 ****        -1.2513   1.5297  -0.6282 C.3            1 S1                 0.0000
     13 ****        -0.5234   2.6448   0.1488 C.3            1 S1                 0.0000
     14 ****        -1.6433   3.4782   0.7480 C.3            1 S1                 0.0000
     15 ****        -2.8094   2.5015   0.7909 C.3            1 S1                 0.0000
     16 ****        -2.6426   1.7568  -0.4067 O.3            1 S1                 0.0000
     17 ****        -0.3926  -4.0609  -1.8528 H              1 S1                 0.0000
     18 ****        -0.2905  -2.7059  -2.9737 H              1 S1                 0.0000
     19 ****        -1.7534  -2.9602  -2.0233 H              1 S1                 0.0000
     20 ****        -0.5131  -2.5053   0.0641 H              1 S1                 0.0000
     21 ****         1.7487  -3.2890  -0.7727 H              1 S1                 0.0000
     22 ****         1.8961  -1.8210  -1.7099 H              1 S1                 0.0000
     23 ****         2.8242   0.2435  -0.4736 H              1 S1                 0.0000
     24 ****         3.5117   0.7143   2.1253 H              1 S1                 0.0000
     25 ****         2.5537  -1.5305   3.4387 H              1 S1                 0.0000
     26 ****        -0.5052  -0.4276  -2.0527 H              1 S1                 0.0000
     27 ****        -1.0558   1.6204  -1.6979 H              1 S1                 0.0000
     28 ****         0.1142   2.2468   0.9402 H              1 S1                 0.0000
     29 ****         0.1118   3.2454  -0.5029 H              1 S1                 0.0000
     30 ****        -1.3951   3.8879   1.7274 H              1 S1                 0.0000
     31 ****        -1.8840   4.3085   0.0828 H              1 S1                 0.0000
     32 ****        -2.7352   1.8403   1.6556 H              1 S1                 0.0000
     33 ****        -3.7777   3.0014   0.8227 H              1 S1                 0.0000
     34 ****         1.4983  -3.0294   1.7979 LP             1 S1                 0.0000
     35 ****        -0.7112  -1.0936   1.3542 LP             1 S1                 0.0000
     36 ****        -1.2400   0.5157   1.7152 LP             1 S1                 0.0000
     37 ****        -3.1156   0.8797  -0.3237 LP             1 S1                 0.0000
     38 ****        -3.0243   2.2699  -1.1755 LP             1 S1                 0.0000
@<TRIPOS>BOND
    1    1    2 1     
    2    1   17 1     
    3    1   18 1     
    4    1   19 1     
    5    2    3 1     
    6    2    9 1     
    7    2   20 1     
    8    3    4 1     
    9    3   21 1     
   10    3   22 1     
   11    4    8 1     
   12    4    5 1     
   13    5    6 2     
   14    5   23 1     
   15    6    7 1     
   16    6   24 1     
   17    7    8 2     
   18    7   25 1     
   19    9   10 am    
   20    9   26 1     
   21   10   11 2     
   22   10   12 1     
   23   12   16 1     
   24   12   13 1     
   25   12   27 1     
   26   13   14 1     
   27   13   28 1     
   28   13   29 1     
   29   14   15 1     
   30   14   30 1     
   31   14   31 1     
   32   15   16 1     
   33   15   32 1     
   34   15   33 1     
   35    8   34 1     
   36   11   35 1     
   37   11   36 1     
   38   16   37 1     
   39   16   38 1     
@<TRIPOS>SUBSTRUCTURE
      1 S1             1
@<TRIPOS>SET
LONE_PAIRS      STATIC     ATOMS    <user>   **** ""
5 34 35 36 37 38
DONOR_HYDROGENS      STATIC     ATOMS    <user>   **** ""
1 26
ATOM$BLUE        STATIC     ATOMS    COLORGROUP SYSTEM
5 34 35 36 37 38
ATOM$RED        STATIC     ATOMS    COLORGROUP SYSTEM
1 26
