AV-unprocessed.smi:2520|AV-procd|sdf|9913|dock5
  -GOLD-   2272013553D 1   1.00000     0.00000
 Structure written by MMmdl.
 41 44  0  0  0  0  0  0  0  0  1 V2000
  145.9714  137.3606  154.9010 O   0  0  0  0  0  0  0  0  0  0  0  0
  146.8414  137.0830  154.0774 C   0  0  0  0  0  0  0  0  0  0  0  0
  146.5774  136.2790  153.0253 N   0  0  0  0  0  0  0  0  0  0  0  0
  145.3797  135.6160  152.6255 C   0  0  0  0  0  0  0  0  0  0  0  0
  145.4401  134.9976  151.3581 C   0  0  0  0  0  0  0  0  0  0  0  0
  144.3041  134.3150  150.8909 C   0  0  0  0  0  0  0  0  0  0  0  0
  143.1762  134.2935  151.7286 C   0  0  0  0  0  0  0  0  0  0  0  0
  143.1603  134.8964  152.9366 N   0  0  0  0  0  0  0  0  0  0  0  0
  144.2459  135.5431  153.3731 N   0  0  0  0  0  0  0  0  0  0  0  0
  148.0955  137.5508  154.1643 N   0  0  0  0  0  0  0  0  0  0  0  0
  148.5892  138.4583  155.2039 C   0  0  2  0  0  0  0  0  0  0  0  0
  148.0795  139.8960  155.0639 C   0  0  2  0  0  0  0  0  0  0  0  0
  146.9320  140.5532  154.3851 C   0  0  0  0  0  0  0  0  0  0  0  0
  147.7078  141.7737  153.8238 C   0  0  0  0  0  0  0  0  0  0  0  0
  149.1122  141.4923  154.0512 O   0  0  0  0  0  0  0  0  0  0  0  0
  149.1869  140.0795  154.0468 C   0  0  1  0  0  0  0  0  0  0  0  0
  150.0061  139.0812  154.8994 C   0  0  0  0  0  0  0  0  0  0  0  0
  150.8095  139.6669  156.0787 C   0  0  0  0  0  0  0  0  0  0  0  0
  152.2078  139.0477  156.0632 C   0  0  0  0  0  0  0  0  0  0  0  0
  152.4181  138.6248  154.6168 C   0  0  0  0  0  0  0  0  0  0  0  0
  151.0248  138.2053  154.1582 C   0  0  0  0  0  0  0  0  0  0  0  0
  147.3762  136.0837  152.4397 H   0  0  0  0  0  0  0  0  0  0  0  0
  146.3351  135.0436  150.7546 H   0  0  0  0  0  0  0  0  0  0  0  0
  144.2979  133.8262  149.9281 H   0  0  0  0  0  0  0  0  0  0  0  0
  142.2722  133.7853  151.4269 H   0  0  0  0  0  0  0  0  0  0  0  0
  148.7538  137.2734  153.4499 H   0  0  0  0  0  0  0  0  0  0  0  0
  148.5035  138.0579  156.2152 H   0  0  0  0  0  0  0  0  0  0  0  0
  148.2876  140.4222  156.0012 H   0  0  0  0  0  0  0  0  0  0  0  0
  146.5129  139.9356  153.5898 H   0  0  0  0  0  0  0  0  0  0  0  0
  146.1375  140.8390  155.0746 H   0  0  0  0  0  0  0  0  0  0  0  0
  147.5131  141.8999  152.7582 H   0  0  0  0  0  0  0  0  0  0  0  0
  147.4336  142.6994  154.3303 H   0  0  0  0  0  0  0  0  0  0  0  0
  148.9544  139.6900  153.0501 H   0  0  0  0  0  0  0  0  0  0  0  0
  150.8996  140.7487  155.9706 H   0  0  0  0  0  0  0  0  0  0  0  0
  150.3241  139.4904  157.0391 H   0  0  0  0  0  0  0  0  0  0  0  0
  152.9775  139.7333  156.4187 H   0  0  0  0  0  0  0  0  0  0  0  0
  152.2240  138.1662  156.7055 H   0  0  0  0  0  0  0  0  0  0  0  0
  152.7579  139.4790  154.0295 H   0  0  0  0  0  0  0  0  0  0  0  0
  153.1557  137.8288  154.5113 H   0  0  0  0  0  0  0  0  0  0  0  0
  150.8698  137.1563  154.4145 H   0  0  0  0  0  0  0  0  0  0  0  0
  150.9296  138.2804  153.0744 H   0  0  0  0  0  0  0  0  0  0  0  0
  1  2  2  0  0  0  0
  2  3  1  0  0  0  0
  2 10  1  0  0  0  0
  3  4  1  0  0  0  0
  3 22  1  0  0  0  0
  4  9  1  0  0  0  0
  4  5  2  0  0  0  0
  5  6  1  0  0  0  0
  5 23  1  0  0  0  0
  6  7  2  0  0  0  0
  6 24  1  0  0  0  0
  7  8  1  0  0  0  0
  7 25  1  0  0  0  0
  8  9  2  0  0  0  0
 10 11  1  0  0  0  0
 10 26  1  0  0  0  0
 11 17  1  0  0  0  0
 11 12  1  0  0  0  0
 11 27  1  0  0  0  0
 12 16  1  0  0  0  0
 12 13  1  0  0  0  0
 12 28  1  0  0  0  0
 13 14  1  0  0  0  0
 13 29  1  0  0  0  0
 13 30  1  0  0  0  0
 14 15  1  0  0  0  0
 14 31  1  0  0  0  0
 14 32  1  0  0  0  0
 15 16  1  0  0  0  0
 16 17  1  0  0  0  0
 16 33  1  0  0  0  0
 17 21  1  0  0  0  0
 17 18  1  0  0  0  0
 18 19  1  0  0  0  0
 18 34  1  0  0  0  0
 18 35  1  0  0  0  0
 19 20  1  0  0  0  0
 19 36  1  0  0  0  0
 19 37  1  0  0  0  0
 20 21  1  0  0  0  0
 20 38  1  0  0  0  0
 20 39  1  0  0  0  0
 21 40  1  0  0  0  0
 21 41  1  0  0  0  0
M  END
> <s_m_source_file>
AV-unprocessed.smi

> <i_m_source_file_index>
2520

> <i_lp_mmshare_version>
43012

> <i_f3d_flags>
0

> <s_epik_input>
bjFuW2NIXVtjSF1bY0hdYzFbTkhdQyg9TylbTkhdW0NAQEhdMltDQEBIXShbQ0gyXVtDSDJdTzMpW0NASF0zQzI0W0NIMl1bQ0gyXVtDSDJdW0NIMl00

> <s_epik_cmdline>
J2VwaWtfcHl0aG9uJywgJy1waCcsICc3LjAnLCAnLXRuJywgJzgnLCAnLW1hJywgJzIwMCcsICctbWV0YWxfYmluZGluZycsICctaW1hZScsICc8aW5maWxlLm1hZT4nLCAnLW9tYWUnLCAnPG91dGZpbGUubWFlPic=

> <r_lp_tautomer_probability>
1

> <r_epik_Ionization_Penalty>
0.00552561

> <r_epik_Ionization_Penalty_Charging>
0

> <r_epik_Ionization_Penalty_Neutral>
0.00552561

> <r_epik_State_Penalty>
-0

> <r_epik_Charging_Adjusted_Penalty>
0

> <i_epik_Tot_Q>
0

> <i_epik_Tot_abs_Q>
0

> <r_epik_Metal_State_Penalty>
-0

> <b_epik_Metal_Only>
0

> <s_lp_Force_Field>
OPLS_2005

> <r_lp_Energy>
86.2541

> <b_lp_Chiralities_Consistent>
1

> <s_lp_Variant>
AV-unprocessed.smi:2520-7

> <Gold.Version>
5.8.1

> <Gold.Id.Protein>
6NUR|6NUR_protein|mol2

> <Gold.PLP.Fitness>
40.5181

> <Gold.PLP.PLP>
-30.5391

> <Gold.PLP.part.hbond>
-3.5920

> <Gold.PLP.part.metal>
0.0000

> <Gold.PLP.part.buried>
-2.2360

> <Gold.PLP.part.nonpolar>
-24.6790

> <Gold.PLP.part.repulsive>
0.4205

> <Gold.PLP.ligand.clash>
0.0000

> <Gold.PLP.ligand.torsion>
0.1528

> <Gold.PLP.Chemscore.Hbond>
2.5336

> <Gold.PLP.Chemscore.CHOScore>
0.8036

> <Gold.PLP.Chemscore.Metal>
0.0000

> <Gold.Chemscore.Hbonds>
donor molecule, donor type, donor heavy atom, donor atom, acceptor molecule, acceptor atom, score
      L1  H     3    22       P1  7948  1.00
      L1  H    10    26       P1  7948  0.90
      P1  H  8011  8017       L1    15  0.49
      L1  C     7    25       P1 10186  0.82

> <Gold.PLP.Chemscore.Internal.Correction>
0.2731

> <Gold.Rescore>
     Score         DG    S(hbond)    S(metal)    S(lipo)     H(rot)  DE(clash)    DE(int)     intcor
     16.92     -18.65       1.98        0.00      77.95       1.00       0.37       1.36       ----

> <Gold.Chemscore.Fitness>
16.9228

> <Gold.Chemscore.DG>
-18.6485

> <Gold.Chemscore.ZeroCoef>
-5.4800

> <Gold.Chemscore.Hbond>
1.9786

> <Gold.Chemscore.Metal>
0.0000

> <Gold.Chemscore.Lipo>
77.9472

> <Gold.Chemscore.Internal_Hbond>
0.0000

> <Gold.Chemscore.DEClash>
0.3672

> <Gold.Chemscore.DEInternal>
1.3585

> <Gold.Chemscore.Rot>
1.0000

> <Gold.Chemscore.Internal.Correction>
   9.000000E+99

> <Gold.Chemscore.Hbonds>
donor molecule, donor type, donor heavy atom, donor atom, acceptor molecule, acceptor atom, score
      L1  H     3    22       P1  7948  0.99
      L1  H    10    26       P1  7948  0.88
      P1  H  8011  8017       L1    15  0.07

> <Gold.Chemscore.Hbond.Weighted>
-6.6086

> <Gold.Chemscore.Metal.Weighted>
-0.0000

> <Gold.Chemscore.Lipo.Weighted>
-9.1198

> <Gold.Chemscore.Internal_Hbond.Weighted>
0.0000

> <Gold.Chemscore.DEClash.Weighted>
0.3672

> <Gold.Chemscore.DEInternal.Weighted>
1.3585

> <Gold.Chemscore.Rot.Weighted>
2.5600

> <Gold.Chemscore.Internal.Correction.Weighted>
   9.000000E+99

> <Gold.Protein.RotatedTorsions>
[ 6907 6896 6895 6894 ] final  -21.96 input  -60.11 | X-H torsion
[ 7974 7965 7964 7962 ] final   18.89 input  175.53 | X-H torsion
[ 8008 7997 7996 7995 ] final -101.66 input   59.86 | X-H torsion
[ 10167 10162 10161 10158 ] final -104.10 input  -65.29 | X-H torsion
[ 10718 10713 10712 10709 ] final    1.33 input   66.30 | X-H torsion
[ 10763 10752 10751 10750 ] final   10.23 input  -60.55 | X-H torsion
[ 11005 11000 10999 10996 ] final -157.25 input  -57.11 | X-H torsion

> <Gold.Protein.ActiveResidues>
 VAL166  LYS551  ARG553  GLY616  TRP617  ASP618  TYR619  PRO620  LYS621  CYS622 
 ASP623  PHE694  ASN695  SER759  ASP760  ASP761  ALA762  ILE779  LEU786  VAL792 
 PHE793  MET794  SER795  GLU796  ALA797  LYS798  CYS799  TRP800  GLU811  SER814 

> <Gold.Protein.RotatedAtoms>
  151.2257  135.0535  159.8967 H   0  0  0  0  0  0  0  0  0  0  0  0  # atno 6907 bound_to 6896
  152.5410  134.0592  159.8155 H   0  0  0  0  0  0  0  0  0  0  0  0  # atno 6908 bound_to 6896
  151.0765  133.5376  159.2655 H   0  0  0  0  0  0  0  0  0  0  0  0  # atno 6909 bound_to 6896
  146.2169  139.8391  142.8644 H   0  0  0  0  0  0  0  0  0  0  0  0  # atno 7974 bound_to 7965
  154.8456  140.0433  157.1570 H   0  0  0  0  0  0  0  0  0  0  0  0  # atno 8008 bound_to 7997
  154.8998  140.2998  155.5303 H   0  0  0  0  0  0  0  0  0  0  0  0  # atno 8009 bound_to 7997
  156.2994  140.2378  156.4025 H   0  0  0  0  0  0  0  0  0  0  0  0  # atno 8010 bound_to 7997
  140.2129  143.3733  152.1035 H   0  0  0  0  0  0  0  0  0  0  0  0  # atno 10167 bound_to 10162
  156.8465  130.5539  149.5673 H   0  0  0  0  0  0  0  0  0  0  0  0  # atno 10718 bound_to 10713
  153.2054  135.6862  153.8179 H   0  0  0  0  0  0  0  0  0  0  0  0  # atno 10763 bound_to 10752
  153.7430  135.3235  155.3308 H   0  0  0  0  0  0  0  0  0  0  0  0  # atno 10764 bound_to 10752
  154.8194  135.4663  154.0839 H   0  0  0  0  0  0  0  0  0  0  0  0  # atno 10765 bound_to 10752
  140.6667  134.4291  157.5233 H   0  0  0  0  0  0  0  0  0  0  0  0  # atno 11005 bound_to 11000
  145.2917  141.0169  143.3659 LP  0  0  0  0  0  0  0  0  0  0  0  0  # atno 17320 bound_to 7965
  144.9072  139.4574  143.6604 LP  0  0  0  0  0  0  0  0  0  0  0  0  # atno 17321 bound_to 7965
  139.5173  144.6990  151.5549 LP  0  0  0  0  0  0  0  0  0  0  0  0  # atno 17342 bound_to 10162
  140.6311  143.9075  150.6606 LP  0  0  0  0  0  0  0  0  0  0  0  0  # atno 17343 bound_to 10162
  156.0851  130.5852  150.9634 LP  0  0  0  0  0  0  0  0  0  0  0  0  # atno 17370 bound_to 10713
  157.6327  131.0919  150.8410 LP  0  0  0  0  0  0  0  0  0  0  0  0  # atno 17371 bound_to 10713
  139.8995  134.8590  156.1958 LP  0  0  0  0  0  0  0  0  0  0  0  0  # atno 17394 bound_to 11000
  141.0424  133.6931  156.1621 LP  0  0  0  0  0  0  0  0  0  0  0  0  # atno 17395 bound_to 11000

$$$$
