AV-unprocessed.smi:814|AV-procd|sdf|3823|dock2
  -GOLD-   22720 1263D 1   1.00000     0.00000
 Structure written by MMmdl.
 36 37  0  0  0  0  0  0  0  0  1 V2000
  145.7514  143.4721  153.5427 C   0  0  0  0  0  0  0  0  0  0  0  0
  146.0250  142.7662  154.7795 N   0  0  0  0  0  0  0  0  0  0  0  0
  145.2198  142.7628  155.9110 C   0  0  0  0  0  0  0  0  0  0  0  0
  145.8556  141.9805  156.8446 C   0  0  0  0  0  0  0  0  0  0  0  0
  147.0439  141.4969  156.3085 N   0  0  0  0  0  0  0  0  0  0  0  0
  147.0871  141.9919  155.0751 C   0  0  0  0  0  0  0  0  0  0  0  0
  148.2158  141.7466  154.1221 C   0  0  0  0  0  0  0  0  0  0  0  0
  149.4451  141.1394  154.8167 C   0  0  0  0  0  0  0  0  0  0  0  0
  149.8883  141.9580  155.9392 N   0  0  0  0  0  0  0  0  0  0  0  0
  150.7462  141.5604  156.8915 C   0  0  0  0  0  0  0  0  0  0  0  0
  151.2622  140.4424  156.9096 O   0  0  0  0  0  0  0  0  0  0  0  0
  151.0679  142.5791  157.9933 C   0  0  2  0  0  0  0  0  0  0  0  0
  151.6019  143.9022  157.3970 C   0  0  0  0  0  0  0  0  0  0  0  0
  152.1648  144.8249  158.4638 C   0  0  0  0  0  0  0  0  0  0  0  0
  152.4792  144.4153  159.7048 C   0  0  0  0  0  0  0  0  0  0  0  0
  152.3125  142.9826  160.1797 C   0  0  0  0  0  0  0  0  0  0  0  0
  152.0712  142.0048  159.0140 C   0  0  0  0  0  0  0  0  0  0  0  0
  144.8777  144.1136  153.6614 H   0  0  0  0  0  0  0  0  0  0  0  0
  145.5572  142.7551  152.7447 H   0  0  0  0  0  0  0  0  0  0  0  0
  146.6066  144.0911  153.2709 H   0  0  0  0  0  0  0  0  0  0  0  0
  144.2872  143.3055  155.9590 H   0  0  0  0  0  0  0  0  0  0  0  0
  145.5534  141.7319  157.8514 H   0  0  0  0  0  0  0  0  0  0  0  0
  147.8604  141.0756  153.3389 H   0  0  0  0  0  0  0  0  0  0  0  0
  148.4834  142.6783  153.6232 H   0  0  0  0  0  0  0  0  0  0  0  0
  149.2037  140.1469  155.1980 H   0  0  0  0  0  0  0  0  0  0  0  0
  150.2607  141.0071  154.1035 H   0  0  0  0  0  0  0  0  0  0  0  0
  149.5091  142.8918  156.0021 H   0  0  0  0  0  0  0  0  0  0  0  0
  150.1440  142.8022  158.5305 H   0  0  0  0  0  0  0  0  0  0  0  0
  152.3884  143.7199  156.6631 H   0  0  0  0  0  0  0  0  0  0  0  0
  150.7973  144.4229  156.8766 H   0  0  0  0  0  0  0  0  0  0  0  0
  152.3231  145.8558  158.1827 H   0  0  0  0  0  0  0  0  0  0  0  0
  152.8631  145.1249  160.4228 H   0  0  0  0  0  0  0  0  0  0  0  0
  153.1998  142.6827  160.7378 H   0  0  0  0  0  0  0  0  0  0  0  0
  151.4740  142.9537  160.8761 H   0  0  0  0  0  0  0  0  0  0  0  0
  151.7204  141.0489  159.4059 H   0  0  0  0  0  0  0  0  0  0  0  0
  153.0212  141.8021  158.5166 H   0  0  0  0  0  0  0  0  0  0  0  0
  1  2  1  0  0  0  0
  1 18  1  0  0  0  0
  1 19  1  0  0  0  0
  1 20  1  0  0  0  0
  2  6  1  0  0  0  0
  2  3  1  0  0  0  0
  3  4  2  0  0  0  0
  3 21  1  0  0  0  0
  4  5  1  0  0  0  0
  4 22  1  0  0  0  0
  5  6  2  0  0  0  0
  6  7  1  0  0  0  0
  7  8  1  0  0  0  0
  7 23  1  0  0  0  0
  7 24  1  0  0  0  0
  8  9  1  0  0  0  0
  8 25  1  0  0  0  0
  8 26  1  0  0  0  0
  9 10  1  0  0  0  0
  9 27  1  0  0  0  0
 10 11  2  0  0  0  0
 10 12  1  0  0  0  0
 12 17  1  0  0  0  0
 12 13  1  0  0  0  0
 12 28  1  0  0  0  0
 13 14  1  0  0  0  0
 13 29  1  0  0  0  0
 13 30  1  0  0  0  0
 14 15  2  0  0  0  0
 14 31  1  0  0  0  0
 15 16  1  0  0  0  0
 15 32  1  0  0  0  0
 16 17  1  0  0  0  0
 16 33  1  0  0  0  0
 16 34  1  0  0  0  0
 17 35  1  0  0  0  0
 17 36  1  0  0  0  0
M  END
> <s_m_source_file>
AV-unprocessed.smi

> <i_m_source_file_index>
814

> <i_lp_mmshare_version>
43012

> <i_f3d_flags>
0

> <s_epik_input>
W0NIM11uMVtjSF1bY0hdbmMxW0NIMl1bQ0gyXVtOSF1DKD1PKVtDQEBIXTJbQ0gyXVtDSF09W0NIXVtDSDJdW0NIMl0y

> <s_epik_cmdline>
J2VwaWtfcHl0aG9uJywgJy1waCcsICc3LjAnLCAnLXRuJywgJzgnLCAnLW1hJywgJzIwMCcsICctbWV0YWxfYmluZGluZycsICctaW1hZScsICc8aW5maWxlLm1hZT4nLCAnLW9tYWUnLCAnPG91dGZpbGUubWFlPic=

> <r_lp_tautomer_probability>
1

> <r_epik_Ionization_Penalty>
1.21249

> <r_epik_Ionization_Penalty_Charging>
1.21249

> <r_epik_Ionization_Penalty_Neutral>
1.60917e-08

> <r_epik_State_Penalty>
1.27906

> <r_epik_Charging_Adjusted_Penalty>
2.49154

> <i_epik_Tot_Q>
0

> <i_epik_Tot_abs_Q>
0

> <r_epik_Metal_State_Penalty>
0.409603

> <b_epik_Metal_Only>
0

> <s_lp_Force_Field>
OPLS_2005

> <r_lp_Energy>
6.39824

> <b_lp_Chiralities_Consistent>
1

> <s_lp_Variant>
AV-unprocessed.smi:814-3

> <Gold.Version>
5.8.1

> <Gold.Id.Protein>
6NUR|6NUR_protein|mol2

> <Gold.PLP.Fitness>
44.5026

> <Gold.PLP.PLP>
-42.0286

> <Gold.PLP.part.hbond>
-1.0000

> <Gold.PLP.part.metal>
0.0000

> <Gold.PLP.part.buried>
-4.5085

> <Gold.PLP.part.nonpolar>
-36.5716

> <Gold.PLP.part.repulsive>
0.2032

> <Gold.PLP.ligand.clash>
0.0000

> <Gold.PLP.ligand.torsion>
0.2750

> <Gold.PLP.Chemscore.Hbond>
1.0000

> <Gold.PLP.Chemscore.CHOScore>
0.0000

> <Gold.PLP.Chemscore.Metal>
0.0000

> <Gold.Chemscore.Hbonds>
donor molecule, donor type, donor heavy atom, donor atom, acceptor molecule, acceptor atom, score
      L1  H     9    27       P1  8028  1.00

> <Gold.PLP.Chemscore.Internal.Correction>
0.0240

> <Gold.Rescore>
     Score         DG    S(hbond)    S(metal)    S(lipo)     H(rot)  DE(clash)    DE(int)     intcor
     16.05     -16.31       1.00        0.00      98.64       1.58       0.04       0.22       ----

> <Gold.Chemscore.Fitness>
16.0532

> <Gold.Chemscore.DG>
-16.3142

> <Gold.Chemscore.ZeroCoef>
-5.4800

> <Gold.Chemscore.Hbond>
1.0000

> <Gold.Chemscore.Metal>
0.0000

> <Gold.Chemscore.Lipo>
98.6445

> <Gold.Chemscore.Internal_Hbond>
0.0000

> <Gold.Chemscore.DEClash>
0.0415

> <Gold.Chemscore.DEInternal>
0.2195

> <Gold.Chemscore.Rot>
1.5809

> <Gold.Chemscore.Internal.Correction>
   9.000000E+99

> <Gold.Chemscore.Hbonds>
donor molecule, donor type, donor heavy atom, donor atom, acceptor molecule, acceptor atom, score
      L1  H     9    27       P1  8028  0.99

> <Gold.Chemscore.Hbond.Weighted>
-3.3400

> <Gold.Chemscore.Metal.Weighted>
-0.0000

> <Gold.Chemscore.Lipo.Weighted>
-11.5414

> <Gold.Chemscore.Internal_Hbond.Weighted>
0.0000

> <Gold.Chemscore.DEClash.Weighted>
0.0415

> <Gold.Chemscore.DEInternal.Weighted>
0.2195

> <Gold.Chemscore.Rot.Weighted>
4.0472

> <Gold.Chemscore.Internal.Correction.Weighted>
   9.000000E+99

> <Gold.Protein.RotatedTorsions>
[ 6907 6896 6895 6894 ] final  106.06 input  -60.11 | X-H torsion
[ 7974 7965 7964 7962 ] final -144.65 input  175.53 | X-H torsion
[ 8008 7997 7996 7995 ] final -143.49 input   59.86 | X-H torsion
[ 10167 10162 10161 10158 ] final   20.80 input  -65.29 | X-H torsion
[ 10718 10713 10712 10709 ] final   83.55 input   66.30 | X-H torsion
[ 10763 10752 10751 10750 ] final    4.73 input  -60.55 | X-H torsion
[ 11005 11000 10999 10996 ] final -164.10 input  -57.11 | X-H torsion

> <Gold.Protein.ActiveResidues>
 VAL166  LYS551  ARG553  GLY616  TRP617  ASP618  TYR619  PRO620  LYS621  CYS622 
 ASP623  PHE694  ASN695  SER759  ASP760  ASP761  ALA762  ILE779  LEU786  VAL792 
 PHE793  MET794  SER795  GLU796  ALA797  LYS798  CYS799  TRP800  GLU811  SER814 

> <Gold.Protein.RotatedAtoms>
  152.5208  133.9437  159.7638 H   0  0  0  0  0  0  0  0  0  0  0  0  # atno 6907 bound_to 6896
  150.9762  133.6284  159.2737 H   0  0  0  0  0  0  0  0  0  0  0  0  # atno 6908 bound_to 6896
  151.3478  135.0883  159.9446 H   0  0  0  0  0  0  0  0  0  0  0  0  # atno 6909 bound_to 6896
  144.8283  140.5684  143.5532 H   0  0  0  0  0  0  0  0  0  0  0  0  # atno 7974 bound_to 7965
  155.5115  140.0584  157.2922 H   0  0  0  0  0  0  0  0  0  0  0  0  # atno 8008 bound_to 7997
  154.4550  140.1968  156.0354 H   0  0  0  0  0  0  0  0  0  0  0  0  # atno 8009 bound_to 7997
  156.0781  140.3251  155.7663 H   0  0  0  0  0  0  0  0  0  0  0  0  # atno 8010 bound_to 7997
  140.5476  143.9567  150.6557 H   0  0  0  0  0  0  0  0  0  0  0  0  # atno 10167 bound_to 10162
  157.6881  131.0095  150.2540 H   0  0  0  0  0  0  0  0  0  0  0  0  # atno 10718 bound_to 10713
  153.2678  135.6929  153.7512 H   0  0  0  0  0  0  0  0  0  0  0  0  # atno 10763 bound_to 10752
  153.6546  135.3371  155.3111 H   0  0  0  0  0  0  0  0  0  0  0  0  # atno 10764 bound_to 10752
  154.8453  135.4462  154.1690 H   0  0  0  0  0  0  0  0  0  0  0  0  # atno 10765 bound_to 10752
  140.5906  134.5048  157.5192 H   0  0  0  0  0  0  0  0  0  0  0  0  # atno 11005 bound_to 11000
  145.4952  139.1486  143.3688 LP  0  0  0  0  0  0  0  0  0  0  0  0  # atno 17320 bound_to 7965
  146.2587  140.5091  142.8862 LP  0  0  0  0  0  0  0  0  0  0  0  0  # atno 17321 bound_to 7965
  140.2984  143.3277  152.0995 LP  0  0  0  0  0  0  0  0  0  0  0  0  # atno 17342 bound_to 10162
  139.5014  144.6712  151.6238 LP  0  0  0  0  0  0  0  0  0  0  0  0  # atno 17343 bound_to 10162
  156.3132  130.3775  149.7643 LP  0  0  0  0  0  0  0  0  0  0  0  0  # atno 17370 bound_to 10713
  156.5237  130.8226  151.3212 LP  0  0  0  0  0  0  0  0  0  0  0  0  # atno 17371 bound_to 10713
  139.9276  134.8026  156.1024 LP  0  0  0  0  0  0  0  0  0  0  0  0  # atno 17394 bound_to 11000
  141.0937  133.6704  156.2597 LP  0  0  0  0  0  0  0  0  0  0  0  0  # atno 17395 bound_to 11000

$$$$
