AV-unprocessed.smi:47|AV-procd|sdf|423|dock8
  -GOLD-   2262016303D 1   1.00000     0.00000
 Structure written by MMmdl.
 32 34  0  0  0  0  0  0  0  0  2 V2000
  149.6407  135.7772  154.4829 O   0  0  0  0  0  0  0  0  0  0  0  0
  150.2544  136.7787  155.2658 C   0  0  1  0  0  0  0  0  0  0  0  0
  151.2167  136.1957  156.2988 C   0  0  0  0  0  0  0  0  0  0  0  0
  152.1696  137.2808  156.5941 N   0  3  0  0  0  0  0  0  0  0  0  0
  152.1739  138.2298  155.4581 C   0  0  2  0  0  0  0  0  0  0  0  0
  151.8313  139.6153  155.9144 C   0  0  0  0  0  0  0  0  0  0  0  0
  150.9178  140.3378  155.2750 N   0  0  0  0  0  0  0  0  0  0  0  0
  150.8821  141.4620  156.0198 N   0  0  0  0  0  0  0  0  0  0  0  0
  151.7333  141.3661  157.0491 C   0  0  0  0  0  0  0  0  0  0  0  0
  151.9421  142.4044  158.0606 C   0  0  0  0  0  0  0  0  0  0  0  0
  151.5615  143.7420  157.8036 C   0  0  0  0  0  0  0  0  0  0  0  0
  151.7618  144.7412  158.7760 C   0  0  0  0  0  0  0  0  0  0  0  0
  152.3440  144.4138  160.0147 C   0  0  0  0  0  0  0  0  0  0  0  0
  152.7264  143.0858  160.2804 C   0  0  0  0  0  0  0  0  0  0  0  0
  152.5265  142.0858  159.3089 C   0  0  0  0  0  0  0  0  0  0  0  0
  152.3662  140.1923  157.0329 N   0  0  0  0  0  0  0  0  0  0  0  0
  151.1629  137.6832  154.4371 C   0  0  0  0  0  0  0  0  0  0  0  0
  149.4895  137.3758  155.7644 H   0  0  0  0  0  0  0  0  0  0  0  0
  153.1723  138.2423  155.0184 H   0  0  0  0  0  0  0  0  0  0  0  0
  150.2777  142.2423  155.8042 H   0  0  0  0  0  0  0  0  0  0  0  0
  149.6760  136.0372  153.5746 H   0  0  0  0  0  0  0  0  0  0  0  0
  150.7120  135.8432  157.1985 H   0  0  0  0  0  0  0  0  0  0  0  0
  151.7754  135.3607  155.8731 H   0  0  0  0  0  0  0  0  0  0  0  0
  151.8471  137.7817  157.4105 H   0  0  0  0  0  0  0  0  0  0  0  0
  151.1133  144.0167  156.8603 H   0  0  0  0  0  0  0  0  0  0  0  0
  151.4687  145.7603  158.5708 H   0  0  0  0  0  0  0  0  0  0  0  0
  152.4976  145.1803  160.7601 H   0  0  0  0  0  0  0  0  0  0  0  0
  153.1742  142.8334  161.2304 H   0  0  0  0  0  0  0  0  0  0  0  0
  152.8278  141.0733  159.5342 H   0  0  0  0  0  0  0  0  0  0  0  0
  151.6978  137.0791  153.7023 H   0  0  0  0  0  0  0  0  0  0  0  0
  150.6249  138.4596  153.8909 H   0  0  0  0  0  0  0  0  0  0  0  0
  153.0939  136.9116  156.7647 H   0  0  0  0  0  0  0  0  0  0  0  0
  1  2  1  0  0  0  0
  1 21  1  0  0  0  0
  2 18  1  0  0  0  0
  2 17  1  0  0  0  0
  2  3  1  0  0  0  0
  3  4  1  0  0  0  0
  3 22  1  0  0  0  0
  3 23  1  0  0  0  0
  4  5  1  0  0  0  0
  4 24  1  0  0  0  0
  4 32  1  0  0  0  0
  5 19  1  0  0  0  0
  5  6  1  0  0  0  0
  5 17  1  0  0  0  0
  6 16  1  0  0  0  0
  6  7  2  0  0  0  0
  7  8  1  0  0  0  0
  8 20  1  0  0  0  0
  8  9  1  0  0  0  0
  9 10  1  0  0  0  0
  9 16  2  0  0  0  0
 10 15  1  0  0  0  0
 10 11  2  0  0  0  0
 11 12  1  0  0  0  0
 11 25  1  0  0  0  0
 12 13  2  0  0  0  0
 12 26  1  0  0  0  0
 13 14  1  0  0  0  0
 13 27  1  0  0  0  0
 14 15  2  0  0  0  0
 14 28  1  0  0  0  0
 15 29  1  0  0  0  0
 17 30  1  0  0  0  0
 17 31  1  0  0  0  0
M  CHG  1   4   1
M  END
> <s_m_source_file>
AV-unprocessed.smi

> <i_m_source_file_index>
47

> <i_lp_mmshare_version>
43012

> <i_f3d_flags>
0

> <s_epik_input>
W09IXVtDQEhdMVtDSDJdW05IXVtDQEBIXShbQ0gyXTEpYzJuW25IXWMobjIpLWMzW2NIXVtjSF1bY0hdW2NIXVtjSF0z

> <s_epik_cmdline>
J2VwaWtfcHl0aG9uJywgJy1waCcsICc3LjAnLCAnLXRuJywgJzgnLCAnLW1hJywgJzIwMCcsICctbWV0YWxfYmluZGluZycsICctaW1hZScsICc8aW5maWxlLm1hZT4nLCAnLW9tYWUnLCAnPG91dGZpbGUubWFlPic=

> <r_lp_tautomer_probability>
0.948284

> <r_epik_Ionization_Penalty>
0.163822

> <r_epik_Ionization_Penalty_Charging>
0.0371552

> <r_epik_Ionization_Penalty_Neutral>
0.126667

> <r_epik_State_Penalty>
0.318338

> <r_epik_Charging_Adjusted_Penalty>
0.355493

> <i_epik_Tot_Q>
1

> <i_epik_Tot_abs_Q>
1

> <r_epik_Metal_State_Penalty>
0.81572

> <b_epik_Metal_Only>
0

> <s_lp_Force_Field>
OPLS_2005

> <r_lp_Energy>
24.5404

> <b_lp_Chiralities_Consistent>
1

> <s_lp_Variant>
AV-unprocessed.smi:47-1

> <Gold.Version>
5.8.1

> <Gold.Id.Protein>
6NUR|6NUR_protein|mol2

> <Gold.PLP.Fitness>
43.4865

> <Gold.PLP.PLP>
-35.4700

> <Gold.PLP.part.hbond>
-3.0751

> <Gold.PLP.part.metal>
0.0000

> <Gold.PLP.part.buried>
-4.7704

> <Gold.PLP.part.nonpolar>
-27.4426

> <Gold.PLP.part.repulsive>
0.3063

> <Gold.PLP.ligand.clash>
0.0000

> <Gold.PLP.ligand.torsion>
0.4993

> <Gold.PLP.Chemscore.Hbond>
3.0000

> <Gold.PLP.Chemscore.CHOScore>
0.0000

> <Gold.PLP.Chemscore.Metal>
0.0000

> <Gold.Chemscore.Hbonds>
donor molecule, donor type, donor heavy atom, donor atom, acceptor molecule, acceptor atom, score
      L1  H     1    21       P1  7948  1.00
      P1  H  7989  7998       L1     7  1.00
      P1  H  7997  8009       L1    16  0.98

> <Gold.PLP.Chemscore.Internal.Correction>
0.0150

> <Gold.Rescore>
     Score         DG    S(hbond)    S(metal)    S(lipo)     H(rot)  DE(clash)    DE(int)     intcor
     17.39     -18.05       1.67        0.00      92.38       1.50       0.19       0.48       ----

> <Gold.Chemscore.Fitness>
17.3862

> <Gold.Chemscore.DG>
-18.0482

> <Gold.Chemscore.ZeroCoef>
-5.4800

> <Gold.Chemscore.Hbond>
1.6740

> <Gold.Chemscore.Metal>
0.0000

> <Gold.Chemscore.Lipo>
92.3794

> <Gold.Chemscore.Internal_Hbond>
0.0000

> <Gold.Chemscore.DEClash>
0.1864

> <Gold.Chemscore.DEInternal>
0.4756

> <Gold.Chemscore.Rot>
1.4966

> <Gold.Chemscore.Internal.Correction>
   9.000000E+99

> <Gold.Chemscore.Hbonds>
donor molecule, donor type, donor heavy atom, donor atom, acceptor molecule, acceptor atom, score
      L1  H     1    21       P1  7948  0.25
      P1  H  7989  7998       L1     7  0.36
      P1  H  7997  8009       L1    16  0.22

> <Gold.Chemscore.Hbond.Weighted>
-5.5910

> <Gold.Chemscore.Metal.Weighted>
-0.0000

> <Gold.Chemscore.Lipo.Weighted>
-10.8084

> <Gold.Chemscore.Internal_Hbond.Weighted>
0.0000

> <Gold.Chemscore.DEClash.Weighted>
0.1864

> <Gold.Chemscore.DEInternal.Weighted>
0.4756

> <Gold.Chemscore.Rot.Weighted>
3.8312

> <Gold.Chemscore.Internal.Correction.Weighted>
   9.000000E+99

> <Gold.Protein.RotatedTorsions>
[ 6907 6896 6895 6894 ] final  -26.53 input  -60.11 | X-H torsion
[ 7974 7965 7964 7962 ] final    5.69 input  175.53 | X-H torsion
[ 8008 7997 7996 7995 ] final -174.26 input   59.86 | X-H torsion
[ 10167 10162 10161 10158 ] final  -37.41 input  -65.29 | X-H torsion
[ 10718 10713 10712 10709 ] final  150.07 input   66.30 | X-H torsion
[ 10763 10752 10751 10750 ] final   44.78 input  -60.55 | X-H torsion
[ 11005 11000 10999 10996 ] final  139.21 input  -57.11 | X-H torsion

> <Gold.Protein.ActiveResidues>
 VAL166  LYS551  ARG553  GLY616  TRP617  ASP618  TYR619  PRO620  LYS621  CYS622 
 ASP623  PHE694  ASN695  SER759  ASP760  ASP761  ALA762  ILE779  LEU786  VAL792 
 PHE793  MET794  SER795  GLU796  ALA797  LYS798  CYS799  TRP800  GLU811  SER814 

> <Gold.Protein.RotatedAtoms>
  151.1597  135.0267  159.8704 H   0  0  0  0  0  0  0  0  0  0  0  0  # atno 6907 bound_to 6896
  152.5451  134.1294  159.8442 H   0  0  0  0  0  0  0  0  0  0  0  0  # atno 6908 bound_to 6896
  151.1387  133.4940  159.2630 H   0  0  0  0  0  0  0  0  0  0  0  0  # atno 6909 bound_to 6896
  146.2439  140.0345  142.8387 H   0  0  0  0  0  0  0  0  0  0  0  0  # atno 7974 bound_to 7965
  155.9678  140.1157  157.0839 H   0  0  0  0  0  0  0  0  0  0  0  0  # atno 8008 bound_to 7997
  154.4148  140.1169  156.5333 H   0  0  0  0  0  0  0  0  0  0  0  0  # atno 8009 bound_to 7997
  155.6636  140.3473  155.4794 H   0  0  0  0  0  0  0  0  0  0  0  0  # atno 8010 bound_to 7997
  140.7119  143.3344  151.2497 H   0  0  0  0  0  0  0  0  0  0  0  0  # atno 10167 bound_to 10162
  157.2881  131.0848  151.1482 H   0  0  0  0  0  0  0  0  0  0  0  0  # atno 10718 bound_to 10713
  152.9835  135.6060  154.3329 H   0  0  0  0  0  0  0  0  0  0  0  0  # atno 10763 bound_to 10752
  154.3032  135.2772  155.2603 H   0  0  0  0  0  0  0  0  0  0  0  0  # atno 10764 bound_to 10752
  154.4846  135.5908  153.6470 H   0  0  0  0  0  0  0  0  0  0  0  0  # atno 10765 bound_to 10752
  140.0238  134.9384  157.0528 H   0  0  0  0  0  0  0  0  0  0  0  0  # atno 11005 bound_to 11000
  145.1124  140.9413  143.4648 LP  0  0  0  0  0  0  0  0  0  0  0  0  # atno 17320 bound_to 7965
  145.0562  139.3141  143.5903 LP  0  0  0  0  0  0  0  0  0  0  0  0  # atno 17321 bound_to 7965
  139.6834  143.9814  152.2821 LP  0  0  0  0  0  0  0  0  0  0  0  0  # atno 17342 bound_to 10162
  139.9452  144.6656  150.8226 LP  0  0  0  0  0  0  0  0  0  0  0  0  # atno 17343 bound_to 10162
  157.2889  130.6787  149.6104 LP  0  0  0  0  0  0  0  0  0  0  0  0  # atno 17370 bound_to 10713
  155.9666  130.4427  150.5390 LP  0  0  0  0  0  0  0  0  0  0  0  0  # atno 17371 bound_to 10713
  140.4341  134.1750  155.7169 LP  0  0  0  0  0  0  0  0  0  0  0  0  # atno 17394 bound_to 11000
  141.1790  133.8453  157.1322 LP  0  0  0  0  0  0  0  0  0  0  0  0  # atno 17395 bound_to 11000

$$$$
