AV-unprocessed.smi:95|AV-procd|sdf|855|dock4
  -GOLD-   2262017303D 1   1.00000     0.00000
 Structure written by MMmdl.
 41 44  0  0  0  0  0  0  0  0  1 V2000
  154.7446  140.8899  162.0522 O   0  0  0  0  0  0  0  0  0  0  0  0
  153.8900  141.5948  161.5120 C   0  0  0  0  0  0  0  0  0  0  0  0
  153.2587  142.7359  162.1651 C   0  0  0  0  0  0  0  0  0  0  0  0
  153.6361  143.0841  163.4069 F   0  0  0  0  0  0  0  0  0  0  0  0
  152.2981  143.4517  161.5418 C   0  0  0  0  0  0  0  0  0  0  0  0
  151.8407  143.1582  160.2700 N   0  0  0  0  0  0  0  0  0  0  0  0
  150.7735  144.0299  159.6498 C   0  0  2  0  0  0  0  0  0  0  0  0
  150.4064  145.2582  160.5051 C   0  0  0  0  0  0  0  0  0  0  0  0
  148.9157  145.0756  160.7394 C   0  0  0  0  0  0  0  0  0  0  0  0
  148.5061  144.1416  159.6061 C   0  0  0  0  0  0  0  0  0  0  0  0
  149.6178  143.2682  159.4835 O   0  0  0  0  0  0  0  0  0  0  0  0
  152.4286  142.0979  159.5415 C   0  0  0  0  0  0  0  0  0  0  0  0
  152.0668  141.8388  158.3924 O   0  0  0  0  0  0  0  0  0  0  0  0
  153.4359  141.3465  160.1941 N   0  0  0  0  0  0  0  0  0  0  0  0
  153.9975  140.1938  159.5053 C   0  0  0  0  0  0  0  0  0  0  0  0
  152.9792  139.2808  158.8318 C   0  0  0  0  0  0  0  0  0  0  0  0
  152.1342  138.4683  159.6135 C   0  0  0  0  0  0  0  0  0  0  0  0
  151.2133  137.6315  158.9576 C   0  0  0  0  0  0  0  0  0  0  0  0
  151.1750  137.6340  157.5482 C   0  0  0  0  0  0  0  0  0  0  0  0
  150.2628  136.8069  156.8612 C   0  0  0  0  0  0  0  0  0  0  0  0
  150.2316  136.8117  155.4545 C   0  0  0  0  0  0  0  0  0  0  0  0
  151.1111  137.6428  154.7373 C   0  0  0  0  0  0  0  0  0  0  0  0
  152.0205  138.4687  155.4260 C   0  0  0  0  0  0  0  0  0  0  0  0
  152.0696  138.4796  156.8363 C   0  0  0  0  0  0  0  0  0  0  0  0
  152.9505  139.2786  157.4790 N   0  0  0  0  0  0  0  0  0  0  0  0
  151.8665  144.2877  162.0727 H   0  0  0  0  0  0  0  0  0  0  0  0
  151.1543  144.3214  158.6698 H   0  0  0  0  0  0  0  0  0  0  0  0
  150.9798  145.3125  161.4312 H   0  0  0  0  0  0  0  0  0  0  0  0
  150.6049  146.1587  159.9232 H   0  0  0  0  0  0  0  0  0  0  0  0
  148.7415  144.5914  161.7007 H   0  0  0  0  0  0  0  0  0  0  0  0
  148.3656  146.0168  160.7322 H   0  0  0  0  0  0  0  0  0  0  0  0
  147.5866  143.5968  159.8198 H   0  0  0  0  0  0  0  0  0  0  0  0
  148.3722  144.6950  158.6754 H   0  0  0  0  0  0  0  0  0  0  0  0
  154.7279  140.5418  158.7745 H   0  0  0  0  0  0  0  0  0  0  0  0
  154.5880  139.6444  160.2409 H   0  0  0  0  0  0  0  0  0  0  0  0
  152.1872  138.4865  160.6924 H   0  0  0  0  0  0  0  0  0  0  0  0
  150.5502  136.9993  159.5300 H   0  0  0  0  0  0  0  0  0  0  0  0
  149.5858  136.1674  157.4086 H   0  0  0  0  0  0  0  0  0  0  0  0
  149.5340  136.1783  154.9262 H   0  0  0  0  0  0  0  0  0  0  0  0
  151.0889  137.6476  153.6575 H   0  0  0  0  0  0  0  0  0  0  0  0
  152.6904  139.1023  154.8632 H   0  0  0  0  0  0  0  0  0  0  0  0
  1  2  2  0  0  0  0
  2 14  1  0  0  0  0
  2  3  1  0  0  0  0
  3  4  1  0  0  0  0
  3  5  2  0  0  0  0
  5  6  1  0  0  0  0
  5 26  1  0  0  0  0
  6  7  1  0  0  0  0
  6 12  1  0  0  0  0
  7 11  1  0  0  0  0
  7  8  1  0  0  0  0
  7 27  1  0  0  0  0
  8  9  1  0  0  0  0
  8 28  1  0  0  0  0
  8 29  1  0  0  0  0
  9 10  1  0  0  0  0
  9 30  1  0  0  0  0
  9 31  1  0  0  0  0
 10 11  1  0  0  0  0
 10 32  1  0  0  0  0
 10 33  1  0  0  0  0
 12 13  2  0  0  0  0
 12 14  1  0  0  0  0
 14 15  1  0  0  0  0
 15 16  1  0  0  0  0
 15 34  1  0  0  0  0
 15 35  1  0  0  0  0
 16 25  1  0  0  0  0
 16 17  2  0  0  0  0
 17 18  1  0  0  0  0
 17 36  1  0  0  0  0
 18 19  2  0  0  0  0
 18 37  1  0  0  0  0
 19 24  1  0  0  0  0
 19 20  1  0  0  0  0
 20 21  2  0  0  0  0
 20 38  1  0  0  0  0
 21 22  1  0  0  0  0
 21 39  1  0  0  0  0
 22 23  2  0  0  0  0
 22 40  1  0  0  0  0
 23 24  1  0  0  0  0
 23 41  1  0  0  0  0
 24 25  2  0  0  0  0
M  END
> <s_m_source_file>
AV-unprocessed.smi

> <i_m_source_file_index>
95

> <i_lp_mmshare_version>
43012

> <i_f3d_flags>
0

> <s_epik_input>
TzFbQ0gyXVtDSDJdW0NIMl1bQ0BIXTFuKFtjSF1jKEYpYzI9TyljKD1PKW4yW0NIMl1jKFtjSF1bY0hdMyluYyhjMzQpW2NIXVtjSF1bY0hdW2NIXTQ=

> <s_epik_cmdline>
J2VwaWtfcHl0aG9uJywgJy1waCcsICc3LjAnLCAnLXRuJywgJzgnLCAnLW1hJywgJzIwMCcsICctbWV0YWxfYmluZGluZycsICctaW1hZScsICc8aW5maWxlLm1hZT4nLCAnLW9tYWUnLCAnPG91dGZpbGUubWFlPic=

> <r_lp_tautomer_probability>
1

> <r_epik_Ionization_Penalty>
0.0274176

> <r_epik_Ionization_Penalty_Charging>
1.11818e-08

> <r_epik_Ionization_Penalty_Neutral>
0.0274176

> <r_epik_State_Penalty>
0.0224396

> <r_epik_Charging_Adjusted_Penalty>
0.0224396

> <i_epik_Tot_Q>
0

> <i_epik_Tot_abs_Q>
0

> <r_epik_Metal_State_Penalty>
2.28695e-05

> <b_epik_Metal_Only>
0

> <s_epik_Chemistry_Notes>
This compound contains an acetal/aminal-like group ( X-CH(R)-Y where X, Y are N, S, or O) that may be acid/base labile, releasing an aldehyde.

> <s_lp_Force_Field>
OPLS_2005

> <r_lp_Energy>
29.0351

> <b_lp_Chiralities_Consistent>
1

> <s_lp_Variant>
AV-unprocessed.smi:95-1

> <Gold.Version>
5.8.1

> <Gold.Id.Protein>
6NUR|6NUR_protein|mol2

> <Gold.PLP.Fitness>
53.4395

> <Gold.PLP.PLP>
-51.1600

> <Gold.PLP.part.hbond>
-2.8568

> <Gold.PLP.part.metal>
0.0000

> <Gold.PLP.part.buried>
-3.2747

> <Gold.PLP.part.nonpolar>
-44.7956

> <Gold.PLP.part.repulsive>
0.1105

> <Gold.PLP.ligand.clash>
0.0000

> <Gold.PLP.ligand.torsion>
0.3705

> <Gold.PLP.Chemscore.Hbond>
1.0000

> <Gold.PLP.Chemscore.CHOScore>
0.0000

> <Gold.PLP.Chemscore.Metal>
0.0000

> <Gold.Chemscore.Hbonds>
donor molecule, donor type, donor heavy atom, donor atom, acceptor molecule, acceptor atom, score
      P1  H  7997  8009       L1    25  1.00

> <Gold.PLP.Chemscore.Internal.Correction>
0.0205

> <Gold.Rescore>
     Score         DG    S(hbond)    S(metal)    S(lipo)     H(rot)  DE(clash)    DE(int)     intcor
     13.25     -16.28       0.88        0.00      99.86       1.50       0.08       2.95       ----

> <Gold.Chemscore.Fitness>
13.2481

> <Gold.Chemscore.DG>
-16.2762

> <Gold.Chemscore.ZeroCoef>
-5.4800

> <Gold.Chemscore.Hbond>
0.8830

> <Gold.Chemscore.Metal>
0.0000

> <Gold.Chemscore.Lipo>
99.8552

> <Gold.Chemscore.Internal_Hbond>
0.0000

> <Gold.Chemscore.DEClash>
0.0811

> <Gold.Chemscore.DEInternal>
2.9470

> <Gold.Chemscore.Rot>
1.4985

> <Gold.Chemscore.Internal.Correction>
   9.000000E+99

> <Gold.Chemscore.Hbonds>
donor molecule, donor type, donor heavy atom, donor atom, acceptor molecule, acceptor atom, score
      P1  H  7997  8009       L1    25  0.93

> <Gold.Chemscore.Hbond.Weighted>
-2.9493

> <Gold.Chemscore.Metal.Weighted>
-0.0000

> <Gold.Chemscore.Lipo.Weighted>
-11.6831

> <Gold.Chemscore.Internal_Hbond.Weighted>
0.0000

> <Gold.Chemscore.DEClash.Weighted>
0.0811

> <Gold.Chemscore.DEInternal.Weighted>
2.9470

> <Gold.Chemscore.Rot.Weighted>
3.8362

> <Gold.Chemscore.Internal.Correction.Weighted>
   9.000000E+99

> <Gold.Protein.RotatedTorsions>
[ 6907 6896 6895 6894 ] final  173.05 input  -60.11 | X-H torsion
[ 7974 7965 7964 7962 ] final   70.70 input  175.53 | X-H torsion
[ 8008 7997 7996 7995 ] final -172.82 input   59.86 | X-H torsion
[ 10167 10162 10161 10158 ] final  170.08 input  -65.29 | X-H torsion
[ 10718 10713 10712 10709 ] final   91.41 input   66.30 | X-H torsion
[ 10763 10752 10751 10750 ] final  112.55 input  -60.55 | X-H torsion
[ 11005 11000 10999 10996 ] final  132.77 input  -57.11 | X-H torsion

> <Gold.Protein.ActiveResidues>
 VAL166  LYS551  ARG553  GLY616  TRP617  ASP618  TYR619  PRO620  LYS621  CYS622 
 ASP623  PHE694  ASN695  SER759  ASP760  ASP761  ALA762  ILE779  LEU786  VAL792 
 PHE793  MET794  SER795  GLU796  ALA797  LYS798  CYS799  TRP800  GLU811  SER814 

> <Gold.Protein.RotatedAtoms>
  151.7745  133.3344  159.3453 H   0  0  0  0  0  0  0  0  0  0  0  0  # atno 6907 bound_to 6896
  150.7449  134.5988  159.6035 H   0  0  0  0  0  0  0  0  0  0  0  0  # atno 6908 bound_to 6896
  152.3318  134.7250  160.0339 H   0  0  0  0  0  0  0  0  0  0  0  0  # atno 6909 bound_to 6896
  145.7749  139.2860  143.1299 H   0  0  0  0  0  0  0  0  0  0  0  0  # atno 7974 bound_to 7965
  155.9496  140.1124  157.0988 H   0  0  0  0  0  0  0  0  0  0  0  0  # atno 8008 bound_to 7997
  154.4106  140.1203  156.5101 H   0  0  0  0  0  0  0  0  0  0  0  0  # atno 8009 bound_to 7997
  155.6859  140.3473  155.4876 H   0  0  0  0  0  0  0  0  0  0  0  0  # atno 8010 bound_to 7997
  139.5009  144.3635  151.9799 H   0  0  0  0  0  0  0  0  0  0  0  0  # atno 10167 bound_to 10162
  157.6960  131.0406  150.3725 H   0  0  0  0  0  0  0  0  0  0  0  0  # atno 10718 bound_to 10713
  153.4795  135.3682  155.2434 H   0  0  0  0  0  0  0  0  0  0  0  0  # atno 10763 bound_to 10752
  154.8755  135.3951  154.3717 H   0  0  0  0  0  0  0  0  0  0  0  0  # atno 10764 bound_to 10752
  153.4318  135.7082  153.6291 H   0  0  0  0  0  0  0  0  0  0  0  0  # atno 10765 bound_to 10752
  139.9811  134.9548  156.9630 H   0  0  0  0  0  0  0  0  0  0  0  0  # atno 11005 bound_to 11000
  146.0133  140.8416  142.9960 LP  0  0  0  0  0  0  0  0  0  0  0  0  # atno 17320 bound_to 7965
  144.6806  140.2521  143.7330 LP  0  0  0  0  0  0  0  0  0  0  0  0  # atno 17321 bound_to 7965
  140.3071  144.3580  150.6044 LP  0  0  0  0  0  0  0  0  0  0  0  0  # atno 17342 bound_to 10162
  140.5828  143.2172  151.7398 LP  0  0  0  0  0  0  0  0  0  0  0  0  # atno 17343 bound_to 10162
  156.4148  130.3941  149.6866 LP  0  0  0  0  0  0  0  0  0  0  0  0  # atno 17370 bound_to 10713
  156.4137  130.7735  151.2749 LP  0  0  0  0  0  0  0  0  0  0  0  0  # atno 17371 bound_to 10713
  140.5095  134.1016  155.7267 LP  0  0  0  0  0  0  0  0  0  0  0  0  # atno 17394 bound_to 11000
  141.1482  133.9016  157.2162 LP  0  0  0  0  0  0  0  0  0  0  0  0  # atno 17395 bound_to 11000

$$$$
