AV-unprocessed.smi:2922|AV-procd|sdf|11198|dock6
  -GOLD-   2272016 93D 1   1.00000     0.00000
 Structure written by MMmdl.
 30 31  0  0  0  0  0  0  0  0  1 V2000
  143.2965  132.9150  150.5686 N   0  0  0  0  0  0  0  0  0  0  0  0
  144.0160  132.4031  149.5656 C   0  0  0  0  0  0  0  0  0  0  0  0
  143.5976  132.3919  148.4094 O   0  0  0  0  0  0  0  0  0  0  0  0
  145.4122  131.8456  149.9005 C   0  0  2  0  0  0  0  0  0  0  0  0
  145.3928  130.6879  150.9200 C   0  0  0  0  0  0  0  0  0  0  0  0
  146.2071  131.2085  152.0933 C   0  0  0  0  0  0  0  0  0  0  0  0
  146.1175  132.7203  151.9262 C   0  0  1  0  0  0  0  0  0  0  0  0
  147.2482  133.4927  152.6223 C   0  0  0  0  0  0  0  0  0  0  0  0
  146.9092  134.8949  152.8230 N   0  0  0  0  0  0  0  0  0  0  0  0
  145.6440  135.3639  153.1268 C   0  0  0  0  0  0  0  0  0  0  0  0
  145.2695  136.5514  152.6337 N   0  0  0  0  0  0  0  0  0  0  0  0
  144.0306  136.9868  152.9516 C   0  0  0  0  0  0  0  0  0  0  0  0
  143.1686  136.2253  153.7653 C   0  0  0  0  0  0  0  0  0  0  0  0
  141.5863  136.7759  154.1765 Cl  0  0  0  0  0  0  0  0  0  0  0  0
  143.6672  134.9905  154.2259 C   0  0  0  0  0  0  0  0  0  0  0  0
  144.9081  134.5635  153.9029 N   0  0  0  0  0  0  0  0  0  0  0  0
  146.2109  132.8574  150.5157 O   0  0  0  0  0  0  0  0  0  0  0  0
  142.3762  133.2891  150.3883 H   0  0  0  0  0  0  0  0  0  0  0  0
  143.6785  132.9236  151.5035 H   0  0  0  0  0  0  0  0  0  0  0  0
  145.8922  131.5373  148.9712 H   0  0  0  0  0  0  0  0  0  0  0  0
  144.3826  130.4441  151.2522 H   0  0  0  0  0  0  0  0  0  0  0  0
  145.8279  129.7769  150.5088 H   0  0  0  0  0  0  0  0  0  0  0  0
  145.8321  130.8655  153.0578 H   0  0  0  0  0  0  0  0  0  0  0  0
  147.2428  130.8797  151.9961 H   0  0  0  0  0  0  0  0  0  0  0  0
  145.1392  133.0670  152.2641 H   0  0  0  0  0  0  0  0  0  0  0  0
  147.4753  133.0378  153.5870 H   0  0  0  0  0  0  0  0  0  0  0  0
  148.1620  133.4349  152.0306 H   0  0  0  0  0  0  0  0  0  0  0  0
  147.6028  135.5844  152.5725 H   0  0  0  0  0  0  0  0  0  0  0  0
  143.7287  137.9450  152.5552 H   0  0  0  0  0  0  0  0  0  0  0  0
  143.0723  134.3441  154.8544 H   0  0  0  0  0  0  0  0  0  0  0  0
  1  2  1  0  0  0  0
  1 18  1  0  0  0  0
  1 19  1  0  0  0  0
  2  3  2  0  0  0  0
  2  4  1  0  0  0  0
  4 17  1  0  0  0  0
  4  5  1  0  0  0  0
  4 20  1  0  0  0  0
  5  6  1  0  0  0  0
  5 21  1  0  0  0  0
  5 22  1  0  0  0  0
  6  7  1  0  0  0  0
  6 23  1  0  0  0  0
  6 24  1  0  0  0  0
  7  8  1  0  0  0  0
  7 17  1  0  0  0  0
  7 25  1  0  0  0  0
  8  9  1  0  0  0  0
  8 26  1  0  0  0  0
  8 27  1  0  0  0  0
  9 10  1  0  0  0  0
  9 28  1  0  0  0  0
 10 16  1  0  0  0  0
 10 11  2  0  0  0  0
 11 12  1  0  0  0  0
 12 13  2  0  0  0  0
 12 29  1  0  0  0  0
 13 14  1  0  0  0  0
 13 15  1  0  0  0  0
 15 16  2  0  0  0  0
 15 30  1  0  0  0  0
M  END
> <s_m_source_file>
AV-unprocessed.smi

> <i_m_source_file_index>
2922

> <i_lp_mmshare_version>
43012

> <i_f3d_flags>
0

> <s_epik_input>
W05IMl1DKD1PKVtDQEBIXTFbQ0gyXVtDSDJdW0NASF0oTzEpW0NIMl1bTkhdYzJuW2NIXWMoQ2wpW2NIXW4y

> <s_epik_cmdline>
J2VwaWtfcHl0aG9uJywgJy1waCcsICc3LjAnLCAnLXRuJywgJzgnLCAnLW1hJywgJzIwMCcsICctbWV0YWxfYmluZGluZycsICctaW1hZScsICc8aW5maWxlLm1hZT4nLCAnLW9tYWUnLCAnPG91dGZpbGUubWFlPic=

> <r_lp_tautomer_probability>
1

> <r_epik_Ionization_Penalty>
6.13883e-06

> <r_epik_Ionization_Penalty_Charging>
0

> <r_epik_Ionization_Penalty_Neutral>
6.13883e-06

> <r_epik_State_Penalty>
-0

> <r_epik_Charging_Adjusted_Penalty>
0

> <i_epik_Tot_Q>
0

> <i_epik_Tot_abs_Q>
0

> <r_epik_Metal_State_Penalty>
-0

> <b_epik_Metal_Only>
0

> <s_lp_Force_Field>
OPLS_2005

> <r_lp_Energy>
9.74106

> <b_lp_Chiralities_Consistent>
1

> <s_lp_Variant>
AV-unprocessed.smi:2922-1

> <Gold.Version>
5.8.1

> <Gold.Id.Protein>
6NUR|6NUR_protein|mol2

> <Gold.PLP.Fitness>
40.6902

> <Gold.PLP.PLP>
-27.2198

> <Gold.PLP.part.hbond>
-3.6157

> <Gold.PLP.part.metal>
0.0000

> <Gold.PLP.part.buried>
-6.6165

> <Gold.PLP.part.nonpolar>
-18.7680

> <Gold.PLP.part.repulsive>
0.8558

> <Gold.PLP.ligand.clash>
0.0000

> <Gold.PLP.ligand.torsion>
0.6388

> <Gold.PLP.Chemscore.Hbond>
1.9855

> <Gold.PLP.Chemscore.CHOScore>
2.9225

> <Gold.PLP.Chemscore.Metal>
0.0000

> <Gold.Chemscore.Hbonds>
donor molecule, donor type, donor heavy atom, donor atom, acceptor molecule, acceptor atom, score
      L1  H     1    18       P1 10186  1.00
      L1  H     9    28       P1  7948  1.00
      P1  H 10785 10796       L1     3  0.08
      L1  C    12    29       P1 10171  0.27
      L1  C    12    29       P1 10175  1.00
      L1  C    15    30       P1 10957  0.81

> <Gold.PLP.Chemscore.Internal.Correction>
0.0241

> <Gold.Rescore>
     Score         DG    S(hbond)    S(metal)    S(lipo)     H(rot)  DE(clash)    DE(int)     intcor
     12.98     -13.78       2.02        0.00      55.24       1.91       0.32       0.48       ----

> <Gold.Chemscore.Fitness>
12.9773

> <Gold.Chemscore.DG>
-13.7784

> <Gold.Chemscore.ZeroCoef>
-5.4800

> <Gold.Chemscore.Hbond>
2.0167

> <Gold.Chemscore.Metal>
0.0000

> <Gold.Chemscore.Lipo>
55.2369

> <Gold.Chemscore.Internal_Hbond>
0.0000

> <Gold.Chemscore.DEClash>
0.3198

> <Gold.Chemscore.DEInternal>
0.4813

> <Gold.Chemscore.Rot>
1.9142

> <Gold.Chemscore.Internal.Correction>
   9.000000E+99

> <Gold.Chemscore.Hbonds>
donor molecule, donor type, donor heavy atom, donor atom, acceptor molecule, acceptor atom, score
      L1  H     1    18       P1 10186  0.98
      L1  H     9    28       P1  7948  0.98

> <Gold.Chemscore.Hbond.Weighted>
-6.7359

> <Gold.Chemscore.Metal.Weighted>
-0.0000

> <Gold.Chemscore.Lipo.Weighted>
-6.4627

> <Gold.Chemscore.Internal_Hbond.Weighted>
0.0000

> <Gold.Chemscore.DEClash.Weighted>
0.3198

> <Gold.Chemscore.DEInternal.Weighted>
0.4813

> <Gold.Chemscore.Rot.Weighted>
4.9002

> <Gold.Chemscore.Internal.Correction.Weighted>
   9.000000E+99

> <Gold.Protein.RotatedTorsions>
[ 6907 6896 6895 6894 ] final   21.10 input  -60.11 | X-H torsion
[ 7974 7965 7964 7962 ] final  177.58 input  175.53 | X-H torsion
[ 8008 7997 7996 7995 ] final  -98.71 input   59.86 | X-H torsion
[ 10167 10162 10161 10158 ] final -144.21 input  -65.29 | X-H torsion
[ 10718 10713 10712 10709 ] final  162.66 input   66.30 | X-H torsion
[ 10763 10752 10751 10750 ] final  -25.53 input  -60.55 | X-H torsion
[ 11005 11000 10999 10996 ] final -123.96 input  -57.11 | X-H torsion

> <Gold.Protein.ActiveResidues>
 VAL166  LYS551  ARG553  GLY616  TRP617  ASP618  TYR619  PRO620  LYS621  CYS622 
 ASP623  PHE694  ASN695  SER759  ASP760  ASP761  ALA762  ILE779  LEU786  VAL792 
 PHE793  MET794  SER795  GLU796  ALA797  LYS798  CYS799  TRP800  GLU811  SER814 

> <Gold.Protein.RotatedAtoms>
  151.9065  135.0356  160.0510 H   0  0  0  0  0  0  0  0  0  0  0  0  # atno 6907 bound_to 6896
  152.2315  133.5057  159.5226 H   0  0  0  0  0  0  0  0  0  0  0  0  # atno 6908 bound_to 6896
  150.7027  134.1127  159.4048 H   0  0  0  0  0  0  0  0  0  0  0  0  # atno 6909 bound_to 6896
  144.7167  140.0268  143.6439 H   0  0  0  0  0  0  0  0  0  0  0  0  # atno 7974 bound_to 7965
  154.8049  140.0453  157.1300 H   0  0  0  0  0  0  0  0  0  0  0  0  # atno 8008 bound_to 7997
  154.9436  140.3056  155.5089 H   0  0  0  0  0  0  0  0  0  0  0  0  # atno 8009 bound_to 7997
  156.2965  140.2301  156.4507 H   0  0  0  0  0  0  0  0  0  0  0  0  # atno 8010 bound_to 7997
  139.7920  143.7953  152.2651 H   0  0  0  0  0  0  0  0  0  0  0  0  # atno 10167 bound_to 10162
  157.1194  131.0488  151.2422 H   0  0  0  0  0  0  0  0  0  0  0  0  # atno 10718 bound_to 10713
  153.7014  135.6956  153.5062 H   0  0  0  0  0  0  0  0  0  0  0  0  # atno 10763 bound_to 10752
  153.2340  135.4328  155.0625 H   0  0  0  0  0  0  0  0  0  0  0  0  # atno 10764 bound_to 10752
  154.8343  135.3491  154.6553 H   0  0  0  0  0  0  0  0  0  0  0  0  # atno 10765 bound_to 10752
  140.9878  134.0581  157.3690 H   0  0  0  0  0  0  0  0  0  0  0  0  # atno 11005 bound_to 11000
  146.0135  139.3190  143.0856 LP  0  0  0  0  0  0  0  0  0  0  0  0  # atno 17320 bound_to 7965
  145.8653  140.9451  143.0679 LP  0  0  0  0  0  0  0  0  0  0  0  0  # atno 17321 bound_to 7965
  139.8047  144.7360  150.9778 LP  0  0  0  0  0  0  0  0  0  0  0  0  # atno 17342 bound_to 10162
  140.7820  143.4310  151.0694 LP  0  0  0  0  0  0  0  0  0  0  0  0  # atno 17343 bound_to 10162
  157.4490  130.7587  149.7134 LP  0  0  0  0  0  0  0  0  0  0  0  0  # atno 17370 bound_to 10713
  155.9832  130.4003  150.3376 LP  0  0  0  0  0  0  0  0  0  0  0  0  # atno 17371 bound_to 10713
  139.8978  135.0152  156.7120 LP  0  0  0  0  0  0  0  0  0  0  0  0  # atno 17394 bound_to 11000
  140.7087  133.9243  155.8070 LP  0  0  0  0  0  0  0  0  0  0  0  0  # atno 17395 bound_to 11000

$$$$
