AV-unprocessed.smi:2114|AV-procd|sdf|8620|dock1
  -GOLD-   2272011363D 1   1.00000     0.00000
 Structure written by MMmdl.
 47 48  0  0  0  0  0  0  0  0  1 V2000
  153.8391  130.5898  156.4183 C   0  0  0  0  0  0  0  0  0  0  0  0
  154.5733  131.2480  157.4357 O   0  0  0  0  0  0  0  0  0  0  0  0
  154.0761  132.5477  157.7110 C   0  0  0  0  0  0  0  0  0  0  0  0
  155.0006  133.2470  158.7192 C   0  0  1  0  0  0  0  0  0  0  0  0
  156.4691  133.1913  158.2672 C   0  0  0  0  0  0  0  0  0  0  0  0
  154.5781  134.6345  158.8896 N   0  0  0  0  0  0  0  0  0  0  0  0
  154.6019  135.5774  157.9331 C   0  0  0  0  0  0  0  0  0  0  0  0
  155.0077  135.3751  156.7885 O   0  0  0  0  0  0  0  0  0  0  0  0
  154.1508  136.9452  158.3575 C   0  0  0  0  0  0  0  0  0  0  0  0
  154.1024  137.3246  159.7168 C   0  0  0  0  0  0  0  0  0  0  0  0
  153.6406  138.6112  160.0539 C   0  0  0  0  0  0  0  0  0  0  0  0
  153.2291  139.4891  159.0237 C   0  0  0  0  0  0  0  0  0  0  0  0
  152.7574  140.7806  159.3412 N   0  0  0  0  0  0  0  0  0  0  0  0
  151.4534  141.1323  158.7868 C   0  0  0  0  0  0  0  0  0  0  0  0
  151.1954  142.6478  158.9016 C   0  0  2  0  0  0  0  0  0  0  0  0
  151.9860  143.4818  157.8776 C   0  0  0  0  0  0  0  0  0  0  0  0
  151.4174  143.0870  160.2438 O   0  0  0  0  0  0  0  0  0  0  0  0
  152.7128  142.7895  160.7635 C   0  0  1  0  0  0  0  0  0  0  0  0
  152.7831  143.3216  162.1986 C   0  0  0  0  0  0  0  0  0  0  0  0
  152.9567  141.2714  160.7019 C   0  0  0  0  0  0  0  0  0  0  0  0
  153.2631  139.1186  157.7203 N   0  0  0  0  0  0  0  0  0  0  0  0
  153.7078  137.8845  157.4019 C   0  0  0  0  0  0  0  0  0  0  0  0
  154.2548  129.5964  156.2507 H   0  0  0  0  0  0  0  0  0  0  0  0
  153.8900  131.1389  155.4772 H   0  0  0  0  0  0  0  0  0  0  0  0
  152.7917  130.4733  156.7000 H   0  0  0  0  0  0  0  0  0  0  0  0
  154.0371  133.1231  156.7845 H   0  0  0  0  0  0  0  0  0  0  0  0
  153.0586  132.4900  158.1020 H   0  0  0  0  0  0  0  0  0  0  0  0
  154.9135  132.7246  159.6737 H   0  0  0  0  0  0  0  0  0  0  0  0
  156.8024  132.1604  158.1449 H   0  0  0  0  0  0  0  0  0  0  0  0
  157.1277  133.6615  158.9979 H   0  0  0  0  0  0  0  0  0  0  0  0
  156.6106  133.7017  157.3140 H   0  0  0  0  0  0  0  0  0  0  0  0
  154.2569  134.9008  159.8089 H   0  0  0  0  0  0  0  0  0  0  0  0
  154.4043  136.6447  160.5003 H   0  0  0  0  0  0  0  0  0  0  0  0
  153.5885  138.9015  161.0927 H   0  0  0  0  0  0  0  0  0  0  0  0
  151.3536  140.8252  157.7465 H   0  0  0  0  0  0  0  0  0  0  0  0
  150.6903  140.5892  159.3459 H   0  0  0  0  0  0  0  0  0  0  0  0
  150.1382  142.8202  158.6980 H   0  0  0  0  0  0  0  0  0  0  0  0
  151.6909  143.2236  156.8605 H   0  0  0  0  0  0  0  0  0  0  0  0
  153.0611  143.3187  157.9520 H   0  0  0  0  0  0  0  0  0  0  0  0
  151.7978  144.5467  158.0149 H   0  0  0  0  0  0  0  0  0  0  0  0
  153.4721  143.3059  160.1757 H   0  0  0  0  0  0  0  0  0  0  0  0
  153.7609  143.1295  162.6409 H   0  0  0  0  0  0  0  0  0  0  0  0
  152.0304  142.8504  162.8315 H   0  0  0  0  0  0  0  0  0  0  0  0
  152.6128  144.3981  162.2235 H   0  0  0  0  0  0  0  0  0  0  0  0
  152.2735  140.7506  161.3748 H   0  0  0  0  0  0  0  0  0  0  0  0
  153.9725  141.0561  161.0364 H   0  0  0  0  0  0  0  0  0  0  0  0
  153.7089  137.6472  156.3477 H   0  0  0  0  0  0  0  0  0  0  0  0
  1  2  1  0  0  0  0
  1 23  1  0  0  0  0
  1 24  1  0  0  0  0
  1 25  1  0  0  0  0
  2  3  1  0  0  0  0
  3  4  1  0  0  0  0
  3 26  1  0  0  0  0
  3 27  1  0  0  0  0
  4  5  1  0  0  0  0
  4  6  1  0  0  0  0
  4 28  1  0  0  0  0
  5 29  1  0  0  0  0
  5 30  1  0  0  0  0
  5 31  1  0  0  0  0
  6  7  1  0  0  0  0
  6 32  1  0  0  0  0
  7  8  2  0  0  0  0
  7  9  1  0  0  0  0
  9 22  1  0  0  0  0
  9 10  2  0  0  0  0
 10 11  1  0  0  0  0
 10 33  1  0  0  0  0
 11 12  2  0  0  0  0
 11 34  1  0  0  0  0
 12 13  1  0  0  0  0
 12 21  1  0  0  0  0
 13 20  1  0  0  0  0
 13 14  1  0  0  0  0
 14 15  1  0  0  0  0
 14 35  1  0  0  0  0
 14 36  1  0  0  0  0
 15 16  1  0  0  0  0
 15 17  1  0  0  0  0
 15 37  1  0  0  0  0
 16 38  1  0  0  0  0
 16 39  1  0  0  0  0
 16 40  1  0  0  0  0
 17 18  1  0  0  0  0
 18 19  1  0  0  0  0
 18 20  1  0  0  0  0
 18 41  1  0  0  0  0
 19 42  1  0  0  0  0
 19 43  1  0  0  0  0
 19 44  1  0  0  0  0
 20 45  1  0  0  0  0
 20 46  1  0  0  0  0
 21 22  2  0  0  0  0
 22 47  1  0  0  0  0
M  END
> <s_m_source_file>
AV-unprocessed.smi

> <i_m_source_file_index>
2114

> <i_lp_mmshare_version>
43012

> <i_f3d_flags>
0

> <s_epik_input>
W0NIM11PW0NIMl1bQ0BIXShbQ0gzXSlbTkhdQyg9TyljMVtjSF1bY0hdYyhuW2NIXTEpTjJbQ0gyXVtDQEBIXShbQ0gzXSlPW0NAQEhdKFtDSDNdKVtDSDJdMg==

> <s_epik_cmdline>
J2VwaWtfcHl0aG9uJywgJy1waCcsICc3LjAnLCAnLXRuJywgJzgnLCAnLW1hJywgJzIwMCcsICctbWV0YWxfYmluZGluZycsICctaW1hZScsICc8aW5maWxlLm1hZT4nLCAnLW9tYWUnLCAnPG91dGZpbGUubWFlPic=

> <r_lp_tautomer_probability>
1

> <r_epik_Ionization_Penalty>
1.92915e-05

> <r_epik_Ionization_Penalty_Charging>
0

> <r_epik_Ionization_Penalty_Neutral>
1.92915e-05

> <r_epik_State_Penalty>
-0

> <r_epik_Charging_Adjusted_Penalty>
0

> <i_epik_Tot_Q>
0

> <i_epik_Tot_abs_Q>
0

> <r_epik_Metal_State_Penalty>
-0

> <b_epik_Metal_Only>
0

> <s_lp_Force_Field>
OPLS_2005

> <r_lp_Energy>
21.8338

> <b_lp_Chiralities_Consistent>
1

> <s_lp_Variant>
AV-unprocessed.smi:2114-4

> <Gold.Version>
5.8.1

> <Gold.Id.Protein>
6NUR|6NUR_protein|mol2

> <Gold.PLP.Fitness>
34.9499

> <Gold.PLP.PLP>
-29.7289

> <Gold.PLP.part.hbond>
-2.7262

> <Gold.PLP.part.metal>
0.0000

> <Gold.PLP.part.buried>
-4.6993

> <Gold.PLP.part.nonpolar>
-22.1132

> <Gold.PLP.part.repulsive>
0.1625

> <Gold.PLP.ligand.clash>
0.0000

> <Gold.PLP.ligand.torsion>
0.4209

> <Gold.PLP.Chemscore.Hbond>
1.9000

> <Gold.PLP.Chemscore.CHOScore>
0.0000

> <Gold.PLP.Chemscore.Metal>
0.0000

> <Gold.Chemscore.Hbonds>
donor molecule, donor type, donor heavy atom, donor atom, acceptor molecule, acceptor atom, score
      P1  H  7997  8008       L1    21  0.90
      P1  H 10752 10765       L1     8  1.00

> <Gold.PLP.Chemscore.Internal.Correction>
0.3629

> <Gold.Rescore>
     Score         DG    S(hbond)    S(metal)    S(lipo)     H(rot)  DE(clash)    DE(int)     intcor
     15.22     -16.74       1.28        0.00      92.91       1.52       0.14       1.38       ----

> <Gold.Chemscore.Fitness>
15.2162

> <Gold.Chemscore.DG>
-16.7359

> <Gold.Chemscore.ZeroCoef>
-5.4800

> <Gold.Chemscore.Hbond>
1.2826

> <Gold.Chemscore.Metal>
0.0000

> <Gold.Chemscore.Lipo>
92.9065

> <Gold.Chemscore.Internal_Hbond>
0.0000

> <Gold.Chemscore.DEClash>
0.1383

> <Gold.Chemscore.DEInternal>
1.3814

> <Gold.Chemscore.Rot>
1.5226

> <Gold.Chemscore.Internal.Correction>
   9.000000E+99

> <Gold.Chemscore.Hbonds>
donor molecule, donor type, donor heavy atom, donor atom, acceptor molecule, acceptor atom, score
      P1  H  7997  8008       L1    21  0.11
      P1  H 10752 10765       L1     8  0.99

> <Gold.Chemscore.Hbond.Weighted>
-4.2838

> <Gold.Chemscore.Metal.Weighted>
-0.0000

> <Gold.Chemscore.Lipo.Weighted>
-10.8701

> <Gold.Chemscore.Internal_Hbond.Weighted>
0.0000

> <Gold.Chemscore.DEClash.Weighted>
0.1383

> <Gold.Chemscore.DEInternal.Weighted>
1.3814

> <Gold.Chemscore.Rot.Weighted>
3.8980

> <Gold.Chemscore.Internal.Correction.Weighted>
   9.000000E+99

> <Gold.Protein.RotatedTorsions>
[ 6907 6896 6895 6894 ] final  144.25 input  -60.11 | X-H torsion
[ 7974 7965 7964 7962 ] final  -30.88 input  175.53 | X-H torsion
[ 8008 7997 7996 7995 ] final  -80.40 input   59.86 | X-H torsion
[ 10167 10162 10161 10158 ] final   61.32 input  -65.29 | X-H torsion
[ 10718 10713 10712 10709 ] final  -57.70 input   66.30 | X-H torsion
[ 10763 10752 10751 10750 ] final  -80.16 input  -60.55 | X-H torsion
[ 11005 11000 10999 10996 ] final   -8.39 input  -57.11 | X-H torsion

> <Gold.Protein.ActiveResidues>
 VAL166  LYS551  ARG553  GLY616  TRP617  ASP618  TYR619  PRO620  LYS621  CYS622 
 ASP623  PHE694  ASN695  SER759  ASP760  ASP761  ALA762  ILE779  LEU786  VAL792 
 PHE793  MET794  SER795  GLU796  ALA797  LYS798  CYS799  TRP800  GLU811  SER814 

> <Gold.Protein.RotatedAtoms>
  152.1961  133.4807  159.5033 H   0  0  0  0  0  0  0  0  0  0  0  0  # atno 6907 bound_to 6896
  150.6960  134.1651  159.4200 H   0  0  0  0  0  0  0  0  0  0  0  0  # atno 6908 bound_to 6896
  151.9567  135.0143  160.0596 H   0  0  0  0  0  0  0  0  0  0  0  0  # atno 6909 bound_to 6896
  146.1110  140.5596  142.8778 H   0  0  0  0  0  0  0  0  0  0  0  0  # atno 7974 bound_to 7965
  154.5880  140.0663  156.9198 H   0  0  0  0  0  0  0  0  0  0  0  0  # atno 8008 bound_to 7997
  155.2346  140.3340  155.4281 H   0  0  0  0  0  0  0  0  0  0  0  0  # atno 8009 bound_to 7997
  156.2236  140.1809  156.7402 H   0  0  0  0  0  0  0  0  0  0  0  0  # atno 8010 bound_to 7997
  140.1560  144.4416  150.6734 H   0  0  0  0  0  0  0  0  0  0  0  0  # atno 10167 bound_to 10162
  156.1190  130.4168  150.0477 H   0  0  0  0  0  0  0  0  0  0  0  0  # atno 10718 bound_to 10713
  154.5477  135.5670  153.6895 H   0  0  0  0  0  0  0  0  0  0  0  0  # atno 10763 bound_to 10752
  152.9981  135.6243  154.2416 H   0  0  0  0  0  0  0  0  0  0  0  0  # atno 10764 bound_to 10752
  154.2349  135.2864  155.2855 H   0  0  0  0  0  0  0  0  0  0  0  0  # atno 10765 bound_to 10752
  140.7230  133.8813  155.8835 H   0  0  0  0  0  0  0  0  0  0  0  0  # atno 11005 bound_to 11000
  144.7511  140.5194  143.6801 LP  0  0  0  0  0  0  0  0  0  0  0  0  # atno 17320 bound_to 7965
  145.5664  139.1481  143.3313 LP  0  0  0  0  0  0  0  0  0  0  0  0  # atno 17321 bound_to 7965
  140.6673  143.2272  151.5712 LP  0  0  0  0  0  0  0  0  0  0  0  0  # atno 17342 bound_to 10162
  139.5403  144.2666  152.1337 LP  0  0  0  0  0  0  0  0  0  0  0  0  # atno 17343 bound_to 10162
  156.8420  130.9429  151.3631 LP  0  0  0  0  0  0  0  0  0  0  0  0  # atno 17370 bound_to 10713
  157.6374  130.8778  149.9384 LP  0  0  0  0  0  0  0  0  0  0  0  0  # atno 17371 bound_to 10713
  140.9987  134.1179  157.4338 LP  0  0  0  0  0  0  0  0  0  0  0  0  # atno 17394 bound_to 11000
  139.8844  135.0062  156.6364 LP  0  0  0  0  0  0  0  0  0  0  0  0  # atno 17395 bound_to 11000

$$$$
