AV-unprocessed.smi:1048|AV-procd|sdf|4604|dock7
  -GOLD-   22720 3103D 1   1.00000     0.00000
 Structure written by MMmdl.
 46 47  0  0  0  0  0  0  0  0  2 V2000
  145.6520  132.2804  150.6115 C   0  0  0  0  0  0  0  0  0  0  0  0
  145.5125  133.5092  151.5209 C   0  0  2  0  0  0  0  0  0  0  0  0
  145.4345  134.8136  150.7095 C   0  0  0  0  0  0  0  0  0  0  0  0
  145.3269  136.0401  151.6313 C   0  0  0  0  0  0  0  0  0  0  0  0
  146.4617  136.0910  152.5908 N   0  3  1  0  0  0  0  0  0  0  0  0
  146.4774  137.3261  153.4164 C   0  0  0  0  0  0  0  0  0  0  0  0
  146.7115  138.5953  152.5718 C   0  0  2  0  0  0  0  0  0  0  0  0
  147.8299  138.3372  151.7456 O   0  0  0  0  0  0  0  0  0  0  0  0
  147.0305  139.8157  153.4598 C   0  0  0  0  0  0  0  0  0  0  0  0
  145.8597  140.6614  153.6696 N   0  0  0  0  0  0  0  0  0  0  0  0
  145.8551  141.8141  154.3534 C   0  0  0  0  0  0  0  0  0  0  0  0
  146.8623  142.3006  154.8662 O   0  0  0  0  0  0  0  0  0  0  0  0
  144.6285  142.3623  154.3761 N   0  0  0  0  0  0  0  0  0  0  0  0
  144.2064  143.5543  155.0247 C   0  0  0  0  0  0  0  0  0  0  0  0
  144.7718  143.8611  156.2796 C   0  0  0  0  0  0  0  0  0  0  0  0
  144.3878  145.0469  156.9341 C   0  0  0  0  0  0  0  0  0  0  0  0
  143.4550  145.8898  156.2997 C   0  0  0  0  0  0  0  0  0  0  0  0
  142.9149  145.6196  155.0928 N   0  0  0  0  0  0  0  0  0  0  0  0
  143.2858  144.4791  154.4716 C   0  0  0  0  0  0  0  0  0  0  0  0
  146.5354  134.8571  153.4140 C   0  0  0  0  0  0  0  0  0  0  0  0
  146.6710  133.6075  152.5277 C   0  0  0  0  0  0  0  0  0  0  0  0
  146.5675  132.3243  150.0207 H   0  0  0  0  0  0  0  0  0  0  0  0
  144.8125  132.2074  149.9195 H   0  0  0  0  0  0  0  0  0  0  0  0
  145.6775  131.3604  151.1962 H   0  0  0  0  0  0  0  0  0  0  0  0
  144.5830  133.4018  152.0822 H   0  0  0  0  0  0  0  0  0  0  0  0
  146.3178  134.9106  150.0764 H   0  0  0  0  0  0  0  0  0  0  0  0
  144.5755  134.7840  150.0379 H   0  0  0  0  0  0  0  0  0  0  0  0
  145.3064  136.9417  151.0201 H   0  0  0  0  0  0  0  0  0  0  0  0
  144.3849  136.0117  152.1814 H   0  0  0  0  0  0  0  0  0  0  0  0
  145.5406  137.3974  153.9711 H   0  0  0  0  0  0  0  0  0  0  0  0
  147.2668  137.2623  154.1676 H   0  0  0  0  0  0  0  0  0  0  0  0
  145.8411  138.8093  151.9513 H   0  0  0  0  0  0  0  0  0  0  0  0
  148.4750  137.8645  152.2517 H   0  0  0  0  0  0  0  0  0  0  0  0
  147.3306  139.4743  154.4509 H   0  0  0  0  0  0  0  0  0  0  0  0
  147.8753  140.3884  153.0718 H   0  0  0  0  0  0  0  0  0  0  0  0
  144.9871  140.3375  153.2783 H   0  0  0  0  0  0  0  0  0  0  0  0
  143.9200  141.8921  153.8319 H   0  0  0  0  0  0  0  0  0  0  0  0
  145.4880  143.1962  156.7398 H   0  0  0  0  0  0  0  0  0  0  0  0
  144.7996  145.3051  157.8986 H   0  0  0  0  0  0  0  0  0  0  0  0
  143.1395  146.8085  156.7715 H   0  0  0  0  0  0  0  0  0  0  0  0
  142.8417  144.3322  153.4996 H   0  0  0  0  0  0  0  0  0  0  0  0
  147.3943  134.9118  154.0841 H   0  0  0  0  0  0  0  0  0  0  0  0
  145.6461  134.7822  154.0415 H   0  0  0  0  0  0  0  0  0  0  0  0
  146.6987  132.7153  153.1541 H   0  0  0  0  0  0  0  0  0  0  0  0
  147.6233  133.6406  151.9958 H   0  0  0  0  0  0  0  0  0  0  0  0
  147.3117  136.1115  152.0449 H   0  0  0  0  0  0  0  0  0  0  0  0
  1  2  1  0  0  0  0
  1 22  1  0  0  0  0
  1 23  1  0  0  0  0
  1 24  1  0  0  0  0
  2 21  1  0  0  0  0
  2  3  1  0  0  0  0
  2 25  1  0  0  0  0
  3  4  1  0  0  0  0
  3 26  1  0  0  0  0
  3 27  1  0  0  0  0
  4  5  1  0  0  0  0
  4 28  1  0  0  0  0
  4 29  1  0  0  0  0
  5  6  1  0  0  0  0
  5 20  1  0  0  0  0
  5 46  1  0  0  0  0
  6  7  1  0  0  0  0
  6 30  1  0  0  0  0
  6 31  1  0  0  0  0
  7  8  1  0  0  0  0
  7  9  1  0  0  0  0
  7 32  1  0  0  0  0
  8 33  1  0  0  0  0
  9 10  1  0  0  0  0
  9 34  1  0  0  0  0
  9 35  1  0  0  0  0
 10 11  1  0  0  0  0
 10 36  1  0  0  0  0
 11 12  2  0  0  0  0
 11 13  1  0  0  0  0
 13 14  1  0  0  0  0
 13 37  1  0  0  0  0
 14 19  1  0  0  0  0
 14 15  2  0  0  0  0
 15 16  1  0  0  0  0
 15 38  1  0  0  0  0
 16 17  2  0  0  0  0
 16 39  1  0  0  0  0
 17 18  1  0  0  0  0
 17 40  1  0  0  0  0
 18 19  2  0  0  0  0
 19 41  1  0  0  0  0
 20 21  1  0  0  0  0
 20 42  1  0  0  0  0
 20 43  1  0  0  0  0
 21 44  1  0  0  0  0
 21 45  1  0  0  0  0
M  CHG  1   5   1
M  END
> <s_m_source_file>
AV-unprocessed.smi

> <i_m_source_file_index>
1048

> <i_lp_mmshare_version>
43012

> <i_f3d_flags>
0

> <s_epik_input>
W0NIM11bQ0hdMVtDSDJdW0NIMl1OKFtDSDJdW0NIMl0xKVtDSDJdW0NASF0oW09IXSlbQ0gyXVtOSF1DKD1PKVtOSF1jMltjSF1bY0hdW2NIXW5bY0hdMg==

> <s_epik_cmdline>
J2VwaWtfcHl0aG9uJywgJy1waCcsICc3LjAnLCAnLXRuJywgJzgnLCAnLW1hJywgJzIwMCcsICctbWV0YWxfYmluZGluZycsICctaW1hZScsICc8aW5maWxlLm1hZT4nLCAnLW9tYWUnLCAnPG91dGZpbGUubWFlPic=

> <r_lp_tautomer_probability>
1

> <r_epik_Ionization_Penalty>
0.00581049

> <r_epik_Ionization_Penalty_Charging>
0.00147689

> <r_epik_Ionization_Penalty_Neutral>
0.0043336

> <r_epik_State_Penalty>
-0

> <r_epik_Charging_Adjusted_Penalty>
0.00147689

> <i_epik_Tot_Q>
1

> <i_epik_Tot_abs_Q>
1

> <r_epik_Metal_State_Penalty>
-0

> <b_epik_Metal_Only>
0

> <s_lp_Force_Field>
OPLS_2005

> <r_lp_Energy>
22.5683

> <b_lp_Chiralities_Consistent>
1

> <s_lp_Variant>
AV-unprocessed.smi:1048-1

> <Gold.Version>
5.8.1

> <Gold.Id.Protein>
6NUR|6NUR_protein|mol2

> <Gold.PLP.Fitness>
47.6932

> <Gold.PLP.PLP>
-31.9406

> <Gold.PLP.part.hbond>
-6.0144

> <Gold.PLP.part.metal>
0.0000

> <Gold.PLP.part.buried>
-4.1281

> <Gold.PLP.part.nonpolar>
-23.6347

> <Gold.PLP.part.repulsive>
0.1875

> <Gold.PLP.ligand.clash>
0.0000

> <Gold.PLP.ligand.torsion>
0.9278

> <Gold.PLP.Chemscore.Hbond>
4.8518

> <Gold.PLP.Chemscore.CHOScore>
1.0000

> <Gold.PLP.Chemscore.Metal>
0.0000

> <Gold.Chemscore.Hbonds>
donor molecule, donor type, donor heavy atom, donor atom, acceptor molecule, acceptor atom, score
      L1  H     5    46       P1  7948  2.00
      L1  H     8    33       P1  7948  0.43
      L1  H    10    36       P1 10175  1.00
      L1  H    13    37       P1 10175  0.18
      P1  H  7954  7966       L1     8  0.98
      L1  C    19    41       P1 10174  1.00

> <Gold.PLP.Chemscore.Internal.Correction>
0.0528

> <Gold.Rescore>
     Score         DG    S(hbond)    S(metal)    S(lipo)     H(rot)  DE(clash)    DE(int)     intcor
     15.99     -18.39       3.06        0.00      73.07       2.29       0.12       2.28       ----

> <Gold.Chemscore.Fitness>
15.9914

> <Gold.Chemscore.DG>
-18.3863

> <Gold.Chemscore.ZeroCoef>
-5.4800

> <Gold.Chemscore.Hbond>
3.0572

> <Gold.Chemscore.Metal>
0.0000

> <Gold.Chemscore.Lipo>
73.0661

> <Gold.Chemscore.Internal_Hbond>
0.0000

> <Gold.Chemscore.DEClash>
0.1177

> <Gold.Chemscore.DEInternal>
2.2772

> <Gold.Chemscore.Rot>
2.2865

> <Gold.Chemscore.Internal.Correction>
   9.000000E+99

> <Gold.Chemscore.Hbonds>
donor molecule, donor type, donor heavy atom, donor atom, acceptor molecule, acceptor atom, score
      L1  H     5    46       P1  7948  0.98
      L1  H     8    33       P1  7948  0.44
      L1  H    10    36       P1 10175  0.91
      P1  H  7954  7966       L1     8  0.46

> <Gold.Chemscore.Hbond.Weighted>
-10.2111

> <Gold.Chemscore.Metal.Weighted>
-0.0000

> <Gold.Chemscore.Lipo.Weighted>
-8.5487

> <Gold.Chemscore.Internal_Hbond.Weighted>
0.0000

> <Gold.Chemscore.DEClash.Weighted>
0.1177

> <Gold.Chemscore.DEInternal.Weighted>
2.2772

> <Gold.Chemscore.Rot.Weighted>
5.8536

> <Gold.Chemscore.Internal.Correction.Weighted>
   9.000000E+99

> <Gold.Protein.RotatedTorsions>
[ 6907 6896 6895 6894 ] final   -8.69 input  -60.11 | X-H torsion
[ 7974 7965 7964 7962 ] final -111.78 input  175.53 | X-H torsion
[ 8008 7997 7996 7995 ] final  -70.15 input   59.86 | X-H torsion
[ 10167 10162 10161 10158 ] final   55.46 input  -65.29 | X-H torsion
[ 10718 10713 10712 10709 ] final  145.36 input   66.30 | X-H torsion
[ 10763 10752 10751 10750 ] final  -19.52 input  -60.55 | X-H torsion
[ 11005 11000 10999 10996 ] final  129.16 input  -57.11 | X-H torsion

> <Gold.Protein.ActiveResidues>
 VAL166  LYS551  ARG553  GLY616  TRP617  ASP618  TYR619  PRO620  LYS621  CYS622 
 ASP623  PHE694  ASN695  SER759  ASP760  ASP761  ALA762  ILE779  LEU786  VAL792 
 PHE793  MET794  SER795  GLU796  ALA797  LYS798  CYS799  TRP800  GLU811  SER814 

> <Gold.Protein.RotatedAtoms>
  151.4296  135.1008  159.9638 H   0  0  0  0  0  0  0  0  0  0  0  0  # atno 6907 bound_to 6896
  152.4960  133.8630  159.7270 H   0  0  0  0  0  0  0  0  0  0  0  0  # atno 6908 bound_to 6896
  150.9165  133.6875  159.2870 H   0  0  0  0  0  0  0  0  0  0  0  0  # atno 6909 bound_to 6896
  145.1520  140.8834  143.3641 H   0  0  0  0  0  0  0  0  0  0  0  0  # atno 7974 bound_to 7965
  154.4990  140.0840  156.7758 H   0  0  0  0  0  0  0  0  0  0  0  0  # atno 8008 bound_to 7997
  155.4047  140.3438  155.4241 H   0  0  0  0  0  0  0  0  0  0  0  0  # atno 8009 bound_to 7997
  156.1432  140.1536  156.8875 H   0  0  0  0  0  0  0  0  0  0  0  0  # atno 8010 bound_to 7997
  140.2192  144.3807  150.6457 H   0  0  0  0  0  0  0  0  0  0  0  0  # atno 10167 bound_to 10162
  157.3462  131.0943  151.1040 H   0  0  0  0  0  0  0  0  0  0  0  0  # atno 10718 bound_to 10713
  153.6062  135.6998  153.5365 H   0  0  0  0  0  0  0  0  0  0  0  0  # atno 10763 bound_to 10752
  153.3055  135.4116  155.1290 H   0  0  0  0  0  0  0  0  0  0  0  0  # atno 10764 bound_to 10752
  154.8573  135.3659  154.5599 H   0  0  0  0  0  0  0  0  0  0  0  0  # atno 10765 bound_to 10752
  139.9600  134.9604  156.9107 H   0  0  0  0  0  0  0  0  0  0  0  0  # atno 11005 bound_to 11000
  145.0421  139.3251  143.5971 LP  0  0  0  0  0  0  0  0  0  0  0  0  # atno 17320 bound_to 7965
  146.3493  139.9798  142.8697 LP  0  0  0  0  0  0  0  0  0  0  0  0  # atno 17321 bound_to 7965
  140.6267  143.2182  151.6581 LP  0  0  0  0  0  0  0  0  0  0  0  0  # atno 17342 bound_to 10162
  139.5150  144.3391  152.0757 LP  0  0  0  0  0  0  0  0  0  0  0  0  # atno 17343 bound_to 10162
  157.2233  130.6491  149.5820 LP  0  0  0  0  0  0  0  0  0  0  0  0  # atno 17370 bound_to 10713
  155.9714  130.4622  150.6138 LP  0  0  0  0  0  0  0  0  0  0  0  0  # atno 17371 bound_to 10713
  140.5522  134.0616  155.7372 LP  0  0  0  0  0  0  0  0  0  0  0  0  # atno 17394 bound_to 11000
  141.1276  133.9357  157.2603 LP  0  0  0  0  0  0  0  0  0  0  0  0  # atno 17395 bound_to 11000

$$$$
