AV-unprocessed.smi:1790|AV-procd|sdf|7216|dock8
  -GOLD-   22720 8453D 1   1.00000     0.00000
 Structure written by MMmdl.
 33 34  0  0  0  0  0  0  0  0  1 V2000
  151.0183  137.6458  159.7165 O   0  0  0  0  0  0  0  0  0  0  0  0
  150.7144  138.0502  158.5953 C   0  0  0  0  0  0  0  0  0  0  0  0
  149.8941  137.1453  157.6768 C   0  0  0  0  0  0  0  0  0  0  0  0
  149.7529  135.8703  158.2834 O   0  0  0  0  0  0  0  0  0  0  0  0
  149.1852  134.9103  157.4102 C   0  0  0  0  0  0  0  0  0  0  0  0
  150.1602  134.6352  156.2859 C   0  0  0  0  0  0  0  0  0  0  0  0
  150.0934  135.4256  154.9985 C   0  0  0  0  0  0  0  0  0  0  0  0
  149.6904  133.9729  155.0107 C   0  0  0  0  0  0  0  0  0  0  0  0
  151.0171  139.2646  158.0941 N   0  0  0  0  0  0  0  0  0  0  0  0
  151.7530  140.3164  158.6659 C   0  0  0  0  0  0  0  0  0  0  0  0
  151.4157  141.6312  158.6023 C   0  0  0  0  0  0  0  0  0  0  0  0
  152.2249  142.6665  159.2233 C   0  0  0  0  0  0  0  0  0  0  0  0
  151.8060  144.1283  159.1910 C   0  0  0  0  0  0  0  0  0  0  0  0
  150.5621  144.2677  158.7311 F   0  0  0  0  0  0  0  0  0  0  0  0
  151.8543  144.6404  160.4199 F   0  0  0  0  0  0  0  0  0  0  0  0
  152.6218  144.8404  158.4134 F   0  0  0  0  0  0  0  0  0  0  0  0
  153.3163  142.2542  159.8940 C   0  0  0  0  0  0  0  0  0  0  0  0
  153.6705  140.9053  159.9643 N   0  0  0  0  0  0  0  0  0  0  0  0
  152.9620  139.9029  159.3980 C   0  0  0  0  0  0  0  0  0  0  0  0
  153.3380  138.7367  159.5115 O   0  0  0  0  0  0  0  0  0  0  0  0
  154.5089  140.6773  160.4787 H   0  0  0  0  0  0  0  0  0  0  0  0
  148.9138  137.5901  157.4960 H   0  0  0  0  0  0  0  0  0  0  0  0
  150.4051  137.0577  156.7167 H   0  0  0  0  0  0  0  0  0  0  0  0
  148.9863  133.9805  157.9451 H   0  0  0  0  0  0  0  0  0  0  0  0
  148.2406  135.2729  157.0008 H   0  0  0  0  0  0  0  0  0  0  0  0
  151.1545  134.3515  156.6258 H   0  0  0  0  0  0  0  0  0  0  0  0
  149.3019  136.1654  154.8976 H   0  0  0  0  0  0  0  0  0  0  0  0
  151.0358  135.6836  154.5198 H   0  0  0  0  0  0  0  0  0  0  0  0
  150.3636  133.2606  154.5376 H   0  0  0  0  0  0  0  0  0  0  0  0
  148.6303  133.7455  154.9173 H   0  0  0  0  0  0  0  0  0  0  0  0
  150.6426  139.4670  157.1779 H   0  0  0  0  0  0  0  0  0  0  0  0
  150.5226  141.9541  158.0937 H   0  0  0  0  0  0  0  0  0  0  0  0
  153.9897  142.9110  160.4244 H   0  0  0  0  0  0  0  0  0  0  0  0
  1  2  2  0  0  0  0
  2  3  1  0  0  0  0
  2  9  1  0  0  0  0
  3  4  1  0  0  0  0
  3 22  1  0  0  0  0
  3 23  1  0  0  0  0
  4  5  1  0  0  0  0
  5  6  1  0  0  0  0
  5 24  1  0  0  0  0
  5 25  1  0  0  0  0
  6  8  1  0  0  0  0
  6  7  1  0  0  0  0
  6 26  1  0  0  0  0
  7  8  1  0  0  0  0
  7 27  1  0  0  0  0
  7 28  1  0  0  0  0
  8 29  1  0  0  0  0
  8 30  1  0  0  0  0
  9 10  1  0  0  0  0
  9 31  1  0  0  0  0
 10 19  1  0  0  0  0
 10 11  2  0  0  0  0
 11 12  1  0  0  0  0
 11 32  1  0  0  0  0
 12 13  1  0  0  0  0
 12 17  2  0  0  0  0
 13 14  1  0  0  0  0
 13 15  1  0  0  0  0
 13 16  1  0  0  0  0
 17 18  1  0  0  0  0
 17 33  1  0  0  0  0
 18 21  1  0  0  0  0
 18 19  1  0  0  0  0
 19 20  2  0  0  0  0
M  END
> <s_m_source_file>
AV-unprocessed.smi

> <i_m_source_file_index>
1790

> <i_lp_mmshare_version>
43012

> <i_f3d_flags>
0

> <s_epik_input>
W0NIMl0xW0NIMl1bQ0hdMVtDSDJdT1tDSDJdQyg9TylbTkhdYzJbY0hdYyhDKEYpKEYpRilbY0hdW25IXWMyPU8=

> <s_epik_cmdline>
J2VwaWtfcHl0aG9uJywgJy1waCcsICc3LjAnLCAnLXRuJywgJzgnLCAnLW1hJywgJzIwMCcsICctbWV0YWxfYmluZGluZycsICctaW1hZScsICc8aW5maWxlLm1hZT4nLCAnLW9tYWUnLCAnPG91dGZpbGUubWFlPic=

> <r_lp_tautomer_probability>
0.999

> <r_epik_Ionization_Penalty>
0.00811055

> <r_epik_Ionization_Penalty_Charging>
0.00811046

> <r_epik_Ionization_Penalty_Neutral>
9.25705e-08

> <r_epik_State_Penalty>
0.00609496

> <r_epik_Charging_Adjusted_Penalty>
0.0142054

> <i_epik_Tot_Q>
0

> <i_epik_Tot_abs_Q>
0

> <r_epik_Metal_State_Penalty>
0.317593

> <b_epik_Metal_Only>
0

> <s_lp_Force_Field>
OPLS_2005

> <r_lp_Energy>
26.3792

> <b_lp_Chiralities_Consistent>
1

> <s_lp_Variant>
AV-unprocessed.smi:1790-1

> <Gold.Version>
5.8.1

> <Gold.Id.Protein>
6NUR|6NUR_protein|mol2

> <Gold.PLP.Fitness>
41.0097

> <Gold.PLP.PLP>
-39.4968

> <Gold.PLP.part.hbond>
-1.5310

> <Gold.PLP.part.metal>
0.0000

> <Gold.PLP.part.buried>
-6.3918

> <Gold.PLP.part.nonpolar>
-32.2511

> <Gold.PLP.part.repulsive>
0.1339

> <Gold.PLP.ligand.clash>
0.0000

> <Gold.PLP.ligand.torsion>
1.0368

> <Gold.PLP.Chemscore.Hbond>
1.0000

> <Gold.PLP.Chemscore.CHOScore>
0.0000

> <Gold.PLP.Chemscore.Metal>
0.0000

> <Gold.Chemscore.Hbonds>
donor molecule, donor type, donor heavy atom, donor atom, acceptor molecule, acceptor atom, score
      P1  H  6896  6908       L1     4  0.95

> <Gold.PLP.Chemscore.Internal.Correction>
0.5865

> <Gold.Rescore>
     Score         DG    S(hbond)    S(metal)    S(lipo)     H(rot)  DE(clash)    DE(int)     intcor
     10.13     -11.14       0.92        0.00      63.00       1.87       0.02       1.00       ----

> <Gold.Chemscore.Fitness>
10.1251

> <Gold.Chemscore.DG>
-11.1442

> <Gold.Chemscore.ZeroCoef>
-5.4800

> <Gold.Chemscore.Hbond>
0.9196

> <Gold.Chemscore.Metal>
0.0000

> <Gold.Chemscore.Lipo>
62.9967

> <Gold.Chemscore.Internal_Hbond>
0.0000

> <Gold.Chemscore.DEClash>
0.0224

> <Gold.Chemscore.DEInternal>
0.9967

> <Gold.Chemscore.Rot>
1.8664

> <Gold.Chemscore.Internal.Correction>
   9.000000E+99

> <Gold.Chemscore.Hbonds>
donor molecule, donor type, donor heavy atom, donor atom, acceptor molecule, acceptor atom, score
      P1  H  6896  6908       L1     4  0.20

> <Gold.Chemscore.Hbond.Weighted>
-3.0715

> <Gold.Chemscore.Metal.Weighted>
-0.0000

> <Gold.Chemscore.Lipo.Weighted>
-7.3706

> <Gold.Chemscore.Internal_Hbond.Weighted>
0.0000

> <Gold.Chemscore.DEClash.Weighted>
0.0224

> <Gold.Chemscore.DEInternal.Weighted>
0.9967

> <Gold.Chemscore.Rot.Weighted>
4.7780

> <Gold.Chemscore.Internal.Correction.Weighted>
   9.000000E+99

> <Gold.Protein.RotatedTorsions>
[ 6907 6896 6895 6894 ] final  171.51 input  -60.11 | X-H torsion
[ 7974 7965 7964 7962 ] final  -39.83 input  175.53 | X-H torsion
[ 8008 7997 7996 7995 ] final  122.17 input   59.86 | X-H torsion
[ 10167 10162 10161 10158 ] final   97.05 input  -65.29 | X-H torsion
[ 10718 10713 10712 10709 ] final  -10.44 input   66.30 | X-H torsion
[ 10763 10752 10751 10750 ] final  110.87 input  -60.55 | X-H torsion
[ 11005 11000 10999 10996 ] final   38.47 input  -57.11 | X-H torsion

> <Gold.Protein.ActiveResidues>
 VAL166  LYS551  ARG553  GLY616  TRP617  ASP618  TYR619  PRO620  LYS621  CYS622 
 ASP623  PHE694  ASN695  SER759  ASP760  ASP761  ALA762  ILE779  LEU786  VAL792 
 PHE793  MET794  SER795  GLU796  ALA797  LYS798  CYS799  TRP800  GLU811  SER814 

> <Gold.Protein.RotatedAtoms>
  151.7990  133.3368  159.3521 H   0  0  0  0  0  0  0  0  0  0  0  0  # atno 6907 bound_to 6896
  150.7365  134.5771  159.5929 H   0  0  0  0  0  0  0  0  0  0  0  0  # atno 6908 bound_to 6896
  152.3156  134.7445  160.0377 H   0  0  0  0  0  0  0  0  0  0  0  0  # atno 6909 bound_to 6896
  146.0360  140.6670  142.9110 H   0  0  0  0  0  0  0  0  0  0  0  0  # atno 7974 bound_to 7965
  156.2717  140.2792  156.1426 H   0  0  0  0  0  0  0  0  0  0  0  0  # atno 8008 bound_to 7997
  155.0938  140.0389  157.2694 H   0  0  0  0  0  0  0  0  0  0  0  0  # atno 8009 bound_to 7997
  154.6868  140.2620  155.6858 H   0  0  0  0  0  0  0  0  0  0  0  0  # atno 8010 bound_to 7997
  139.7837  144.6878  150.9987 H   0  0  0  0  0  0  0  0  0  0  0  0  # atno 10167 bound_to 10162
  156.6735  130.5016  149.5993 H   0  0  0  0  0  0  0  0  0  0  0  0  # atno 10718 bound_to 10713
  153.4552  135.3735  155.2306 H   0  0  0  0  0  0  0  0  0  0  0  0  # atno 10763 bound_to 10752
  154.8757  135.3895  154.3991 H   0  0  0  0  0  0  0  0  0  0  0  0  # atno 10764 bound_to 10752
  153.4556  135.7086  153.6146 H   0  0  0  0  0  0  0  0  0  0  0  0  # atno 10765 bound_to 10752
  140.2123  134.3740  155.8043 H   0  0  0  0  0  0  0  0  0  0  0  0  # atno 11005 bound_to 11000
  144.7052  140.3822  143.7124 LP  0  0  0  0  0  0  0  0  0  0  0  0  # atno 17320 bound_to 7965
  145.6962  139.1650  143.2618 LP  0  0  0  0  0  0  0  0  0  0  0  0  # atno 17321 bound_to 7965
  140.7819  143.4455  151.0489 LP  0  0  0  0  0  0  0  0  0  0  0  0  # atno 17342 bound_to 10162
  139.8135  143.7919  152.3173 LP  0  0  0  0  0  0  0  0  0  0  0  0  # atno 17343 bound_to 10162
  156.1921  130.6566  151.1073 LP  0  0  0  0  0  0  0  0  0  0  0  0  # atno 17370 bound_to 10713
  157.7069  131.0752  150.6637 LP  0  0  0  0  0  0  0  0  0  0  0  0  # atno 17371 bound_to 10713
  141.2226  133.7149  156.8438 LP  0  0  0  0  0  0  0  0  0  0  0  0  # atno 17394 bound_to 11000
  140.1938  134.8947  157.3090 LP  0  0  0  0  0  0  0  0  0  0  0  0  # atno 17395 bound_to 11000

$$$$
