AV-unprocessed.smi:1728|AV-procd|sdf|6968|dock1
  -GOLD-   22720 8183D 1   1.00000     0.00000
 Structure written by MMmdl.
 47 48  0  0  0  0  0  0  0  0  2 V2000
  153.9028  140.8332  160.4783 C   0  0  0  0  0  0  0  0  0  0  0  0
  153.1649  141.0160  159.2748 O   0  0  0  0  0  0  0  0  0  0  0  0
  152.6616  142.2721  158.9935 C   0  0  0  0  0  0  0  0  0  0  0  0
  152.9222  143.2802  159.8631 N   0  0  0  0  0  0  0  0  0  0  0  0
  152.4365  144.5078  159.5880 C   0  0  0  0  0  0  0  0  0  0  0  0
  151.6776  144.7961  158.4393 C   0  0  0  0  0  0  0  0  0  0  0  0
  151.4058  143.7525  157.5354 C   0  0  0  0  0  0  0  0  0  0  0  0
  151.8972  142.4540  157.8169 C   0  0  0  0  0  0  0  0  0  0  0  0
  151.6997  141.3272  156.9707 N   0  0  0  0  0  0  0  0  0  0  0  0
  150.7349  141.1083  156.0618 C   0  0  0  0  0  0  0  0  0  0  0  0
  149.8139  141.8795  155.7946 O   0  0  0  0  0  0  0  0  0  0  0  0
  150.8855  139.9090  155.4817 N   0  0  0  0  0  0  0  0  0  0  0  0
  150.0179  139.3478  154.4470 C   0  0  0  0  0  0  0  0  0  0  0  0
  148.7993  138.5582  155.0152 C   0  0  0  0  0  0  0  0  0  0  0  0
  149.2954  137.2782  155.7328 C   0  0  0  0  0  0  0  0  0  0  0  0
  148.0641  139.3943  156.0931 C   0  0  0  0  0  0  0  0  0  0  0  0
  147.8305  138.1856  153.9217 N   0  3  0  0  0  0  0  0  0  0  0  0
  146.7189  137.2766  154.3217 C   0  0  0  0  0  0  0  0  0  0  0  0
  145.9166  136.8272  153.0893 C   0  0  0  0  0  0  0  0  0  0  0  0
  145.4119  137.9650  152.4054 O   0  0  0  0  0  0  0  0  0  0  0  0
  146.4600  138.7999  151.9344 C   0  0  0  0  0  0  0  0  0  0  0  0
  147.2835  139.3201  153.1242 C   0  0  0  0  0  0  0  0  0  0  0  0
  154.2277  139.7952  160.5477 H   0  0  0  0  0  0  0  0  0  0  0  0
  153.2934  141.0481  161.3572 H   0  0  0  0  0  0  0  0  0  0  0  0
  154.7948  141.4612  160.4984 H   0  0  0  0  0  0  0  0  0  0  0  0
  152.6661  145.2846  160.3023 H   0  0  0  0  0  0  0  0  0  0  0  0
  151.3162  145.7965  158.2529 H   0  0  0  0  0  0  0  0  0  0  0  0
  150.8412  143.9760  156.6442 H   0  0  0  0  0  0  0  0  0  0  0  0
  152.3460  140.5662  157.1198 H   0  0  0  0  0  0  0  0  0  0  0  0
  151.6694  139.3420  155.7709 H   0  0  0  0  0  0  0  0  0  0  0  0
  149.6929  140.1410  153.7733 H   0  0  0  0  0  0  0  0  0  0  0  0
  150.6500  138.6923  153.8491 H   0  0  0  0  0  0  0  0  0  0  0  0
  149.8354  137.5132  156.6507 H   0  0  0  0  0  0  0  0  0  0  0  0
  149.9836  136.6981  155.1186 H   0  0  0  0  0  0  0  0  0  0  0  0
  148.4631  136.6302  156.0096 H   0  0  0  0  0  0  0  0  0  0  0  0
  148.6624  139.5043  156.9983 H   0  0  0  0  0  0  0  0  0  0  0  0
  147.1250  138.9253  156.3896 H   0  0  0  0  0  0  0  0  0  0  0  0
  147.8427  140.4059  155.7537 H   0  0  0  0  0  0  0  0  0  0  0  0
  147.0899  136.3818  154.8179 H   0  0  0  0  0  0  0  0  0  0  0  0
  146.0504  137.7795  155.0205 H   0  0  0  0  0  0  0  0  0  0  0  0
  146.5343  136.2266  152.4196 H   0  0  0  0  0  0  0  0  0  0  0  0
  145.0784  136.2012  153.3959 H   0  0  0  0  0  0  0  0  0  0  0  0
  147.0915  138.2541  151.2317 H   0  0  0  0  0  0  0  0  0  0  0  0
  146.0238  139.6354  151.3865 H   0  0  0  0  0  0  0  0  0  0  0  0
  146.6500  139.9508  153.7485 H   0  0  0  0  0  0  0  0  0  0  0  0
  148.0765  139.9509  152.7273 H   0  0  0  0  0  0  0  0  0  0  0  0
  148.3829  137.6490  153.2680 H   0  0  0  0  0  0  0  0  0  0  0  0
  1  2  1  0  0  0  0
  1 23  1  0  0  0  0
  1 24  1  0  0  0  0
  1 25  1  0  0  0  0
  2  3  1  0  0  0  0
  3  8  1  0  0  0  0
  3  4  2  0  0  0  0
  4  5  1  0  0  0  0
  5  6  2  0  0  0  0
  5 26  1  0  0  0  0
  6  7  1  0  0  0  0
  6 27  1  0  0  0  0
  7  8  2  0  0  0  0
  7 28  1  0  0  0  0
  8  9  1  0  0  0  0
  9 10  1  0  0  0  0
  9 29  1  0  0  0  0
 10 11  2  0  0  0  0
 10 12  1  0  0  0  0
 12 13  1  0  0  0  0
 12 30  1  0  0  0  0
 13 14  1  0  0  0  0
 13 31  1  0  0  0  0
 13 32  1  0  0  0  0
 14 15  1  0  0  0  0
 14 16  1  0  0  0  0
 14 17  1  0  0  0  0
 15 33  1  0  0  0  0
 15 34  1  0  0  0  0
 15 35  1  0  0  0  0
 16 36  1  0  0  0  0
 16 37  1  0  0  0  0
 16 38  1  0  0  0  0
 17 22  1  0  0  0  0
 17 18  1  0  0  0  0
 17 47  1  0  0  0  0
 18 19  1  0  0  0  0
 18 39  1  0  0  0  0
 18 40  1  0  0  0  0
 19 20  1  0  0  0  0
 19 41  1  0  0  0  0
 19 42  1  0  0  0  0
 20 21  1  0  0  0  0
 21 22  1  0  0  0  0
 21 43  1  0  0  0  0
 21 44  1  0  0  0  0
 22 45  1  0  0  0  0
 22 46  1  0  0  0  0
M  CHG  1  17   1
M  END
> <s_m_source_file>
AV-unprocessed.smi

> <i_m_source_file_index>
1728

> <i_lp_mmshare_version>
43012

> <i_f3d_flags>
0

> <s_epik_input>
W0NIM11PYzFuW2NIXVtjSF1bY0hdYzFbTkhdQyg9TylbTkhdW0NIMl1DKFtDSDNdKShbQ0gzXSlOMltDSDJdW0NIMl1PW0NIMl1bQ0gyXTI=

> <s_epik_cmdline>
J2VwaWtfcHl0aG9uJywgJy1waCcsICc3LjAnLCAnLXRuJywgJzgnLCAnLW1hJywgJzIwMCcsICctbWV0YWxfYmluZGluZycsICctaW1hZScsICc8aW5maWxlLm1hZT4nLCAnLW9tYWUnLCAnPG91dGZpbGUubWFlPic=

> <r_lp_tautomer_probability>
1

> <r_epik_Ionization_Penalty>
0.602608

> <r_epik_Ionization_Penalty_Charging>
0.602531

> <r_epik_Ionization_Penalty_Neutral>
7.74611e-05

> <r_epik_State_Penalty>
0.617039

> <r_epik_Charging_Adjusted_Penalty>
1.21957

> <i_epik_Tot_Q>
1

> <i_epik_Tot_abs_Q>
1

> <r_epik_Metal_State_Penalty>
0.617043

> <b_epik_Metal_Only>
0

> <s_lp_Force_Field>
OPLS_2005

> <r_lp_Energy>
27.5646

> <b_lp_Chiralities_Consistent>
1

> <s_lp_Variant>
AV-unprocessed.smi:1728-2

> <Gold.Version>
5.8.1

> <Gold.Id.Protein>
6NUR|6NUR_protein|mol2

> <Gold.PLP.Fitness>
40.2639

> <Gold.PLP.PLP>
-34.9425

> <Gold.PLP.part.hbond>
-1.0000

> <Gold.PLP.part.metal>
0.0000

> <Gold.PLP.part.buried>
-4.4256

> <Gold.PLP.part.nonpolar>
-31.3993

> <Gold.PLP.part.repulsive>
0.9793

> <Gold.PLP.ligand.clash>
0.0000

> <Gold.PLP.ligand.torsion>
0.4168

> <Gold.PLP.Chemscore.Hbond>
2.0000

> <Gold.PLP.Chemscore.CHOScore>
0.0000

> <Gold.PLP.Chemscore.Metal>
0.0000

> <Gold.Chemscore.Hbonds>
donor molecule, donor type, donor heavy atom, donor atom, acceptor molecule, acceptor atom, score
      L1  H    17    47       P1  7948  1.82

> <Gold.PLP.Chemscore.Internal.Correction>
0.1550

> <Gold.Rescore>
     Score         DG    S(hbond)    S(metal)    S(lipo)     H(rot)  DE(clash)    DE(int)     intcor
     13.22     -15.12       0.98        0.00      92.89       1.76       0.39       1.51       ----

> <Gold.Chemscore.Fitness>
13.2207

> <Gold.Chemscore.DG>
-15.1151

> <Gold.Chemscore.ZeroCoef>
-5.4800

> <Gold.Chemscore.Hbond>
0.9780

> <Gold.Chemscore.Metal>
0.0000

> <Gold.Chemscore.Lipo>
92.8906

> <Gold.Chemscore.Internal_Hbond>
0.0000

> <Gold.Chemscore.DEClash>
0.3886

> <Gold.Chemscore.DEInternal>
1.5058

> <Gold.Chemscore.Rot>
1.7577

> <Gold.Chemscore.Internal.Correction>
   9.000000E+99

> <Gold.Chemscore.Hbonds>
donor molecule, donor type, donor heavy atom, donor atom, acceptor molecule, acceptor atom, score
      L1  H    17    47       P1  7948  0.87

> <Gold.Chemscore.Hbond.Weighted>
-3.2667

> <Gold.Chemscore.Metal.Weighted>
-0.0000

> <Gold.Chemscore.Lipo.Weighted>
-10.8682

> <Gold.Chemscore.Internal_Hbond.Weighted>
0.0000

> <Gold.Chemscore.DEClash.Weighted>
0.3886

> <Gold.Chemscore.DEInternal.Weighted>
1.5058

> <Gold.Chemscore.Rot.Weighted>
4.4997

> <Gold.Chemscore.Internal.Correction.Weighted>
   9.000000E+99

> <Gold.Protein.RotatedTorsions>
[ 6907 6896 6895 6894 ] final -132.23 input  -60.11 | X-H torsion
[ 7974 7965 7964 7962 ] final   98.96 input  175.53 | X-H torsion
[ 8008 7997 7996 7995 ] final  176.81 input   59.86 | X-H torsion
[ 10167 10162 10161 10158 ] final -136.14 input  -65.29 | X-H torsion
[ 10718 10713 10712 10709 ] final   31.09 input   66.30 | X-H torsion
[ 10763 10752 10751 10750 ] final   61.07 input  -60.55 | X-H torsion
[ 11005 11000 10999 10996 ] final -105.87 input  -57.11 | X-H torsion

> <Gold.Protein.ActiveResidues>
 VAL166  LYS551  ARG553  GLY616  TRP617  ASP618  TYR619  PRO620  LYS621  CYS622 
 ASP623  PHE694  ASN695  SER759  ASP760  ASP761  ALA762  ILE779  LEU786  VAL792 
 PHE793  MET794  SER795  GLU796  ALA797  LYS798  CYS799  TRP800  GLU811  SER814 

> <Gold.Protein.RotatedAtoms>
  150.9600  133.6455  159.2755 H   0  0  0  0  0  0  0  0  0  0  0  0  # atno 6907 bound_to 6896
  151.3781  135.0933  159.9497 H   0  0  0  0  0  0  0  0  0  0  0  0  # atno 6908 bound_to 6896
  152.5144  133.9141  159.7557 H   0  0  0  0  0  0  0  0  0  0  0  0  # atno 6909 bound_to 6896
  145.4052  139.2341  143.3278 H   0  0  0  0  0  0  0  0  0  0  0  0  # atno 7974 bound_to 7965
  156.0725  140.1374  156.9812 H   0  0  0  0  0  0  0  0  0  0  0  0  # atno 8008 bound_to 7997
  154.4539  140.0969  156.6752 H   0  0  0  0  0  0  0  0  0  0  0  0  # atno 8009 bound_to 7997
  155.5206  140.3456  155.4408 H   0  0  0  0  0  0  0  0  0  0  0  0  # atno 8010 bound_to 7997
  139.8707  143.6960  152.2640 H   0  0  0  0  0  0  0  0  0  0  0  0  # atno 10167 bound_to 10162
  157.2680  130.7194  149.6489 H   0  0  0  0  0  0  0  0  0  0  0  0  # atno 10718 bound_to 10713
  152.9939  135.5514  154.5975 H   0  0  0  0  0  0  0  0  0  0  0  0  # atno 10763 bound_to 10752
  154.5324  135.2814  155.1171 H   0  0  0  0  0  0  0  0  0  0  0  0  # atno 10764 bound_to 10752
  154.2481  135.6404  153.5283 H   0  0  0  0  0  0  0  0  0  0  0  0  # atno 10765 bound_to 10752
  141.1032  133.8845  157.1787 H   0  0  0  0  0  0  0  0  0  0  0  0  # atno 11005 bound_to 11000
  146.2732  140.4756  142.8806 LP  0  0  0  0  0  0  0  0  0  0  0  0  # atno 17320 bound_to 7965
  144.8346  140.6762  143.6268 LP  0  0  0  0  0  0  0  0  0  0  0  0  # atno 17321 bound_to 7965
  139.7286  144.7587  151.0838 LP  0  0  0  0  0  0  0  0  0  0  0  0  # atno 17342 bound_to 10162
  140.7761  143.5116  150.9645 LP  0  0  0  0  0  0  0  0  0  0  0  0  # atno 17343 bound_to 10162
  155.9663  130.4376  150.5185 LP  0  0  0  0  0  0  0  0  0  0  0  0  # atno 17370 bound_to 10713
  157.3103  131.0662  151.2005 LP  0  0  0  0  0  0  0  0  0  0  0  0  # atno 17371 bound_to 10713
  139.9892  135.0071  156.9935 LP  0  0  0  0  0  0  0  0  0  0  0  0  # atno 17394 bound_to 11000
  140.4968  134.1137  155.7243 LP  0  0  0  0  0  0  0  0  0  0  0  0  # atno 17395 bound_to 11000

$$$$
