AV-unprocessed.smi:121|AV-procd|sdf|1140|dock2
  -GOLD-   2262018273D 1   1.00000     0.00000
 Structure written by MMmdl.
 37 39  0  0  0  0  0  0  0  0  1 V2000
  147.1261  137.2647  160.1236 N   0  0  0  0  0  0  0  0  0  0  0  0
  147.8624  137.0216  159.2648 C   0  0  0  0  0  0  0  0  0  0  0  0
  148.7874  136.7166  158.1861 C   0  0  0  0  0  0  0  0  0  0  0  0
  148.6628  135.5097  157.4688 C   0  0  0  0  0  0  0  0  0  0  0  0
  149.5631  135.2151  156.4272 C   0  0  0  0  0  0  0  0  0  0  0  0
  150.5859  136.1258  156.1001 C   0  0  0  0  0  0  0  0  0  0  0  0
  150.7136  137.3398  156.8069 C   0  0  0  0  0  0  0  0  0  0  0  0
  151.8298  138.3077  156.4291 C   0  0  0  0  0  0  0  0  0  0  0  0
  151.5093  139.7201  156.5688 N   0  0  0  0  0  0  0  0  0  0  0  0
  150.6483  140.2830  155.5949 C   0  0  0  0  0  0  0  0  0  0  0  0
  150.1907  139.6164  154.6647 O   0  0  0  0  0  0  0  0  0  0  0  0
  150.3513  141.6972  155.7920 C   0  0  0  0  0  0  0  0  0  0  0  0
  149.5631  142.3398  154.9136 F   0  0  0  0  0  0  0  0  0  0  0  0
  150.8587  142.3756  156.8434 C   0  0  0  0  0  0  0  0  0  0  0  0
  151.6772  141.7922  157.7956 N   0  0  0  0  0  0  0  0  0  0  0  0
  152.2165  142.5975  158.9562 C   0  0  1  0  0  0  0  0  0  0  0  0
  152.7794  143.9341  158.4590 C   0  0  0  0  0  0  0  0  0  0  0  0
  151.6269  144.8800  158.7200 C   0  0  0  0  0  0  0  0  0  0  0  0
  151.0241  144.2862  159.9872 C   0  0  0  0  0  0  0  0  0  0  0  0
  151.1680  142.8771  159.8389 O   0  0  0  0  0  0  0  0  0  0  0  0
  152.0369  140.4318  157.6737 C   0  0  0  0  0  0  0  0  0  0  0  0
  152.7745  139.8966  158.5045 O   0  0  0  0  0  0  0  0  0  0  0  0
  149.8117  137.6278  157.8565 C   0  0  0  0  0  0  0  0  0  0  0  0
  147.8806  134.8052  157.7131 H   0  0  0  0  0  0  0  0  0  0  0  0
  149.4690  134.2899  155.8781 H   0  0  0  0  0  0  0  0  0  0  0  0
  151.2709  135.8902  155.2987 H   0  0  0  0  0  0  0  0  0  0  0  0
  152.7227  138.0873  157.0144 H   0  0  0  0  0  0  0  0  0  0  0  0
  152.1387  138.1617  155.3920 H   0  0  0  0  0  0  0  0  0  0  0  0
  150.6081  143.4221  156.9338 H   0  0  0  0  0  0  0  0  0  0  0  0
  152.9527  141.9693  159.4592 H   0  0  0  0  0  0  0  0  0  0  0  0
  153.6383  144.2007  159.0760 H   0  0  0  0  0  0  0  0  0  0  0  0
  153.0932  143.8917  157.4151 H   0  0  0  0  0  0  0  0  0  0  0  0
  151.9425  145.9164  158.8434 H   0  0  0  0  0  0  0  0  0  0  0  0
  150.9081  144.8361  157.9007 H   0  0  0  0  0  0  0  0  0  0  0  0
  151.5890  144.6070  160.8636 H   0  0  0  0  0  0  0  0  0  0  0  0
  149.9812  144.5695  160.1311 H   0  0  0  0  0  0  0  0  0  0  0  0
  149.9031  138.5485  158.4141 H   0  0  0  0  0  0  0  0  0  0  0  0
  1  2  3  0  0  0  0
  2  3  1  0  0  0  0
  3 23  1  0  0  0  0
  3  4  2  0  0  0  0
  4  5  1  0  0  0  0
  4 24  1  0  0  0  0
  5  6  2  0  0  0  0
  5 25  1  0  0  0  0
  6  7  1  0  0  0  0
  6 26  1  0  0  0  0
  7  8  1  0  0  0  0
  7 23  2  0  0  0  0
  8  9  1  0  0  0  0
  8 27  1  0  0  0  0
  8 28  1  0  0  0  0
  9 21  1  0  0  0  0
  9 10  1  0  0  0  0
 10 11  2  0  0  0  0
 10 12  1  0  0  0  0
 12 13  1  0  0  0  0
 12 14  2  0  0  0  0
 14 15  1  0  0  0  0
 14 29  1  0  0  0  0
 15 16  1  0  0  0  0
 15 21  1  0  0  0  0
 16 20  1  0  0  0  0
 16 17  1  0  0  0  0
 16 30  1  0  0  0  0
 17 18  1  0  0  0  0
 17 31  1  0  0  0  0
 17 32  1  0  0  0  0
 18 19  1  0  0  0  0
 18 33  1  0  0  0  0
 18 34  1  0  0  0  0
 19 20  1  0  0  0  0
 19 35  1  0  0  0  0
 19 36  1  0  0  0  0
 21 22  2  0  0  0  0
 23 37  1  0  0  0  0
M  END
> <s_m_source_file>
AV-unprocessed.smi

> <i_m_source_file_index>
121

> <i_lp_mmshare_version>
43012

> <i_f3d_flags>
0

> <s_epik_input>
TiNDYzFbY0hdW2NIXVtjSF1jKFtjSF0xKVtDSDJdbjJjKD1PKWMoRilbY0hdbihjMj1PKVtDQEBIXTNbQ0gyXVtDSDJdW0NIMl1PMw==

> <s_epik_cmdline>
J2VwaWtfcHl0aG9uJywgJy1waCcsICc3LjAnLCAnLXRuJywgJzgnLCAnLW1hJywgJzIwMCcsICctbWV0YWxfYmluZGluZycsICctaW1hZScsICc8aW5maWxlLm1hZT4nLCAnLW9tYWUnLCAnPG91dGZpbGUubWFlPic=

> <r_lp_tautomer_probability>
1

> <r_epik_Ionization_Penalty>
1.69864e-08

> <r_epik_Ionization_Penalty_Charging>
1.69802e-08

> <r_epik_Ionization_Penalty_Neutral>
6.20402e-12

> <r_epik_State_Penalty>
-0

> <r_epik_Charging_Adjusted_Penalty>
1.69802e-08

> <i_epik_Tot_Q>
0

> <i_epik_Tot_abs_Q>
0

> <r_epik_Metal_State_Penalty>
-0

> <b_epik_Metal_Only>
0

> <s_epik_Chemistry_Notes>
This compound contains an acetal/aminal-like group ( X-CH(R)-Y where X, Y are N, S, or O) that may be acid/base labile, releasing an aldehyde.

> <s_lp_Force_Field>
OPLS_2005

> <r_lp_Energy>
33.8546

> <b_lp_Chiralities_Consistent>
1

> <s_lp_Variant>
AV-unprocessed.smi:121-2

> <Gold.Version>
5.8.1

> <Gold.Id.Protein>
6NUR|6NUR_protein|mol2

> <Gold.PLP.Fitness>
48.0168

> <Gold.PLP.PLP>
-38.5331

> <Gold.PLP.part.hbond>
-3.1851

> <Gold.PLP.part.metal>
0.0000

> <Gold.PLP.part.buried>
-2.3051

> <Gold.PLP.part.nonpolar>
-34.1043

> <Gold.PLP.part.repulsive>
0.0941

> <Gold.PLP.ligand.clash>
0.0000

> <Gold.PLP.ligand.torsion>
0.7930

> <Gold.PLP.Chemscore.Hbond>
2.6868

> <Gold.PLP.Chemscore.CHOScore>
1.0000

> <Gold.PLP.Chemscore.Metal>
0.0000

> <Gold.Chemscore.Hbonds>
donor molecule, donor type, donor heavy atom, donor atom, acceptor molecule, acceptor atom, score
      P1  H  6934  6947       L1     1  1.00
      P1  H  7989  7998       L1    11  0.05
      P1  H  7997  8008       L1    22  0.12
      L1  C    14    29       P1  8028  0.98

> <Gold.PLP.Chemscore.Internal.Correction>
0.0095

> <Gold.Rescore>
     Score         DG    S(hbond)    S(metal)    S(lipo)     H(rot)  DE(clash)    DE(int)     intcor
     15.19     -16.84       1.88        0.00      78.23       1.59       0.87       0.78       ----

> <Gold.Chemscore.Fitness>
15.1898

> <Gold.Chemscore.DG>
-16.8414

> <Gold.Chemscore.ZeroCoef>
-5.4800

> <Gold.Chemscore.Hbond>
1.8786

> <Gold.Chemscore.Metal>
0.0000

> <Gold.Chemscore.Lipo>
78.2271

> <Gold.Chemscore.Internal_Hbond>
0.0000

> <Gold.Chemscore.DEClash>
0.8674

> <Gold.Chemscore.DEInternal>
0.7842

> <Gold.Chemscore.Rot>
1.5882

> <Gold.Chemscore.Internal.Correction>
   9.000000E+99

> <Gold.Chemscore.Hbonds>
donor molecule, donor type, donor heavy atom, donor atom, acceptor molecule, acceptor atom, score
      P1  H  6934  6947       L1     1  0.94
      P1  H  7997  8008       L1    22  0.01

> <Gold.Chemscore.Hbond.Weighted>
-6.2746

> <Gold.Chemscore.Metal.Weighted>
-0.0000

> <Gold.Chemscore.Lipo.Weighted>
-9.1526

> <Gold.Chemscore.Internal_Hbond.Weighted>
0.0000

> <Gold.Chemscore.DEClash.Weighted>
0.8674

> <Gold.Chemscore.DEInternal.Weighted>
0.7842

> <Gold.Chemscore.Rot.Weighted>
4.0657

> <Gold.Chemscore.Internal.Correction.Weighted>
   9.000000E+99

> <Gold.Protein.RotatedTorsions>
[ 6907 6896 6895 6894 ] final   44.58 input  -60.11 | X-H torsion
[ 7974 7965 7964 7962 ] final -112.54 input  175.53 | X-H torsion
[ 8008 7997 7996 7995 ] final  -92.56 input   59.86 | X-H torsion
[ 10167 10162 10161 10158 ] final -142.53 input  -65.29 | X-H torsion
[ 10718 10713 10712 10709 ] final   54.68 input   66.30 | X-H torsion
[ 10763 10752 10751 10750 ] final  -32.63 input  -60.55 | X-H torsion
[ 11005 11000 10999 10996 ] final   30.77 input  -57.11 | X-H torsion

> <Gold.Protein.ActiveResidues>
 VAL166  LYS551  ARG553  GLY616  TRP617  ASP618  TYR619  PRO620  LYS621  CYS622 
 ASP623  PHE694  ASN695  SER759  ASP760  ASP761  ALA762  ILE779  LEU786  VAL792 
 PHE793  MET794  SER795  GLU796  ALA797  LYS798  CYS799  TRP800  GLU811  SER814 

> <Gold.Protein.RotatedAtoms>
  152.2342  134.8292  160.0469 H   0  0  0  0  0  0  0  0  0  0  0  0  # atno 6907 bound_to 6896
  151.9029  133.3537  159.3845 H   0  0  0  0  0  0  0  0  0  0  0  0  # atno 6908 bound_to 6896
  150.7034  134.4735  159.5481 H   0  0  0  0  0  0  0  0  0  0  0  0  # atno 6909 bound_to 6896
  145.1428  140.8787  143.3692 H   0  0  0  0  0  0  0  0  0  0  0  0  # atno 7974 bound_to 7965
  154.7247  140.0507  157.0671 H   0  0  0  0  0  0  0  0  0  0  0  0  # atno 8008 bound_to 7997
  155.0381  140.3165  155.4715 H   0  0  0  0  0  0  0  0  0  0  0  0  # atno 8009 bound_to 7997
  156.2826  140.2138  156.5504 H   0  0  0  0  0  0  0  0  0  0  0  0  # atno 8010 bound_to 7997
  139.8079  143.7743  152.2662 H   0  0  0  0  0  0  0  0  0  0  0  0  # atno 10167 bound_to 10162
  157.5279  130.8610  149.8646 H   0  0  0  0  0  0  0  0  0  0  0  0  # atno 10718 bound_to 10713
  153.8170  135.6877  153.4832 H   0  0  0  0  0  0  0  0  0  0  0  0  # atno 10763 bound_to 10752
  153.1593  135.4586  154.9747 H   0  0  0  0  0  0  0  0  0  0  0  0  # atno 10764 bound_to 10752
  154.7943  135.3313  154.7646 H   0  0  0  0  0  0  0  0  0  0  0  0  # atno 10765 bound_to 10752
  140.2909  134.2865  155.7776 H   0  0  0  0  0  0  0  0  0  0  0  0  # atno 11005 bound_to 11000
  145.0514  139.3178  143.5926 LP  0  0  0  0  0  0  0  0  0  0  0  0  # atno 17320 bound_to 7965
  146.3503  139.9924  142.8684 LP  0  0  0  0  0  0  0  0  0  0  0  0  # atno 17321 bound_to 7965
  139.7883  144.7420  150.9991 LP  0  0  0  0  0  0  0  0  0  0  0  0  # atno 17342 bound_to 10162
  140.7818  143.4469  151.0469 LP  0  0  0  0  0  0  0  0  0  0  0  0  # atno 17343 bound_to 10162
  156.0400  130.3741  150.1459 LP  0  0  0  0  0  0  0  0  0  0  0  0  # atno 17370 bound_to 10713
  156.9645  130.9815  151.3472 LP  0  0  0  0  0  0  0  0  0  0  0  0  # atno 17371 bound_to 10713
  141.2146  133.7585  156.9623 LP  0  0  0  0  0  0  0  0  0  0  0  0  # atno 17394 bound_to 11000
  140.1196  134.9425  157.2184 LP  0  0  0  0  0  0  0  0  0  0  0  0  # atno 17395 bound_to 11000

$$$$
