AV-unprocessed.smi:308|AV-procd|sdf|2289|dock8
  -GOLD-   2262022193D 1   1.00000     0.00000
 Structure written by MMmdl.
 50 51  0  0  0  0  0  0  0  0  4 V2000
  145.9956  132.8171  151.4120 C   0  0  0  0  0  0  0  0  0  0  0  0
  146.7087  133.2560  152.6988 C   0  0  2  0  0  0  0  0  0  0  0  0
  146.2684  134.6618  153.1415 C   0  0  0  0  0  0  0  0  0  0  0  0
  147.0119  135.1049  154.4121 C   0  0  0  0  0  0  0  0  0  0  0  0
  148.4855  135.0621  154.2097 N   0  3  1  0  0  0  0  0  0  0  0  0
  149.2631  135.6378  155.3400 C   0  0  0  0  0  0  0  0  0  0  0  0
  150.6809  136.0677  154.9066 C   0  0  0  0  0  0  0  0  0  0  0  0
  151.6412  135.8417  155.9909 N   0  5  0  0  0  0  0  0  0  0  0  0
  151.9825  136.7606  156.9341 C   0  0  0  0  0  0  0  0  0  0  0  0
  152.4707  136.5470  158.0492 O   0  0  0  0  0  0  0  0  0  0  0  0
  151.7179  138.0167  156.5325 N   0  0  0  0  0  0  0  0  0  0  0  0
  151.9182  139.2455  157.2183 C   0  0  0  0  0  0  0  0  0  0  0  0
  151.4229  140.4192  156.6146 C   0  0  0  0  0  0  0  0  0  0  0  0
  151.6103  141.6660  157.2447 C   0  0  0  0  0  0  0  0  0  0  0  0
  152.3045  141.7350  158.4775 C   0  0  0  0  0  0  0  0  0  0  0  0
  152.5318  142.9444  159.1694 N   0  0  0  0  0  0  0  0  0  0  0  0
  152.2989  144.2171  158.4961 C   0  0  0  0  0  0  0  0  0  0  0  0
  153.1199  142.9157  160.5021 C   0  0  0  0  0  0  0  0  0  0  0  0
  152.7761  140.5814  159.0111 N   0  3  0  0  0  0  0  0  0  0  0  0
  152.6179  139.3669  158.4420 C   0  0  0  0  0  0  0  0  0  0  0  0
  148.9457  133.7047  153.8201 C   0  0  0  0  0  0  0  0  0  0  0  0
  148.2387  133.2282  152.5400 C   0  0  0  0  0  0  0  0  0  0  0  0
  146.2333  133.4802  150.5795 H   0  0  0  0  0  0  0  0  0  0  0  0
  144.9128  132.8216  151.5420 H   0  0  0  0  0  0  0  0  0  0  0  0
  146.2883  131.8064  151.1263 H   0  0  0  0  0  0  0  0  0  0  0  0
  146.4355  132.5515  153.4859 H   0  0  0  0  0  0  0  0  0  0  0  0
  146.4574  135.3797  152.3419 H   0  0  0  0  0  0  0  0  0  0  0  0
  145.1930  134.6772  153.3224 H   0  0  0  0  0  0  0  0  0  0  0  0
  146.7001  136.1161  154.6752 H   0  0  0  0  0  0  0  0  0  0  0  0
  146.7394  134.4621  155.2506 H   0  0  0  0  0  0  0  0  0  0  0  0
  148.7267  136.4833  155.7729 H   0  0  0  0  0  0  0  0  0  0  0  0
  149.3559  134.9085  156.1464 H   0  0  0  0  0  0  0  0  0  0  0  0
  150.9600  135.5021  154.0175 H   0  0  0  0  0  0  0  0  0  0  0  0
  150.6565  137.1104  154.5887 H   0  0  0  0  0  0  0  0  0  0  0  0
  151.2460  138.0896  155.6430 H   0  0  0  0  0  0  0  0  0  0  0  0
  150.8949  140.3673  155.6734 H   0  0  0  0  0  0  0  0  0  0  0  0
  151.2167  142.5509  156.7680 H   0  0  0  0  0  0  0  0  0  0  0  0
  151.2597  144.2977  158.1760 H   0  0  0  0  0  0  0  0  0  0  0  0
  152.9409  144.3091  157.6197 H   0  0  0  0  0  0  0  0  0  0  0  0
  152.5096  145.0591  159.1556 H   0  0  0  0  0  0  0  0  0  0  0  0
  154.1061  142.4509  160.4760 H   0  0  0  0  0  0  0  0  0  0  0  0
  152.4865  142.3532  161.1886 H   0  0  0  0  0  0  0  0  0  0  0  0
  153.2345  143.9212  160.9070 H   0  0  0  0  0  0  0  0  0  0  0  0
  153.0690  138.5499  158.9849 H   0  0  0  0  0  0  0  0  0  0  0  0
  150.0228  133.7193  153.6464 H   0  0  0  0  0  0  0  0  0  0  0  0
  148.7629  133.0071  154.6389 H   0  0  0  0  0  0  0  0  0  0  0  0
  148.5713  132.2197  152.2921 H   0  0  0  0  0  0  0  0  0  0  0  0
  148.5358  133.8650  151.7053 H   0  0  0  0  0  0  0  0  0  0  0  0
  148.6933  135.6608  153.4221 H   0  0  0  0  0  0  0  0  0  0  0  0
  153.2835  140.6318  159.8944 H   0  0  0  0  0  0  0  0  0  0  0  0
  1  2  1  0  0  0  0
  1 23  1  0  0  0  0
  1 24  1  0  0  0  0
  1 25  1  0  0  0  0
  2 22  1  0  0  0  0
  2  3  1  0  0  0  0
  2 26  1  0  0  0  0
  3  4  1  0  0  0  0
  3 27  1  0  0  0  0
  3 28  1  0  0  0  0
  4  5  1  0  0  0  0
  4 29  1  0  0  0  0
  4 30  1  0  0  0  0
  5  6  1  0  0  0  0
  5 21  1  0  0  0  0
  5 49  1  0  0  0  0
  6  7  1  0  0  0  0
  6 31  1  0  0  0  0
  6 32  1  0  0  0  0
  7  8  1  0  0  0  0
  7 33  1  0  0  0  0
  7 34  1  0  0  0  0
  8  9  1  0  0  0  0
  9 10  2  0  0  0  0
  9 11  1  0  0  0  0
 11 12  1  0  0  0  0
 11 35  1  0  0  0  0
 12 20  1  0  0  0  0
 12 13  2  0  0  0  0
 13 14  1  0  0  0  0
 13 36  1  0  0  0  0
 14 15  2  0  0  0  0
 14 37  1  0  0  0  0
 15 16  1  0  0  0  0
 15 19  1  0  0  0  0
 16 17  1  0  0  0  0
 16 18  1  0  0  0  0
 17 38  1  0  0  0  0
 17 39  1  0  0  0  0
 17 40  1  0  0  0  0
 18 41  1  0  0  0  0
 18 42  1  0  0  0  0
 18 43  1  0  0  0  0
 19 20  2  0  0  0  0
 19 50  1  0  0  0  0
 20 44  1  0  0  0  0
 21 22  1  0  0  0  0
 21 45  1  0  0  0  0
 21 46  1  0  0  0  0
 22 47  1  0  0  0  0
 22 48  1  0  0  0  0
M  CHG  1   5   1
M  CHG  1   8  -1
M  CHG  1  19   1
M  END
> <s_m_source_file>
AV-unprocessed.smi

> <i_m_source_file_index>
308

> <i_lp_mmshare_version>
43012

> <i_f3d_flags>
0

> <s_epik_input>
W0NIM11bQ0hdMVtDSDJdW0NIMl1OKFtDSDJdW0NIMl0xKVtDSDJdW0NIMl1bTkhdQyg9TylbTkhdYzJbY0hdW2NIXWMoTihbQ0gzXSlbQ0gzXSluW2NIXTI=

> <s_epik_cmdline>
J2VwaWtfcHl0aG9uJywgJy1waCcsICc3LjAnLCAnLXRuJywgJzgnLCAnLW1hJywgJzIwMCcsICctbWV0YWxfYmluZGluZycsICctaW1hZScsICc8aW5maWxlLm1hZT4nLCAnLW9tYWUnLCAnPG91dGZpbGUubWFlPic=

> <r_lp_tautomer_probability>
0.999994

> <r_epik_Ionization_Penalty>
7.42107

> <r_epik_Ionization_Penalty_Charging>
7.42107

> <r_epik_Ionization_Penalty_Neutral>
3.68925e-06

> <r_epik_State_Penalty>
7.0982

> <r_epik_Charging_Adjusted_Penalty>
14.5193

> <i_epik_Tot_Q>
1

> <i_epik_Tot_abs_Q>
3

> <r_epik_Metal_State_Penalty>
3.28646

> <b_epik_Metal_Only>
1

> <s_lp_Force_Field>
OPLS_2005

> <r_lp_Energy>
19.707

> <b_lp_Chiralities_Consistent>
1

> <s_lp_Variant>
AV-unprocessed.smi:308-5

> <Gold.Version>
5.8.1

> <Gold.Id.Protein>
6NUR|6NUR_protein|mol2

> <Gold.PLP.Fitness>
50.0228

> <Gold.PLP.PLP>
-39.0946

> <Gold.PLP.part.hbond>
-3.0000

> <Gold.PLP.part.metal>
0.0000

> <Gold.PLP.part.buried>
-4.1265

> <Gold.PLP.part.nonpolar>
-31.9430

> <Gold.PLP.part.repulsive>
0.2026

> <Gold.PLP.ligand.clash>
0.2983

> <Gold.PLP.ligand.torsion>
0.7348

> <Gold.PLP.Chemscore.Hbond>
4.1895

> <Gold.PLP.Chemscore.CHOScore>
0.0000

> <Gold.PLP.Chemscore.Metal>
0.0000

> <Gold.Chemscore.Hbonds>
donor molecule, donor type, donor heavy atom, donor atom, acceptor molecule, acceptor atom, score
      L1  H     5    49       P1  7948  2.00
      P1  H 10752 10764       L1     8  1.89

> <Gold.PLP.Chemscore.Internal.Correction>
0.1275

> <Gold.Rescore>
     Score         DG    S(hbond)    S(metal)    S(lipo)     H(rot)  DE(clash)    DE(int)     intcor
     15.21     -17.11       1.39        0.00      90.90       1.42       0.03       1.87       ----

> <Gold.Chemscore.Fitness>
15.2078

> <Gold.Chemscore.DG>
-17.1085

> <Gold.Chemscore.ZeroCoef>
-5.4800

> <Gold.Chemscore.Hbond>
1.3888

> <Gold.Chemscore.Metal>
0.0000

> <Gold.Chemscore.Lipo>
90.9008

> <Gold.Chemscore.Internal_Hbond>
0.0000

> <Gold.Chemscore.DEClash>
0.0317

> <Gold.Chemscore.DEInternal>
1.8690

> <Gold.Chemscore.Rot>
1.4241

> <Gold.Chemscore.Internal.Correction>
   9.000000E+99

> <Gold.Chemscore.Hbonds>
donor molecule, donor type, donor heavy atom, donor atom, acceptor molecule, acceptor atom, score
      L1  H     5    49       P1  7948  0.97
      P1  H 10752 10764       L1     8  0.21

> <Gold.Chemscore.Hbond.Weighted>
-4.6387

> <Gold.Chemscore.Metal.Weighted>
-0.0000

> <Gold.Chemscore.Lipo.Weighted>
-10.6354

> <Gold.Chemscore.Internal_Hbond.Weighted>
0.0000

> <Gold.Chemscore.DEClash.Weighted>
0.0317

> <Gold.Chemscore.DEInternal.Weighted>
1.8690

> <Gold.Chemscore.Rot.Weighted>
3.6456

> <Gold.Chemscore.Internal.Correction.Weighted>
   9.000000E+99

> <Gold.Protein.RotatedTorsions>
[ 6907 6896 6895 6894 ] final  110.87 input  -60.11 | X-H torsion
[ 7974 7965 7964 7962 ] final  -12.65 input  175.53 | X-H torsion
[ 8008 7997 7996 7995 ] final   40.45 input   59.86 | X-H torsion
[ 10167 10162 10161 10158 ] final   99.55 input  -65.29 | X-H torsion
[ 10718 10713 10712 10709 ] final -156.34 input   66.30 | X-H torsion
[ 10763 10752 10751 10750 ] final  -13.65 input  -60.55 | X-H torsion
[ 11005 11000 10999 10996 ] final  170.63 input  -57.11 | X-H torsion

> <Gold.Protein.ActiveResidues>
 VAL166  LYS551  ARG553  GLY616  TRP617  ASP618  TYR619  PRO620  LYS621  CYS622 
 ASP623  PHE694  ASN695  SER759  ASP760  ASP761  ALA762  ILE779  LEU786  VAL792 
 PHE793  MET794  SER795  GLU796  ALA797  LYS798  CYS799  TRP800  GLU811  SER814 

> <Gold.Protein.RotatedAtoms>
  152.4998  133.8738  159.7311 H   0  0  0  0  0  0  0  0  0  0  0  0  # atno 6907 bound_to 6896
  150.9218  133.6862  159.2837 H   0  0  0  0  0  0  0  0  0  0  0  0  # atno 6908 bound_to 6896
  151.4237  135.1005  159.9674 H   0  0  0  0  0  0  0  0  0  0  0  0  # atno 6909 bound_to 6896
  146.2144  140.3088  142.8381 H   0  0  0  0  0  0  0  0  0  0  0  0  # atno 7974 bound_to 7965
  155.2533  140.3354  155.4280 H   0  0  0  0  0  0  0  0  0  0  0  0  # atno 8008 bound_to 7997
  156.2206  140.1807  156.7529 H   0  0  0  0  0  0  0  0  0  0  0  0  # atno 8009 bound_to 7997
  154.5820  140.0652  156.9102 H   0  0  0  0  0  0  0  0  0  0  0  0  # atno 8010 bound_to 7997
  139.7608  144.6955  151.0296 H   0  0  0  0  0  0  0  0  0  0  0  0  # atno 10167 bound_to 10162
  156.5252  130.8496  151.2696 H   0  0  0  0  0  0  0  0  0  0  0  0  # atno 10718 bound_to 10713
  153.5164  135.7016  153.5754 H   0  0  0  0  0  0  0  0  0  0  0  0  # atno 10763 bound_to 10752
  153.3821  135.3917  155.1864 H   0  0  0  0  0  0  0  0  0  0  0  0  # atno 10764 bound_to 10752
  154.8698  135.3838  154.4649 H   0  0  0  0  0  0  0  0  0  0  0  0  # atno 10765 bound_to 10752
  140.3104  134.7522  157.3986 H   0  0  0  0  0  0  0  0  0  0  0  0  # atno 11005 bound_to 11000
  144.9003  140.7634  143.5871 LP  0  0  0  0  0  0  0  0  0  0  0  0  # atno 17320 bound_to 7965
  145.3014  139.1849  143.4687 LP  0  0  0  0  0  0  0  0  0  0  0  0  # atno 17321 bound_to 7965
  140.7807  143.4700  151.0160 LP  0  0  0  0  0  0  0  0  0  0  0  0  # atno 17342 bound_to 10162
  139.8386  143.7594  152.3180 LP  0  0  0  0  0  0  0  0  0  0  0  0  # atno 17343 bound_to 10162
  157.7430  130.9903  150.2562 LP  0  0  0  0  0  0  0  0  0  0  0  0  # atno 17370 bound_to 10713
  156.3111  130.3772  149.7660 LP  0  0  0  0  0  0  0  0  0  0  0  0  # atno 17371 bound_to 10713
  140.1030  134.5447  155.8335 LP  0  0  0  0  0  0  0  0  0  0  0  0  # atno 17394 bound_to 11000
  141.2109  133.6700  156.6545 LP  0  0  0  0  0  0  0  0  0  0  0  0  # atno 17395 bound_to 11000

$$$$
