AV-unprocessed.smi:906|AV-procd|sdf|4103|dock2
  -GOLD-   22720 1593D 1   1.00000     0.00000
 Structure written by MMmdl.
 48 49  0  0  0  0  0  0  0  0  2 V2000
  151.9430  145.4012  158.9495 C   0  0  0  0  0  0  0  0  0  0  0  0
  151.7811  143.9379  158.5965 C   0  0  0  0  0  0  0  0  0  0  0  0
  152.4373  142.9142  159.3131 C   0  0  0  0  0  0  0  0  0  0  0  0
  152.2395  141.5707  158.9318 C   0  0  0  0  0  0  0  0  0  0  0  0
  151.3895  141.2781  157.8429 C   0  0  0  0  0  0  0  0  0  0  0  0
  151.1512  139.8451  157.4099 C   0  0  0  0  0  0  0  0  0  0  0  0
  151.1487  138.8733  158.6013 C   0  0  0  0  0  0  0  0  0  0  0  0
  149.9006  138.1235  158.6793 N   0  0  0  0  0  0  0  0  0  0  0  0
  149.7968  136.7852  158.6076 C   0  0  0  0  0  0  0  0  0  0  0  0
  150.7846  136.0601  158.4809 O   0  0  0  0  0  0  0  0  0  0  0  0
  148.5331  136.3064  158.7223 N   0  0  0  0  0  0  0  0  0  0  0  0
  148.0993  134.9120  158.5541 C   0  0  0  0  0  0  0  0  0  0  0  0
  147.7122  134.3450  159.9334 C   0  0  0  0  0  0  0  0  0  0  0  0
  146.6389  135.1499  160.5299 N   0  0  0  0  0  0  0  0  0  0  0  0
  146.1270  134.5430  161.7706 C   0  0  1  0  0  0  0  0  0  0  0  0
  147.0667  134.7148  162.9843 C   0  0  0  0  0  0  0  0  0  0  0  0
  144.6792  134.9933  162.0798 C   0  0  0  0  0  0  0  0  0  0  0  0
  143.8995  134.8072  161.0140 F   0  0  0  0  0  0  0  0  0  0  0  0
  144.1971  134.2519  163.0770 F   0  0  0  0  0  0  0  0  0  0  0  0
  144.6154  136.2733  162.4459 F   0  0  0  0  0  0  0  0  0  0  0  0
  147.0408  136.5588  160.6443 C   0  0  0  0  0  0  0  0  0  0  0  0
  147.4315  137.1096  159.2594 C   0  0  0  0  0  0  0  0  0  0  0  0
  150.7583  142.3428  157.1646 C   0  0  0  0  0  0  0  0  0  0  0  0
  150.9738  143.6163  157.5607 N   0  3  0  0  0  0  0  0  0  0  0  0
  152.8659  145.5665  159.5061 H   0  0  0  0  0  0  0  0  0  0  0  0
  151.1068  145.7359  159.5640 H   0  0  0  0  0  0  0  0  0  0  0  0
  151.9769  146.0153  158.0490 H   0  0  0  0  0  0  0  0  0  0  0  0
  153.0845  143.1527  160.1447 H   0  0  0  0  0  0  0  0  0  0  0  0
  152.7337  140.7759  159.4716 H   0  0  0  0  0  0  0  0  0  0  0  0
  150.2007  139.7954  156.8771 H   0  0  0  0  0  0  0  0  0  0  0  0
  151.9201  139.5557  156.6921 H   0  0  0  0  0  0  0  0  0  0  0  0
  151.9676  138.1601  158.5029 H   0  0  0  0  0  0  0  0  0  0  0  0
  151.3170  139.4117  159.5358 H   0  0  0  0  0  0  0  0  0  0  0  0
  149.0513  138.6575  158.7939 H   0  0  0  0  0  0  0  0  0  0  0  0
  147.2403  134.8814  157.8816 H   0  0  0  0  0  0  0  0  0  0  0  0
  148.8492  134.2681  158.0954 H   0  0  0  0  0  0  0  0  0  0  0  0
  147.3781  133.3135  159.8169 H   0  0  0  0  0  0  0  0  0  0  0  0
  148.5868  134.3292  160.5841 H   0  0  0  0  0  0  0  0  0  0  0  0
  146.0576  133.4728  161.5710 H   0  0  0  0  0  0  0  0  0  0  0  0
  146.6936  134.1498  163.8385 H   0  0  0  0  0  0  0  0  0  0  0  0
  147.1415  135.7556  163.2990 H   0  0  0  0  0  0  0  0  0  0  0  0
  148.0732  134.3517  162.7803 H   0  0  0  0  0  0  0  0  0  0  0  0
  146.2245  137.1596  161.0401 H   0  0  0  0  0  0  0  0  0  0  0  0
  147.8825  136.6625  161.3299 H   0  0  0  0  0  0  0  0  0  0  0  0
  147.6841  138.1674  159.3425 H   0  0  0  0  0  0  0  0  0  0  0  0
  146.5798  137.0621  158.5788 H   0  0  0  0  0  0  0  0  0  0  0  0
  150.0909  142.2152  156.3245 H   0  0  0  0  0  0  0  0  0  0  0  0
  150.5060  144.3691  157.0553 H   0  0  0  0  0  0  0  0  0  0  0  0
  1  2  1  0  0  0  0
  1 25  1  0  0  0  0
  1 26  1  0  0  0  0
  1 27  1  0  0  0  0
  2 24  1  0  0  0  0
  2  3  2  0  0  0  0
  3  4  1  0  0  0  0
  3 28  1  0  0  0  0
  4  5  2  0  0  0  0
  4 29  1  0  0  0  0
  5  6  1  0  0  0  0
  5 23  1  0  0  0  0
  6  7  1  0  0  0  0
  6 30  1  0  0  0  0
  6 31  1  0  0  0  0
  7  8  1  0  0  0  0
  7 32  1  0  0  0  0
  7 33  1  0  0  0  0
  8  9  1  0  0  0  0
  8 34  1  0  0  0  0
  9 10  2  0  0  0  0
  9 11  1  0  0  0  0
 11 22  1  0  0  0  0
 11 12  1  0  0  0  0
 12 13  1  0  0  0  0
 12 35  1  0  0  0  0
 12 36  1  0  0  0  0
 13 14  1  0  0  0  0
 13 37  1  0  0  0  0
 13 38  1  0  0  0  0
 14 15  1  0  0  0  0
 14 21  1  0  0  0  0
 15 16  1  0  0  0  0
 15 17  1  0  0  0  0
 15 39  1  0  0  0  0
 16 40  1  0  0  0  0
 16 41  1  0  0  0  0
 16 42  1  0  0  0  0
 17 18  1  0  0  0  0
 17 19  1  0  0  0  0
 17 20  1  0  0  0  0
 21 22  1  0  0  0  0
 21 43  1  0  0  0  0
 21 44  1  0  0  0  0
 22 45  1  0  0  0  0
 22 46  1  0  0  0  0
 23 24  2  0  0  0  0
 23 47  1  0  0  0  0
 24 48  1  0  0  0  0
M  CHG  1  24   1
M  END
> <s_m_source_file>
AV-unprocessed.smi

> <i_m_source_file_index>
906

> <i_lp_mmshare_version>
43012

> <i_f3d_flags>
0

> <s_epik_input>
W0NIM11jMVtjSF1bY0hdYyhbY0hdbjEpW0NIMl1bQ0gyXVtOSF1DKD1PKU4yW0NIMl1bQ0gyXU4oW0NASF0oW0NIM10pQyhGKShGKUYpW0NIMl1bQ0gyXTI=

> <s_epik_cmdline>
J2VwaWtfcHl0aG9uJywgJy1waCcsICc3LjAnLCAnLXRuJywgJzgnLCAnLW1hJywgJzIwMCcsICctbWV0YWxfYmluZGluZycsICctaW1hZScsICc8aW5maWxlLm1hZT4nLCAnLW9tYWUnLCAnPG91dGZpbGUubWFlPic=

> <r_epik_Ionization_Penalty>
1.4413

> <r_epik_Ionization_Penalty_Charging>
1.42075

> <r_epik_Ionization_Penalty_Neutral>
0.0205507

> <r_epik_State_Penalty>
1.52216

> <r_epik_Charging_Adjusted_Penalty>
2.94291

> <i_epik_Tot_Q>
1

> <i_epik_Tot_abs_Q>
1

> <r_epik_Metal_State_Penalty>
1.57308

> <b_epik_Metal_Only>
0

> <s_lp_Force_Field>
OPLS_2005

> <r_lp_Energy>
53.1846

> <b_lp_Chiralities_Consistent>
1

> <s_lp_Variant>
AV-unprocessed.smi:906-4

> <Gold.Version>
5.8.1

> <Gold.Id.Protein>
6NUR|6NUR_protein|mol2

> <Gold.PLP.Fitness>
48.0193

> <Gold.PLP.PLP>
-43.1472

> <Gold.PLP.part.hbond>
-2.0000

> <Gold.PLP.part.metal>
0.0000

> <Gold.PLP.part.buried>
-6.5435

> <Gold.PLP.part.nonpolar>
-35.8548

> <Gold.PLP.part.repulsive>
0.1443

> <Gold.PLP.ligand.clash>
0.6702

> <Gold.PLP.ligand.torsion>
1.1484

> <Gold.PLP.Chemscore.Hbond>
2.3840

> <Gold.PLP.Chemscore.CHOScore>
0.0000

> <Gold.PLP.Chemscore.Metal>
0.0000

> <Gold.Chemscore.Hbonds>
donor molecule, donor type, donor heavy atom, donor atom, acceptor molecule, acceptor atom, score
      L1  H    24    48       P1  8028  1.26
      P1  H  6896  6907       L1    10  0.70

> <Gold.PLP.Chemscore.Internal.Correction>
0.6871

> <Gold.Rescore>
     Score         DG    S(hbond)    S(metal)    S(lipo)     H(rot)  DE(clash)    DE(int)     intcor
     16.51     -18.48       1.69        0.00      99.09       1.66       0.03       1.93       ----

> <Gold.Chemscore.Fitness>
16.5143

> <Gold.Chemscore.DG>
-18.4791

> <Gold.Chemscore.ZeroCoef>
-5.4800

> <Gold.Chemscore.Hbond>
1.6897

> <Gold.Chemscore.Metal>
0.0000

> <Gold.Chemscore.Lipo>
99.0850

> <Gold.Chemscore.Internal_Hbond>
0.0000

> <Gold.Chemscore.DEClash>
0.0321

> <Gold.Chemscore.DEInternal>
1.9326

> <Gold.Chemscore.Rot>
1.6553

> <Gold.Chemscore.Internal.Correction>
   9.000000E+99

> <Gold.Chemscore.Hbonds>
donor molecule, donor type, donor heavy atom, donor atom, acceptor molecule, acceptor atom, score
      L1  H    24    48       P1  8028  0.54
      P1  H  6896  6907       L1    10  0.60

> <Gold.Chemscore.Hbond.Weighted>
-5.6437

> <Gold.Chemscore.Metal.Weighted>
-0.0000

> <Gold.Chemscore.Lipo.Weighted>
-11.5929

> <Gold.Chemscore.Internal_Hbond.Weighted>
0.0000

> <Gold.Chemscore.DEClash.Weighted>
0.0321

> <Gold.Chemscore.DEInternal.Weighted>
1.9326

> <Gold.Chemscore.Rot.Weighted>
4.2376

> <Gold.Chemscore.Internal.Correction.Weighted>
   9.000000E+99

> <Gold.Protein.RotatedTorsions>
[ 6907 6896 6895 6894 ] final  -50.18 input  -60.11 | X-H torsion
[ 7974 7965 7964 7962 ] final  131.57 input  175.53 | X-H torsion
[ 8008 7997 7996 7995 ] final   31.91 input   59.86 | X-H torsion
[ 10167 10162 10161 10158 ] final  111.10 input  -65.29 | X-H torsion
[ 10718 10713 10712 10709 ] final  -74.36 input   66.30 | X-H torsion
[ 10763 10752 10751 10750 ] final  119.80 input  -60.55 | X-H torsion
[ 11005 11000 10999 10996 ] final  -72.47 input  -57.11 | X-H torsion

> <Gold.Protein.ActiveResidues>
 VAL166  LYS551  ARG553  GLY616  TRP617  ASP618  TYR619  PRO620  LYS621  CYS622 
 ASP623  PHE694  ASN695  SER759  ASP760  ASP761  ALA762  ILE779  LEU786  VAL792 
 PHE793  MET794  SER795  GLU796  ALA797  LYS798  CYS799  TRP800  GLU811  SER814 

> <Gold.Protein.RotatedAtoms>
  150.8732  134.8110  159.7169 H   0  0  0  0  0  0  0  0  0  0  0  0  # atno 6907 bound_to 6896
  152.4729  134.4914  159.9706 H   0  0  0  0  0  0  0  0  0  0  0  0  # atno 6908 bound_to 6896
  151.4999  133.3468  159.2903 H   0  0  0  0  0  0  0  0  0  0  0  0  # atno 6909 bound_to 6896
  145.0059  139.4267  143.5269 H   0  0  0  0  0  0  0  0  0  0  0  0  # atno 7974 bound_to 7965
  155.1140  140.3242  155.4514 H   0  0  0  0  0  0  0  0  0  0  0  0  # atno 8008 bound_to 7997
  156.2682  140.2039  156.6212 H   0  0  0  0  0  0  0  0  0  0  0  0  # atno 8009 bound_to 7997
  154.6734  140.0534  157.0176 H   0  0  0  0  0  0  0  0  0  0  0  0  # atno 8010 bound_to 7997
  139.6637  144.7128  151.1817 H   0  0  0  0  0  0  0  0  0  0  0  0  # atno 10167 bound_to 10162
  156.0245  130.4415  150.2881 H   0  0  0  0  0  0  0  0  0  0  0  0  # atno 10718 bound_to 10713
  153.5886  135.3470  155.2902 H   0  0  0  0  0  0  0  0  0  0  0  0  # atno 10763 bound_to 10752
  154.8656  135.4199  154.2541 H   0  0  0  0  0  0  0  0  0  0  0  0  # atno 10764 bound_to 10752
  153.3343  135.7046  153.6992 H   0  0  0  0  0  0  0  0  0  0  0  0  # atno 10765 bound_to 10752
  141.1609  133.6848  156.7064 H   0  0  0  0  0  0  0  0  0  0  0  0  # atno 11005 bound_to 11000
  146.3461  139.9474  142.8733 LP  0  0  0  0  0  0  0  0  0  0  0  0  # atno 17320 bound_to 7965
  145.2089  140.9887  143.4112 LP  0  0  0  0  0  0  0  0  0  0  0  0  # atno 17321 bound_to 7965
  140.7590  143.5953  150.8754 LP  0  0  0  0  0  0  0  0  0  0  0  0  # atno 17342 bound_to 10162
  139.9613  143.6160  152.3001 LP  0  0  0  0  0  0  0  0  0  0  0  0  # atno 17343 bound_to 10162
  157.0985  131.0189  151.3095 LP  0  0  0  0  0  0  0  0  0  0  0  0  # atno 17370 bound_to 10713
  157.4799  130.7758  149.7404 LP  0  0  0  0  0  0  0  0  0  0  0  0  # atno 17371 bound_to 10713
  140.2920  134.8233  157.4024 LP  0  0  0  0  0  0  0  0  0  0  0  0  # atno 17394 bound_to 11000
  140.1338  134.5060  155.8084 LP  0  0  0  0  0  0  0  0  0  0  0  0  # atno 17395 bound_to 11000

$$$$
