AV-unprocessed.smi:2177|AV-procd|sdf|8850|dock4
  -GOLD-   2272012 43D 1   1.00000     0.00000
 Structure written by MMmdl.
 42 43  0  0  0  0  0  0  0  0  1 V2000
  152.3447  145.6326  159.2844 C   0  0  0  0  0  0  0  0  0  0  0  0
  152.6427  144.3465  160.0004 C   0  0  0  0  0  0  0  0  0  0  0  0
  152.8219  144.3575  161.3109 N   0  0  0  0  0  0  0  0  0  0  0  0
  153.0796  143.0744  161.6339 N   0  0  0  0  0  0  0  0  0  0  0  0
  153.3353  142.7298  163.0190 C   0  0  0  0  0  0  0  0  0  0  0  0
  153.0531  142.2492  160.5263 C   0  0  0  0  0  0  0  0  0  0  0  0
  153.3122  140.7797  160.6216 C   0  0  0  0  0  0  0  0  0  0  0  0
  152.7745  143.0409  159.4435 C   0  0  0  0  0  0  0  0  0  0  0  0
  152.6468  142.6512  157.9916 C   0  0  0  0  0  0  0  0  0  0  0  0
  151.6470  141.5028  157.8597 C   0  0  0  0  0  0  0  0  0  0  0  0
  150.8918  141.2300  158.7922 O   0  0  0  0  0  0  0  0  0  0  0  0
  151.6464  140.8521  156.6867 N   0  0  0  0  0  0  0  0  0  0  0  0
  150.7089  139.8080  156.2889 C   0  0  2  0  0  0  0  0  0  0  0  0
  151.4562  138.4750  156.1165 C   0  0  0  0  0  0  0  0  0  0  0  0
  149.9989  140.2549  154.9973 C   0  0  1  0  0  0  0  0  0  0  0  0
  148.8708  139.3346  154.5301 C   0  0  0  0  0  0  0  0  0  0  0  0
  147.9691  140.2549  153.7212 C   0  0  0  0  0  0  0  0  0  0  0  0
  148.4293  141.6639  154.1052 C   0  0  0  0  0  0  0  0  0  0  0  0
  149.3101  141.4790  155.2037 O   0  0  0  0  0  0  0  0  0  0  0  0
  153.0201  145.7732  158.4403 H   0  0  0  0  0  0  0  0  0  0  0  0
  152.4535  146.4967  159.9407 H   0  0  0  0  0  0  0  0  0  0  0  0
  151.3257  145.6352  158.8977 H   0  0  0  0  0  0  0  0  0  0  0  0
  152.4518  142.2544  163.4451 H   0  0  0  0  0  0  0  0  0  0  0  0
  153.5729  143.6228  163.5988 H   0  0  0  0  0  0  0  0  0  0  0  0
  154.1773  142.0400  163.0801 H   0  0  0  0  0  0  0  0  0  0  0  0
  153.0359  140.2687  159.6997 H   0  0  0  0  0  0  0  0  0  0  0  0
  152.7374  140.3331  161.4330 H   0  0  0  0  0  0  0  0  0  0  0  0
  154.3689  140.5869  160.8072 H   0  0  0  0  0  0  0  0  0  0  0  0
  152.3153  143.4887  157.3768 H   0  0  0  0  0  0  0  0  0  0  0  0
  153.6063  142.3373  157.5789 H   0  0  0  0  0  0  0  0  0  0  0  0
  152.3068  141.1536  155.9852 H   0  0  0  0  0  0  0  0  0  0  0  0
  149.9559  139.6893  157.0705 H   0  0  0  0  0  0  0  0  0  0  0  0
  150.7725  137.6686  155.8513 H   0  0  0  0  0  0  0  0  0  0  0  0
  151.9582  138.1822  157.0393 H   0  0  0  0  0  0  0  0  0  0  0  0
  152.2123  138.5418  155.3333 H   0  0  0  0  0  0  0  0  0  0  0  0
  150.7235  140.3928  154.1919 H   0  0  0  0  0  0  0  0  0  0  0  0
  149.2335  138.4842  153.9520 H   0  0  0  0  0  0  0  0  0  0  0  0
  148.3193  138.9473  155.3879 H   0  0  0  0  0  0  0  0  0  0  0  0
  148.0880  140.0915  152.6496 H   0  0  0  0  0  0  0  0  0  0  0  0
  146.9207  140.0905  153.9718 H   0  0  0  0  0  0  0  0  0  0  0  0
  148.9759  142.1269  153.2825 H   0  0  0  0  0  0  0  0  0  0  0  0
  147.5996  142.3178  154.3739 H   0  0  0  0  0  0  0  0  0  0  0  0
  1  2  1  0  0  0  0
  1 20  1  0  0  0  0
  1 21  1  0  0  0  0
  1 22  1  0  0  0  0
  2  8  1  0  0  0  0
  2  3  2  0  0  0  0
  3  4  1  0  0  0  0
  4  5  1  0  0  0  0
  4  6  1  0  0  0  0
  5 23  1  0  0  0  0
  5 24  1  0  0  0  0
  5 25  1  0  0  0  0
  6  7  1  0  0  0  0
  6  8  2  0  0  0  0
  7 26  1  0  0  0  0
  7 27  1  0  0  0  0
  7 28  1  0  0  0  0
  8  9  1  0  0  0  0
  9 10  1  0  0  0  0
  9 29  1  0  0  0  0
  9 30  1  0  0  0  0
 10 11  2  0  0  0  0
 10 12  1  0  0  0  0
 12 13  1  0  0  0  0
 12 31  1  0  0  0  0
 13 14  1  0  0  0  0
 13 15  1  0  0  0  0
 13 32  1  0  0  0  0
 14 33  1  0  0  0  0
 14 34  1  0  0  0  0
 14 35  1  0  0  0  0
 15 19  1  0  0  0  0
 15 16  1  0  0  0  0
 15 36  1  0  0  0  0
 16 17  1  0  0  0  0
 16 37  1  0  0  0  0
 16 38  1  0  0  0  0
 17 18  1  0  0  0  0
 17 39  1  0  0  0  0
 17 40  1  0  0  0  0
 18 19  1  0  0  0  0
 18 41  1  0  0  0  0
 18 42  1  0  0  0  0
M  END
> <s_m_source_file>
AV-unprocessed.smi

> <i_m_source_file_index>
2177

> <i_lp_mmshare_version>
43012

> <i_f3d_flags>
0

> <s_epik_input>
W0NIM11jMW5uKFtDSDNdKWMoW0NIM10pYzFbQ0gyXUMoPU8pW05IXVtDQEhdKFtDSDNdKVtDQEBIXTJbQ0gyXVtDSDJdW0NIMl1PMg==

> <s_epik_cmdline>
J2VwaWtfcHl0aG9uJywgJy1waCcsICc3LjAnLCAnLXRuJywgJzgnLCAnLW1hJywgJzIwMCcsICctbWV0YWxfYmluZGluZycsICctaW1hZScsICc8aW5maWxlLm1hZT4nLCAnLW9tYWUnLCAnPG91dGZpbGUubWFlPic=

> <r_lp_tautomer_probability>
1

> <r_epik_Ionization_Penalty>
0.00310467

> <r_epik_Ionization_Penalty_Charging>
0

> <r_epik_Ionization_Penalty_Neutral>
0.00310467

> <r_epik_State_Penalty>
0.00218493

> <r_epik_Charging_Adjusted_Penalty>
0.00218493

> <i_epik_Tot_Q>
0

> <i_epik_Tot_abs_Q>
0

> <r_epik_Metal_State_Penalty>
-0

> <b_epik_Metal_Only>
0

> <s_lp_Force_Field>
OPLS_2005

> <r_lp_Energy>
12.0116

> <b_lp_Chiralities_Consistent>
1

> <s_lp_Variant>
AV-unprocessed.smi:2177-3

> <Gold.Version>
5.8.1

> <Gold.Id.Protein>
6NUR|6NUR_protein|mol2

> <Gold.PLP.Fitness>
45.3962

> <Gold.PLP.PLP>
-45.8944

> <Gold.PLP.part.hbond>
0.0000

> <Gold.PLP.part.metal>
0.0000

> <Gold.PLP.part.buried>
-1.2182

> <Gold.PLP.part.nonpolar>
-44.5862

> <Gold.PLP.part.repulsive>
0.4397

> <Gold.PLP.ligand.clash>
0.0000

> <Gold.PLP.ligand.torsion>
0.2670

> <Gold.PLP.Chemscore.Hbond>
0.0000

> <Gold.PLP.Chemscore.CHOScore>
0.0000

> <Gold.PLP.Chemscore.Metal>
0.0000

> <Gold.PLP.Chemscore.Internal.Correction>
0.0358

> <Gold.Rescore>
     Score         DG    S(hbond)    S(metal)    S(lipo)     H(rot)  DE(clash)    DE(int)     intcor
     14.43     -14.72       0.00        0.00     110.95       1.46       0.08       0.20       ----

> <Gold.Chemscore.Fitness>
14.4329

> <Gold.Chemscore.DG>
-14.7167

> <Gold.Chemscore.ZeroCoef>
-5.4800

> <Gold.Chemscore.Hbond>
0.0000

> <Gold.Chemscore.Metal>
0.0000

> <Gold.Chemscore.Lipo>
110.9498

> <Gold.Chemscore.Internal_Hbond>
0.0000

> <Gold.Chemscore.DEClash>
0.0801

> <Gold.Chemscore.DEInternal>
0.2037

> <Gold.Chemscore.Rot>
1.4627

> <Gold.Chemscore.Internal.Correction>
   9.000000E+99

> <Gold.Chemscore.Hbond.Weighted>
-0.0000

> <Gold.Chemscore.Metal.Weighted>
-0.0000

> <Gold.Chemscore.Lipo.Weighted>
-12.9811

> <Gold.Chemscore.Internal_Hbond.Weighted>
0.0000

> <Gold.Chemscore.DEClash.Weighted>
0.0801

> <Gold.Chemscore.DEInternal.Weighted>
0.2037

> <Gold.Chemscore.Rot.Weighted>
3.7445

> <Gold.Chemscore.Internal.Correction.Weighted>
   9.000000E+99

> <Gold.Protein.RotatedTorsions>
[ 6907 6896 6895 6894 ] final  116.01 input  -60.11 | X-H torsion
[ 7974 7965 7964 7962 ] final   99.25 input  175.53 | X-H torsion
[ 8008 7997 7996 7995 ] final  -20.48 input   59.86 | X-H torsion
[ 10167 10162 10161 10158 ] final  -61.22 input  -65.29 | X-H torsion
[ 10718 10713 10712 10709 ] final  123.67 input   66.30 | X-H torsion
[ 10763 10752 10751 10750 ] final -138.71 input  -60.55 | X-H torsion
[ 11005 11000 10999 10996 ] final  -97.63 input  -57.11 | X-H torsion

> <Gold.Protein.ActiveResidues>
 VAL166  LYS551  ARG553  GLY616  TRP617  ASP618  TYR619  PRO620  LYS621  CYS622 
 ASP623  PHE694  ASN695  SER759  ASP760  ASP761  ALA762  ILE779  LEU786  VAL792 
 PHE793  MET794  SER795  GLU796  ALA797  LYS798  CYS799  TRP800  GLU811  SER814 

> <Gold.Protein.RotatedAtoms>
  152.4705  133.8020  159.6957 H   0  0  0  0  0  0  0  0  0  0  0  0  # atno 6907 bound_to 6896
  150.8692  133.7520  159.2973 H   0  0  0  0  0  0  0  0  0  0  0  0  # atno 6908 bound_to 6896
  151.5061  135.1067  159.9893 H   0  0  0  0  0  0  0  0  0  0  0  0  # atno 6909 bound_to 6896
  145.4014  139.2347  143.3298 H   0  0  0  0  0  0  0  0  0  0  0  0  # atno 7974 bound_to 7965
  154.4767  140.2060  155.9861 H   0  0  0  0  0  0  0  0  0  0  0  0  # atno 8008 bound_to 7997
  156.1100  140.3230  155.8030 H   0  0  0  0  0  0  0  0  0  0  0  0  # atno 8009 bound_to 7997
  155.4651  140.0527  157.2977 H   0  0  0  0  0  0  0  0  0  0  0  0  # atno 8010 bound_to 7997
  140.6020  143.2364  151.5907 H   0  0  0  0  0  0  0  0  0  0  0  0  # atno 10167 bound_to 10162
  157.5646  131.1087  150.8477 H   0  0  0  0  0  0  0  0  0  0  0  0  # atno 10718 bound_to 10713
  154.8629  135.3604  154.5429 H   0  0  0  0  0  0  0  0  0  0  0  0  # atno 10763 bound_to 10752
  153.6050  135.7011  153.5374 H   0  0  0  0  0  0  0  0  0  0  0  0  # atno 10764 bound_to 10752
  153.3258  135.4138  155.1415 H   0  0  0  0  0  0  0  0  0  0  0  0  # atno 10765 bound_to 10752
  141.1372  133.8185  157.0731 H   0  0  0  0  0  0  0  0  0  0  0  0  # atno 11005 bound_to 11000
  146.2750  140.4712  142.8799 LP  0  0  0  0  0  0  0  0  0  0  0  0  # atno 17320 bound_to 7965
  144.8371  140.6799  143.6253 LP  0  0  0  0  0  0  0  0  0  0  0  0  # atno 17321 bound_to 7965
  139.5298  144.2951  152.1120 LP  0  0  0  0  0  0  0  0  0  0  0  0  # atno 17342 bound_to 10162
  140.2133  144.4540  150.6375 LP  0  0  0  0  0  0  0  0  0  0  0  0  # atno 17343 bound_to 10162
  156.8965  130.5231  149.5284 LP  0  0  0  0  0  0  0  0  0  0  0  0  # atno 17370 bound_to 10713
  156.0695  130.5731  150.9356 LP  0  0  0  0  0  0  0  0  0  0  0  0  # atno 17371 bound_to 10713
  140.0499  134.9811  157.1116 LP  0  0  0  0  0  0  0  0  0  0  0  0  # atno 17394 bound_to 11000
  140.4006  134.2086  155.7163 LP  0  0  0  0  0  0  0  0  0  0  0  0  # atno 17395 bound_to 11000

$$$$
