AV-unprocessed.smi:1993|AV-procd|sdf|8070|dock2
  -GOLD-   2272010273D 1   1.00000     0.00000
 Structure written by MMmdl.
 50 51  0  0  0  0  0  0  0  0  1 V2000
  146.4401  138.6488  152.2473 C   0  0  0  0  0  0  0  0  0  0  0  0
  145.8579  137.3664  152.8325 C   0  0  0  0  0  0  0  0  0  0  0  0
  144.7904  137.4007  153.4436 O   0  0  0  0  0  0  0  0  0  0  0  0
  146.5672  136.2424  152.6419 N   0  0  0  0  0  0  0  0  0  0  0  0
  146.1954  134.9124  153.1277 C   0  0  2  0  0  0  0  0  0  0  0  0
  147.2454  134.4632  154.1607 C   0  0  0  0  0  0  0  0  0  0  0  0
  146.9087  133.8162  155.1540 O   0  0  0  0  0  0  0  0  0  0  0  0
  148.5119  134.8326  153.9184 N   0  0  0  0  0  0  0  0  0  0  0  0
  149.6450  134.5624  154.7940 C   0  0  0  0  0  0  0  0  0  0  0  0
  149.4116  135.0471  156.2191 C   0  0  0  0  0  0  0  0  0  0  0  0
  148.8321  134.1740  157.1639 C   0  0  0  0  0  0  0  0  0  0  0  0
  148.6170  134.6293  158.4773 C   0  0  0  0  0  0  0  0  0  0  0  0
  148.9918  135.9475  158.7960 C   0  0  0  0  0  0  0  0  0  0  0  0
  149.5442  136.7949  157.9034 N   0  0  0  0  0  0  0  0  0  0  0  0
  149.7530  136.3595  156.6371 C   0  0  0  0  0  0  0  0  0  0  0  0
  150.3107  137.2699  155.7243 N   0  0  0  0  0  0  0  0  0  0  0  0
  151.6945  137.6480  155.9845 C   0  0  0  0  0  0  0  0  0  0  0  0
  152.2245  138.5098  154.8254 C   0  0  0  0  0  0  0  0  0  0  0  0
  151.3781  139.6426  154.6470 O   0  0  0  0  0  0  0  0  0  0  0  0
  150.0396  139.2690  154.3309 C   0  0  0  0  0  0  0  0  0  0  0  0
  149.4562  138.4227  155.4749 C   0  0  0  0  0  0  0  0  0  0  0  0
  146.1726  133.9240  151.9239 C   0  0  0  0  0  0  0  0  0  0  0  0
  145.2820  134.4375  150.7753 C   0  0  0  0  0  0  0  0  0  0  0  0
  145.7157  132.5036  152.3166 C   0  0  0  0  0  0  0  0  0  0  0  0
  146.7857  139.3030  153.0478 H   0  0  0  0  0  0  0  0  0  0  0  0
  145.6806  139.1803  151.6734 H   0  0  0  0  0  0  0  0  0  0  0  0
  147.2822  138.4414  151.5859 H   0  0  0  0  0  0  0  0  0  0  0  0
  147.4377  136.3117  152.1351 H   0  0  0  0  0  0  0  0  0  0  0  0
  145.2052  134.9474  153.5875 H   0  0  0  0  0  0  0  0  0  0  0  0
  148.7012  135.3553  153.0756 H   0  0  0  0  0  0  0  0  0  0  0  0
  149.8759  133.4957  154.7940 H   0  0  0  0  0  0  0  0  0  0  0  0
  150.5259  135.0562  154.3830 H   0  0  0  0  0  0  0  0  0  0  0  0
  148.5525  133.1683  156.8864 H   0  0  0  0  0  0  0  0  0  0  0  0
  148.1751  133.9839  159.2219 H   0  0  0  0  0  0  0  0  0  0  0  0
  148.8426  136.3326  159.7938 H   0  0  0  0  0  0  0  0  0  0  0  0
  151.7586  138.2084  156.9183 H   0  0  0  0  0  0  0  0  0  0  0  0
  152.3069  136.7529  156.0994 H   0  0  0  0  0  0  0  0  0  0  0  0
  153.2363  138.8520  155.0428 H   0  0  0  0  0  0  0  0  0  0  0  0
  152.2744  137.9313  153.9015 H   0  0  0  0  0  0  0  0  0  0  0  0
  149.4423  140.1694  154.1871 H   0  0  0  0  0  0  0  0  0  0  0  0
  150.0172  138.7171  153.3898 H   0  0  0  0  0  0  0  0  0  0  0  0
  148.4499  138.0936  155.2201 H   0  0  0  0  0  0  0  0  0  0  0  0
  149.3784  139.0226  156.3829 H   0  0  0  0  0  0  0  0  0  0  0  0
  147.1854  133.8380  151.5258 H   0  0  0  0  0  0  0  0  0  0  0  0
  144.2537  134.5825  151.1082 H   0  0  0  0  0  0  0  0  0  0  0  0
  145.2646  133.7296  149.9459 H   0  0  0  0  0  0  0  0  0  0  0  0
  145.6385  135.3861  150.3736 H   0  0  0  0  0  0  0  0  0  0  0  0
  144.7107  132.5176  152.7384 H   0  0  0  0  0  0  0  0  0  0  0  0
  146.3798  132.0406  153.0467 H   0  0  0  0  0  0  0  0  0  0  0  0
  145.6973  131.8452  151.4477 H   0  0  0  0  0  0  0  0  0  0  0  0
  1  2  1  0  0  0  0
  1 25  1  0  0  0  0
  1 26  1  0  0  0  0
  1 27  1  0  0  0  0
  2  3  2  0  0  0  0
  2  4  1  0  0  0  0
  4  5  1  0  0  0  0
  4 28  1  0  0  0  0
  5  6  1  0  0  0  0
  5 22  1  0  0  0  0
  5 29  1  0  0  0  0
  6  7  2  0  0  0  0
  6  8  1  0  0  0  0
  8  9  1  0  0  0  0
  8 30  1  0  0  0  0
  9 10  1  0  0  0  0
  9 31  1  0  0  0  0
  9 32  1  0  0  0  0
 10 15  1  0  0  0  0
 10 11  2  0  0  0  0
 11 12  1  0  0  0  0
 11 33  1  0  0  0  0
 12 13  2  0  0  0  0
 12 34  1  0  0  0  0
 13 14  1  0  0  0  0
 13 35  1  0  0  0  0
 14 15  2  0  0  0  0
 15 16  1  0  0  0  0
 16 21  1  0  0  0  0
 16 17  1  0  0  0  0
 17 18  1  0  0  0  0
 17 36  1  0  0  0  0
 17 37  1  0  0  0  0
 18 19  1  0  0  0  0
 18 38  1  0  0  0  0
 18 39  1  0  0  0  0
 19 20  1  0  0  0  0
 20 21  1  0  0  0  0
 20 40  1  0  0  0  0
 20 41  1  0  0  0  0
 21 42  1  0  0  0  0
 21 43  1  0  0  0  0
 22 23  1  0  0  0  0
 22 24  1  0  0  0  0
 22 44  1  0  0  0  0
 23 45  1  0  0  0  0
 23 46  1  0  0  0  0
 23 47  1  0  0  0  0
 24 48  1  0  0  0  0
 24 49  1  0  0  0  0
 24 50  1  0  0  0  0
M  END
> <s_m_source_file>
AV-unprocessed.smi

> <i_m_source_file_index>
1993

> <i_lp_mmshare_version>
43012

> <i_f3d_flags>
0

> <s_epik_input>
W0NIM11DKD1PKVtOSF1bQ0BASF0oW0NIXShbQ0gzXSlbQ0gzXSlDKD1PKVtOSF1bQ0gyXWMxW2NIXVtjSF1bY0hdbmMxTjJbQ0gyXVtDSDJdT1tDSDJdW0NIMl0y

> <s_epik_cmdline>
J2VwaWtfcHl0aG9uJywgJy1waCcsICc3LjAnLCAnLXRuJywgJzgnLCAnLW1hJywgJzIwMCcsICctbWV0YWxfYmluZGluZycsICctaW1hZScsICc8aW5maWxlLm1hZT4nLCAnLW9tYWUnLCAnPG91dGZpbGUubWFlPic=

> <r_lp_tautomer_probability>
1

> <r_epik_Ionization_Penalty>
0.00485175

> <r_epik_Ionization_Penalty_Charging>
0

> <r_epik_Ionization_Penalty_Neutral>
0.00485175

> <r_epik_State_Penalty>
0.00351951

> <r_epik_Charging_Adjusted_Penalty>
0.00351951

> <i_epik_Tot_Q>
0

> <i_epik_Tot_abs_Q>
0

> <r_epik_Metal_State_Penalty>
-0

> <b_epik_Metal_Only>
0

> <s_lp_Force_Field>
OPLS_2005

> <r_lp_Energy>
19.1581

> <b_lp_Chiralities_Consistent>
1

> <s_lp_Variant>
AV-unprocessed.smi:1993-1

> <Gold.Version>
5.8.1

> <Gold.Id.Protein>
6NUR|6NUR_protein|mol2

> <Gold.PLP.Fitness>
35.9674

> <Gold.PLP.PLP>
-29.0997

> <Gold.PLP.part.hbond>
-2.9549

> <Gold.PLP.part.metal>
0.0000

> <Gold.PLP.part.buried>
-5.9369

> <Gold.PLP.part.nonpolar>
-22.1332

> <Gold.PLP.part.repulsive>
0.3706

> <Gold.PLP.ligand.clash>
0.0000

> <Gold.PLP.ligand.torsion>
1.1810

> <Gold.PLP.Chemscore.Hbond>
3.0000

> <Gold.PLP.Chemscore.CHOScore>
0.0000

> <Gold.PLP.Chemscore.Metal>
0.0000

> <Gold.Chemscore.Hbonds>
donor molecule, donor type, donor heavy atom, donor atom, acceptor molecule, acceptor atom, score
      L1  H     4    28       P1  7948  0.99
      L1  H     8    30       P1  7948  0.89
      P1  H  7989  7998       L1    19  1.00

> <Gold.PLP.Chemscore.Internal.Correction>
0.2297

> <Gold.Rescore>
     Score         DG    S(hbond)    S(metal)    S(lipo)     H(rot)  DE(clash)    DE(int)     intcor
     15.87     -17.13       2.85        0.00      65.88       2.18       0.08       1.17       ----

> <Gold.Chemscore.Fitness>
15.8674

> <Gold.Chemscore.DG>
-17.1252

> <Gold.Chemscore.ZeroCoef>
-5.4800

> <Gold.Chemscore.Hbond>
2.8506

> <Gold.Chemscore.Metal>
0.0000

> <Gold.Chemscore.Lipo>
65.8847

> <Gold.Chemscore.Internal_Hbond>
0.0000

> <Gold.Chemscore.DEClash>
0.0839

> <Gold.Chemscore.DEInternal>
1.1740

> <Gold.Chemscore.Rot>
2.1813

> <Gold.Chemscore.Internal.Correction>
   9.000000E+99

> <Gold.Chemscore.Hbonds>
donor molecule, donor type, donor heavy atom, donor atom, acceptor molecule, acceptor atom, score
      L1  H     4    28       P1  7948  0.92
      L1  H     8    30       P1  7948  0.68
      P1  H  7989  7998       L1    19  0.30

> <Gold.Chemscore.Hbond.Weighted>
-9.5209

> <Gold.Chemscore.Metal.Weighted>
-0.0000

> <Gold.Chemscore.Lipo.Weighted>
-7.7085

> <Gold.Chemscore.Internal_Hbond.Weighted>
0.0000

> <Gold.Chemscore.DEClash.Weighted>
0.0839

> <Gold.Chemscore.DEInternal.Weighted>
1.1740

> <Gold.Chemscore.Rot.Weighted>
5.5842

> <Gold.Chemscore.Internal.Correction.Weighted>
   9.000000E+99

> <Gold.Protein.RotatedTorsions>
[ 6907 6896 6895 6894 ] final   84.96 input  -60.11 | X-H torsion
[ 7974 7965 7964 7962 ] final  116.92 input  175.53 | X-H torsion
[ 8008 7997 7996 7995 ] final  166.53 input   59.86 | X-H torsion
[ 10167 10162 10161 10158 ] final    8.87 input  -65.29 | X-H torsion
[ 10718 10713 10712 10709 ] final   39.16 input   66.30 | X-H torsion
[ 10763 10752 10751 10750 ] final  118.55 input  -60.55 | X-H torsion
[ 11005 11000 10999 10996 ] final   25.06 input  -57.11 | X-H torsion

> <Gold.Protein.ActiveResidues>
 VAL166  LYS551  ARG553  GLY616  TRP617  ASP618  TYR619  PRO620  LYS621  CYS622 
 ASP623  PHE694  ASN695  SER759  ASP760  ASP761  ALA762  ILE779  LEU786  VAL792 
 PHE793  MET794  SER795  GLU796  ALA797  LYS798  CYS799  TRP800  GLU811  SER814 

> <Gold.Protein.RotatedAtoms>
  152.5364  134.2661  159.8953 H   0  0  0  0  0  0  0  0  0  0  0  0  # atno 6907 bound_to 6896
  151.2619  133.4291  159.2624 H   0  0  0  0  0  0  0  0  0  0  0  0  # atno 6908 bound_to 6896
  151.0445  134.9645  159.8236 H   0  0  0  0  0  0  0  0  0  0  0  0  # atno 6909 bound_to 6896
  145.1737  139.3088  143.4454 H   0  0  0  0  0  0  0  0  0  0  0  0  # atno 7974 bound_to 7965
  156.1710  140.1641  156.8447 H   0  0  0  0  0  0  0  0  0  0  0  0  # atno 8008 bound_to 7997
  154.5257  140.0768  156.8288 H   0  0  0  0  0  0  0  0  0  0  0  0  # atno 8009 bound_to 7997
  155.3512  140.3390  155.4241 H   0  0  0  0  0  0  0  0  0  0  0  0  # atno 8010 bound_to 7997
  140.6289  143.8039  150.7269 H   0  0  0  0  0  0  0  0  0  0  0  0  # atno 10167 bound_to 10162
  157.3673  130.7682  149.7092 H   0  0  0  0  0  0  0  0  0  0  0  0  # atno 10718 bound_to 10713
  153.5694  135.3505  155.2831 H   0  0  0  0  0  0  0  0  0  0  0  0  # atno 10763 bound_to 10752
  154.8684  135.4155  154.2742 H   0  0  0  0  0  0  0  0  0  0  0  0  # atno 10764 bound_to 10752
  153.3505  135.7055  153.6862 H   0  0  0  0  0  0  0  0  0  0  0  0  # atno 10765 bound_to 10752
  140.3519  134.2220  155.7679 H   0  0  0  0  0  0  0  0  0  0  0  0  # atno 11005 bound_to 11000
  146.3464  140.1891  142.8589 LP  0  0  0  0  0  0  0  0  0  0  0  0  # atno 17320 bound_to 7965
  145.0207  140.8791  143.5168 LP  0  0  0  0  0  0  0  0  0  0  0  0  # atno 17321 bound_to 7965
  140.1646  143.4246  152.2043 LP  0  0  0  0  0  0  0  0  0  0  0  0  # atno 17342 bound_to 10162
  139.5505  144.7334  151.4449 LP  0  0  0  0  0  0  0  0  0  0  0  0  # atno 17343 bound_to 10162
  155.9748  130.4097  150.3893 LP  0  0  0  0  0  0  0  0  0  0  0  0  # atno 17370 bound_to 10713
  157.1978  131.0431  151.2666 LP  0  0  0  0  0  0  0  0  0  0  0  0  # atno 17371 bound_to 10713
  141.2009  133.7974  157.0464 LP  0  0  0  0  0  0  0  0  0  0  0  0  # atno 17394 bound_to 11000
  140.0696  134.9709  157.1445 LP  0  0  0  0  0  0  0  0  0  0  0  0  # atno 17395 bound_to 11000

$$$$
