AV-unprocessed.smi:2976|AV-procd|sdf|11366|dock1
  -GOLD-   2272016283D 1   1.00000     0.00000
 Structure written by MMmdl.
 40 41  0  0  0  0  0  0  0  0  1 V2000
  152.9276  142.8867  163.3500 C   0  0  0  0  0  0  0  0  0  0  0  0
  152.5910  142.5487  161.8867 C   0  0  1  0  0  0  0  0  0  0  0  0
  152.0955  143.8170  161.1609 C   0  0  0  0  0  0  0  0  0  0  0  0
  151.7341  143.5427  159.6954 C   0  0  0  0  0  0  0  0  0  0  0  0
  152.9233  142.9278  158.9437 C   0  0  0  0  0  0  0  0  0  0  0  0
  153.4332  141.6477  159.6340 C   0  0  2  0  0  0  0  0  0  0  0  0
  152.4487  140.5748  159.5185 N   0  0  0  0  0  0  0  0  0  0  0  0
  152.6485  139.3559  158.9909 C   0  0  0  0  0  0  0  0  0  0  0  0
  153.7278  138.9984  158.5215 O   0  0  0  0  0  0  0  0  0  0  0  0
  151.4598  138.3781  158.9797 C   0  0  0  0  0  0  0  0  0  0  0  0
  150.3284  138.8015  158.1363 N   0  0  0  0  0  0  0  0  0  0  0  0
  150.4877  140.0537  157.5681 N   0  0  0  0  0  0  0  0  0  0  0  0
  149.5401  140.5495  156.8496 C   0  0  0  0  0  0  0  0  0  0  0  0
  148.3044  139.8383  156.6077 C   0  0  0  0  0  0  0  0  0  0  0  0
  147.0674  140.5556  155.6371 Cl  0  0  0  0  0  0  0  0  0  0  0  0
  148.1612  138.6089  157.1630 C   0  0  0  0  0  0  0  0  0  0  0  0
  146.7098  137.6985  156.9213 Cl  0  0  0  0  0  0  0  0  0  0  0  0
  149.2194  138.0125  157.9896 C   0  0  0  0  0  0  0  0  0  0  0  0
  149.1213  136.9071  158.5235 O   0  0  0  0  0  0  0  0  0  0  0  0
  153.7840  141.9066  161.1225 C   0  0  2  0  0  0  0  0  0  0  0  0
  154.3130  140.6256  161.8007 C   0  0  0  0  0  0  0  0  0  0  0  0
  153.7888  143.5522  163.4151 H   0  0  0  0  0  0  0  0  0  0  0  0
  153.1478  141.9926  163.9324 H   0  0  0  0  0  0  0  0  0  0  0  0
  152.0887  143.3829  163.8389 H   0  0  0  0  0  0  0  0  0  0  0  0
  151.7677  141.8327  161.9020 H   0  0  0  0  0  0  0  0  0  0  0  0
  151.2245  144.2246  161.6754 H   0  0  0  0  0  0  0  0  0  0  0  0
  152.8649  144.5892  161.2038 H   0  0  0  0  0  0  0  0  0  0  0  0
  150.8748  142.8726  159.6469 H   0  0  0  0  0  0  0  0  0  0  0  0
  151.4283  144.4693  159.2091 H   0  0  0  0  0  0  0  0  0  0  0  0
  152.6446  142.7194  157.9102 H   0  0  0  0  0  0  0  0  0  0  0  0
  153.7333  143.6567  158.8962 H   0  0  0  0  0  0  0  0  0  0  0  0
  154.3455  141.3294  159.1258 H   0  0  0  0  0  0  0  0  0  0  0  0
  151.5269  140.7775  159.8770 H   0  0  0  0  0  0  0  0  0  0  0  0
  151.8284  137.4079  158.6418 H   0  0  0  0  0  0  0  0  0  0  0  0
  151.1293  138.2164  160.0072 H   0  0  0  0  0  0  0  0  0  0  0  0
  149.6193  141.5326  156.3855 H   0  0  0  0  0  0  0  0  0  0  0  0
  154.6031  142.6276  161.1317 H   0  0  0  0  0  0  0  0  0  0  0  0
  153.5200  139.8932  161.9563 H   0  0  0  0  0  0  0  0  0  0  0  0
  154.7617  140.8398  162.7703 H   0  0  0  0  0  0  0  0  0  0  0  0
  155.0857  140.1529  161.1937 H   0  0  0  0  0  0  0  0  0  0  0  0
  1  2  1  0  0  0  0
  1 22  1  0  0  0  0
  1 23  1  0  0  0  0
  1 24  1  0  0  0  0
  2 20  1  0  0  0  0
  2  3  1  0  0  0  0
  2 25  1  0  0  0  0
  3  4  1  0  0  0  0
  3 26  1  0  0  0  0
  3 27  1  0  0  0  0
  4  5  1  0  0  0  0
  4 28  1  0  0  0  0
  4 29  1  0  0  0  0
  5  6  1  0  0  0  0
  5 30  1  0  0  0  0
  5 31  1  0  0  0  0
  6  7  1  0  0  0  0
  6 20  1  0  0  0  0
  6 32  1  0  0  0  0
  7  8  1  0  0  0  0
  7 33  1  0  0  0  0
  8  9  2  0  0  0  0
  8 10  1  0  0  0  0
 10 11  1  0  0  0  0
 10 34  1  0  0  0  0
 10 35  1  0  0  0  0
 11 18  1  0  0  0  0
 11 12  1  0  0  0  0
 12 13  2  0  0  0  0
 13 14  1  0  0  0  0
 13 36  1  0  0  0  0
 14 15  1  0  0  0  0
 14 16  2  0  0  0  0
 16 17  1  0  0  0  0
 16 18  1  0  0  0  0
 18 19  2  0  0  0  0
 20 21  1  0  0  0  0
 20 37  1  0  0  0  0
 21 38  1  0  0  0  0
 21 39  1  0  0  0  0
 21 40  1  0  0  0  0
M  END
> <s_m_source_file>
AV-unprocessed.smi

> <i_m_source_file_index>
2976

> <i_lp_mmshare_version>
43012

> <i_f3d_flags>
0

> <s_epik_input>
W0NIM11bQ0BASF0xW0NIMl1bQ0gyXVtDSDJdW0NASF0oW0NASF0xW0NIM10pW05IXUMoPU8pW0NIMl1uMm5bY0hdYyhDbCljKENsKWMyPU8=

> <s_epik_cmdline>
J2VwaWtfcHl0aG9uJywgJy1waCcsICc3LjAnLCAnLXRuJywgJzgnLCAnLW1hJywgJzIwMCcsICctbWV0YWxfYmluZGluZycsICctaW1hZScsICc8aW5maWxlLm1hZT4nLCAnLW9tYWUnLCAnPG91dGZpbGUubWFlPic=

> <r_lp_tautomer_probability>
1

> <r_epik_Ionization_Penalty>
1.90777e-08

> <r_epik_Ionization_Penalty_Charging>
3.07942e-11

> <r_epik_Ionization_Penalty_Neutral>
1.90469e-08

> <r_epik_State_Penalty>
-0

> <r_epik_Charging_Adjusted_Penalty>
3.07942e-11

> <i_epik_Tot_Q>
0

> <i_epik_Tot_abs_Q>
0

> <r_epik_Metal_State_Penalty>
-0

> <b_epik_Metal_Only>
0

> <s_lp_Force_Field>
OPLS_2005

> <r_lp_Energy>
24.1651

> <b_lp_Chiralities_Consistent>
1

> <s_lp_Variant>
AV-unprocessed.smi:2976-8

> <Gold.Version>
5.8.1

> <Gold.Id.Protein>
6NUR|6NUR_protein|mol2

> <Gold.PLP.Fitness>
41.9625

> <Gold.PLP.PLP>
-39.0933

> <Gold.PLP.part.hbond>
-1.0000

> <Gold.PLP.part.metal>
0.0000

> <Gold.PLP.part.buried>
-5.8139

> <Gold.PLP.part.nonpolar>
-31.7882

> <Gold.PLP.part.repulsive>
0.1420

> <Gold.PLP.ligand.clash>
0.0000

> <Gold.PLP.ligand.torsion>
0.0710

> <Gold.PLP.Chemscore.Hbond>
1.0000

> <Gold.PLP.Chemscore.CHOScore>
0.0000

> <Gold.PLP.Chemscore.Metal>
0.0000

> <Gold.Chemscore.Hbonds>
donor molecule, donor type, donor heavy atom, donor atom, acceptor molecule, acceptor atom, score
      P1  H  7997  8010       L1     9  1.00

> <Gold.PLP.Chemscore.Internal.Correction>
0.0112

> <Gold.Rescore>
     Score         DG    S(hbond)    S(metal)    S(lipo)     H(rot)  DE(clash)    DE(int)     intcor
     17.89     -19.70       1.76        0.00     103.76       1.49       0.08       1.73       ----

> <Gold.Chemscore.Fitness>
17.8863

> <Gold.Chemscore.DG>
-19.6955

> <Gold.Chemscore.ZeroCoef>
-5.4800

> <Gold.Chemscore.Hbond>
1.7610

> <Gold.Chemscore.Metal>
0.0000

> <Gold.Chemscore.Lipo>
103.7561

> <Gold.Chemscore.Internal_Hbond>
0.0000

> <Gold.Chemscore.DEClash>
0.0754

> <Gold.Chemscore.DEInternal>
1.7338

> <Gold.Chemscore.Rot>
1.4866

> <Gold.Chemscore.Internal.Correction>
   9.000000E+99

> <Gold.Chemscore.Hbonds>
donor molecule, donor type, donor heavy atom, donor atom, acceptor molecule, acceptor atom, score
      P1  H  7997  8010       L1     9  0.98

> <Gold.Chemscore.Hbond.Weighted>
-5.8817

> <Gold.Chemscore.Metal.Weighted>
-0.0000

> <Gold.Chemscore.Lipo.Weighted>
-12.1395

> <Gold.Chemscore.Internal_Hbond.Weighted>
0.0000

> <Gold.Chemscore.DEClash.Weighted>
0.0754

> <Gold.Chemscore.DEInternal.Weighted>
1.7338

> <Gold.Chemscore.Rot.Weighted>
3.8057

> <Gold.Chemscore.Internal.Correction.Weighted>
   9.000000E+99

> <Gold.Protein.RotatedTorsions>
[ 6907 6896 6895 6894 ] final  -85.62 input  -60.11 | X-H torsion
[ 7974 7965 7964 7962 ] final   63.16 input  175.53 | X-H torsion
[ 8008 7997 7996 7995 ] final   21.26 input   59.86 | X-H torsion
[ 10167 10162 10161 10158 ] final  127.10 input  -65.29 | X-H torsion
[ 10718 10713 10712 10709 ] final   99.14 input   66.30 | X-H torsion
[ 10763 10752 10751 10750 ] final   72.43 input  -60.55 | X-H torsion
[ 11005 11000 10999 10996 ] final  -47.96 input  -57.11 | X-H torsion

> <Gold.Protein.ActiveResidues>
 VAL166  LYS551  ARG553  GLY616  TRP617  ASP618  TYR619  PRO620  LYS621  CYS622 
 ASP623  PHE694  ASN695  SER759  ASP760  ASP761  ALA762  ILE779  LEU786  VAL792 
 PHE793  MET794  SER795  GLU796  ALA797  LYS798  CYS799  TRP800  GLU811  SER814 

> <Gold.Protein.RotatedAtoms>
  150.6869  134.3176  159.4772 H   0  0  0  0  0  0  0  0  0  0  0  0  # atno 6907 bound_to 6896
  152.1055  134.9309  160.0577 H   0  0  0  0  0  0  0  0  0  0  0  0  # atno 6908 bound_to 6896
  152.0571  133.4010  159.4439 H   0  0  0  0  0  0  0  0  0  0  0  0  # atno 6909 bound_to 6896
  145.8650  139.3340  143.0796 H   0  0  0  0  0  0  0  0  0  0  0  0  # atno 7974 bound_to 7965
  154.9480  140.3062  155.5089 H   0  0  0  0  0  0  0  0  0  0  0  0  # atno 8008 bound_to 7997
  156.2990  140.2324  156.4492 H   0  0  0  0  0  0  0  0  0  0  0  0  # atno 8009 bound_to 7997
  154.8082  140.0430  157.1312 H   0  0  0  0  0  0  0  0  0  0  0  0  # atno 8010 bound_to 7997
  139.5596  144.6872  151.4082 H   0  0  0  0  0  0  0  0  0  0  0  0  # atno 10167 bound_to 10162
  157.6882  131.0661  150.4904 H   0  0  0  0  0  0  0  0  0  0  0  0  # atno 10718 bound_to 10713
  153.0458  135.5100  154.7742 H   0  0  0  0  0  0  0  0  0  0  0  0  # atno 10763 bound_to 10752
  154.6643  135.2943  154.9828 H   0  0  0  0  0  0  0  0  0  0  0  0  # atno 10764 bound_to 10752
  154.0668  135.6683  153.4871 H   0  0  0  0  0  0  0  0  0  0  0  0  # atno 10765 bound_to 10752
  141.0672  133.6690  156.3372 H   0  0  0  0  0  0  0  0  0  0  0  0  # atno 11005 bound_to 11000
  145.9203  140.9120  143.0408 LP  0  0  0  0  0  0  0  0  0  0  0  0  # atno 17320 bound_to 7965
  144.6726  140.1280  143.7445 LP  0  0  0  0  0  0  0  0  0  0  0  0  # atno 17321 bound_to 7965
  140.6874  143.7942  150.7205 LP  0  0  0  0  0  0  0  0  0  0  0  0  # atno 17342 bound_to 10162
  140.1414  143.4438  152.2191 LP  0  0  0  0  0  0  0  0  0  0  0  0  # atno 17343 bound_to 10162
  156.5231  130.4166  149.6240 LP  0  0  0  0  0  0  0  0  0  0  0  0  # atno 17370 bound_to 10713
  156.3137  130.7243  151.2140 LP  0  0  0  0  0  0  0  0  0  0  0  0  # atno 17371 bound_to 10713
  140.5749  134.5803  157.5466 LP  0  0  0  0  0  0  0  0  0  0  0  0  # atno 17394 bound_to 11000
  139.9488  134.7655  156.0498 LP  0  0  0  0  0  0  0  0  0  0  0  0  # atno 17395 bound_to 11000

$$$$
