#       Name:                AV-unprocessed.smi:1542
#       Creating user name   scv26
#       Creation time:       Fri Mar 27 06:37:18 2020


#       File generated by GOLD software.
#

@<TRIPOS>MOLECULE
AV-unprocessed.smi:1542
    50    52     1
SMALL
NO_CHARGES


@<TRIPOS>ATOM
      1 ****        -4.3137   3.5646   2.0790 O.3            1 S1                 0.0000
      2 ****        -3.8581   2.8855   0.9288 C.3            1 S1                 0.0000
      3 ****        -2.3275   2.7843   0.9536 C.3            1 S1                 0.0000
      4 ****        -1.7711   2.0428  -0.2703 C.3            1 S1                 0.0000
      5 ****        -0.2726   1.9699  -0.2654 C.2            1 S1                 0.0000
      6 ****         0.4667   2.9655  -0.7553 N.2            1 S1                 0.0000
      7 ****         1.7551   2.5477  -0.4918 C.ar           1 S1                 0.0000
      8 ****         2.9937   3.1718  -0.7632 C.ar           1 S1                 0.0000
      9 ****         4.2028   2.5554  -0.3806 C.ar           1 S1                 0.0000
     10 ****         4.1898   1.3111   0.2815 C.ar           1 S1                 0.0000
     11 ****         2.9663   0.6725   0.5606 C.ar           1 S1                 0.0000
     12 ****         1.7609   1.2862   0.1677 C.ar           1 S1                 0.0000
     13 ****         0.4173   0.9315   0.2762 N.pl3          1 S1                 0.0000
     14 ****        -0.1076  -0.2884   0.8866 C.3            1 S1                 0.0000
     15 ****        -0.2437  -1.4984  -0.0794 C.3            1 S1                 0.0000
     16 ****        -1.1200  -1.1336  -1.1299 O.3            1 S1                 0.0000
     17 ****         1.1070  -1.9110  -0.7159 C.3            1 S1                 0.0000
     18 ****         1.0118  -3.1943  -1.5609 C.3            1 S1                 0.0000
     19 ****         0.4151  -4.3540  -0.7525 C.3            1 S1                 0.0000
     20 ****        -0.9571  -3.9731  -0.1810 C.3            1 S1                 0.0000
     21 ****        -0.8724  -2.6951   0.6733 C.3            1 S1                 0.0000
     22 ****        -5.2561   3.6243   2.0400 H              1 S1                 0.0000
     23 ****        -4.3100   1.8936   0.8995 H              1 S1                 0.0000
     24 ****        -4.1932   3.4248   0.0423 H              1 S1                 0.0000
     25 ****        -1.8986   3.7865   0.9967 H              1 S1                 0.0000
     26 ****        -2.0098   2.2719   1.8627 H              1 S1                 0.0000
     27 ****        -2.2023   1.0457  -0.3260 H              1 S1                 0.0000
     28 ****        -2.0856   2.5532  -1.1816 H              1 S1                 0.0000
     29 ****         3.0129   4.1287  -1.2633 H              1 S1                 0.0000
     30 ****         5.1438   3.0416  -0.5922 H              1 S1                 0.0000
     31 ****         5.1197   0.8470   0.5756 H              1 S1                 0.0000
     32 ****         2.9573  -0.2782   1.0714 H              1 S1                 0.0000
     33 ****         0.5519  -0.5561   1.7129 H              1 S1                 0.0000
     34 ****        -1.0683  -0.0629   1.3501 H              1 S1                 0.0000
     35 ****        -1.2041  -1.8696  -1.7168 H              1 S1                 0.0000
     36 ****         1.5023  -1.1062  -1.3364 H              1 S1                 0.0000
     37 ****         1.8378  -2.0769   0.0758 H              1 S1                 0.0000
     38 ****         0.4008  -3.0115  -2.4457 H              1 S1                 0.0000
     39 ****         2.0018  -3.4695  -1.9254 H              1 S1                 0.0000
     40 ****         0.3239  -5.2392  -1.3826 H              1 S1                 0.0000
     41 ****         1.0910  -4.6207   0.0610 H              1 S1                 0.0000
     42 ****        -1.6665  -3.8286  -0.9965 H              1 S1                 0.0000
     43 ****        -1.3474  -4.7938   0.4213 H              1 S1                 0.0000
     44 ****        -0.2764  -2.9116   1.5610 H              1 S1                 0.0000
     45 ****        -1.8671  -2.4322   1.0364 H              1 S1                 0.0000
     46 ****        -3.9187   4.4828   2.1067 LP             1 S1                 0.0000
     47 ****        -4.0416   3.0598   2.8982 LP             1 S1                 0.0000
     48 ****         0.1628   3.8065  -1.2028 LP             1 S1                 0.0000
     49 ****        -0.7467  -0.3485  -1.6240 LP             1 S1                 0.0000
     50 ****        -2.0162  -0.8962  -0.7552 LP             1 S1                 0.0000
@<TRIPOS>BOND
    1    1    2 1     
    2    1   22 1     
    3    2    3 1     
    4    2   23 1     
    5    2   24 1     
    6    3    4 1     
    7    3   25 1     
    8    3   26 1     
    9    4    5 1     
   10    4   27 1     
   11    4   28 1     
   12    5   13 1     
   13    5    6 2     
   14    6    7 1     
   15    7   12 ar    
   16    7    8 ar    
   17    8    9 ar    
   18    8   29 1     
   19    9   10 ar    
   20    9   30 1     
   21   10   11 ar    
   22   10   31 1     
   23   11   12 ar    
   24   11   32 1     
   25   12   13 1     
   26   13   14 1     
   27   14   15 1     
   28   14   33 1     
   29   14   34 1     
   30   15   21 1     
   31   15   16 1     
   32   15   17 1     
   33   16   35 1     
   34   17   18 1     
   35   17   36 1     
   36   17   37 1     
   37   18   19 1     
   38   18   38 1     
   39   18   39 1     
   40   19   20 1     
   41   19   40 1     
   42   19   41 1     
   43   20   21 1     
   44   20   42 1     
   45   20   43 1     
   46   21   44 1     
   47   21   45 1     
   48    1   46 1     
   49    1   47 1     
   50    6   48 1     
   51   16   49 1     
   52   16   50 1     
@<TRIPOS>SUBSTRUCTURE
      1 S1             1
@<TRIPOS>SET
LONE_PAIRS      STATIC     ATOMS    <user>   **** ""
5 46 47 48 49 50
DONOR_HYDROGENS      STATIC     ATOMS    <user>   **** ""
2 22 35
ATOM$BLUE        STATIC     ATOMS    COLORGROUP SYSTEM
5 46 47 48 49 50
ATOM$RED        STATIC     ATOMS    COLORGROUP SYSTEM
2 22 35
