AV-unprocessed.smi:1734|AV-procd|sdf|6981|dock3
  -GOLD-   22720 8193D 1   1.00000     0.00000
 Structure written by MMmdl.
 50 52  0  0  0  0  0  0  0  0  1 V2000
  147.6609  132.9299  152.4382 C   0  0  0  0  0  0  0  0  0  0  0  0
  146.3652  132.9729  151.6442 C   0  0  0  0  0  0  0  0  0  0  0  0
  145.7658  131.7624  151.2358 C   0  0  0  0  0  0  0  0  0  0  0  0
  144.5684  131.8035  150.5015 C   0  0  0  0  0  0  0  0  0  0  0  0
  144.0178  133.0617  150.2038 C   0  0  0  0  0  0  0  0  0  0  0  0
  144.5836  134.2232  150.5901 N   0  0  0  0  0  0  0  0  0  0  0  0
  145.7390  134.2015  151.3011 C   0  0  0  0  0  0  0  0  0  0  0  0
  146.3920  135.3871  151.7422 N   0  0  0  0  0  0  0  0  0  0  0  0
  145.8449  136.5031  152.2556 C   0  0  0  0  0  0  0  0  0  0  0  0
  144.6419  136.6858  152.4437 O   0  0  0  0  0  0  0  0  0  0  0  0
  146.7871  137.4131  152.5423 N   0  0  0  0  0  0  0  0  0  0  0  0
  146.5478  138.7390  153.1062 C   0  0  0  0  0  0  0  0  0  0  0  0
  147.3545  138.9598  154.4140 C   0  0  1  0  0  0  0  0  0  0  0  0
  148.8783  139.1705  154.1464 C   0  0  2  0  0  0  0  0  0  0  0  0
  149.8314  138.1334  154.7484 C   0  0  0  0  0  0  0  0  0  0  0  0
  150.8536  138.9732  155.5118 C   0  0  0  0  0  0  0  0  0  0  0  0
  150.8469  140.2180  154.8341 O   0  0  0  0  0  0  0  0  0  0  0  0
  149.4926  140.5244  154.5422 C   0  0  0  0  0  0  0  0  0  0  0  0
  146.7436  139.9087  155.3681 N   0  0  0  0  0  0  0  0  0  0  0  0
  146.5554  141.2472  154.8116 C   0  0  0  0  0  0  0  0  0  0  0  0
  145.7874  142.1643  155.7768 C   0  0  0  0  0  0  0  0  0  0  0  0
  146.4832  142.2290  157.0169 O   0  0  0  0  0  0  0  0  0  0  0  0
  146.6388  140.9505  157.6232 C   0  0  0  0  0  0  0  0  0  0  0  0
  147.3944  140.0038  156.6735 C   0  0  0  0  0  0  0  0  0  0  0  0
  147.9861  131.9037  152.6124 H   0  0  0  0  0  0  0  0  0  0  0  0
  147.5302  133.4091  153.4090 H   0  0  0  0  0  0  0  0  0  0  0  0
  148.4557  133.4469  151.8995 H   0  0  0  0  0  0  0  0  0  0  0  0
  146.2160  130.8115  151.4811 H   0  0  0  0  0  0  0  0  0  0  0  0
  144.0846  130.8948  150.1749 H   0  0  0  0  0  0  0  0  0  0  0  0
  143.0991  133.1384  149.6413 H   0  0  0  0  0  0  0  0  0  0  0  0
  147.3973  135.3817  151.6560 H   0  0  0  0  0  0  0  0  0  0  0  0
  147.7489  137.1721  152.3534 H   0  0  0  0  0  0  0  0  0  0  0  0
  146.7771  139.5234  152.3841 H   0  0  0  0  0  0  0  0  0  0  0  0
  145.4767  138.8033  153.2909 H   0  0  0  0  0  0  0  0  0  0  0  0
  147.3260  137.9962  154.9252 H   0  0  0  0  0  0  0  0  0  0  0  0
  149.0141  139.0978  153.0660 H   0  0  0  0  0  0  0  0  0  0  0  0
  149.3570  137.3966  155.3955 H   0  0  0  0  0  0  0  0  0  0  0  0
  150.3272  137.5828  153.9480 H   0  0  0  0  0  0  0  0  0  0  0  0
  150.5388  139.1211  156.5458 H   0  0  0  0  0  0  0  0  0  0  0  0
  151.8467  138.5235  155.5187 H   0  0  0  0  0  0  0  0  0  0  0  0
  149.4324  141.2570  153.7375 H   0  0  0  0  0  0  0  0  0  0  0  0
  149.0247  140.9674  155.4185 H   0  0  0  0  0  0  0  0  0  0  0  0
  147.5188  141.7080  154.5950 H   0  0  0  0  0  0  0  0  0  0  0  0
  146.0147  141.1859  153.8665 H   0  0  0  0  0  0  0  0  0  0  0  0
  145.7043  143.1685  155.3610 H   0  0  0  0  0  0  0  0  0  0  0  0
  144.7723  141.7973  155.9366 H   0  0  0  0  0  0  0  0  0  0  0  0
  147.1863  141.0634  158.5589 H   0  0  0  0  0  0  0  0  0  0  0  0
  145.6593  140.5405  157.8739 H   0  0  0  0  0  0  0  0  0  0  0  0
  147.4355  139.0281  157.1494 H   0  0  0  0  0  0  0  0  0  0  0  0
  148.4209  140.3530  156.5586 H   0  0  0  0  0  0  0  0  0  0  0  0
  1  2  1  0  0  0  0
  1 25  1  0  0  0  0
  1 26  1  0  0  0  0
  1 27  1  0  0  0  0
  2  7  1  0  0  0  0
  2  3  2  0  0  0  0
  3  4  1  0  0  0  0
  3 28  1  0  0  0  0
  4  5  2  0  0  0  0
  4 29  1  0  0  0  0
  5  6  1  0  0  0  0
  5 30  1  0  0  0  0
  6  7  2  0  0  0  0
  7  8  1  0  0  0  0
  8  9  1  0  0  0  0
  8 31  1  0  0  0  0
  9 10  2  0  0  0  0
  9 11  1  0  0  0  0
 11 12  1  0  0  0  0
 11 32  1  0  0  0  0
 12 13  1  0  0  0  0
 12 33  1  0  0  0  0
 12 34  1  0  0  0  0
 13 14  1  0  0  0  0
 13 19  1  0  0  0  0
 13 35  1  0  0  0  0
 14 18  1  0  0  0  0
 14 15  1  0  0  0  0
 14 36  1  0  0  0  0
 15 16  1  0  0  0  0
 15 37  1  0  0  0  0
 15 38  1  0  0  0  0
 16 17  1  0  0  0  0
 16 39  1  0  0  0  0
 16 40  1  0  0  0  0
 17 18  1  0  0  0  0
 18 41  1  0  0  0  0
 18 42  1  0  0  0  0
 19 24  1  0  0  0  0
 19 20  1  0  0  0  0
 20 21  1  0  0  0  0
 20 43  1  0  0  0  0
 20 44  1  0  0  0  0
 21 22  1  0  0  0  0
 21 45  1  0  0  0  0
 21 46  1  0  0  0  0
 22 23  1  0  0  0  0
 23 24  1  0  0  0  0
 23 47  1  0  0  0  0
 23 48  1  0  0  0  0
 24 49  1  0  0  0  0
 24 50  1  0  0  0  0
M  END
> <s_m_source_file>
AV-unprocessed.smi

> <i_m_source_file_index>
1734

> <i_lp_mmshare_version>
43012

> <i_f3d_flags>
0

> <s_epik_input>
W0NIM11jMVtjSF1bY0hdW2NIXW5jMVtOSF1DKD1PKVtOSF1bQ0gyXVtDQEhdKFtDQEBIXTJbQ0gyXVtDSDJdT1tDSDJdMilOM1tDSDJdW0NIMl1PW0NIMl1bQ0gyXTM=

> <s_epik_cmdline>
J2VwaWtfcHl0aG9uJywgJy1waCcsICc3LjAnLCAnLXRuJywgJzgnLCAnLW1hJywgJzIwMCcsICctbWV0YWxfYmluZGluZycsICctaW1hZScsICc8aW5maWxlLm1hZT4nLCAnLW9tYWUnLCAnPG91dGZpbGUubWFlPic=

> <r_epik_Ionization_Penalty>
0.125073

> <r_epik_Ionization_Penalty_Charging>
0

> <r_epik_Ionization_Penalty_Neutral>
0.125073

> <r_epik_State_Penalty>
0.114484

> <r_epik_Charging_Adjusted_Penalty>
0.114484

> <i_epik_Tot_Q>
0

> <i_epik_Tot_abs_Q>
0

> <r_epik_Metal_State_Penalty>
0.114483

> <b_epik_Metal_Only>
0

> <s_lp_Force_Field>
OPLS_2005

> <r_lp_Energy>
56.6734

> <b_lp_Chiralities_Consistent>
1

> <s_lp_Variant>
AV-unprocessed.smi:1734-2

> <Gold.Version>
5.8.1

> <Gold.Id.Protein>
6NUR|6NUR_protein|mol2

> <Gold.PLP.Fitness>
45.0257

> <Gold.PLP.PLP>
-36.5494

> <Gold.PLP.part.hbond>
-3.0000

> <Gold.PLP.part.metal>
0.0000

> <Gold.PLP.part.buried>
-5.2325

> <Gold.PLP.part.nonpolar>
-29.8206

> <Gold.PLP.part.repulsive>
0.7652

> <Gold.PLP.ligand.clash>
0.0000

> <Gold.PLP.ligand.torsion>
2.0051

> <Gold.PLP.Chemscore.Hbond>
3.0000

> <Gold.PLP.Chemscore.CHOScore>
1.0000

> <Gold.PLP.Chemscore.Metal>
0.0000

> <Gold.Chemscore.Hbonds>
donor molecule, donor type, donor heavy atom, donor atom, acceptor molecule, acceptor atom, score
      L1  H     8    31       P1  7948  1.00
      L1  H    11    32       P1  7948  1.00
      P1  H  7989  7998       L1    17  1.00
      L1  C     5    30       P1 10186  1.00

> <Gold.PLP.Chemscore.Internal.Correction>
0.4867

> <Gold.Rescore>
     Score         DG    S(hbond)    S(metal)    S(lipo)     H(rot)  DE(clash)    DE(int)     intcor
     17.15     -19.93       2.71        0.00      82.21       1.65       0.09       2.69       ----

> <Gold.Chemscore.Fitness>
17.1531

> <Gold.Chemscore.DG>
-19.9324

> <Gold.Chemscore.ZeroCoef>
-5.4800

> <Gold.Chemscore.Hbond>
2.7103

> <Gold.Chemscore.Metal>
0.0000

> <Gold.Chemscore.Lipo>
82.2115

> <Gold.Chemscore.Internal_Hbond>
0.0000

> <Gold.Chemscore.DEClash>
0.0853

> <Gold.Chemscore.DEInternal>
2.6939

> <Gold.Chemscore.Rot>
1.6480

> <Gold.Chemscore.Internal.Correction>
   9.000000E+99

> <Gold.Chemscore.Hbonds>
donor molecule, donor type, donor heavy atom, donor atom, acceptor molecule, acceptor atom, score
      L1  H     8    31       P1  7948  0.91
      L1  H    11    32       P1  7948  0.97
      P1  H  7989  7998       L1    17  0.30

> <Gold.Chemscore.Hbond.Weighted>
-9.0525

> <Gold.Chemscore.Metal.Weighted>
-0.0000

> <Gold.Chemscore.Lipo.Weighted>
-9.6188

> <Gold.Chemscore.Internal_Hbond.Weighted>
0.0000

> <Gold.Chemscore.DEClash.Weighted>
0.0853

> <Gold.Chemscore.DEInternal.Weighted>
2.6939

> <Gold.Chemscore.Rot.Weighted>
4.2188

> <Gold.Chemscore.Internal.Correction.Weighted>
   9.000000E+99

> <Gold.Protein.RotatedTorsions>
[ 6907 6896 6895 6894 ] final -106.59 input  -60.11 | X-H torsion
[ 7974 7965 7964 7962 ] final  138.95 input  175.53 | X-H torsion
[ 8008 7997 7996 7995 ] final  148.92 input   59.86 | X-H torsion
[ 10167 10162 10161 10158 ] final   76.24 input  -65.29 | X-H torsion
[ 10718 10713 10712 10709 ] final   92.24 input   66.30 | X-H torsion
[ 10763 10752 10751 10750 ] final  117.10 input  -60.55 | X-H torsion
[ 11005 11000 10999 10996 ] final   27.69 input  -57.11 | X-H torsion

> <Gold.Protein.ActiveResidues>
 VAL166  LYS551  ARG553  GLY616  TRP617  ASP618  TYR619  PRO620  LYS621  CYS622 
 ASP623  PHE694  ASN695  SER759  ASP760  ASP761  ALA762  ILE779  LEU786  VAL792 
 PHE793  MET794  SER795  GLU796  ALA797  LYS798  CYS799  TRP800  GLU811  SER814 

> <Gold.Protein.RotatedAtoms>
  150.7397  133.9953  159.3620 H   0  0  0  0  0  0  0  0  0  0  0  0  # atno 6907 bound_to 6896
  151.7904  135.0735  160.0396 H   0  0  0  0  0  0  0  0  0  0  0  0  # atno 6908 bound_to 6896
  152.3212  133.5819  159.5782 H   0  0  0  0  0  0  0  0  0  0  0  0  # atno 6909 bound_to 6896
  144.9324  139.5031  143.5611 H   0  0  0  0  0  0  0  0  0  0  0  0  # atno 7974 bound_to 7965
  156.2774  140.2116  156.5775 H   0  0  0  0  0  0  0  0  0  0  0  0  # atno 8008 bound_to 7997
  154.7086  140.0514  157.0551 H   0  0  0  0  0  0  0  0  0  0  0  0  # atno 8009 bound_to 7997
  155.0637  140.3169  155.4655 H   0  0  0  0  0  0  0  0  0  0  0  0  # atno 8010 bound_to 7997
  139.9944  144.5733  150.7790 H   0  0  0  0  0  0  0  0  0  0  0  0  # atno 10167 bound_to 10162
  157.6959  131.0436  150.3852 H   0  0  0  0  0  0  0  0  0  0  0  0  # atno 10718 bound_to 10713
  153.5473  135.3546  155.2744 H   0  0  0  0  0  0  0  0  0  0  0  0  # atno 10763 bound_to 10752
  154.8711  135.4105  154.2976 H   0  0  0  0  0  0  0  0  0  0  0  0  # atno 10764 bound_to 10752
  153.3695  135.7063  153.6717 H   0  0  0  0  0  0  0  0  0  0  0  0  # atno 10765 bound_to 10752
  140.3236  134.2516  155.7713 H   0  0  0  0  0  0  0  0  0  0  0  0  # atno 11005 bound_to 11000
  146.3252  139.8284  142.8913 LP  0  0  0  0  0  0  0  0  0  0  0  0  # atno 17320 bound_to 7965
  145.3121  141.0222  143.3549 LP  0  0  0  0  0  0  0  0  0  0  0  0  # atno 17321 bound_to 7965
  140.7442  143.2858  151.3468 LP  0  0  0  0  0  0  0  0  0  0  0  0  # atno 17342 bound_to 10162
  139.6317  144.0709  152.2481 LP  0  0  0  0  0  0  0  0  0  0  0  0  # atno 17343 bound_to 10162
  156.4261  130.3962  149.6792 LP  0  0  0  0  0  0  0  0  0  0  0  0  # atno 17370 bound_to 10713
  156.4025  130.7682  151.2690 LP  0  0  0  0  0  0  0  0  0  0  0  0  # atno 17371 bound_to 10713
  141.2081  133.7788  157.0082 LP  0  0  0  0  0  0  0  0  0  0  0  0  # atno 17394 bound_to 11000
  140.0921  134.9586  157.1792 LP  0  0  0  0  0  0  0  0  0  0  0  0  # atno 17395 bound_to 11000

$$$$
