AV-unprocessed.smi:3303|AV-procd|sdf|12675|dock2
  -GOLD-   2272019 13D 1   1.00000     0.00000
 Structure written by MMmdl.
 44 45  0  0  0  0  0  0  0  0  2 V2000
  147.0868  141.0969  158.0865 C   0  0  0  0  0  0  0  0  0  0  0  0
  147.7481  141.4833  156.7528 C   0  0  2  0  0  0  0  0  0  0  0  0
  147.1756  140.6156  155.6129 C   0  0  0  0  0  0  0  0  0  0  0  0
  147.7928  140.9648  154.3335 N   0  0  0  0  0  0  0  0  0  0  0  0
  147.1141  140.2842  153.2376 C   0  0  0  0  0  0  0  0  0  0  0  0
  149.2481  140.7546  154.3206 C   0  0  2  0  0  0  0  0  0  0  0  0
  149.6869  139.2758  154.4239 C   0  0  0  0  0  0  0  0  0  0  0  0
  149.8804  141.6373  155.4156 C   0  0  0  0  0  0  0  0  0  0  0  0
  149.2869  141.3667  156.8102 C   0  0  1  0  0  0  0  0  0  0  0  0
  149.8488  142.3307  157.7826 N   0  3  0  0  0  0  0  0  0  0  0  0
  151.3141  142.2621  157.9484 C   0  0  0  0  0  0  0  0  0  0  0  0
  151.8207  143.4054  158.8379 C   0  0  0  0  0  0  0  0  0  0  0  0
  152.5163  142.8958  160.0858 C   0  0  0  0  0  0  0  0  0  0  0  0
  153.5408  141.9295  159.9963 C   0  0  0  0  0  0  0  0  0  0  0  0
  154.1595  141.4963  161.1851 C   0  0  0  0  0  0  0  0  0  0  0  0
  153.7316  142.0429  162.4102 C   0  0  0  0  0  0  0  0  0  0  0  0
  152.7017  143.0045  162.3925 C   0  0  0  0  0  0  0  0  0  0  0  0
  152.1033  143.4286  161.2578 N   0  0  0  0  0  0  0  0  0  0  0  0
  147.3245  140.0690  158.3624 H   0  0  0  0  0  0  0  0  0  0  0  0
  146.0015  141.1793  158.0221 H   0  0  0  0  0  0  0  0  0  0  0  0
  147.4125  141.7444  158.9008 H   0  0  0  0  0  0  0  0  0  0  0  0
  147.4895  142.5222  156.5402 H   0  0  0  0  0  0  0  0  0  0  0  0
  147.3083  139.5547  155.8263 H   0  0  0  0  0  0  0  0  0  0  0  0
  146.1001  140.7852  155.5438 H   0  0  0  0  0  0  0  0  0  0  0  0
  147.5695  140.5432  152.2814 H   0  0  0  0  0  0  0  0  0  0  0  0
  146.0672  140.5868  153.1971 H   0  0  0  0  0  0  0  0  0  0  0  0
  147.1427  139.2006  153.3532 H   0  0  0  0  0  0  0  0  0  0  0  0
  149.6118  141.1262  153.3615 H   0  0  0  0  0  0  0  0  0  0  0  0
  150.7744  139.2007  154.4137 H   0  0  0  0  0  0  0  0  0  0  0  0
  149.3279  138.6863  153.5808 H   0  0  0  0  0  0  0  0  0  0  0  0
  149.3414  138.7941  155.3378 H   0  0  0  0  0  0  0  0  0  0  0  0
  150.9612  141.4902  155.4333 H   0  0  0  0  0  0  0  0  0  0  0  0
  149.7240  142.6852  155.1536 H   0  0  0  0  0  0  0  0  0  0  0  0
  149.5487  140.3510  157.1110 H   0  0  0  0  0  0  0  0  0  0  0  0
  149.5986  143.2647  157.4903 H   0  0  0  0  0  0  0  0  0  0  0  0
  151.5803  141.3028  158.3943 H   0  0  0  0  0  0  0  0  0  0  0  0
  151.7877  142.3071  156.9666 H   0  0  0  0  0  0  0  0  0  0  0  0
  152.5141  144.0363  158.2794 H   0  0  0  0  0  0  0  0  0  0  0  0
  150.9888  144.0482  159.1297 H   0  0  0  0  0  0  0  0  0  0  0  0
  153.8482  141.5283  159.0414 H   0  0  0  0  0  0  0  0  0  0  0  0
  154.9483  140.7588  161.1577 H   0  0  0  0  0  0  0  0  0  0  0  0
  154.1825  141.7329  163.3414 H   0  0  0  0  0  0  0  0  0  0  0  0
  152.3502  143.4457  163.3136 H   0  0  0  0  0  0  0  0  0  0  0  0
  149.4221  142.1519  158.6803 H   0  0  0  0  0  0  0  0  0  0  0  0
  1  2  1  0  0  0  0
  1 19  1  0  0  0  0
  1 20  1  0  0  0  0
  1 21  1  0  0  0  0
  2  9  1  0  0  0  0
  2  3  1  0  0  0  0
  2 22  1  0  0  0  0
  3  4  1  0  0  0  0
  3 23  1  0  0  0  0
  3 24  1  0  0  0  0
  4  5  1  0  0  0  0
  4  6  1  0  0  0  0
  5 25  1  0  0  0  0
  5 26  1  0  0  0  0
  5 27  1  0  0  0  0
  6  7  1  0  0  0  0
  6  8  1  0  0  0  0
  6 28  1  0  0  0  0
  7 29  1  0  0  0  0
  7 30  1  0  0  0  0
  7 31  1  0  0  0  0
  8  9  1  0  0  0  0
  8 32  1  0  0  0  0
  8 33  1  0  0  0  0
  9 10  1  0  0  0  0
  9 34  1  0  0  0  0
 10 11  1  0  0  0  0
 10 35  1  0  0  0  0
 10 44  1  0  0  0  0
 11 12  1  0  0  0  0
 11 36  1  0  0  0  0
 11 37  1  0  0  0  0
 12 13  1  0  0  0  0
 12 38  1  0  0  0  0
 12 39  1  0  0  0  0
 13 18  1  0  0  0  0
 13 14  2  0  0  0  0
 14 15  1  0  0  0  0
 14 40  1  0  0  0  0
 15 16  2  0  0  0  0
 15 41  1  0  0  0  0
 16 17  1  0  0  0  0
 16 42  1  0  0  0  0
 17 18  2  0  0  0  0
 17 43  1  0  0  0  0
M  CHG  1  10   1
M  END
> <s_m_source_file>
AV-unprocessed.smi

> <i_m_source_file_index>
3303

> <i_lp_mmshare_version>
43012

> <i_f3d_flags>
0

> <s_epik_input>
W0NIM11bQ0BASF0xW0NIMl1OKFtDSDNdKVtDQEBIXShbQ0gzXSlbQ0gyXVtDQEhdMVtOSF1bQ0gyXVtDSDJdYzJbY0hdW2NIXVtjSF1bY0hdbjI=

> <s_epik_cmdline>
J2VwaWtfcHl0aG9uJywgJy1waCcsICc3LjAnLCAnLXRuJywgJzgnLCAnLW1hJywgJzIwMCcsICctbWV0YWxfYmluZGluZycsICctaW1hZScsICc8aW5maWxlLm1hZT4nLCAnLW9tYWUnLCAnPG91dGZpbGUubWFlPic=

> <r_epik_Ionization_Penalty>
1.37325

> <r_epik_Ionization_Penalty_Charging>
0.000251572

> <r_epik_Ionization_Penalty_Neutral>
1.373

> <r_epik_State_Penalty>
1.46343

> <r_epik_Charging_Adjusted_Penalty>
1.46368

> <i_epik_Tot_Q>
1

> <i_epik_Tot_abs_Q>
1

> <r_epik_Metal_State_Penalty>
1.46331

> <b_epik_Metal_Only>
0

> <s_lp_Force_Field>
OPLS_2005

> <r_lp_Energy>
23.1884

> <b_lp_Chiralities_Consistent>
1

> <s_lp_Variant>
AV-unprocessed.smi:3303-19

> <Gold.Version>
5.8.1

> <Gold.Id.Protein>
6NUR|6NUR_protein|mol2

> <Gold.PLP.Fitness>
45.9730

> <Gold.PLP.PLP>
-40.8942

> <Gold.PLP.part.hbond>
-1.0000

> <Gold.PLP.part.metal>
0.0000

> <Gold.PLP.part.buried>
-2.8872

> <Gold.PLP.part.nonpolar>
-36.4666

> <Gold.PLP.part.repulsive>
0.2894

> <Gold.PLP.ligand.clash>
0.0000

> <Gold.PLP.ligand.torsion>
0.4702

> <Gold.PLP.Chemscore.Hbond>
2.0000

> <Gold.PLP.Chemscore.CHOScore>
0.0000

> <Gold.PLP.Chemscore.Metal>
0.0000

> <Gold.PLP.Chemscore.Internal.Correction>
0.0192

> <Gold.Rescore>
     Score         DG    S(hbond)    S(metal)    S(lipo)     H(rot)  DE(clash)    DE(int)     intcor
     18.43     -19.00       0.98        0.00     116.50       1.33       0.22       0.35       ----

> <Gold.Chemscore.Fitness>
18.4277

> <Gold.Chemscore.DG>
-18.9956

> <Gold.Chemscore.ZeroCoef>
-5.4800

> <Gold.Chemscore.Hbond>
0.9848

> <Gold.Chemscore.Metal>
0.0000

> <Gold.Chemscore.Lipo>
116.5021

> <Gold.Chemscore.Internal_Hbond>
0.0000

> <Gold.Chemscore.DEClash>
0.2150

> <Gold.Chemscore.DEInternal>
0.3528

> <Gold.Chemscore.Rot>
1.3298

> <Gold.Chemscore.Internal.Correction>
   9.000000E+99

> <Gold.Chemscore.Hbonds>
donor molecule, donor type, donor heavy atom, donor atom, acceptor molecule, acceptor atom, score
      L1  H    10    35       P1  8028  0.05

> <Gold.Chemscore.Hbond.Weighted>
-3.2891

> <Gold.Chemscore.Metal.Weighted>
-0.0000

> <Gold.Chemscore.Lipo.Weighted>
-13.6307

> <Gold.Chemscore.Internal_Hbond.Weighted>
0.0000

> <Gold.Chemscore.DEClash.Weighted>
0.2150

> <Gold.Chemscore.DEInternal.Weighted>
0.3528

> <Gold.Chemscore.Rot.Weighted>
3.4043

> <Gold.Chemscore.Internal.Correction.Weighted>
   9.000000E+99

> <Gold.Protein.RotatedTorsions>
[ 6907 6896 6895 6894 ] final  135.15 input  -60.11 | X-H torsion
[ 7974 7965 7964 7962 ] final  148.23 input  175.53 | X-H torsion
[ 8008 7997 7996 7995 ] final -149.95 input   59.86 | X-H torsion
[ 10167 10162 10161 10158 ] final   47.56 input  -65.29 | X-H torsion
[ 10718 10713 10712 10709 ] final  -77.84 input   66.30 | X-H torsion
[ 10763 10752 10751 10750 ] final  -68.93 input  -60.55 | X-H torsion
[ 11005 11000 10999 10996 ] final  -86.03 input  -57.11 | X-H torsion

> <Gold.Protein.ActiveResidues>
 VAL166  LYS551  ARG553  GLY616  TRP617  ASP618  TYR619  PRO620  LYS621  CYS622 
 ASP623  PHE694  ASN695  SER759  ASP760  ASP761  ALA762  ILE779  LEU786  VAL792 
 PHE793  MET794  SER795  GLU796  ALA797  LYS798  CYS799  TRP800  GLU811  SER814 

> <Gold.Protein.RotatedAtoms>
  152.3036  133.5680  159.5634 H   0  0  0  0  0  0  0  0  0  0  0  0  # atno 6907 bound_to 6896
  150.7289  134.0256  159.3725 H   0  0  0  0  0  0  0  0  0  0  0  0  # atno 6908 bound_to 6896
  151.8154  135.0668  160.0469 H   0  0  0  0  0  0  0  0  0  0  0  0  # atno 6909 bound_to 6896
  144.8530  139.6128  143.5965 H   0  0  0  0  0  0  0  0  0  0  0  0  # atno 7974 bound_to 7965
  155.6158  140.0676  157.2693 H   0  0  0  0  0  0  0  0  0  0  0  0  # atno 8008 bound_to 7997
  154.4242  140.1793  156.1368 H   0  0  0  0  0  0  0  0  0  0  0  0  # atno 8009 bound_to 7997
  156.0049  140.3332  155.6885 H   0  0  0  0  0  0  0  0  0  0  0  0  # atno 8010 bound_to 7997
  140.3023  144.2919  150.6216 H   0  0  0  0  0  0  0  0  0  0  0  0  # atno 10167 bound_to 10162
  156.0133  130.4502  150.3406 H   0  0  0  0  0  0  0  0  0  0  0  0  # atno 10718 bound_to 10713
  154.3960  135.6042  153.5870 H   0  0  0  0  0  0  0  0  0  0  0  0  # atno 10763 bound_to 10752
  152.9787  135.5895  154.4240 H   0  0  0  0  0  0  0  0  0  0  0  0  # atno 10764 bound_to 10752
  154.4032  135.2843  155.2062 H   0  0  0  0  0  0  0  0  0  0  0  0  # atno 10765 bound_to 10752
  141.1635  133.7432  156.9102 H   0  0  0  0  0  0  0  0  0  0  0  0  # atno 11005 bound_to 11000
  146.2800  139.6852  142.9236 LP  0  0  0  0  0  0  0  0  0  0  0  0  # atno 17320 bound_to 7965
  145.4463  141.0425  143.2829 LP  0  0  0  0  0  0  0  0  0  0  0  0  # atno 17321 bound_to 7965
  140.5640  143.2188  151.7715 LP  0  0  0  0  0  0  0  0  0  0  0  0  # atno 17342 bound_to 10162
  139.4912  144.4309  151.9873 LP  0  0  0  0  0  0  0  0  0  0  0  0  # atno 17343 bound_to 10162
  157.1502  131.0319  151.2888 LP  0  0  0  0  0  0  0  0  0  0  0  0  # atno 17370 bound_to 10713
  157.4398  130.7538  149.7060 LP  0  0  0  0  0  0  0  0  0  0  0  0  # atno 17371 bound_to 10713
  140.1522  134.9222  157.2607 LP  0  0  0  0  0  0  0  0  0  0  0  0  # atno 17394 bound_to 11000
  140.2709  134.3461  155.7374 LP  0  0  0  0  0  0  0  0  0  0  0  0  # atno 17395 bound_to 11000

$$$$
