#       Name:                AV-unprocessed.smi:1265
#       Creating user name   scv26
#       Creation time:       Fri Mar 27 04:44:32 2020


#       File generated by GOLD software.
#

@<TRIPOS>MOLECULE
AV-unprocessed.smi:1265
    50    52     1
SMALL
NO_CHARGES


@<TRIPOS>ATOM
      1 ****        -0.4979   2.2533   1.3255 O.2            1 S1                 0.0000
      2 ****        -0.9233   1.0995   1.3033 C.2            1 S1                 0.0000
      3 ****        -0.1251   0.0219   1.3072 N.am           1 S1                 0.0000
      4 ****         1.3373   0.0480   1.3517 C.3            1 S1                 0.0000
      5 ****         2.0067  -0.1238  -0.0501 C.3            1 S1                 0.0000
      6 ****         1.3812  -1.3109  -0.7435 N.4            1 S1                 1.0000
      7 ****         1.4858  -1.3619  -2.2290 C.3            1 S1                 0.0000
      8 ****         0.7116  -2.5646  -2.7981 C.3            1 S1                 0.0000
      9 ****         1.1628  -3.7699  -2.1991 O.3            1 S1                 0.0000
     10 ****         0.9451  -3.7665  -0.7967 C.3            1 S1                 0.0000
     11 ****         1.7609  -2.6302  -0.1625 C.3            1 S1                 0.0000
     12 ****         1.8871   1.1989  -0.8594 C.3            1 S1                 0.0000
     13 ****         2.8049   2.2462  -0.2213 C.3            1 S1                 0.0000
     14 ****         4.2557   1.3639   0.4033 S.3            1 S1                 0.0000
     15 ****         3.5367  -0.2774   0.1187 C.3            1 S1                 0.0000
     16 ****        -2.2191   0.7403   1.2769 N.am           1 S1                 0.0000
     17 ****        -3.3854   1.5553   1.2474 C.ar           1 S1                 0.0000
     18 ****        -4.6283   0.9110   1.4204 C.ar           1 S1                 0.0000
     19 ****        -5.8068   1.6830   1.3900 C.ar           1 S1                 0.0000
     20 ****        -5.8127   3.0184   1.1985 N.ar           1 S1                 0.0000
     21 ****        -4.6244   3.6341   1.0252 C.ar           1 S1                 0.0000
     22 ****        -3.3886   2.9562   1.0361 C.ar           1 S1                 0.0000
     23 ****        -0.5629  -0.8877   1.3091 H              1 S1                 0.0000
     24 ****         1.6826   0.9475   1.8610 H              1 S1                 0.0000
     25 ****         1.6421  -0.7587   2.0169 H              1 S1                 0.0000
     26 ****         1.0515  -0.4726  -2.6832 H              1 S1                 0.0000
     27 ****         2.5332  -1.4123  -2.5292 H              1 S1                 0.0000
     28 ****        -0.3610  -2.4459  -2.6357 H              1 S1                 0.0000
     29 ****         0.8616  -2.6297  -3.8759 H              1 S1                 0.0000
     30 ****        -0.1179  -3.6601  -0.5740 H              1 S1                 0.0000
     31 ****         1.2614  -4.7272  -0.3897 H              1 S1                 0.0000
     32 ****         2.8218  -2.8224  -0.3272 H              1 S1                 0.0000
     33 ****         1.5978  -2.6475   0.9136 H              1 S1                 0.0000
     34 ****         2.2674   1.0738  -1.8722 H              1 S1                 0.0000
     35 ****         0.8619   1.5557  -0.9521 H              1 S1                 0.0000
     36 ****         3.0994   3.0159  -0.9351 H              1 S1                 0.0000
     37 ****         2.3085   2.7473   0.6098 H              1 S1                 0.0000
     38 ****         3.8100  -0.9550   0.9283 H              1 S1                 0.0000
     39 ****         3.9861  -0.6669  -0.7950 H              1 S1                 0.0000
     40 ****        -2.3987  -0.2524   1.3089 H              1 S1                 0.0000
     41 ****        -4.6843  -0.1564   1.5774 H              1 S1                 0.0000
     42 ****        -6.7706   1.2136   1.5222 H              1 S1                 0.0000
     43 ****        -4.6586   4.7021   0.8691 H              1 S1                 0.0000
     44 ****        -2.4866   3.5252   0.8778 H              1 S1                 0.0000
     45 ****         0.3917  -1.2109  -0.5675 H              1 S1                 0.0000
     46 ****         0.4874   2.4226   1.3477 LP             1 S1                 0.0000
     47 ****        -1.1374   3.0221   1.3212 LP             1 S1                 0.0000
     48 ****         2.1415  -3.8742  -2.3759 LP             1 S1                 0.0000
     49 ****         0.6674  -4.5389  -2.6031 LP             1 S1                 0.0000
     50 ****        -6.6690   3.5347   1.1854 LP             1 S1                 0.0000
@<TRIPOS>BOND
    1    1    2 2     
    2    2    3 am    
    3    2   16 am    
    4    3    4 1     
    5    3   23 1     
    6    4    5 1     
    7    4   24 1     
    8    4   25 1     
    9    5   15 1     
   10    5    6 1     
   11    5   12 1     
   12    6   11 1     
   13    6    7 1     
   14    6   45 1     
   15    7    8 1     
   16    7   26 1     
   17    7   27 1     
   18    8    9 1     
   19    8   28 1     
   20    8   29 1     
   21    9   10 1     
   22   10   11 1     
   23   10   30 1     
   24   10   31 1     
   25   11   32 1     
   26   11   33 1     
   27   12   13 1     
   28   12   34 1     
   29   12   35 1     
   30   13   14 1     
   31   13   36 1     
   32   13   37 1     
   33   14   15 1     
   34   15   38 1     
   35   15   39 1     
   36   16   17 1     
   37   16   40 1     
   38   17   22 ar    
   39   17   18 ar    
   40   18   19 ar    
   41   18   41 1     
   42   19   20 ar    
   43   19   42 1     
   44   20   21 ar    
   45   21   22 ar    
   46   21   43 1     
   47   22   44 1     
   48    1   46 1     
   49    1   47 1     
   50    9   48 1     
   51    9   49 1     
   52   20   50 1     
@<TRIPOS>SUBSTRUCTURE
      1 S1             1
@<TRIPOS>SET
LONE_PAIRS      STATIC     ATOMS    <user>   **** ""
5 46 47 48 49 50
DONOR_HYDROGENS      STATIC     ATOMS    <user>   **** ""
3 23 45 40
ATOM$BLUE        STATIC     ATOMS    COLORGROUP SYSTEM
5 46 47 48 49 50
ATOM$RED        STATIC     ATOMS    COLORGROUP SYSTEM
3 23 45 40
