AV-unprocessed.smi:1324|AV-procd|sdf|5471|dock6
  -GOLD-   22720 5 43D 1   1.00000     0.00000
 Structure written by MMmdl.
 42 43  0  0  0  0  0  0  0  0  2 V2000
  150.2329  134.0782  154.7785 C   0  0  0  0  0  0  0  0  0  0  0  0
  150.2687  135.5909  154.8166 C   0  0  0  0  0  0  0  0  0  0  0  0
  149.1958  136.2348  155.0794 N   0  0  0  0  0  0  0  0  0  0  0  0
  149.2245  137.6391  155.1203 C   0  0  0  0  0  0  0  0  0  0  0  0
  147.9068  138.3202  155.4455 C   0  0  0  0  0  0  0  0  0  0  0  0
  150.3771  138.3285  154.8824 C   0  0  0  0  0  0  0  0  0  0  0  0
  150.4646  139.8547  154.9197 C   0  0  0  0  0  0  0  0  0  0  0  0
  151.3921  140.4588  155.9775 C   0  0  0  0  0  0  0  0  0  0  0  0
  152.5106  139.9857  156.1811 O   0  0  0  0  0  0  0  0  0  0  0  0
  150.9060  141.5155  156.6473 N   0  0  0  0  0  0  0  0  0  0  0  0
  151.6083  142.2548  157.6947 C   0  0  0  0  0  0  0  0  0  0  0  0
  152.1997  141.2514  158.7121 C   0  0  0  0  0  0  0  0  0  0  0  0
  152.6423  141.8101  160.0765 C   0  0  0  0  0  0  0  0  0  0  0  0
  153.2562  143.2185  160.0562 C   0  0  0  0  0  0  0  0  0  0  0  0
  152.1933  144.3268  160.1362 C   0  0  0  0  0  0  0  0  0  0  0  0
  151.3936  144.5455  158.8438 C   0  0  0  0  0  0  0  0  0  0  0  0
  150.6576  143.3045  158.3061 C   0  0  0  0  0  0  0  0  0  0  0  0
  151.5893  137.5493  154.5737 C   0  0  0  0  0  0  0  0  0  0  0  0
  152.6512  138.1224  154.3321 O   0  0  0  0  0  0  0  0  0  0  0  0
  151.4823  136.1899  154.5638 N   0  5  0  0  0  0  0  0  0  0  0  0
  149.2063  133.7106  154.7505 H   0  0  0  0  0  0  0  0  0  0  0  0
  150.7209  133.6693  155.6634 H   0  0  0  0  0  0  0  0  0  0  0  0
  150.7507  133.7059  153.8936 H   0  0  0  0  0  0  0  0  0  0  0  0
  147.9742  138.8440  156.3994 H   0  0  0  0  0  0  0  0  0  0  0  0
  147.0950  137.5953  155.5174 H   0  0  0  0  0  0  0  0  0  0  0  0
  147.6436  139.0400  154.6702 H   0  0  0  0  0  0  0  0  0  0  0  0
  150.8025  140.2061  153.9449 H   0  0  0  0  0  0  0  0  0  0  0  0
  149.4707  140.2878  155.0392 H   0  0  0  0  0  0  0  0  0  0  0  0
  149.9763  141.8327  156.4133 H   0  0  0  0  0  0  0  0  0  0  0  0
  152.4312  142.7935  157.2210 H   0  0  0  0  0  0  0  0  0  0  0  0
  151.4823  140.4511  158.9006 H   0  0  0  0  0  0  0  0  0  0  0  0
  153.0569  140.7652  158.2442 H   0  0  0  0  0  0  0  0  0  0  0  0
  151.7967  141.7959  160.7652 H   0  0  0  0  0  0  0  0  0  0  0  0
  153.3667  141.1148  160.5026 H   0  0  0  0  0  0  0  0  0  0  0  0
  153.9003  143.3159  160.9310 H   0  0  0  0  0  0  0  0  0  0  0  0
  153.9066  143.3536  159.1912 H   0  0  0  0  0  0  0  0  0  0  0  0
  151.5099  144.1248  160.9619 H   0  0  0  0  0  0  0  0  0  0  0  0
  152.6892  145.2643  160.3891 H   0  0  0  0  0  0  0  0  0  0  0  0
  150.6586  145.3292  159.0307 H   0  0  0  0  0  0  0  0  0  0  0  0
  152.0524  144.9429  158.0706 H   0  0  0  0  0  0  0  0  0  0  0  0
  149.9736  143.6552  157.5315 H   0  0  0  0  0  0  0  0  0  0  0  0
  150.0279  142.8585  159.0769 H   0  0  0  0  0  0  0  0  0  0  0  0
  1  2  1  0  0  0  0
  1 21  1  0  0  0  0
  1 22  1  0  0  0  0
  1 23  1  0  0  0  0
  2 20  1  0  0  0  0
  2  3  2  0  0  0  0
  3  4  1  0  0  0  0
  4  5  1  0  0  0  0
  4  6  2  0  0  0  0
  5 24  1  0  0  0  0
  5 25  1  0  0  0  0
  5 26  1  0  0  0  0
  6  7  1  0  0  0  0
  6 18  1  0  0  0  0
  7  8  1  0  0  0  0
  7 27  1  0  0  0  0
  7 28  1  0  0  0  0
  8  9  2  0  0  0  0
  8 10  1  0  0  0  0
 10 11  1  0  0  0  0
 10 29  1  0  0  0  0
 11 17  1  0  0  0  0
 11 12  1  0  0  0  0
 11 30  1  0  0  0  0
 12 13  1  0  0  0  0
 12 31  1  0  0  0  0
 12 32  1  0  0  0  0
 13 14  1  0  0  0  0
 13 33  1  0  0  0  0
 13 34  1  0  0  0  0
 14 15  1  0  0  0  0
 14 35  1  0  0  0  0
 14 36  1  0  0  0  0
 15 16  1  0  0  0  0
 15 37  1  0  0  0  0
 15 38  1  0  0  0  0
 16 17  1  0  0  0  0
 16 39  1  0  0  0  0
 16 40  1  0  0  0  0
 17 41  1  0  0  0  0
 17 42  1  0  0  0  0
 18 19  2  0  0  0  0
 18 20  1  0  0  0  0
M  CHG  1  20  -1
M  END
> <s_m_source_file>
AV-unprocessed.smi

> <i_m_source_file_index>
1324

> <i_lp_mmshare_version>
43012

> <i_f3d_flags>
0

> <s_epik_input>
W0NIM11jMW5jKFtDSDNdKWMoYyg9TylbbkhdMSlbQ0gyXUMoPU8pW05IXVtDSF0yW0NIMl1bQ0gyXVtDSDJdW0NIMl1bQ0gyXVtDSDJdMg==

> <s_epik_cmdline>
J2VwaWtfcHl0aG9uJywgJy1waCcsICc3LjAnLCAnLXRuJywgJzgnLCAnLW1hJywgJzIwMCcsICctbWV0YWxfYmluZGluZycsICctaW1hZScsICc8aW5maWxlLm1hZT4nLCAnLW9tYWUnLCAnPG91dGZpbGUubWFlPic=

> <r_lp_tautomer_probability>
0.839158

> <r_epik_Ionization_Penalty>
6.62804

> <r_epik_Ionization_Penalty_Charging>
7.40585e-08

> <r_epik_Ionization_Penalty_Neutral>
6.62804

> <r_epik_State_Penalty>
4.44437

> <r_epik_Charging_Adjusted_Penalty>
4.44437

> <i_epik_Tot_Q>
-1

> <i_epik_Tot_abs_Q>
1

> <r_epik_Metal_State_Penalty>
0.804717

> <b_epik_Metal_Only>
1

> <s_lp_Force_Field>
OPLS_2005

> <r_lp_Energy>
20.4911

> <b_lp_Chiralities_Consistent>
1

> <s_lp_Variant>
AV-unprocessed.smi:1324-3

> <Gold.Version>
5.8.1

> <Gold.Id.Protein>
6NUR|6NUR_protein|mol2

> <Gold.PLP.Fitness>
47.8127

> <Gold.PLP.PLP>
-39.3812

> <Gold.PLP.part.hbond>
-2.9774

> <Gold.PLP.part.metal>
0.0000

> <Gold.PLP.part.buried>
-4.9277

> <Gold.PLP.part.nonpolar>
-32.1910

> <Gold.PLP.part.repulsive>
0.4509

> <Gold.PLP.ligand.clash>
0.0000

> <Gold.PLP.ligand.torsion>
0.2939

> <Gold.PLP.Chemscore.Hbond>
3.0000

> <Gold.PLP.Chemscore.CHOScore>
0.0000

> <Gold.PLP.Chemscore.Metal>
0.0000

> <Gold.Chemscore.Hbonds>
donor molecule, donor type, donor heavy atom, donor atom, acceptor molecule, acceptor atom, score
      P1  H  7997  8010       L1     9  1.00
      P1  H 10752 10763       L1    20  2.00

> <Gold.PLP.Chemscore.Internal.Correction>
0.0193

> <Gold.Rescore>
     Score         DG    S(hbond)    S(metal)    S(lipo)     H(rot)  DE(clash)    DE(int)     intcor
     15.58     -19.17       1.91        0.00      94.09       1.45       0.32       3.27       ----

> <Gold.Chemscore.Fitness>
15.5832

> <Gold.Chemscore.DG>
-19.1654

> <Gold.Chemscore.ZeroCoef>
-5.4800

> <Gold.Chemscore.Hbond>
1.9090

> <Gold.Chemscore.Metal>
0.0000

> <Gold.Chemscore.Lipo>
94.0899

> <Gold.Chemscore.Internal_Hbond>
0.0000

> <Gold.Chemscore.DEClash>
0.3152

> <Gold.Chemscore.DEInternal>
3.2670

> <Gold.Chemscore.Rot>
1.4450

> <Gold.Chemscore.Internal.Correction>
   9.000000E+99

> <Gold.Chemscore.Hbonds>
donor molecule, donor type, donor heavy atom, donor atom, acceptor molecule, acceptor atom, score
      P1  H  7997  8010       L1     9  0.99
      P1  H 10752 10763       L1    20  0.68

> <Gold.Chemscore.Hbond.Weighted>
-6.3761

> <Gold.Chemscore.Metal.Weighted>
-0.0000

> <Gold.Chemscore.Lipo.Weighted>
-11.0085

> <Gold.Chemscore.Internal_Hbond.Weighted>
0.0000

> <Gold.Chemscore.DEClash.Weighted>
0.3152

> <Gold.Chemscore.DEInternal.Weighted>
3.2670

> <Gold.Chemscore.Rot.Weighted>
3.6992

> <Gold.Chemscore.Internal.Correction.Weighted>
   9.000000E+99

> <Gold.Protein.RotatedTorsions>
[ 6907 6896 6895 6894 ] final    9.43 input  -60.11 | X-H torsion
[ 7974 7965 7964 7962 ] final   52.81 input  175.53 | X-H torsion
[ 8008 7997 7996 7995 ] final   70.40 input   59.86 | X-H torsion
[ 10167 10162 10161 10158 ] final   60.41 input  -65.29 | X-H torsion
[ 10718 10713 10712 10709 ] final   34.29 input   66.30 | X-H torsion
[ 10763 10752 10751 10750 ] final   65.95 input  -60.55 | X-H torsion
[ 11005 11000 10999 10996 ] final  179.82 input  -57.11 | X-H torsion

> <Gold.Protein.ActiveResidues>
 VAL166  LYS551  ARG553  GLY616  TRP617  ASP618  TYR619  PRO620  LYS621  CYS622 
 ASP623  PHE694  ASN695  SER759  ASP760  ASP761  ALA762  ILE779  LEU786  VAL792 
 PHE793  MET794  SER795  GLU796  ALA797  LYS798  CYS799  TRP800  GLU811  SER814 

> <Gold.Protein.RotatedAtoms>
  151.7220  135.0892  160.0285 H   0  0  0  0  0  0  0  0  0  0  0  0  # atno 6907 bound_to 6896
  152.3596  133.6275  159.6013 H   0  0  0  0  0  0  0  0  0  0  0  0  # atno 6908 bound_to 6896
  150.7595  133.9362  159.3483 H   0  0  0  0  0  0  0  0  0  0  0  0  # atno 6909 bound_to 6896
  145.9776  139.4210  143.0152 H   0  0  0  0  0  0  0  0  0  0  0  0  # atno 7974 bound_to 7965
  155.7383  140.3491  155.5092 H   0  0  0  0  0  0  0  0  0  0  0  0  # atno 8008 bound_to 7997
  155.9118  140.1052  157.1295 H   0  0  0  0  0  0  0  0  0  0  0  0  # atno 8009 bound_to 7997
  154.4057  140.1266  156.4554 H   0  0  0  0  0  0  0  0  0  0  0  0  # atno 8010 bound_to 7997
  140.1658  144.4325  150.6686 H   0  0  0  0  0  0  0  0  0  0  0  0  # atno 10167 bound_to 10162
  157.3085  130.7387  149.6710 H   0  0  0  0  0  0  0  0  0  0  0  0  # atno 10718 bound_to 10713
  153.0118  135.5338  154.6748 H   0  0  0  0  0  0  0  0  0  0  0  0  # atno 10763 bound_to 10752
  154.5923  135.2860  155.0625 H   0  0  0  0  0  0  0  0  0  0  0  0  # atno 10764 bound_to 10752
  154.1713  135.6531  153.5062 H   0  0  0  0  0  0  0  0  0  0  0  0  # atno 10765 bound_to 10752
  140.4104  134.6697  157.4611 H   0  0  0  0  0  0  0  0  0  0  0  0  # atno 11005 bound_to 11000
  145.7817  140.9853  143.1096 LP  0  0  0  0  0  0  0  0  0  0  0  0  # atno 17320 bound_to 7965
  144.6853  139.9572  143.7479 LP  0  0  0  0  0  0  0  0  0  0  0  0  # atno 17321 bound_to 7965
  140.6613  143.2253  151.5848 LP  0  0  0  0  0  0  0  0  0  0  0  0  # atno 17342 bound_to 10162
  139.5360  144.2780  152.1252 LP  0  0  0  0  0  0  0  0  0  0  0  0  # atno 17343 bound_to 10162
  155.9676  130.4258  150.4672 LP  0  0  0  0  0  0  0  0  0  0  0  0  # atno 17370 bound_to 10713
  157.2666  131.0578  151.2286 LP  0  0  0  0  0  0  0  0  0  0  0  0  # atno 17371 bound_to 10713
  140.0271  134.6460  155.9157 LP  0  0  0  0  0  0  0  0  0  0  0  0  # atno 17394 bound_to 11000
  141.1823  133.6549  156.5071 LP  0  0  0  0  0  0  0  0  0  0  0  0  # atno 17395 bound_to 11000

$$$$
