#       Name:                AV-unprocessed.smi:1046
#       Creating user name   scv26
#       Creation time:       Fri Mar 27 02:58:44 2020


#       File generated by GOLD software.
#

@<TRIPOS>MOLECULE
AV-unprocessed.smi:1046
    59    61     1
SMALL
NO_CHARGES


@<TRIPOS>ATOM
      1 ****        -6.0610   3.0645  -2.2856 C.3            1 S1                 0.0000
      2 ****        -4.9222   2.8655  -1.3008 C.ar           1 S1                 0.0000
      3 ****        -5.2041   2.8608   0.0840 C.ar           1 S1                 0.0000
      4 ****        -4.1734   2.6796   1.0319 C.ar           1 S1                 0.0000
      5 ****        -4.2195   2.6398   2.4150 N.2            1 S1                 0.0000
      6 ****        -2.9402   2.4461   2.7214 C.2            1 S1                 0.0000
      7 ****        -2.0698   2.3483   1.6979 N.pl3          1 S1                 0.0000
      8 ****        -0.6360   2.1361   1.7804 C.3            1 S1                 0.0000
      9 ****        -0.2335   0.6978   1.4022 C.3            1 S1                 0.0000
     10 ****        -0.8484  -0.2091   2.2972 O.3            1 S1                 0.0000
     11 ****         1.2938   0.4984   1.4642 C.3            1 S1                 0.0000
     12 ****         1.7159  -0.8616   1.0393 N.4            1 S1                 1.0000
     13 ****         3.0473  -1.2321   1.5798 C.3            1 S1                 0.0000
     14 ****         3.4193  -2.6789   1.2096 C.3            1 S1                 0.0000
     15 ****         3.3673  -2.8865  -0.2600 N.4            1 S1                 1.0000
     16 ****         3.7936  -4.2452  -0.6838 C.3            1 S1                 0.0000
     17 ****         5.3202  -4.4297  -0.6329 C.3            1 S1                 0.0000
     18 ****         5.9417  -3.5678  -1.5627 O.3            1 S1                 0.0000
     19 ****         2.0355  -2.5179  -0.7999 C.3            1 S1                 0.0000
     20 ****         1.6635  -1.0707  -0.4305 C.3            1 S1                 0.0000
     21 ****        -2.8429   2.5023   0.5526 C.ar           1 S1                 0.0000
     22 ****        -2.5493   2.5062  -0.8223 C.ar           1 S1                 0.0000
     23 ****        -3.5911   2.6870  -1.7560 C.ar           1 S1                 0.0000
     24 ****        -3.2648   2.6891  -3.2389 C.3            1 S1                 0.0000
     25 ****        -7.0142   3.1943  -1.7722 H              1 S1                 0.0000
     26 ****        -6.1514   2.2009  -2.9448 H              1 S1                 0.0000
     27 ****        -5.8870   3.9506  -2.8966 H              1 S1                 0.0000
     28 ****        -6.2179   2.9975   0.4308 H              1 S1                 0.0000
     29 ****        -2.6177   2.3655   3.7494 H              1 S1                 0.0000
     30 ****        -0.1506   2.8515   1.1153 H              1 S1                 0.0000
     31 ****        -0.3033   2.3751   2.7919 H              1 S1                 0.0000
     32 ****        -0.6037   0.4885   0.3993 H              1 S1                 0.0000
     33 ****        -1.7840  -0.0717   2.2685 H              1 S1                 0.0000
     34 ****         1.8024   1.2422   0.8488 H              1 S1                 0.0000
     35 ****         1.6212   0.6780   2.4898 H              1 S1                 0.0000
     36 ****         3.8006  -0.5415   1.1970 H              1 S1                 0.0000
     37 ****         3.0456  -1.1293   2.6657 H              1 S1                 0.0000
     38 ****         4.4172  -2.8961   1.5889 H              1 S1                 0.0000
     39 ****         2.7370  -3.3751   1.7002 H              1 S1                 0.0000
     40 ****         3.3000  -4.9929  -0.0613 H              1 S1                 0.0000
     41 ****         3.4615  -4.4343  -1.7059 H              1 S1                 0.0000
     42 ****         5.7254  -4.2515   0.3625 H              1 S1                 0.0000
     43 ****         5.5752  -5.4565  -0.8964 H              1 S1                 0.0000
     44 ****         6.8698  -3.7507  -1.5708 H              1 S1                 0.0000
     45 ****         2.0365  -2.6224  -1.8857 H              1 S1                 0.0000
     46 ****         1.2829  -3.2083  -0.4150 H              1 S1                 0.0000
     47 ****         0.6658  -0.8569  -0.8117 H              1 S1                 0.0000
     48 ****         2.3444  -0.3740  -0.9223 H              1 S1                 0.0000
     49 ****        -1.5312   2.3717  -1.1559 H              1 S1                 0.0000
     50 ****        -2.2038   2.5085  -3.4138 H              1 S1                 0.0000
     51 ****        -3.5180   3.6522  -3.6826 H              1 S1                 0.0000
     52 ****        -3.8258   1.9106  -3.7563 H              1 S1                 0.0000
     53 ****         1.0524  -1.5002   1.4557 H              1 S1                 0.0000
     54 ****         4.0292  -2.2462  -0.6762 H              1 S1                 0.0000
     55 ****        -5.0076   2.7323   3.0236 LP             1 S1                 0.0000
     56 ****        -0.5121  -0.0476   3.2250 LP             1 S1                 0.0000
     57 ****        -0.6368  -1.1477   2.0247 LP             1 S1                 0.0000
     58 ****         5.7882  -2.6166  -1.2950 LP             1 S1                 0.0000
     59 ****         5.5598  -3.7235  -2.4737 LP             1 S1                 0.0000
@<TRIPOS>BOND
    1    1    2 1     
    2    1   25 1     
    3    1   26 1     
    4    1   27 1     
    5    2   23 ar    
    6    2    3 ar    
    7    3    4 ar    
    8    3   28 1     
    9    4   21 ar    
   10    4    5 1     
   11    5    6 2     
   12    6    7 1     
   13    6   29 1     
   14    7    8 1     
   15    7   21 1     
   16    8    9 1     
   17    8   30 1     
   18    8   31 1     
   19    9   10 1     
   20    9   11 1     
   21    9   32 1     
   22   10   33 1     
   23   11   12 1     
   24   11   34 1     
   25   11   35 1     
   26   12   20 1     
   27   12   13 1     
   28   12   53 1     
   29   13   14 1     
   30   13   36 1     
   31   13   37 1     
   32   14   15 1     
   33   14   38 1     
   34   14   39 1     
   35   15   16 1     
   36   15   19 1     
   37   15   54 1     
   38   16   17 1     
   39   16   40 1     
   40   16   41 1     
   41   17   18 1     
   42   17   42 1     
   43   17   43 1     
   44   18   44 1     
   45   19   20 1     
   46   19   45 1     
   47   19   46 1     
   48   20   47 1     
   49   20   48 1     
   50   21   22 ar    
   51   22   23 ar    
   52   22   49 1     
   53   23   24 1     
   54   24   50 1     
   55   24   51 1     
   56   24   52 1     
   57    5   55 1     
   58   10   56 1     
   59   10   57 1     
   60   18   58 1     
   61   18   59 1     
@<TRIPOS>SUBSTRUCTURE
      1 S1             1
@<TRIPOS>SET
LONE_PAIRS      STATIC     ATOMS    <user>   **** ""
5 55 56 57 58 59
DONOR_HYDROGENS      STATIC     ATOMS    <user>   **** ""
4 33 53 54 44
ATOM$BLUE        STATIC     ATOMS    COLORGROUP SYSTEM
5 55 56 57 58 59
ATOM$RED        STATIC     ATOMS    COLORGROUP SYSTEM
4 33 53 54 44
