AV-unprocessed.smi:2289|AV-procd|sdf|9208|dock3
  -GOLD-   2272012423D 1   1.00000     0.00000
 Structure written by MMmdl.
 40 41  0  0  0  0  0  0  0  0  1 V2000
  146.1642  141.6974  153.8886 C   0  0  0  0  0  0  0  0  0  0  0  0
  147.4015  140.8537  154.1394 C   0  0  0  0  0  0  0  0  0  0  0  0
  148.6100  141.5540  154.1886 N   0  0  0  0  0  0  0  0  0  0  0  0
  149.7159  140.9167  154.3931 C   0  0  0  0  0  0  0  0  0  0  0  0
  149.7463  139.5230  154.5670 N   0  0  0  0  0  0  0  0  0  0  0  0
  151.0806  138.9368  154.7987 C   0  0  0  0  0  0  0  0  0  0  0  0
  151.9156  139.6475  155.8957 C   0  0  2  0  0  0  0  0  0  0  0  0
  153.2696  139.2614  155.7649 O   0  0  0  0  0  0  0  0  0  0  0  0
  151.4360  139.4481  157.3513 C   0  0  0  0  0  0  0  0  0  0  0  0
  151.9790  140.5039  158.3066 C   0  0  0  0  0  0  0  0  0  0  0  0
  151.5599  141.8392  158.1196 C   0  0  0  0  0  0  0  0  0  0  0  0
  152.0206  142.8635  158.9652 C   0  0  0  0  0  0  0  0  0  0  0  0
  152.9118  142.5594  160.0076 C   0  0  0  0  0  0  0  0  0  0  0  0
  153.3395  141.2331  160.2014 C   0  0  0  0  0  0  0  0  0  0  0  0
  152.8817  140.1899  159.3616 C   0  0  0  0  0  0  0  0  0  0  0  0
  153.3826  138.7643  159.6038 C   0  0  0  0  0  0  0  0  0  0  0  0
  154.1541  138.6920  160.6893 F   0  0  0  0  0  0  0  0  0  0  0  0
  152.3645  137.9230  159.7823 F   0  0  0  0  0  0  0  0  0  0  0  0
  154.1077  138.3582  158.5615 F   0  0  0  0  0  0  0  0  0  0  0  0
  148.6100  138.7655  154.5464 C   0  0  0  0  0  0  0  0  0  0  0  0
  148.6400  137.5439  154.7086 O   0  0  0  0  0  0  0  0  0  0  0  0
  147.3592  139.5040  154.3087 C   0  0  0  0  0  0  0  0  0  0  0  0
  146.0725  138.6889  154.2653 C   0  0  0  0  0  0  0  0  0  0  0  0
  145.4725  141.6184  154.7276 H   0  0  0  0  0  0  0  0  0  0  0  0
  145.6543  141.3691  152.9826 H   0  0  0  0  0  0  0  0  0  0  0  0
  146.4195  142.7504  153.7633 H   0  0  0  0  0  0  0  0  0  0  0  0
  150.6857  141.4150  154.4415 H   0  0  0  0  0  0  0  0  0  0  0  0
  150.9961  137.8696  155.0148 H   0  0  0  0  0  0  0  0  0  0  0  0
  151.6573  138.9617  153.8729 H   0  0  0  0  0  0  0  0  0  0  0  0
  151.8888  140.7130  155.6648 H   0  0  0  0  0  0  0  0  0  0  0  0
  153.3785  138.8222  154.9352 H   0  0  0  0  0  0  0  0  0  0  0  0
  150.3503  139.4703  157.3931 H   0  0  0  0  0  0  0  0  0  0  0  0
  151.7137  138.4555  157.7093 H   0  0  0  0  0  0  0  0  0  0  0  0
  150.8743  142.0824  157.3207 H   0  0  0  0  0  0  0  0  0  0  0  0
  151.6910  143.8808  158.8127 H   0  0  0  0  0  0  0  0  0  0  0  0
  153.2699  143.3434  160.6582 H   0  0  0  0  0  0  0  0  0  0  0  0
  154.0291  141.0293  161.0066 H   0  0  0  0  0  0  0  0  0  0  0  0
  146.1250  137.9460  153.4689 H   0  0  0  0  0  0  0  0  0  0  0  0
  145.1856  139.2955  154.0897 H   0  0  0  0  0  0  0  0  0  0  0  0
  145.9283  138.1631  155.2097 H   0  0  0  0  0  0  0  0  0  0  0  0
  1  2  1  0  0  0  0
  1 24  1  0  0  0  0
  1 25  1  0  0  0  0
  1 26  1  0  0  0  0
  2 22  2  0  0  0  0
  2  3  1  0  0  0  0
  3  4  2  0  0  0  0
  4  5  1  0  0  0  0
  4 27  1  0  0  0  0
  5  6  1  0  0  0  0
  5 20  1  0  0  0  0
  6  7  1  0  0  0  0
  6 28  1  0  0  0  0
  6 29  1  0  0  0  0
  7  8  1  0  0  0  0
  7  9  1  0  0  0  0
  7 30  1  0  0  0  0
  8 31  1  0  0  0  0
  9 10  1  0  0  0  0
  9 32  1  0  0  0  0
  9 33  1  0  0  0  0
 10 15  1  0  0  0  0
 10 11  2  0  0  0  0
 11 12  1  0  0  0  0
 11 34  1  0  0  0  0
 12 13  2  0  0  0  0
 12 35  1  0  0  0  0
 13 14  1  0  0  0  0
 13 36  1  0  0  0  0
 14 15  2  0  0  0  0
 14 37  1  0  0  0  0
 15 16  1  0  0  0  0
 16 17  1  0  0  0  0
 16 18  1  0  0  0  0
 16 19  1  0  0  0  0
 20 21  2  0  0  0  0
 20 22  1  0  0  0  0
 22 23  1  0  0  0  0
 23 38  1  0  0  0  0
 23 39  1  0  0  0  0
 23 40  1  0  0  0  0
M  END
> <s_m_source_file>
AV-unprocessed.smi

> <i_m_source_file_index>
2289

> <i_lp_mmshare_version>
43012

> <i_f3d_flags>
0

> <s_epik_input>
W0NIM11jMW5bY0hdbihjKD1PKWMxW0NIM10pW0NIMl1bQ0BIXShbT0hdKVtDSDJdYzJbY0hdW2NIXVtjSF1bY0hdYzJDKEYpKEYpRg==

> <s_epik_cmdline>
J2VwaWtfcHl0aG9uJywgJy1waCcsICc3LjAnLCAnLXRuJywgJzgnLCAnLW1hJywgJzIwMCcsICctbWV0YWxfYmluZGluZycsICctaW1hZScsICc8aW5maWxlLm1hZT4nLCAnLW9tYWUnLCAnPG91dGZpbGUubWFlPic=

> <r_lp_tautomer_probability>
1

> <r_epik_Ionization_Penalty>
8.92636e-05

> <r_epik_Ionization_Penalty_Charging>
8.63033e-08

> <r_epik_Ionization_Penalty_Neutral>
8.91773e-05

> <r_epik_State_Penalty>
-0

> <r_epik_Charging_Adjusted_Penalty>
8.63033e-08

> <i_epik_Tot_Q>
0

> <i_epik_Tot_abs_Q>
0

> <r_epik_Metal_State_Penalty>
-0

> <b_epik_Metal_Only>
0

> <s_lp_Force_Field>
OPLS_2005

> <r_lp_Energy>
23.7682

> <b_lp_Chiralities_Consistent>
1

> <s_lp_Variant>
AV-unprocessed.smi:2289-1

> <Gold.Version>
5.8.1

> <Gold.Id.Protein>
6NUR|6NUR_protein|mol2

> <Gold.PLP.Fitness>
45.3545

> <Gold.PLP.PLP>
-42.5170

> <Gold.PLP.part.hbond>
-2.0000

> <Gold.PLP.part.metal>
0.0000

> <Gold.PLP.part.buried>
-2.6332

> <Gold.PLP.part.nonpolar>
-37.8396

> <Gold.PLP.part.repulsive>
0.3453

> <Gold.PLP.ligand.clash>
1.3462

> <Gold.PLP.ligand.torsion>
0.4153

> <Gold.PLP.Chemscore.Hbond>
1.1685

> <Gold.PLP.Chemscore.CHOScore>
0.0000

> <Gold.PLP.Chemscore.Metal>
0.0000

> <Gold.Chemscore.Hbonds>
donor molecule, donor type, donor heavy atom, donor atom, acceptor molecule, acceptor atom, score
      P1  H  7997  8009       L1     8  0.84
      P1  H  8011  8017       L1     3  0.02

> <Gold.PLP.Chemscore.Internal.Correction>
1.5089

> <Gold.Rescore>
     Score         DG    S(hbond)    S(metal)    S(lipo)     H(rot)  DE(clash)    DE(int)     intcor
     12.35     -13.82       0.96        0.00      95.73       2.37       0.21       1.26       ----

> <Gold.Chemscore.Fitness>
12.3479

> <Gold.Chemscore.DG>
-13.8163

> <Gold.Chemscore.ZeroCoef>
-5.4800

> <Gold.Chemscore.Hbond>
0.9577

> <Gold.Chemscore.Metal>
0.0000

> <Gold.Chemscore.Lipo>
95.7251

> <Gold.Chemscore.Internal_Hbond>
0.0000

> <Gold.Chemscore.DEClash>
0.2064

> <Gold.Chemscore.DEInternal>
1.2619

> <Gold.Chemscore.Rot>
2.3681

> <Gold.Chemscore.Internal.Correction>
   9.000000E+99

> <Gold.Chemscore.Hbonds>
donor molecule, donor type, donor heavy atom, donor atom, acceptor molecule, acceptor atom, score
      P1  H  7997  8009       L1     8  0.78

> <Gold.Chemscore.Hbond.Weighted>
-3.1988

> <Gold.Chemscore.Metal.Weighted>
-0.0000

> <Gold.Chemscore.Lipo.Weighted>
-11.1998

> <Gold.Chemscore.Internal_Hbond.Weighted>
0.0000

> <Gold.Chemscore.DEClash.Weighted>
0.2064

> <Gold.Chemscore.DEInternal.Weighted>
1.2619

> <Gold.Chemscore.Rot.Weighted>
6.0624

> <Gold.Chemscore.Internal.Correction.Weighted>
   9.000000E+99

> <Gold.Protein.RotatedTorsions>
[ 6907 6896 6895 6894 ] final  122.97 input  -60.11 | X-H torsion
[ 7974 7965 7964 7962 ] final   51.62 input  175.53 | X-H torsion
[ 8008 7997 7996 7995 ] final -161.17 input   59.86 | X-H torsion
[ 10167 10162 10161 10158 ] final  -13.47 input  -65.29 | X-H torsion
[ 10718 10713 10712 10709 ] final    9.95 input   66.30 | X-H torsion
[ 10763 10752 10751 10750 ] final -161.30 input  -60.55 | X-H torsion
[ 11005 11000 10999 10996 ] final -107.81 input  -57.11 | X-H torsion

> <Gold.Protein.ActiveResidues>
 VAL166  LYS551  ARG553  GLY616  TRP617  ASP618  TYR619  PRO620  LYS621  CYS622 
 ASP623  PHE694  ASN695  SER759  ASP760  ASP761  ALA762  ILE779  LEU786  VAL792 
 PHE793  MET794  SER795  GLU796  ALA797  LYS798  CYS799  TRP800  GLU811  SER814 

> <Gold.Protein.RotatedAtoms>
  152.4200  133.7101  159.6473 H   0  0  0  0  0  0  0  0  0  0  0  0  # atno 6907 bound_to 6896
  150.8076  133.8470  159.3203 H   0  0  0  0  0  0  0  0  0  0  0  0  # atno 6908 bound_to 6896
  151.6189  135.1036  160.0149 H   0  0  0  0  0  0  0  0  0  0  0  0  # atno 6909 bound_to 6896
  145.9895  139.4324  143.0082 H   0  0  0  0  0  0  0  0  0  0  0  0  # atno 7974 bound_to 7965
  155.7882  140.0874  157.2023 H   0  0  0  0  0  0  0  0  0  0  0  0  # atno 8008 bound_to 7997
  154.3986  140.1495  156.3190 H   0  0  0  0  0  0  0  0  0  0  0  0  # atno 8009 bound_to 7997
  155.8585  140.3431  155.5743 H   0  0  0  0  0  0  0  0  0  0  0  0  # atno 8010 bound_to 7997
  140.7183  143.5423  150.9395 H   0  0  0  0  0  0  0  0  0  0  0  0  # atno 10167 bound_to 10162
  156.9738  130.5979  149.5671 H   0  0  0  0  0  0  0  0  0  0  0  0  # atno 10718 bound_to 10713
  154.7316  135.3048  154.8882 H   0  0  0  0  0  0  0  0  0  0  0  0  # atno 10763 bound_to 10752
  153.9723  135.6740  153.4751 H   0  0  0  0  0  0  0  0  0  0  0  0  # atno 10764 bound_to 10752
  153.0923  135.4953  154.8635 H   0  0  0  0  0  0  0  0  0  0  0  0  # atno 10765 bound_to 10752
  141.0935  133.9013  157.2020 H   0  0  0  0  0  0  0  0  0  0  0  0  # atno 11005 bound_to 11000
  145.7651  140.9919  143.1179 LP  0  0  0  0  0  0  0  0  0  0  0  0  # atno 17320 bound_to 7965
  144.6885  139.9378  143.7474 LP  0  0  0  0  0  0  0  0  0  0  0  0  # atno 17321 bound_to 7965
  139.9146  143.6679  152.3109 LP  0  0  0  0  0  0  0  0  0  0  0  0  # atno 17342 bound_to 10162
  139.7074  144.7626  151.1169 LP  0  0  0  0  0  0  0  0  0  0  0  0  # atno 17343 bound_to 10162
  156.0272  130.5365  150.8438 LP  0  0  0  0  0  0  0  0  0  0  0  0  # atno 17370 bound_to 10713
  157.5574  131.0945  150.9608 LP  0  0  0  0  0  0  0  0  0  0  0  0  # atno 17371 bound_to 10713
  139.9766  135.0112  156.9645 LP  0  0  0  0  0  0  0  0  0  0  0  0  # atno 17394 bound_to 11000
  140.5197  134.0920  155.7289 LP  0  0  0  0  0  0  0  0  0  0  0  0  # atno 17395 bound_to 11000

$$$$
