#       Name:                AV-unprocessed.smi:2029
#       Creating user name   scv26
#       Creation time:       Fri Mar 27 10:49:25 2020


#       File generated by GOLD software.
#

@<TRIPOS>MOLECULE
AV-unprocessed.smi:2029
    31    32     1
SMALL
NO_CHARGES


@<TRIPOS>ATOM
      1 ****        -1.8141   1.8464  -1.4717 O.2            1 S1                 0.0000
      2 ****        -2.2289   0.8810  -0.8288 C.2            1 S1                 0.0000
      3 ****        -1.4181   0.0569  -0.1500 N.am           1 S1                 0.0000
      4 ****         0.0312   0.1903  -0.0969 C.3            1 S1                 0.0000
      5 ****         0.6507  -0.9447   0.7299 C.3            1 S1                 0.0000
      6 ****         2.1639  -0.8571   0.7838 C.ar           1 S1                 0.0000
      7 ****         2.9921  -1.6572  -0.0332 C.ar           1 S1                 0.0000
      8 ****         4.3928  -1.5227   0.0640 C.ar           1 S1                 0.0000
      9 ****         4.9353  -0.5920   0.9742 C.ar           1 S1                 0.0000
     10 ****         4.0619   0.1827   1.7645 C.ar           1 S1                 0.0000
     11 ****         2.7254   0.0247   1.6425 N.pl3          1 S1                 1.0000
     12 ****        -3.6759   0.5215  -0.7368 C.3            1 S1                 0.0000
     13 ****        -4.5401   0.7715  -1.9559 C.3            1 S1                 0.0000
     14 ****        -4.6833   1.6533  -0.7411 C.3            1 S1                 0.0000
     15 ****        -1.8326  -0.7138   0.3539 H              1 S1                 0.0000
     16 ****         0.4322   0.1737  -1.1117 H              1 S1                 0.0000
     17 ****         0.2885   1.1580   0.3370 H              1 S1                 0.0000
     18 ****         0.2595  -0.9240   1.7480 H              1 S1                 0.0000
     19 ****         0.3658  -1.9103   0.3098 H              1 S1                 0.0000
     20 ****         2.5623  -2.3648  -0.7275 H              1 S1                 0.0000
     21 ****         5.0432  -2.1261  -0.5523 H              1 S1                 0.0000
     22 ****         6.0054  -0.4740   1.0638 H              1 S1                 0.0000
     23 ****         4.3894   0.9181   2.4848 H              1 S1                 0.0000
     24 ****        -3.9239  -0.3509  -0.1340 H              1 S1                 0.0000
     25 ****        -4.0799   1.2095  -2.8400 H              1 S1                 0.0000
     26 ****        -5.3281   0.0491  -2.1585 H              1 S1                 0.0000
     27 ****        -5.5691   1.5286  -0.1216 H              1 S1                 0.0000
     28 ****        -4.3181   2.6759  -0.8196 H              1 S1                 0.0000
     29 ****         2.1124   0.5969   2.2237 H              1 S1                 0.0000
     30 ****        -0.8341   2.0428  -1.5025 LP             1 S1                 0.0000
     31 ****        -2.4574   2.4337  -1.9628 LP             1 S1                 0.0000
@<TRIPOS>BOND
    1    1    2 2     
    2    2    3 am    
    3    2   12 1     
    4    3    4 1     
    5    3   15 1     
    6    4    5 1     
    7    4   16 1     
    8    4   17 1     
    9    5    6 1     
   10    5   18 1     
   11    5   19 1     
   12    6   11 ar    
   13    6    7 ar    
   14    7    8 ar    
   15    7   20 1     
   16    8    9 ar    
   17    8   21 1     
   18    9   10 ar    
   19    9   22 1     
   20   10   11 ar    
   21   10   23 1     
   22   11   29 1     
   23   12   14 1     
   24   12   13 1     
   25   12   24 1     
   26   13   14 1     
   27   13   25 1     
   28   13   26 1     
   29   14   27 1     
   30   14   28 1     
   31    1   30 1     
   32    1   31 1     
@<TRIPOS>SUBSTRUCTURE
      1 S1             1
@<TRIPOS>SET
LONE_PAIRS      STATIC     ATOMS    <user>   **** ""
2 30 31
DONOR_HYDROGENS      STATIC     ATOMS    <user>   **** ""
2 15 29
ATOM$BLUE        STATIC     ATOMS    COLORGROUP SYSTEM
2 30 31
ATOM$RED        STATIC     ATOMS    COLORGROUP SYSTEM
2 15 29
