AV-unprocessed.smi:2825|AV-procd|sdf|10888|dock7
  -GOLD-   2272015333D 1   1.00000     0.00000
 Structure written by MMmdl.
 48 49  0  0  0  0  0  0  0  0  1 V2000
  149.7528  132.3633  153.5760 C   0  0  0  0  0  0  0  0  0  0  0  0
  149.6699  133.2579  154.8170 C   0  0  0  0  0  0  0  0  0  0  0  0
  150.2473  134.6601  154.5755 C   0  0  0  0  0  0  0  0  0  0  0  0
  150.7791  135.4665  156.1526 S   0  0  0  0  0  0  0  0  0  0  0  0
  150.2700  134.6524  157.2670 O   0  0  0  0  0  0  0  0  0  0  0  0
  152.2115  135.7941  156.0755 O   0  0  0  0  0  0  0  0  0  0  0  0
  149.8923  136.9594  156.1665 N   0  0  0  0  0  0  0  0  0  0  0  0
  148.6873  137.0662  156.9986 C   0  0  0  0  0  0  0  0  0  0  0  0
  150.0583  137.9495  155.0831 C   0  0  0  0  0  0  0  0  0  0  0  0
  149.4426  139.3321  155.3915 C   0  0  2  0  0  0  0  0  0  0  0  0
  148.4823  139.5874  154.3851 O   0  0  0  0  0  0  0  0  0  0  0  0
  150.4686  140.4877  155.4014 C   0  0  0  0  0  0  0  0  0  0  0  0
  151.3655  140.4389  156.5437 N   0  0  0  0  0  0  0  0  0  0  0  0
  152.3135  139.5151  156.7960 C   0  0  0  0  0  0  0  0  0  0  0  0
  153.0351  139.6685  157.9022 N   0  0  0  0  0  0  0  0  0  0  0  0
  152.4834  140.8196  158.4373 C   0  0  0  0  0  0  0  0  0  0  0  0
  152.8016  141.5246  159.6186 C   0  0  0  0  0  0  0  0  0  0  0  0
  152.0940  142.6938  159.9782 C   0  0  0  0  0  0  0  0  0  0  0  0
  152.4718  143.4226  161.2558 C   0  0  0  0  0  0  0  0  0  0  0  0
  151.0462  143.1717  159.1513 C   0  0  0  0  0  0  0  0  0  0  0  0
  150.2711  144.4257  159.5153 C   0  0  0  0  0  0  0  0  0  0  0  0
  150.7142  142.4780  157.9692 C   0  0  0  0  0  0  0  0  0  0  0  0
  151.4313  141.3214  157.6166 C   0  0  0  0  0  0  0  0  0  0  0  0
  149.3073  131.3876  153.7712 H   0  0  0  0  0  0  0  0  0  0  0  0
  150.7875  132.1995  153.2777 H   0  0  0  0  0  0  0  0  0  0  0  0
  149.2247  132.8078  152.7320 H   0  0  0  0  0  0  0  0  0  0  0  0
  148.6280  133.3441  155.1273 H   0  0  0  0  0  0  0  0  0  0  0  0
  150.1987  132.7757  155.6396 H   0  0  0  0  0  0  0  0  0  0  0  0
  151.0985  134.6202  153.8999 H   0  0  0  0  0  0  0  0  0  0  0  0
  149.5025  135.3046  154.1082 H   0  0  0  0  0  0  0  0  0  0  0  0
  147.9421  136.3357  156.6854 H   0  0  0  0  0  0  0  0  0  0  0  0
  148.2497  138.0631  156.9404 H   0  0  0  0  0  0  0  0  0  0  0  0
  148.9373  136.8689  158.0410 H   0  0  0  0  0  0  0  0  0  0  0  0
  151.1161  138.0520  154.8378 H   0  0  0  0  0  0  0  0  0  0  0  0
  149.5956  137.5392  154.1846 H   0  0  0  0  0  0  0  0  0  0  0  0
  148.9021  139.3014  156.3357 H   0  0  0  0  0  0  0  0  0  0  0  0
  147.6234  139.4179  154.7413 H   0  0  0  0  0  0  0  0  0  0  0  0
  151.0802  140.4671  154.5015 H   0  0  0  0  0  0  0  0  0  0  0  0
  149.9572  141.4514  155.4064 H   0  0  0  0  0  0  0  0  0  0  0  0
  152.4896  138.6879  156.1236 H   0  0  0  0  0  0  0  0  0  0  0  0
  153.5977  141.1577  160.2498 H   0  0  0  0  0  0  0  0  0  0  0  0
  151.6183  143.4777  161.9315 H   0  0  0  0  0  0  0  0  0  0  0  0
  152.8037  144.4368  161.0330 H   0  0  0  0  0  0  0  0  0  0  0  0
  153.2807  142.9136  161.7806 H   0  0  0  0  0  0  0  0  0  0  0  0
  149.5182  144.6607  158.7623 H   0  0  0  0  0  0  0  0  0  0  0  0
  150.9428  145.2810  159.5926 H   0  0  0  0  0  0  0  0  0  0  0  0
  149.7611  144.2964  160.4701 H   0  0  0  0  0  0  0  0  0  0  0  0
  149.9146  142.8300  157.3365 H   0  0  0  0  0  0  0  0  0  0  0  0
  1  2  1  0  0  0  0
  1 24  1  0  0  0  0
  1 25  1  0  0  0  0
  1 26  1  0  0  0  0
  2  3  1  0  0  0  0
  2 27  1  0  0  0  0
  2 28  1  0  0  0  0
  3  4  1  0  0  0  0
  3 29  1  0  0  0  0
  3 30  1  0  0  0  0
  4  5  2  0  0  0  0
  4  6  2  0  0  0  0
  4  7  1  0  0  0  0
  7  8  1  0  0  0  0
  7  9  1  0  0  0  0
  8 31  1  0  0  0  0
  8 32  1  0  0  0  0
  8 33  1  0  0  0  0
  9 10  1  0  0  0  0
  9 34  1  0  0  0  0
  9 35  1  0  0  0  0
 10 11  1  0  0  0  0
 10 12  1  0  0  0  0
 10 36  1  0  0  0  0
 11 37  1  0  0  0  0
 12 13  1  0  0  0  0
 12 38  1  0  0  0  0
 12 39  1  0  0  0  0
 13 23  1  0  0  0  0
 13 14  1  0  0  0  0
 14 15  2  0  0  0  0
 14 40  1  0  0  0  0
 15 16  1  0  0  0  0
 16 23  2  0  0  0  0
 16 17  1  0  0  0  0
 17 18  2  0  0  0  0
 17 41  1  0  0  0  0
 18 19  1  0  0  0  0
 18 20  1  0  0  0  0
 19 42  1  0  0  0  0
 19 43  1  0  0  0  0
 19 44  1  0  0  0  0
 20 21  1  0  0  0  0
 20 22  2  0  0  0  0
 21 45  1  0  0  0  0
 21 46  1  0  0  0  0
 21 47  1  0  0  0  0
 22 23  1  0  0  0  0
 22 48  1  0  0  0  0
M  END
> <s_m_source_file>
AV-unprocessed.smi

> <i_m_source_file_index>
2825

> <i_lp_mmshare_version>
43012

> <i_f3d_flags>
0

> <s_epik_input>
W0NIM11bQ0gyXVtDSDJdUyg9TykoPU8pTihbQ0gzXSlbQ0gyXVtDQEhdKFtPSF0pW0NIMl1uKFtjSF1uMSljKGMxMilbY0hdYyhbQ0gzXSljKFtjSF0yKVtDSDNd

> <s_epik_cmdline>
J2VwaWtfcHl0aG9uJywgJy1waCcsICc3LjAnLCAnLXRuJywgJzgnLCAnLW1hJywgJzIwMCcsICctbWV0YWxfYmluZGluZycsICctaW1hZScsICc8aW5maWxlLm1hZT4nLCAnLW9tYWUnLCAnPG91dGZpbGUubWFlPic=

> <r_epik_Ionization_Penalty>
0.104931

> <r_epik_Ionization_Penalty_Charging>
0

> <r_epik_Ionization_Penalty_Neutral>
0.104931

> <r_epik_State_Penalty>
0.0948201

> <r_epik_Charging_Adjusted_Penalty>
0.0948201

> <i_epik_Tot_Q>
0

> <i_epik_Tot_abs_Q>
0

> <r_epik_Metal_State_Penalty>
0.00010282

> <b_epik_Metal_Only>
0

> <s_lp_Force_Field>
OPLS_2005

> <r_lp_Energy>
0.666552

> <b_lp_Chiralities_Consistent>
1

> <s_lp_Variant>
AV-unprocessed.smi:2825-1

> <Gold.Version>
5.8.1

> <Gold.Id.Protein>
6NUR|6NUR_protein|mol2

> <Gold.PLP.Fitness>
46.0420

> <Gold.PLP.PLP>
-39.7694

> <Gold.PLP.part.hbond>
-3.0000

> <Gold.PLP.part.metal>
0.0000

> <Gold.PLP.part.buried>
-5.0095

> <Gold.PLP.part.nonpolar>
-32.5981

> <Gold.PLP.part.repulsive>
0.0025

> <Gold.PLP.ligand.clash>
0.0000

> <Gold.PLP.ligand.torsion>
2.3631

> <Gold.PLP.Chemscore.Hbond>
2.8400

> <Gold.PLP.Chemscore.CHOScore>
0.0000

> <Gold.PLP.Chemscore.Metal>
0.0000

> <Gold.Chemscore.Hbonds>
donor molecule, donor type, donor heavy atom, donor atom, acceptor molecule, acceptor atom, score
      P1  H  6896  6907       L1     5  0.41
      P1  H  7997  8009       L1    15  0.96
      P1  H 10752 10764       L1     6  0.88

> <Gold.PLP.Chemscore.Internal.Correction>
2.4788

> <Gold.Rescore>
     Score         DG    S(hbond)    S(metal)    S(lipo)     H(rot)  DE(clash)    DE(int)     intcor
     16.38     -18.90       2.29        0.00     102.46       2.43       0.17       2.35       ----

> <Gold.Chemscore.Fitness>
16.3751

> <Gold.Chemscore.DG>
-18.9016

> <Gold.Chemscore.ZeroCoef>
-5.4800

> <Gold.Chemscore.Hbond>
2.2941

> <Gold.Chemscore.Metal>
0.0000

> <Gold.Chemscore.Lipo>
102.4632

> <Gold.Chemscore.Internal_Hbond>
0.0000

> <Gold.Chemscore.DEClash>
0.1737

> <Gold.Chemscore.DEInternal>
2.3528

> <Gold.Chemscore.Rot>
2.4332

> <Gold.Chemscore.Internal.Correction>
   9.000000E+99

> <Gold.Chemscore.Hbonds>
donor molecule, donor type, donor heavy atom, donor atom, acceptor molecule, acceptor atom, score
      P1  H  6896  6907       L1     5  0.41
      P1  H  7997  8009       L1    15  0.18
      P1  H 10752 10764       L1     6  0.82

> <Gold.Chemscore.Hbond.Weighted>
-7.6624

> <Gold.Chemscore.Metal.Weighted>
-0.0000

> <Gold.Chemscore.Lipo.Weighted>
-11.9882

> <Gold.Chemscore.Internal_Hbond.Weighted>
0.0000

> <Gold.Chemscore.DEClash.Weighted>
0.1737

> <Gold.Chemscore.DEInternal.Weighted>
2.3528

> <Gold.Chemscore.Rot.Weighted>
6.2289

> <Gold.Chemscore.Internal.Correction.Weighted>
   9.000000E+99

> <Gold.Protein.RotatedTorsions>
[ 6907 6896 6895 6894 ] final  -93.50 input  -60.11 | X-H torsion
[ 7974 7965 7964 7962 ] final -139.11 input  175.53 | X-H torsion
[ 8008 7997 7996 7995 ] final  142.30 input   59.86 | X-H torsion
[ 10167 10162 10161 10158 ] final  102.54 input  -65.29 | X-H torsion
[ 10718 10713 10712 10709 ] final  176.26 input   66.30 | X-H torsion
[ 10763 10752 10751 10750 ] final  -44.21 input  -60.55 | X-H torsion
[ 11005 11000 10999 10996 ] final -115.29 input  -57.11 | X-H torsion

> <Gold.Protein.ActiveResidues>
 VAL166  LYS551  ARG553  GLY616  TRP617  ASP618  TYR619  PRO620  LYS621  CYS622 
 ASP623  PHE694  ASN695  SER759  ASP760  ASP761  ALA762  ILE779  LEU786  VAL792 
 PHE793  MET794  SER795  GLU796  ALA797  LYS798  CYS799  TRP800  GLU811  SER814 

> <Gold.Protein.RotatedAtoms>
  150.6924  134.1958  159.4302 H   0  0  0  0  0  0  0  0  0  0  0  0  # atno 6907 bound_to 6896
  151.9926  134.9968  160.0571 H   0  0  0  0  0  0  0  0  0  0  0  0  # atno 6908 bound_to 6896
  152.1653  133.4573  159.4918 H   0  0  0  0  0  0  0  0  0  0  0  0  # atno 6909 bound_to 6896
  144.8703  140.6356  143.5271 H   0  0  0  0  0  0  0  0  0  0  0  0  # atno 7974 bound_to 7965
  156.2951  140.2292  156.4705 H   0  0  0  0  0  0  0  0  0  0  0  0  # atno 8008 bound_to 7997
  154.7939  140.0452  157.1243 H   0  0  0  0  0  0  0  0  0  0  0  0  # atno 8009 bound_to 7997
  154.9612  140.3054  155.5033 H   0  0  0  0  0  0  0  0  0  0  0  0  # atno 8010 bound_to 7997
  139.7341  144.7028  151.0676 H   0  0  0  0  0  0  0  0  0  0  0  0  # atno 10167 bound_to 10162
  156.9228  130.9946  151.3001 H   0  0  0  0  0  0  0  0  0  0  0  0  # atno 10718 bound_to 10713
  154.0084  135.6684  153.4763 H   0  0  0  0  0  0  0  0  0  0  0  0  # atno 10763 bound_to 10752
  153.0632  135.5016  154.8136 H   0  0  0  0  0  0  0  0  0  0  0  0  # atno 10764 bound_to 10752
  154.7011  135.3079  154.9304 H   0  0  0  0  0  0  0  0  0  0  0  0  # atno 10765 bound_to 10752
  141.0497  133.9707  157.2857 H   0  0  0  0  0  0  0  0  0  0  0  0  # atno 11005 bound_to 11000
  145.4143  139.1574  143.4109 LP  0  0  0  0  0  0  0  0  0  0  0  0  # atno 17320 bound_to 7965
  146.2925  140.4249  142.8734 LP  0  0  0  0  0  0  0  0  0  0  0  0  # atno 17321 bound_to 7965
  140.7776  143.5006  150.9776 LP  0  0  0  0  0  0  0  0  0  0  0  0  # atno 17342 bound_to 10162
  139.8694  143.7212  152.3167 LP  0  0  0  0  0  0  0  0  0  0  0  0  # atno 17343 bound_to 10162
  157.5897  130.8435  149.8641 LP  0  0  0  0  0  0  0  0  0  0  0  0  # atno 17370 bound_to 10713
  156.0483  130.3723  150.1263 LP  0  0  0  0  0  0  0  0  0  0  0  0  # atno 17371 bound_to 10713
  139.9340  135.0198  156.8495 LP  0  0  0  0  0  0  0  0  0  0  0  0  # atno 17394 bound_to 11000
  140.6079  134.0110  155.7564 LP  0  0  0  0  0  0  0  0  0  0  0  0  # atno 17395 bound_to 11000

$$$$
