AV-unprocessed.smi:2084|AV-procd|sdf|8515|dock7
  -GOLD-   2272011233D 1   1.00000     0.00000
 Structure written by MMmdl.
 38 39  0  0  0  0  0  0  0  0  3 V2000
  147.0436  136.4954  154.4911 C   0  0  0  0  0  0  0  0  0  0  0  0
  148.5105  136.3517  154.7071 N   0  3  0  0  0  0  0  0  0  0  0  0
  148.8119  135.0225  155.2998 C   0  0  0  0  0  0  0  0  0  0  0  0
  149.2031  137.5183  155.3676 C   0  0  0  0  0  0  0  0  0  0  0  0
  148.4561  137.8952  156.6873 C   0  0  0  0  0  0  0  0  0  0  0  0
  148.5324  136.8640  157.7232 N   0  0  0  0  0  0  0  0  0  0  0  0
  149.2081  136.9348  158.8785 C   0  0  0  0  0  0  0  0  0  0  0  0
  149.8703  137.9395  159.1475 O   0  0  0  0  0  0  0  0  0  0  0  0
  149.0593  135.8397  159.6564 N   0  5  0  0  0  0  0  0  0  0  0  0
  148.2916  135.8973  160.7568 C   0  0  0  0  0  0  0  0  0  0  0  0
  147.9107  137.0482  161.3227 N   0  0  0  0  0  0  0  0  0  0  0  0
  147.1211  136.8723  162.4605 C   0  0  0  0  0  0  0  0  0  0  0  0
  146.9037  135.5566  162.7735 C   0  0  0  0  0  0  0  0  0  0  0  0
  147.6876  134.4931  161.6406 S   0  0  0  0  0  0  0  0  0  0  0  0
  150.6884  137.1636  155.6882 C   0  0  0  0  0  0  0  0  0  0  0  0
  151.5556  138.0010  154.7457 C   0  0  0  0  0  0  0  0  0  0  0  0
  150.7331  139.2611  154.5053 C   0  0  0  0  0  0  0  0  0  0  0  0
  149.2914  138.7557  154.4265 C   0  0  0  0  0  0  0  0  0  0  0  0
  146.4829  136.4454  155.4235 H   0  0  0  0  0  0  0  0  0  0  0  0
  146.6834  135.6829  153.8594 H   0  0  0  0  0  0  0  0  0  0  0  0
  146.7674  137.4158  153.9815 H   0  0  0  0  0  0  0  0  0  0  0  0
  148.5893  135.0009  156.3669 H   0  0  0  0  0  0  0  0  0  0  0  0
  149.8526  134.7374  155.1527 H   0  0  0  0  0  0  0  0  0  0  0  0
  148.2190  134.2416  154.8224 H   0  0  0  0  0  0  0  0  0  0  0  0
  148.9040  138.7728  157.1505 H   0  0  0  0  0  0  0  0  0  0  0  0
  147.4219  138.1646  156.4668 H   0  0  0  0  0  0  0  0  0  0  0  0
  148.0100  136.0167  157.5549 H   0  0  0  0  0  0  0  0  0  0  0  0
  146.7577  137.7413  162.9883 H   0  0  0  0  0  0  0  0  0  0  0  0
  146.3350  135.1497  163.5957 H   0  0  0  0  0  0  0  0  0  0  0  0
  150.9563  137.4348  156.7073 H   0  0  0  0  0  0  0  0  0  0  0  0
  150.9154  136.0994  155.6295 H   0  0  0  0  0  0  0  0  0  0  0  0
  152.5388  138.2176  155.1646 H   0  0  0  0  0  0  0  0  0  0  0  0
  151.7049  137.4734  153.8033 H   0  0  0  0  0  0  0  0  0  0  0  0
  150.8449  139.9400  155.3519 H   0  0  0  0  0  0  0  0  0  0  0  0
  151.0397  139.7979  153.6072 H   0  0  0  0  0  0  0  0  0  0  0  0
  149.0755  138.5009  153.3907 H   0  0  0  0  0  0  0  0  0  0  0  0
  148.5803  139.5392  154.6908 H   0  0  0  0  0  0  0  0  0  0  0  0
  148.9029  136.3184  153.7770 H   0  0  0  0  0  0  0  0  0  0  0  0
  1  2  1  0  0  0  0
  1 19  1  0  0  0  0
  1 20  1  0  0  0  0
  1 21  1  0  0  0  0
  2  3  1  0  0  0  0
  2  4  1  0  0  0  0
  2 38  1  0  0  0  0
  3 22  1  0  0  0  0
  3 23  1  0  0  0  0
  3 24  1  0  0  0  0
  4 18  1  0  0  0  0
  4  5  1  0  0  0  0
  4 15  1  0  0  0  0
  5  6  1  0  0  0  0
  5 25  1  0  0  0  0
  5 26  1  0  0  0  0
  6  7  1  0  0  0  0
  6 27  1  0  0  0  0
  7  8  2  0  0  0  0
  7  9  1  0  0  0  0
  9 10  1  0  0  0  0
 10 14  1  0  0  0  0
 10 11  2  0  0  0  0
 11 12  1  0  0  0  0
 12 13  2  0  0  0  0
 12 28  1  0  0  0  0
 13 14  1  0  0  0  0
 13 29  1  0  0  0  0
 15 16  1  0  0  0  0
 15 30  1  0  0  0  0
 15 31  1  0  0  0  0
 16 17  1  0  0  0  0
 16 32  1  0  0  0  0
 16 33  1  0  0  0  0
 17 18  1  0  0  0  0
 17 34  1  0  0  0  0
 17 35  1  0  0  0  0
 18 36  1  0  0  0  0
 18 37  1  0  0  0  0
M  CHG  1   2   1
M  CHG  1   9  -1
M  END
> <s_m_source_file>
AV-unprocessed.smi

> <i_m_source_file_index>
2084

> <i_lp_mmshare_version>
43012

> <i_f3d_flags>
0

> <s_epik_input>
W0NIMl0xW0NIMl1bQ0gyXVtDSDJdQzEoTihbQ0gzXSlbQ0gzXSlbQ0gyXVtOSF1DKD1PKVtOSF1jMm5bY0hdW2NIXXMy

> <s_epik_cmdline>
J2VwaWtfcHl0aG9uJywgJy1waCcsICc3LjAnLCAnLXRuJywgJzgnLCAnLW1hJywgJzIwMCcsICctbWV0YWxfYmluZGluZycsICctaW1hZScsICc8aW5maWxlLm1hZT4nLCAnLW9tYWUnLCAnPG91dGZpbGUubWFlPic=

> <r_lp_tautomer_probability>
1

> <r_epik_Ionization_Penalty>
7.73928

> <r_epik_Ionization_Penalty_Charging>
6.33943

> <r_epik_Ionization_Penalty_Neutral>
1.39985

> <r_epik_State_Penalty>
6.33766

> <r_epik_Charging_Adjusted_Penalty>
12.6771

> <i_epik_Tot_Q>
0

> <i_epik_Tot_abs_Q>
2

> <r_epik_Metal_State_Penalty>
2.27131

> <b_epik_Metal_Only>
1

> <s_lp_Force_Field>
OPLS_2005

> <r_lp_Energy>
28.85

> <b_lp_Chiralities_Consistent>
1

> <s_lp_Variant>
AV-unprocessed.smi:2084-2

> <Gold.Version>
5.8.1

> <Gold.Id.Protein>
6NUR|6NUR_protein|mol2

> <Gold.PLP.Fitness>
44.5193

> <Gold.PLP.PLP>
-30.1952

> <Gold.PLP.part.hbond>
-4.7804

> <Gold.PLP.part.metal>
0.0000

> <Gold.PLP.part.buried>
-2.6537

> <Gold.PLP.part.nonpolar>
-22.5700

> <Gold.PLP.part.repulsive>
0.0331

> <Gold.PLP.ligand.clash>
0.0000

> <Gold.PLP.ligand.torsion>
1.1500

> <Gold.PLP.Chemscore.Hbond>
5.4961

> <Gold.PLP.Chemscore.CHOScore>
0.0000

> <Gold.PLP.Chemscore.Metal>
0.0000

> <Gold.Chemscore.Hbonds>
donor molecule, donor type, donor heavy atom, donor atom, acceptor molecule, acceptor atom, score
      L1  H     2    38       P1  7948  2.00
      P1  H  6896  6907       L1     9  2.00
      P1  H  6931  6943       L1    11  1.00
      P1  H  6934  6947       L1    11  0.39

> <Gold.PLP.Chemscore.Internal.Correction>
0.1359

> <Gold.Rescore>
     Score         DG    S(hbond)    S(metal)    S(lipo)     H(rot)  DE(clash)    DE(int)     intcor
     15.40     -16.83       2.59        0.00      57.20       1.55       0.01       1.42       ----

> <Gold.Chemscore.Fitness>
15.3993

> <Gold.Chemscore.DG>
-16.8305

> <Gold.Chemscore.ZeroCoef>
-5.4800

> <Gold.Chemscore.Hbond>
2.5862

> <Gold.Chemscore.Metal>
0.0000

> <Gold.Chemscore.Lipo>
57.2004

> <Gold.Chemscore.Internal_Hbond>
0.0000

> <Gold.Chemscore.DEClash>
0.0106

> <Gold.Chemscore.DEInternal>
1.4206

> <Gold.Chemscore.Rot>
1.5546

> <Gold.Chemscore.Internal.Correction>
   9.000000E+99

> <Gold.Chemscore.Hbonds>
donor molecule, donor type, donor heavy atom, donor atom, acceptor molecule, acceptor atom, score
      L1  H     2    38       P1  7948  0.99
      P1  H  6896  6907       L1     9  0.73
      P1  H  6931  6943       L1    11  0.25
      P1  H  6934  6947       L1    11  0.04

> <Gold.Chemscore.Hbond.Weighted>
-8.6379

> <Gold.Chemscore.Metal.Weighted>
-0.0000

> <Gold.Chemscore.Lipo.Weighted>
-6.6925

> <Gold.Chemscore.Internal_Hbond.Weighted>
0.0000

> <Gold.Chemscore.DEClash.Weighted>
0.0106

> <Gold.Chemscore.DEInternal.Weighted>
1.4206

> <Gold.Chemscore.Rot.Weighted>
3.9798

> <Gold.Chemscore.Internal.Correction.Weighted>
   9.000000E+99

> <Gold.Protein.RotatedTorsions>
[ 6907 6896 6895 6894 ] final  -58.90 input  -60.11 | X-H torsion
[ 7974 7965 7964 7962 ] final   61.26 input  175.53 | X-H torsion
[ 8008 7997 7996 7995 ] final   88.99 input   59.86 | X-H torsion
[ 10167 10162 10161 10158 ] final  178.27 input  -65.29 | X-H torsion
[ 10718 10713 10712 10709 ] final  -23.46 input   66.30 | X-H torsion
[ 10763 10752 10751 10750 ] final   76.06 input  -60.55 | X-H torsion
[ 11005 11000 10999 10996 ] final  -91.02 input  -57.11 | X-H torsion

> <Gold.Protein.ActiveResidues>
 VAL166  LYS551  ARG553  GLY616  TRP617  ASP618  TYR619  PRO620  LYS621  CYS622 
 ASP623  PHE694  ASN695  SER759  ASP760  ASP761  ALA762  ILE779  LEU786  VAL792 
 PHE793  MET794  SER795  GLU796  ALA797  LYS798  CYS799  TRP800  GLU811  SER814 

> <Gold.Protein.RotatedAtoms>
  150.7971  134.7038  159.6564 H   0  0  0  0  0  0  0  0  0  0  0  0  # atno 6907 bound_to 6896
  152.4084  134.6163  160.0049 H   0  0  0  0  0  0  0  0  0  0  0  0  # atno 6908 bound_to 6896
  151.6414  133.3289  159.3167 H   0  0  0  0  0  0  0  0  0  0  0  0  # atno 6909 bound_to 6896
  145.8867  139.3482  143.0673 H   0  0  0  0  0  0  0  0  0  0  0  0  # atno 7974 bound_to 7965
  155.9945  140.3365  155.6785 H   0  0  0  0  0  0  0  0  0  0  0  0  # atno 8008 bound_to 7997
  155.6375  140.0691  157.2647 H   0  0  0  0  0  0  0  0  0  0  0  0  # atno 8009 bound_to 7997
  154.4229  140.1748  156.1525 H   0  0  0  0  0  0  0  0  0  0  0  0  # atno 8010 bound_to 7997
  139.5287  144.2700  152.0636 H   0  0  0  0  0  0  0  0  0  0  0  0  # atno 10167 bound_to 10162
  156.4908  130.4566  149.6757 H   0  0  0  0  0  0  0  0  0  0  0  0  # atno 10718 bound_to 10713
  153.0698  135.4965  154.8280 H   0  0  0  0  0  0  0  0  0  0  0  0  # atno 10763 bound_to 10752
  154.7006  135.3001  154.9349 H   0  0  0  0  0  0  0  0  0  0  0  0  # atno 10764 bound_to 10752
  154.0074  135.6758  153.4816 H   0  0  0  0  0  0  0  0  0  0  0  0  # atno 10765 bound_to 10752
  141.1554  133.7729  156.9820 H   0  0  0  0  0  0  0  0  0  0  0  0  # atno 11005 bound_to 11000
  145.8958  140.9275  143.0528 LP  0  0  0  0  0  0  0  0  0  0  0  0  # atno 17320 bound_to 7965
  144.6729  140.0966  143.7462 LP  0  0  0  0  0  0  0  0  0  0  0  0  # atno 17321 bound_to 7965
  140.2160  144.4514  150.6364 LP  0  0  0  0  0  0  0  0  0  0  0  0  # atno 17342 bound_to 10162
  140.6449  143.2211  151.6207 LP  0  0  0  0  0  0  0  0  0  0  0  0  # atno 17343 bound_to 10162
  156.3429  130.7391  151.2339 LP  0  0  0  0  0  0  0  0  0  0  0  0  # atno 17370 bound_to 10713
  157.7474  131.0398  150.4570 LP  0  0  0  0  0  0  0  0  0  0  0  0  # atno 17371 bound_to 10713
  140.1060  134.9506  157.1994 LP  0  0  0  0  0  0  0  0  0  0  0  0  # atno 17394 bound_to 11000
  140.3256  134.2867  155.7237 LP  0  0  0  0  0  0  0  0  0  0  0  0  # atno 17395 bound_to 11000

$$$$
