AV-unprocessed.smi:1670|AV-procd|sdf|6696|dock4
  -GOLD-   22720 7433D 1   1.00000     0.00000
 Structure written by MMmdl.
 41 42  0  0  0  0  0  0  0  0  1 V2000
  149.3506  133.4762  155.9982 C   0  0  0  0  0  0  0  0  0  0  0  0
  149.0906  134.8542  155.3746 C   0  0  1  0  0  0  0  0  0  0  0  0
  150.3782  135.7043  155.3329 C   0  0  0  0  0  0  0  0  0  0  0  0
  150.1377  137.0617  154.8743 N   0  0  0  0  0  0  0  0  0  0  0  0
  151.0609  138.0435  154.5825 C   0  0  0  0  0  0  0  0  0  0  0  0
  150.3651  139.1570  154.2081 C   0  0  0  0  0  0  0  0  0  0  0  0
  149.0042  138.7521  154.3010 C   0  0  0  0  0  0  0  0  0  0  0  0
  148.8711  137.4964  154.6958 N   0  0  0  0  0  0  0  0  0  0  0  0
  148.5429  134.6737  154.0305 N   0  0  0  0  0  0  0  0  0  0  0  0
  147.6025  133.7820  153.6850 C   0  0  0  0  0  0  0  0  0  0  0  0
  147.1032  132.9664  154.4607 O   0  0  0  0  0  0  0  0  0  0  0  0
  147.2607  133.8971  152.3944 N   0  0  0  0  0  0  0  0  0  0  0  0
  146.2427  133.0971  151.7204 C   0  0  2  0  0  0  0  0  0  0  0  0
  146.7016  132.7223  150.2972 C   0  0  0  0  0  0  0  0  0  0  0  0
  145.6170  131.9313  149.5449 C   0  0  0  0  0  0  0  0  0  0  0  0
  144.2640  132.6680  149.5217 C   0  0  2  0  0  0  0  0  0  0  0  0
  144.3432  133.8026  148.6814 O   0  0  0  0  0  0  0  0  0  0  0  0
  143.8228  133.0892  150.9364 C   0  0  0  0  0  0  0  0  0  0  0  0
  144.9168  133.8776  151.6778 C   0  0  0  0  0  0  0  0  0  0  0  0
  149.7334  133.5720  157.0148 H   0  0  0  0  0  0  0  0  0  0  0  0
  150.0810  132.9090  155.4201 H   0  0  0  0  0  0  0  0  0  0  0  0
  148.4338  132.8874  156.0470 H   0  0  0  0  0  0  0  0  0  0  0  0
  148.3602  135.3608  156.0082 H   0  0  0  0  0  0  0  0  0  0  0  0
  150.8174  135.7646  156.3294 H   0  0  0  0  0  0  0  0  0  0  0  0
  151.1272  135.2351  154.6923 H   0  0  0  0  0  0  0  0  0  0  0  0
  152.1234  137.8715  154.6717 H   0  0  0  0  0  0  0  0  0  0  0  0
  150.7670  140.1155  153.9154 H   0  0  0  0  0  0  0  0  0  0  0  0
  148.1153  139.3293  154.0944 H   0  0  0  0  0  0  0  0  0  0  0  0
  148.8844  135.2995  153.3161 H   0  0  0  0  0  0  0  0  0  0  0  0
  147.7263  134.6003  151.8398 H   0  0  0  0  0  0  0  0  0  0  0  0
  146.0753  132.1808  152.2900 H   0  0  0  0  0  0  0  0  0  0  0  0
  146.9478  133.6261  149.7381 H   0  0  0  0  0  0  0  0  0  0  0  0
  147.6165  132.1304  150.3409 H   0  0  0  0  0  0  0  0  0  0  0  0
  145.9483  131.7146  148.5287 H   0  0  0  0  0  0  0  0  0  0  0  0
  145.4858  130.9646  150.0329 H   0  0  0  0  0  0  0  0  0  0  0  0
  143.5068  132.0098  149.0946 H   0  0  0  0  0  0  0  0  0  0  0  0
  145.2382  133.9024  148.3949 H   0  0  0  0  0  0  0  0  0  0  0  0
  142.9050  133.6764  150.8878 H   0  0  0  0  0  0  0  0  0  0  0  0
  143.5805  132.1956  151.5130 H   0  0  0  0  0  0  0  0  0  0  0  0
  144.5819  134.1000  152.6916 H   0  0  0  0  0  0  0  0  0  0  0  0
  145.0683  134.8400  151.1863 H   0  0  0  0  0  0  0  0  0  0  0  0
  1  2  1  0  0  0  0
  1 20  1  0  0  0  0
  1 21  1  0  0  0  0
  1 22  1  0  0  0  0
  2  3  1  0  0  0  0
  2  9  1  0  0  0  0
  2 23  1  0  0  0  0
  3  4  1  0  0  0  0
  3 24  1  0  0  0  0
  3 25  1  0  0  0  0
  4  8  1  0  0  0  0
  4  5  1  0  0  0  0
  5  6  2  0  0  0  0
  5 26  1  0  0  0  0
  6  7  1  0  0  0  0
  6 27  1  0  0  0  0
  7  8  2  0  0  0  0
  7 28  1  0  0  0  0
  9 10  1  0  0  0  0
  9 29  1  0  0  0  0
 10 11  2  0  0  0  0
 10 12  1  0  0  0  0
 12 13  1  0  0  0  0
 12 30  1  0  0  0  0
 13 19  1  0  0  0  0
 13 14  1  0  0  0  0
 13 31  1  0  0  0  0
 14 15  1  0  0  0  0
 14 32  1  0  0  0  0
 14 33  1  0  0  0  0
 15 16  1  0  0  0  0
 15 34  1  0  0  0  0
 15 35  1  0  0  0  0
 16 17  1  0  0  0  0
 16 18  1  0  0  0  0
 16 36  1  0  0  0  0
 17 37  1  0  0  0  0
 18 19  1  0  0  0  0
 18 38  1  0  0  0  0
 18 39  1  0  0  0  0
 19 40  1  0  0  0  0
 19 41  1  0  0  0  0
M  END
> <s_m_source_file>
AV-unprocessed.smi

> <i_m_source_file_index>
1670

> <i_lp_mmshare_version>
43012

> <i_f3d_flags>
0

> <s_epik_input>
bjFbY0hdW2NIXVtjSF1uMVtDSDJdW0NAQEhdKFtDSDNdKVtOSF1DKD1PKVtOSF1bQ0BASF0yW0NIMl1bQ0gyXVtDQEBIXShbT0hdKVtDSDJdW0NIMl0y

> <s_epik_cmdline>
J2VwaWtfcHl0aG9uJywgJy1waCcsICc3LjAnLCAnLXRuJywgJzgnLCAnLW1hJywgJzIwMCcsICctbWV0YWxfYmluZGluZycsICctaW1hZScsICc8aW5maWxlLm1hZT4nLCAnLW9tYWUnLCAnPG91dGZpbGUubWFlPic=

> <r_lp_tautomer_probability>
1

> <r_epik_Ionization_Penalty>
7.33369e-05

> <r_epik_Ionization_Penalty_Charging>
0

> <r_epik_Ionization_Penalty_Neutral>
7.33369e-05

> <r_epik_State_Penalty>
-0

> <r_epik_Charging_Adjusted_Penalty>
0

> <i_epik_Tot_Q>
0

> <i_epik_Tot_abs_Q>
0

> <r_epik_Metal_State_Penalty>
-0

> <b_epik_Metal_Only>
0

> <s_lp_Force_Field>
OPLS_2005

> <r_lp_Energy>
7.95732

> <b_lp_Chiralities_Consistent>
1

> <s_lp_Variant>
AV-unprocessed.smi:1670-4

> <Gold.Version>
5.8.1

> <Gold.Id.Protein>
6NUR|6NUR_protein|mol2

> <Gold.PLP.Fitness>
44.7053

> <Gold.PLP.PLP>
-36.9269

> <Gold.PLP.part.hbond>
-3.7374

> <Gold.PLP.part.metal>
0.0000

> <Gold.PLP.part.buried>
-4.1198

> <Gold.PLP.part.nonpolar>
-29.4420

> <Gold.PLP.part.repulsive>
0.2190

> <Gold.PLP.ligand.clash>
0.0000

> <Gold.PLP.ligand.torsion>
0.5734

> <Gold.PLP.Chemscore.Hbond>
2.9600

> <Gold.PLP.Chemscore.CHOScore>
0.0000

> <Gold.PLP.Chemscore.Metal>
0.0000

> <Gold.Chemscore.Hbonds>
donor molecule, donor type, donor heavy atom, donor atom, acceptor molecule, acceptor atom, score
      L1  H     9    29       P1  7948  1.00
      L1  H    12    30       P1  7948  0.94
      L1  H    17    37       P1  7921  0.73

> <Gold.PLP.Chemscore.Internal.Correction>
0.0453

> <Gold.Rescore>
     Score         DG    S(hbond)    S(metal)    S(lipo)     H(rot)  DE(clash)    DE(int)     intcor
     16.14     -17.84       2.69        0.00      77.46       2.22       0.07       1.63       ----

> <Gold.Chemscore.Fitness>
16.1398

> <Gold.Chemscore.DG>
-17.8418

> <Gold.Chemscore.ZeroCoef>
-5.4800

> <Gold.Chemscore.Hbond>
2.6912

> <Gold.Chemscore.Metal>
0.0000

> <Gold.Chemscore.Lipo>
77.4555

> <Gold.Chemscore.Internal_Hbond>
0.0000

> <Gold.Chemscore.DEClash>
0.0688

> <Gold.Chemscore.DEInternal>
1.6332

> <Gold.Chemscore.Rot>
2.2224

> <Gold.Chemscore.Internal.Correction>
   9.000000E+99

> <Gold.Chemscore.Hbonds>
donor molecule, donor type, donor heavy atom, donor atom, acceptor molecule, acceptor atom, score
      L1  H     9    29       P1  7948  0.65
      L1  H    12    30       P1  7948  0.31
      L1  H    17    37       P1  7921  0.63

> <Gold.Chemscore.Hbond.Weighted>
-8.9888

> <Gold.Chemscore.Metal.Weighted>
-0.0000

> <Gold.Chemscore.Lipo.Weighted>
-9.0623

> <Gold.Chemscore.Internal_Hbond.Weighted>
0.0000

> <Gold.Chemscore.DEClash.Weighted>
0.0688

> <Gold.Chemscore.DEInternal.Weighted>
1.6332

> <Gold.Chemscore.Rot.Weighted>
5.6893

> <Gold.Chemscore.Internal.Correction.Weighted>
   9.000000E+99

> <Gold.Protein.RotatedTorsions>
[ 6907 6896 6895 6894 ] final  -59.31 input  -60.11 | X-H torsion
[ 7974 7965 7964 7962 ] final   34.92 input  175.53 | X-H torsion
[ 8008 7997 7996 7995 ] final   83.48 input   59.86 | X-H torsion
[ 10167 10162 10161 10158 ] final  145.58 input  -65.29 | X-H torsion
[ 10718 10713 10712 10709 ] final  -54.69 input   66.30 | X-H torsion
[ 10763 10752 10751 10750 ] final  -60.85 input  -60.55 | X-H torsion
[ 11005 11000 10999 10996 ] final  -17.52 input  -57.11 | X-H torsion

> <Gold.Protein.ActiveResidues>
 VAL166  LYS551  ARG553  GLY616  TRP617  ASP618  TYR619  PRO620  LYS621  CYS622 
 ASP623  PHE694  ASN695  SER759  ASP760  ASP761  ALA762  ILE779  LEU786  VAL792 
 PHE793  MET794  SER795  GLU796  ALA797  LYS798  CYS799  TRP800  GLU811  SER814 

> <Gold.Protein.RotatedAtoms>
  150.7940  134.6985  159.6536 H   0  0  0  0  0  0  0  0  0  0  0  0  # atno 6907 bound_to 6896
  152.4049  134.6220  160.0063 H   0  0  0  0  0  0  0  0  0  0  0  0  # atno 6908 bound_to 6896
  151.6480  133.3285  159.3181 H   0  0  0  0  0  0  0  0  0  0  0  0  # atno 6909 bound_to 6896
  146.1319  139.6207  142.9221 H   0  0  0  0  0  0  0  0  0  0  0  0  # atno 7974 bound_to 7965
  155.9244  140.3419  155.6199 H   0  0  0  0  0  0  0  0  0  0  0  0  # atno 8008 bound_to 7997
  155.7234  140.0786  157.2339 H   0  0  0  0  0  0  0  0  0  0  0  0  # atno 8009 bound_to 7997
  154.4075  140.1601  156.2415 H   0  0  0  0  0  0  0  0  0  0  0  0  # atno 8010 bound_to 7997
  139.4923  144.5891  151.6717 H   0  0  0  0  0  0  0  0  0  0  0  0  # atno 10167 bound_to 10162
  156.1430  130.4154  150.0071 H   0  0  0  0  0  0  0  0  0  0  0  0  # atno 10718 bound_to 10713
  154.2755  135.6282  153.5327 H   0  0  0  0  0  0  0  0  0  0  0  0  # atno 10763 bound_to 10752
  152.9873  135.5620  154.5553 H   0  0  0  0  0  0  0  0  0  0  0  0  # atno 10764 bound_to 10752
  154.5132  135.2878  155.1300 H   0  0  0  0  0  0  0  0  0  0  0  0  # atno 10765 bound_to 10752
  140.8176  133.8093  155.9626 H   0  0  0  0  0  0  0  0  0  0  0  0  # atno 11005 bound_to 11000
  145.5242  141.0430  143.2419 LP  0  0  0  0  0  0  0  0  0  0  0  0  # atno 17320 bound_to 7965
  144.7699  139.6758  143.7199 LP  0  0  0  0  0  0  0  0  0  0  0  0  # atno 17321 bound_to 7965
  140.5514  144.0419  150.6129 LP  0  0  0  0  0  0  0  0  0  0  0  0  # atno 17342 bound_to 10162
  140.3474  143.2983  152.0524 LP  0  0  0  0  0  0  0  0  0  0  0  0  # atno 17343 bound_to 10162
  156.7951  130.9270  151.3646 LP  0  0  0  0  0  0  0  0  0  0  0  0  # atno 17370 bound_to 10713
  157.6592  130.8951  149.9794 LP  0  0  0  0  0  0  0  0  0  0  0  0  # atno 17371 bound_to 10713
  140.9133  134.2234  157.4972 LP  0  0  0  0  0  0  0  0  0  0  0  0  # atno 17394 bound_to 11000
  139.8710  134.9760  156.4903 LP  0  0  0  0  0  0  0  0  0  0  0  0  # atno 17395 bound_to 11000

$$$$
