AV-unprocessed.smi:16|AV-procd|sdf|90|dock2
  -GOLD-   2262015233D 1   1.00000     0.00000
 Structure written by MMmdl.
 60 64  0  0  0  0  0  0  0  0  2 V2000
  146.1287  142.5194  153.1937 C   0  0  0  0  0  0  0  0  0  0  0  0
  146.0947  141.0542  153.6503 C   0  0  0  0  0  0  0  0  0  0  0  0
  144.8244  140.7029  154.3400 N   0  3  2  0  0  0  0  0  0  0  0  0
  144.4836  141.5750  155.4980 C   0  0  0  0  0  0  0  0  0  0  0  0
  145.3329  141.2523  156.7425 C   0  0  0  0  0  0  0  0  0  0  0  0
  145.2226  139.7653  157.1022 C   0  0  2  0  0  0  0  0  0  0  0  0
  146.0749  139.4751  158.2040 O   0  0  0  0  0  0  0  0  0  0  0  0
  145.9520  138.1194  158.6219 C   0  0  0  0  0  0  0  0  0  0  0  0
  146.3506  137.1890  157.4648 C   0  0  0  0  0  0  0  0  0  0  0  0
  145.5533  137.4817  156.2760 N   0  0  0  0  0  0  0  0  0  0  0  0
  145.7801  136.6098  155.2675 C   0  0  0  0  0  0  0  0  0  0  0  0
  147.0120  136.0595  155.1030 N   0  0  0  0  0  0  0  0  0  0  0  0
  147.2336  135.2135  154.0920 C   0  0  0  0  0  0  0  0  0  0  0  0
  146.3863  134.8049  153.1446 N   0  0  0  0  0  0  0  0  0  0  0  0
  145.1536  135.3680  153.3024 C   0  0  0  0  0  0  0  0  0  0  0  0
  144.7682  136.2684  154.3336 C   0  0  0  0  0  0  0  0  0  0  0  0
  143.4358  136.6284  154.1834 N   0  0  0  0  0  0  0  0  0  0  0  0
  143.0499  135.9679  153.1254 C   0  0  0  0  0  0  0  0  0  0  0  0
  144.0264  135.2123  152.5147 N   0  0  0  0  0  0  0  0  0  0  0  0
  143.8653  134.3719  151.3649 C   0  0  0  0  0  0  0  0  0  0  0  0
  144.3175  132.9098  151.3818 C   0  0  0  0  0  0  0  0  0  0  0  0
  144.6671  133.0077  149.8796 C   0  0  0  0  0  0  0  0  0  0  0  0
  145.9785  132.3242  149.4596 C   0  0  0  0  0  0  0  0  0  0  0  0
  147.0214  132.6174  150.3669 O   0  0  0  0  0  0  0  0  0  0  0  0
  143.5427  132.5845  148.9127 C   0  0  0  0  0  0  0  0  0  0  0  0
  143.7257  133.1461  147.6287 O   0  0  0  0  0  0  0  0  0  0  0  0
  144.7705  134.5267  150.1403 C   0  0  0  0  0  0  0  0  0  0  0  0
  145.6245  138.8939  155.8927 C   0  0  1  0  0  0  0  0  0  0  0  0
  144.7228  139.2601  154.6862 C   0  0  0  0  0  0  0  0  0  0  0  0
  144.1901  139.5523  157.3873 H   0  0  0  0  0  0  0  0  0  0  0  0
  146.6626  139.1111  155.6351 H   0  0  0  0  0  0  0  0  0  0  0  0
  147.0232  142.7141  152.6018 H   0  0  0  0  0  0  0  0  0  0  0  0
  146.1433  143.2114  154.0353 H   0  0  0  0  0  0  0  0  0  0  0  0
  145.2648  142.7591  152.5730 H   0  0  0  0  0  0  0  0  0  0  0  0
  146.2005  140.4313  152.7611 H   0  0  0  0  0  0  0  0  0  0  0  0
  146.9559  140.8318  154.2802 H   0  0  0  0  0  0  0  0  0  0  0  0
  144.5777  142.6278  155.2355 H   0  0  0  0  0  0  0  0  0  0  0  0
  143.4302  141.4210  155.7357 H   0  0  0  0  0  0  0  0  0  0  0  0
  146.3760  141.5179  156.5694 H   0  0  0  0  0  0  0  0  0  0  0  0
  144.9999  141.8614  157.5835 H   0  0  0  0  0  0  0  0  0  0  0  0
  146.6023  137.9515  159.4804 H   0  0  0  0  0  0  0  0  0  0  0  0
  144.9312  137.9172  158.9505 H   0  0  0  0  0  0  0  0  0  0  0  0
  147.4111  137.3203  157.2440 H   0  0  0  0  0  0  0  0  0  0  0  0
  146.2093  136.1482  157.7594 H   0  0  0  0  0  0  0  0  0  0  0  0
  148.2331  134.8085  154.0304 H   0  0  0  0  0  0  0  0  0  0  0  0
  142.0367  136.0222  152.7537 H   0  0  0  0  0  0  0  0  0  0  0  0
  142.8140  134.4467  151.0819 H   0  0  0  0  0  0  0  0  0  0  0  0
  145.1925  132.7534  152.0155 H   0  0  0  0  0  0  0  0  0  0  0  0
  143.5286  132.1990  151.6292 H   0  0  0  0  0  0  0  0  0  0  0  0
  145.8581  131.2407  149.4319 H   0  0  0  0  0  0  0  0  0  0  0  0
  146.2850  132.6219  148.4566 H   0  0  0  0  0  0  0  0  0  0  0  0
  147.7798  132.1075  150.1264 H   0  0  0  0  0  0  0  0  0  0  0  0
  143.5085  131.5008  148.7989 H   0  0  0  0  0  0  0  0  0  0  0  0
  142.5623  132.8788  149.2878 H   0  0  0  0  0  0  0  0  0  0  0  0
  144.4692  133.7287  147.6595 H   0  0  0  0  0  0  0  0  0  0  0  0
  144.3598  135.1572  149.3510 H   0  0  0  0  0  0  0  0  0  0  0  0
  145.7815  134.8426  150.4050 H   0  0  0  0  0  0  0  0  0  0  0  0
  143.6822  139.0321  154.9228 H   0  0  0  0  0  0  0  0  0  0  0  0
  144.9678  138.6669  153.8044 H   0  0  0  0  0  0  0  0  0  0  0  0
  144.1044  140.8617  153.6496 H   0  0  0  0  0  0  0  0  0  0  0  0
  1  2  1  0  0  0  0
  1 32  1  0  0  0  0
  1 33  1  0  0  0  0
  1 34  1  0  0  0  0
  2  3  1  0  0  0  0
  2 35  1  0  0  0  0
  2 36  1  0  0  0  0
  3 29  1  0  0  0  0
  3  4  1  0  0  0  0
  3 60  1  0  0  0  0
  4  5  1  0  0  0  0
  4 37  1  0  0  0  0
  4 38  1  0  0  0  0
  5  6  1  0  0  0  0
  5 39  1  0  0  0  0
  5 40  1  0  0  0  0
  6 30  1  0  0  0  0
  6 28  1  0  0  0  0
  6  7  1  0  0  0  0
  7  8  1  0  0  0  0
  8  9  1  0  0  0  0
  8 41  1  0  0  0  0
  8 42  1  0  0  0  0
  9 10  1  0  0  0  0
  9 43  1  0  0  0  0
  9 44  1  0  0  0  0
 10 11  1  0  0  0  0
 10 28  1  0  0  0  0
 11 16  1  0  0  0  0
 11 12  2  0  0  0  0
 12 13  1  0  0  0  0
 13 14  2  0  0  0  0
 13 45  1  0  0  0  0
 14 15  1  0  0  0  0
 15 19  1  0  0  0  0
 15 16  2  0  0  0  0
 16 17  1  0  0  0  0
 17 18  2  0  0  0  0
 18 19  1  0  0  0  0
 18 46  1  0  0  0  0
 19 20  1  0  0  0  0
 20 27  1  0  0  0  0
 20 21  1  0  0  0  0
 20 47  1  0  0  0  0
 21 22  1  0  0  0  0
 21 48  1  0  0  0  0
 21 49  1  0  0  0  0
 22 23  1  0  0  0  0
 22 25  1  0  0  0  0
 22 27  1  0  0  0  0
 23 24  1  0  0  0  0
 23 50  1  0  0  0  0
 23 51  1  0  0  0  0
 24 52  1  0  0  0  0
 25 26  1  0  0  0  0
 25 53  1  0  0  0  0
 25 54  1  0  0  0  0
 26 55  1  0  0  0  0
 27 56  1  0  0  0  0
 27 57  1  0  0  0  0
 28 31  1  0  0  0  0
 28 29  1  0  0  0  0
 29 58  1  0  0  0  0
 29 59  1  0  0  0  0
M  CHG  1   3   1
M  END
> <s_m_source_file>
AV-unprocessed.smi

> <i_m_source_file_index>
16

> <i_lp_mmshare_version>
43012

> <i_f3d_flags>
0

> <s_epik_input>
W0NIM11bQ0gyXU4oW0NIMl1bQ0gyXTEpW0NIMl1bQ0BASF0oW0NAQEhdMTIpTihbQ0gyXVtDSDJdTzIpYyhuW2NIXW4zKWMoYzM0KW5bY0hdbjRbQ0hdKFtDSDJdNSlbQ0gyXUM1KFtDSDJdW09IXSlbQ0gyXVtPSF0=

> <s_epik_cmdline>
J2VwaWtfcHl0aG9uJywgJy1waCcsICc3LjAnLCAnLXRuJywgJzgnLCAnLW1hJywgJzIwMCcsICctbWV0YWxfYmluZGluZycsICctaW1hZScsICc8aW5maWxlLm1hZT4nLCAnLW9tYWUnLCAnPG91dGZpbGUubWFlPic=

> <r_lp_tautomer_probability>
1

> <r_epik_Ionization_Penalty>
0.0135603

> <r_epik_Ionization_Penalty_Charging>
0.0131385

> <r_epik_Ionization_Penalty_Neutral>
0.000421734

> <r_epik_State_Penalty>
0.0102091

> <r_epik_Charging_Adjusted_Penalty>
0.0233476

> <i_epik_Tot_Q>
1

> <i_epik_Tot_abs_Q>
1

> <r_epik_Metal_State_Penalty>
0.0103746

> <b_epik_Metal_Only>
0

> <s_lp_Force_Field>
OPLS_2005

> <r_lp_Energy>
56.2472

> <b_lp_Chiralities_Consistent>
1

> <s_lp_Variant>
AV-unprocessed.smi:16-4

> <Gold.Version>
5.8.1

> <Gold.Id.Protein>
6NUR|6NUR_protein|mol2

> <Gold.PLP.Fitness>
45.8769

> <Gold.PLP.PLP>
-35.1291

> <Gold.PLP.part.hbond>
-6.0000

> <Gold.PLP.part.metal>
0.0000

> <Gold.PLP.part.buried>
-5.6368

> <Gold.PLP.part.nonpolar>
-24.1026

> <Gold.PLP.part.repulsive>
0.1545

> <Gold.PLP.ligand.clash>
0.0000

> <Gold.PLP.ligand.torsion>
1.0241

> <Gold.PLP.Chemscore.Hbond>
4.0138

> <Gold.PLP.Chemscore.CHOScore>
0.0000

> <Gold.PLP.Chemscore.Metal>
0.0000

> <Gold.Chemscore.Hbonds>
donor molecule, donor type, donor heavy atom, donor atom, acceptor molecule, acceptor atom, score
      L1  H     3    60       P1 10175  0.68
      L1  H    24    52       P1 10747  1.00
      L1  H    26    55       P1  7921  1.00
      L1  C    13    45       P1  7948  0.21

> <Gold.PLP.Chemscore.Internal.Correction>
0.7544

> <Gold.Rescore>
     Score         DG    S(hbond)    S(metal)    S(lipo)     H(rot)  DE(clash)    DE(int)     intcor
     13.70     -14.83       2.93        0.00      68.89       3.33       0.03       1.10       ----

> <Gold.Chemscore.Fitness>
13.6995

> <Gold.Chemscore.DG>
-14.8257

> <Gold.Chemscore.ZeroCoef>
-5.4800

> <Gold.Chemscore.Hbond>
2.9334

> <Gold.Chemscore.Metal>
0.0000

> <Gold.Chemscore.Lipo>
68.8923

> <Gold.Chemscore.Internal_Hbond>
0.0000

> <Gold.Chemscore.DEClash>
0.0291

> <Gold.Chemscore.DEInternal>
1.0971

> <Gold.Chemscore.Rot>
3.3251

> <Gold.Chemscore.Internal.Correction>
   9.000000E+99

> <Gold.Chemscore.Hbonds>
donor molecule, donor type, donor heavy atom, donor atom, acceptor molecule, acceptor atom, score
      L1  H     3    60       P1 10175  0.28
      L1  H    24    52       P1 10747  0.99
      L1  H    26    55       P1  7921  0.97

> <Gold.Chemscore.Hbond.Weighted>
-9.7975

> <Gold.Chemscore.Metal.Weighted>
-0.0000

> <Gold.Chemscore.Lipo.Weighted>
-8.0604

> <Gold.Chemscore.Internal_Hbond.Weighted>
0.0000

> <Gold.Chemscore.DEClash.Weighted>
0.0291

> <Gold.Chemscore.DEInternal.Weighted>
1.0971

> <Gold.Chemscore.Rot.Weighted>
8.5122

> <Gold.Chemscore.Internal.Correction.Weighted>
   9.000000E+99

> <Gold.Protein.RotatedTorsions>
[ 6907 6896 6895 6894 ] final  104.65 input  -60.11 | X-H torsion
[ 7974 7965 7964 7962 ] final   55.18 input  175.53 | X-H torsion
[ 8008 7997 7996 7995 ] final   70.26 input   59.86 | X-H torsion
[ 10167 10162 10161 10158 ] final  131.11 input  -65.29 | X-H torsion
[ 10718 10713 10712 10709 ] final   71.78 input   66.30 | X-H torsion
[ 10763 10752 10751 10750 ] final -152.10 input  -60.55 | X-H torsion
[ 11005 11000 10999 10996 ] final   16.62 input  -57.11 | X-H torsion

> <Gold.Protein.ActiveResidues>
 VAL166  LYS551  ARG553  GLY616  TRP617  ASP618  TYR619  PRO620  LYS621  CYS622 
 ASP623  PHE694  ASN695  SER759  ASP760  ASP761  ALA762  ILE779  LEU786  VAL792 
 PHE793  MET794  SER795  GLU796  ALA797  LYS798  CYS799  TRP800  GLU811  SER814 

> <Gold.Protein.RotatedAtoms>
  152.5257  133.9645  159.7732 H   0  0  0  0  0  0  0  0  0  0  0  0  # atno 6907 bound_to 6896
  150.9929  133.6123  159.2713 H   0  0  0  0  0  0  0  0  0  0  0  0  # atno 6908 bound_to 6896
  151.3260  135.0836  159.9375 H   0  0  0  0  0  0  0  0  0  0  0  0  # atno 6909 bound_to 6896
  145.9531  139.3990  143.0293 H   0  0  0  0  0  0  0  0  0  0  0  0  # atno 7974 bound_to 7965
  155.7362  140.3491  155.5082 H   0  0  0  0  0  0  0  0  0  0  0  0  # atno 8008 bound_to 7997
  155.9137  140.1055  157.1281 H   0  0  0  0  0  0  0  0  0  0  0  0  # atno 8009 bound_to 7997
  154.4059  140.1263  156.4577 H   0  0  0  0  0  0  0  0  0  0  0  0  # atno 8010 bound_to 7997
  139.5399  144.6720  151.4661 H   0  0  0  0  0  0  0  0  0  0  0  0  # atno 10167 bound_to 10162
  157.6468  130.9545  150.0836 H   0  0  0  0  0  0  0  0  0  0  0  0  # atno 10718 bound_to 10713
  154.8016  135.3244  154.7536 H   0  0  0  0  0  0  0  0  0  0  0  0  # atno 10763 bound_to 10752
  153.8203  135.6888  153.4832 H   0  0  0  0  0  0  0  0  0  0  0  0  # atno 10764 bound_to 10752
  153.1736  135.4613  154.9879 H   0  0  0  0  0  0  0  0  0  0  0  0  # atno 10765 bound_to 10752
  140.4451  134.1282  155.7695 H   0  0  0  0  0  0  0  0  0  0  0  0  # atno 11005 bound_to 11000
  145.8143  140.9710  143.0932 LP  0  0  0  0  0  0  0  0  0  0  0  0  # atno 17320 bound_to 7965
  144.6800  139.9961  143.7484 LP  0  0  0  0  0  0  0  0  0  0  0  0  # atno 17321 bound_to 7965
  140.6623  143.8471  150.6902 LP  0  0  0  0  0  0  0  0  0  0  0  0  # atno 17342 bound_to 10162
  140.1870  143.4068  152.1891 LP  0  0  0  0  0  0  0  0  0  0  0  0  # atno 17343 bound_to 10162
  156.1805  130.3650  149.9041 LP  0  0  0  0  0  0  0  0  0  0  0  0  # atno 17370 bound_to 10713
  156.6995  130.8927  151.3597 LP  0  0  0  0  0  0  0  0  0  0  0  0  # atno 17371 bound_to 10713
  141.1689  133.8649  157.1632 LP  0  0  0  0  0  0  0  0  0  0  0  0  # atno 17394 bound_to 11000
  140.0044  135.0014  157.0260 LP  0  0  0  0  0  0  0  0  0  0  0  0  # atno 17395 bound_to 11000

$$$$
