#       Name:                AV-unprocessed.smi:148
#       Creating user name   scv26
#       Creation time:       Thu Mar 26 18:42:10 2020


#       File generated by GOLD software.
#

@<TRIPOS>MOLECULE
AV-unprocessed.smi:148
    73    77     1
SMALL
NO_CHARGES


@<TRIPOS>ATOM
      1 ****        -2.4224  -4.3190   4.1828 O.3            1 S1                 0.0000
      2 ****        -2.8491  -2.9818   4.0147 C.3            1 S1                 0.0000
      3 ****        -2.4375  -2.4197   2.6341 C.3            1 S1                 0.0000
      4 ****        -0.8929  -2.2797   2.5820 C.3            1 S1                 0.0000
      5 ****        -0.3847  -1.6059   1.4008 N.pl3          1 S1                 0.0000
      6 ****         0.4245  -2.1499   0.4277 C.2            1 S1                 0.0000
      7 ****         0.7498  -1.3404  -0.5433 N.2            1 S1                 0.0000
      8 ****         0.1353  -0.1435  -0.2000 C.ar           1 S1                 0.0000
      9 ****         0.0781   1.1419  -0.7981 C.ar           1 S1                 0.0000
     10 ****         0.6945   1.4114  -1.9694 N.3            1 S1                 0.0000
     11 ****        -0.3028   1.6973  -3.0033 C.3            1 S1                 0.0000
     12 ****         0.3273   1.7103  -4.3989 C.3            1 S1                 0.0000
     13 ****         1.4793   2.7151  -4.4364 C.3            1 S1                 0.0000
     14 ****         2.4971   2.3820  -3.3380 C.3            1 S1                 0.0000
     15 ****         1.8586   2.3206  -1.9233 C.3            1 S1                 0.0000
     16 ****         2.9363   1.9163  -0.8564 C.3            1 S1                 0.0000
     17 ****         4.3139   2.5846  -1.0290 C.3            1 S1                 0.0000
     18 ****         5.0483   2.4179   0.3061 C.3            1 S1                 0.0000
     19 ****         3.9744   2.0763   1.3446 C.3            1 S1                 0.0000
     20 ****         2.6280   2.2211   0.6278 C.3            1 S1                 0.0000
     21 ****         2.1646   3.5481   0.7945 O.3            1 S1                 0.0000
     22 ****        -0.6327   2.1114  -0.1633 N.ar           1 S1                 0.0000
     23 ****        -1.2406   1.8392   0.9955 C.ar           1 S1                 0.0000
     24 ****        -1.2728   0.6883   1.6720 N.ar           1 S1                 0.0000
     25 ****        -0.5678  -0.2860   1.0279 C.ar           1 S1                 0.0000
     26 ****        -3.0559  -3.2232   1.4514 C.3            1 S1                 0.0000
     27 ****        -4.5447  -3.5045   1.5847 C.3            1 S1                 0.0000
     28 ****        -4.9363  -3.8616   0.1586 C.3            1 S1                 0.0000
     29 ****        -4.1594  -2.9950  -0.6538 O.3            1 S1                 0.0000
     30 ****        -3.0329  -2.5254   0.0810 C.3            1 S1                 0.0000
     31 ****        -2.6878  -4.6141   5.0406 H              1 S1                 0.0000
     32 ****        -3.9292  -2.9367   4.1525 H              1 S1                 0.0000
     33 ****        -2.4179  -2.3774   4.8134 H              1 S1                 0.0000
     34 ****        -2.8571  -1.4141   2.5911 H              1 S1                 0.0000
     35 ****        -0.5408  -1.7201   3.4494 H              1 S1                 0.0000
     36 ****        -0.4250  -3.2630   2.6435 H              1 S1                 0.0000
     37 ****         0.7560  -3.1778   0.4526 H              1 S1                 0.0000
     38 ****        -1.0979   0.9502  -2.9725 H              1 S1                 0.0000
     39 ****        -0.7676   2.6645  -2.8044 H              1 S1                 0.0000
     40 ****         0.6933   0.7137  -4.6491 H              1 S1                 0.0000
     41 ****        -0.4224   1.9669  -5.1476 H              1 S1                 0.0000
     42 ****         1.9612   2.6997  -5.4143 H              1 S1                 0.0000
     43 ****         1.0955   3.7256  -4.2902 H              1 S1                 0.0000
     44 ****         2.9698   1.4256  -3.5666 H              1 S1                 0.0000
     45 ****         3.2846   3.1339  -3.3775 H              1 S1                 0.0000
     46 ****         1.4884   3.3204  -1.6933 H              1 S1                 0.0000
     47 ****         3.1017   0.8408  -0.9447 H              1 S1                 0.0000
     48 ****         4.8853   2.1577  -1.8539 H              1 S1                 0.0000
     49 ****         4.1869   3.6486  -1.2343 H              1 S1                 0.0000
     50 ****         5.7821   1.6132   0.2465 H              1 S1                 0.0000
     51 ****         5.5846   3.3301   0.5696 H              1 S1                 0.0000
     52 ****         4.1031   1.0400   1.6602 H              1 S1                 0.0000
     53 ****         4.0458   2.6937   2.2412 H              1 S1                 0.0000
     54 ****         1.9026   1.5398   1.0673 H              1 S1                 0.0000
     55 ****         2.8095   4.1371   0.4336 H              1 S1                 0.0000
     56 ****        -1.7777   2.6611   1.4448 H              1 S1                 0.0000
     57 ****        -2.5409  -4.1809   1.3600 H              1 S1                 0.0000
     58 ****        -4.7711  -4.3068   2.2874 H              1 S1                 0.0000
     59 ****        -5.0772  -2.6072   1.9037 H              1 S1                 0.0000
     60 ****        -4.6648  -4.8942  -0.0648 H              1 S1                 0.0000
     61 ****        -6.0030  -3.7392  -0.0296 H              1 S1                 0.0000
     62 ****        -3.1285  -1.4442   0.1865 H              1 S1                 0.0000
     63 ****        -2.1184  -2.7316  -0.4732 H              1 S1                 0.0000
     64 ****        -1.4268  -4.3677   4.1027 LP             1 S1                 0.0000
     65 ****        -2.8417  -4.8971   3.4828 LP             1 S1                 0.0000
     66 ****         1.3110  -1.5366  -1.3474 LP             1 S1                 0.0000
     67 ****         1.1735   0.5741  -2.2332 LP             1 S1                 0.0000
     68 ****         2.0374   3.7416   1.7673 LP             1 S1                 0.0000
     69 ****         1.2949   3.6648   0.3150 LP             1 S1                 0.0000
     70 ****        -0.7006   3.0258  -0.5623 LP             1 S1                 0.0000
     71 ****        -1.7523   0.5574   2.5397 LP             1 S1                 0.0000
     72 ****        -4.7187  -2.2162  -0.9378 LP             1 S1                 0.0000
     73 ****        -3.8446  -3.4918  -1.4626 LP             1 S1                 0.0000
@<TRIPOS>BOND
    1    1    2 1     
    2    1   31 1     
    3    2    3 1     
    4    2   32 1     
    5    2   33 1     
    6    3    4 1     
    7    3   26 1     
    8    3   34 1     
    9    4    5 1     
   10    4   35 1     
   11    4   36 1     
   12    5   25 1     
   13    5    6 1     
   14    6    7 2     
   15    6   37 1     
   16    7    8 1     
   17    8   25 ar    
   18    8    9 ar    
   19    9   10 1     
   20    9   22 ar    
   21   10   15 1     
   22   10   11 1     
   23   11   12 1     
   24   11   38 1     
   25   11   39 1     
   26   12   13 1     
   27   12   40 1     
   28   12   41 1     
   29   13   14 1     
   30   13   42 1     
   31   13   43 1     
   32   14   15 1     
   33   14   44 1     
   34   14   45 1     
   35   15   16 1     
   36   15   46 1     
   37   16   20 1     
   38   16   17 1     
   39   16   47 1     
   40   17   18 1     
   41   17   48 1     
   42   17   49 1     
   43   18   19 1     
   44   18   50 1     
   45   18   51 1     
   46   19   20 1     
   47   19   52 1     
   48   19   53 1     
   49   20   21 1     
   50   20   54 1     
   51   21   55 1     
   52   22   23 ar    
   53   23   24 ar    
   54   23   56 1     
   55   24   25 ar    
   56   26   30 1     
   57   26   27 1     
   58   26   57 1     
   59   27   28 1     
   60   27   58 1     
   61   27   59 1     
   62   28   29 1     
   63   28   60 1     
   64   28   61 1     
   65   29   30 1     
   66   30   62 1     
   67   30   63 1     
   68    1   64 1     
   69    1   65 1     
   70    7   66 1     
   71   10   67 1     
   72   21   68 1     
   73   21   69 1     
   74   22   70 1     
   75   24   71 1     
   76   29   72 1     
   77   29   73 1     
@<TRIPOS>SUBSTRUCTURE
      1 S1             1
@<TRIPOS>SET
LONE_PAIRS      STATIC     ATOMS    <user>   **** ""
10 64 65 66 67 68 69 70 71 72 73
DONOR_HYDROGENS      STATIC     ATOMS    <user>   **** ""
2 31 55
ATOM$BLUE        STATIC     ATOMS    COLORGROUP SYSTEM
10 64 65 66 67 68 69 70 71 72 73
ATOM$RED        STATIC     ATOMS    COLORGROUP SYSTEM
2 31 55
