AV-unprocessed.smi:2658|AV-procd|sdf|10311|dock3
  -GOLD-   2272014333D 1   1.00000     0.00000
 Structure written by MMmdl.
 47 49  0  0  0  0  0  0  0  0  2 V2000
  151.9117  144.4217  161.1326 C   0  0  0  0  0  0  0  0  0  0  0  0
  151.8791  143.3811  160.0261 C   0  0  0  0  0  0  0  0  0  0  0  0
  151.1287  143.6582  158.8611 C   0  0  0  0  0  0  0  0  0  0  0  0
  151.1188  142.6873  157.8669 C   0  0  0  0  0  0  0  0  0  0  0  0
  150.4888  142.6615  156.6208 N   0  3  0  0  0  0  0  0  0  0  0  0
  150.7721  141.4871  155.9926 C   0  0  0  0  0  0  0  0  0  0  0  0
  151.5729  140.7615  156.8194 N   0  0  0  0  0  0  0  0  0  0  0  0
  152.1545  139.4251  156.6253 C   0  0  0  0  0  0  0  0  0  0  0  0
  152.4548  139.1069  155.1469 C   0  0  1  0  0  0  0  0  0  0  0  0
  153.7756  138.6147  155.0324 O   0  0  0  0  0  0  0  0  0  0  0  0
  151.4911  138.0493  154.5866 C   0  0  0  0  0  0  0  0  0  0  0  0
  151.7225  136.8122  155.2544 O   0  0  0  0  0  0  0  0  0  0  0  0
  150.7339  136.3179  156.0803 C   0  0  0  0  0  0  0  0  0  0  0  0
  149.6488  137.1493  156.4160 C   0  0  0  0  0  0  0  0  0  0  0  0
  148.6564  136.6232  157.2640 C   0  0  0  0  0  0  0  0  0  0  0  0
  147.4589  137.4610  157.6705 C   0  0  0  0  0  0  0  0  0  0  0  0
  148.8307  135.2947  157.7126 C   0  0  0  0  0  0  0  0  0  0  0  0
  147.8257  134.6239  158.6304 C   0  0  0  0  0  0  0  0  0  0  0  0
  149.8968  134.5424  157.3526 N   0  0  0  0  0  0  0  0  0  0  0  0
  150.8370  135.0465  156.5470 N   0  0  0  0  0  0  0  0  0  0  0  0
  151.8186  141.4721  158.0007 C   0  0  0  0  0  0  0  0  0  0  0  0
  152.5640  141.1844  159.1417 C   0  0  0  0  0  0  0  0  0  0  0  0
  152.5889  142.1602  160.1637 C   0  0  0  0  0  0  0  0  0  0  0  0
  153.3967  141.8744  161.4183 C   0  0  0  0  0  0  0  0  0  0  0  0
  151.3337  145.3069  160.8656 H   0  0  0  0  0  0  0  0  0  0  0  0
  152.9356  144.7401  161.3298 H   0  0  0  0  0  0  0  0  0  0  0  0
  151.4917  144.0145  162.0527 H   0  0  0  0  0  0  0  0  0  0  0  0
  150.5871  144.5860  158.7484 H   0  0  0  0  0  0  0  0  0  0  0  0
  150.4232  141.1846  155.0157 H   0  0  0  0  0  0  0  0  0  0  0  0
  153.0477  139.3257  157.2425 H   0  0  0  0  0  0  0  0  0  0  0  0
  151.4337  138.7069  157.0179 H   0  0  0  0  0  0  0  0  0  0  0  0
  152.3691  140.0252  154.5644 H   0  0  0  0  0  0  0  0  0  0  0  0
  153.7818  137.7102  155.3073 H   0  0  0  0  0  0  0  0  0  0  0  0
  150.4538  138.3752  154.6857 H   0  0  0  0  0  0  0  0  0  0  0  0
  151.6922  137.9087  153.5229 H   0  0  0  0  0  0  0  0  0  0  0  0
  149.5859  138.1578  156.0340 H   0  0  0  0  0  0  0  0  0  0  0  0
  147.4435  137.6035  158.7511 H   0  0  0  0  0  0  0  0  0  0  0  0
  146.5317  136.9713  157.3721 H   0  0  0  0  0  0  0  0  0  0  0  0
  147.4873  138.4444  157.2004 H   0  0  0  0  0  0  0  0  0  0  0  0
  146.8603  134.5329  158.1325 H   0  0  0  0  0  0  0  0  0  0  0  0
  147.6915  135.2075  159.5412 H   0  0  0  0  0  0  0  0  0  0  0  0
  148.1529  133.6238  158.9179 H   0  0  0  0  0  0  0  0  0  0  0  0
  153.1098  140.2583  159.2449 H   0  0  0  0  0  0  0  0  0  0  0  0
  153.8759  140.8961  161.3702 H   0  0  0  0  0  0  0  0  0  0  0  0
  152.7547  141.8877  162.2993 H   0  0  0  0  0  0  0  0  0  0  0  0
  154.1795  142.6220  161.5475 H   0  0  0  0  0  0  0  0  0  0  0  0
  149.9081  143.3902  156.2260 H   0  0  0  0  0  0  0  0  0  0  0  0
  1  2  1  0  0  0  0
  1 25  1  0  0  0  0
  1 26  1  0  0  0  0
  1 27  1  0  0  0  0
  2 23  1  0  0  0  0
  2  3  2  0  0  0  0
  3  4  1  0  0  0  0
  3 28  1  0  0  0  0
  4 21  2  0  0  0  0
  4  5  1  0  0  0  0
  5  6  2  0  0  0  0
  5 47  1  0  0  0  0
  6  7  1  0  0  0  0
  6 29  1  0  0  0  0
  7  8  1  0  0  0  0
  7 21  1  0  0  0  0
  8  9  1  0  0  0  0
  8 30  1  0  0  0  0
  8 31  1  0  0  0  0
  9 10  1  0  0  0  0
  9 11  1  0  0  0  0
  9 32  1  0  0  0  0
 10 33  1  0  0  0  0
 11 12  1  0  0  0  0
 11 34  1  0  0  0  0
 11 35  1  0  0  0  0
 12 13  1  0  0  0  0
 13 20  1  0  0  0  0
 13 14  2  0  0  0  0
 14 15  1  0  0  0  0
 14 36  1  0  0  0  0
 15 16  1  0  0  0  0
 15 17  2  0  0  0  0
 16 37  1  0  0  0  0
 16 38  1  0  0  0  0
 16 39  1  0  0  0  0
 17 18  1  0  0  0  0
 17 19  1  0  0  0  0
 18 40  1  0  0  0  0
 18 41  1  0  0  0  0
 18 42  1  0  0  0  0
 19 20  2  0  0  0  0
 21 22  1  0  0  0  0
 22 23  2  0  0  0  0
 22 43  1  0  0  0  0
 23 24  1  0  0  0  0
 24 44  1  0  0  0  0
 24 45  1  0  0  0  0
 24 46  1  0  0  0  0
M  CHG  1   5   1
M  END
> <s_m_source_file>
AV-unprocessed.smi

> <i_m_source_file_index>
2658

> <i_lp_mmshare_version>
43012

> <i_f3d_flags>
0

> <s_epik_input>
W0NIM11jKFtjSF0xKWMoW0NIM10pW2NIXWMoYzEyKW4oW2NIXW4yKVtDSDJdW0NASF0oW09IXSlbQ0gyXU9jM1tjSF1jKFtDSDNdKWMoW0NIM10pbm4z

> <s_epik_cmdline>
J2VwaWtfcHl0aG9uJywgJy1waCcsICc3LjAnLCAnLXRuJywgJzgnLCAnLW1hJywgJzIwMCcsICctbWV0YWxfYmluZGluZycsICctaW1hZScsICc8aW5maWxlLm1hZT4nLCAnLW9tYWUnLCAnPG91dGZpbGUubWFlPic=

> <r_lp_tautomer_probability>
1

> <r_epik_Ionization_Penalty>
1.0494

> <r_epik_Ionization_Penalty_Charging>
1.04926

> <r_epik_Ionization_Penalty_Neutral>
0.000140304

> <r_epik_State_Penalty>
1.10197

> <r_epik_Charging_Adjusted_Penalty>
2.15123

> <i_epik_Tot_Q>
1

> <i_epik_Tot_abs_Q>
1

> <r_epik_Metal_State_Penalty>
1.19636

> <b_epik_Metal_Only>
0

> <s_lp_Force_Field>
OPLS_2005

> <r_lp_Energy>
21.0246

> <b_lp_Chiralities_Consistent>
1

> <s_lp_Variant>
AV-unprocessed.smi:2658-4

> <Gold.Version>
5.8.1

> <Gold.Id.Protein>
6NUR|6NUR_protein|mol2

> <Gold.PLP.Fitness>
57.1735

> <Gold.PLP.PLP>
-46.5046

> <Gold.PLP.part.hbond>
-4.0000

> <Gold.PLP.part.metal>
0.0000

> <Gold.PLP.part.buried>
-7.4798

> <Gold.PLP.part.nonpolar>
-34.9479

> <Gold.PLP.part.repulsive>
0.1418

> <Gold.PLP.ligand.clash>
0.0783

> <Gold.PLP.ligand.torsion>
1.5542

> <Gold.PLP.Chemscore.Hbond>
4.5736

> <Gold.PLP.Chemscore.CHOScore>
0.0000

> <Gold.PLP.Chemscore.Metal>
0.0000

> <Gold.Chemscore.Hbonds>
donor molecule, donor type, donor heavy atom, donor atom, acceptor molecule, acceptor atom, score
      L1  H     5    47       P1  8028  2.00
      P1  H  6896  6907       L1    19  0.56
      P1  H  7997  8010       L1    10  0.61
      P1  H 10752 10763       L1    12  1.00

> <Gold.PLP.Chemscore.Internal.Correction>
0.1348

> <Gold.Rescore>
     Score         DG    S(hbond)    S(metal)    S(lipo)     H(rot)  DE(clash)    DE(int)     intcor
     19.75     -21.34       2.59        0.00     115.73       2.47       0.10       1.49       ----

> <Gold.Chemscore.Fitness>
19.7524

> <Gold.Chemscore.DG>
-21.3420

> <Gold.Chemscore.ZeroCoef>
-5.4800

> <Gold.Chemscore.Hbond>
2.5872

> <Gold.Chemscore.Metal>
0.0000

> <Gold.Chemscore.Lipo>
115.7285

> <Gold.Chemscore.Internal_Hbond>
0.0000

> <Gold.Chemscore.DEClash>
0.1033

> <Gold.Chemscore.DEInternal>
1.4863

> <Gold.Chemscore.Rot>
2.4685

> <Gold.Chemscore.Internal.Correction>
   9.000000E+99

> <Gold.Chemscore.Hbonds>
donor molecule, donor type, donor heavy atom, donor atom, acceptor molecule, acceptor atom, score
      L1  H     5    47       P1  8028  1.00
      P1  H  6896  6907       L1    19  0.13
      P1  H  7997  8010       L1    10  0.09
      P1  H 10752 10763       L1    12  0.78

> <Gold.Chemscore.Hbond.Weighted>
-8.6411

> <Gold.Chemscore.Metal.Weighted>
-0.0000

> <Gold.Chemscore.Lipo.Weighted>
-13.5402

> <Gold.Chemscore.Internal_Hbond.Weighted>
0.0000

> <Gold.Chemscore.DEClash.Weighted>
0.1033

> <Gold.Chemscore.DEInternal.Weighted>
1.4863

> <Gold.Chemscore.Rot.Weighted>
6.3194

> <Gold.Chemscore.Internal.Correction.Weighted>
   9.000000E+99

> <Gold.Protein.RotatedTorsions>
[ 6907 6896 6895 6894 ] final -107.18 input  -60.11 | X-H torsion
[ 7974 7965 7964 7962 ] final -162.97 input  175.53 | X-H torsion
[ 8008 7997 7996 7995 ] final  121.27 input   59.86 | X-H torsion
[ 10167 10162 10161 10158 ] final   10.32 input  -65.29 | X-H torsion
[ 10718 10713 10712 10709 ] final  -84.31 input   66.30 | X-H torsion
[ 10763 10752 10751 10750 ] final   79.39 input  -60.55 | X-H torsion
[ 11005 11000 10999 10996 ] final  -40.23 input  -57.11 | X-H torsion

> <Gold.Protein.ActiveResidues>
 VAL166  LYS551  ARG553  GLY616  TRP617  ASP618  TYR619  PRO620  LYS621  CYS622 
 ASP623  PHE694  ASN695  SER759  ASP760  ASP761  ALA762  ILE779  LEU786  VAL792 
 PHE793  MET794  SER795  GLU796  ALA797  LYS798  CYS799  TRP800  GLU811  SER814 

> <Gold.Protein.RotatedAtoms>
  150.7430  133.9864  159.3592 H   0  0  0  0  0  0  0  0  0  0  0  0  # atno 6907 bound_to 6896
  151.7809  135.0760  160.0383 H   0  0  0  0  0  0  0  0  0  0  0  0  # atno 6908 bound_to 6896
  152.3274  133.5884  159.5822 H   0  0  0  0  0  0  0  0  0  0  0  0  # atno 6909 bound_to 6896
  144.7340  140.3175  143.6177 H   0  0  0  0  0  0  0  0  0  0  0  0  # atno 7974 bound_to 7965
  156.2679  140.2812  156.1281 H   0  0  0  0  0  0  0  0  0  0  0  0  # atno 8008 bound_to 7997
  155.1084  140.0390  157.2734 H   0  0  0  0  0  0  0  0  0  0  0  0  # atno 8009 bound_to 7997
  154.6761  140.2598  155.6962 H   0  0  0  0  0  0  0  0  0  0  0  0  # atno 8010 bound_to 7997
  140.6201  143.8223  150.7165 H   0  0  0  0  0  0  0  0  0  0  0  0  # atno 10167 bound_to 10162
  156.0008  130.4694  150.4391 H   0  0  0  0  0  0  0  0  0  0  0  0  # atno 10718 bound_to 10713
  153.0949  135.4841  154.8760 H   0  0  0  0  0  0  0  0  0  0  0  0  # atno 10763 bound_to 10752
  154.7313  135.3061  154.8889 H   0  0  0  0  0  0  0  0  0  0  0  0  # atno 10764 bound_to 10752
  153.9524  135.6822  153.4797 H   0  0  0  0  0  0  0  0  0  0  0  0  # atno 10765 bound_to 10752
  141.0160  133.6885  156.2294 H   0  0  0  0  0  0  0  0  0  0  0  0  # atno 11005 bound_to 11000
  145.7603  139.1822  143.2271 LP  0  0  0  0  0  0  0  0  0  0  0  0  # atno 17320 bound_to 7965
  146.0992  140.7564  142.9557 LP  0  0  0  0  0  0  0  0  0  0  0  0  # atno 17321 bound_to 7965
  140.1811  143.4114  152.1932 LP  0  0  0  0  0  0  0  0  0  0  0  0  # atno 17342 bound_to 10162
  139.5431  144.7275  151.4669 LP  0  0  0  0  0  0  0  0  0  0  0  0  # atno 17343 bound_to 10162
  157.2433  131.0530  151.2423 LP  0  0  0  0  0  0  0  0  0  0  0  0  # atno 17370 bound_to 10713
  157.3599  130.7126  149.6495 LP  0  0  0  0  0  0  0  0  0  0  0  0  # atno 17371 bound_to 10713
  140.6654  134.4924  157.5585 LP  0  0  0  0  0  0  0  0  0  0  0  0  # atno 17394 bound_to 11000
  139.9117  134.8330  156.1505 LP  0  0  0  0  0  0  0  0  0  0  0  0  # atno 17395 bound_to 11000

$$$$
