AV-unprocessed.smi:2882|AV-procd|sdf|11073|dock2
  -GOLD-   2272015543D 1   1.00000     0.00000
 Structure written by MMmdl.
 28 30  0  0  0  0  0  0  0  0  1 V2000
  152.9006  138.9187  156.4971 N   0  0  0  0  0  0  0  0  0  0  0  0
  151.9410  139.4676  156.1548 C   0  0  0  0  0  0  0  0  0  0  0  0
  150.7326  140.1596  155.7249 C   0  0  0  0  0  0  0  0  0  0  0  0
  150.1922  139.7662  154.5483 N   0  0  0  0  0  0  0  0  0  0  0  0
  149.0692  140.3961  154.1425 C   0  0  0  0  0  0  0  0  0  0  0  0
  148.4812  141.4216  154.9079 C   0  0  0  0  0  0  0  0  0  0  0  0
  149.0138  141.8207  156.0821 N   0  0  0  0  0  0  0  0  0  0  0  0
  150.1407  141.1940  156.5032 C   0  0  0  0  0  0  0  0  0  0  0  0
  150.7079  141.5996  157.7252 N   0  0  0  0  0  0  0  0  0  0  0  0
  150.6228  142.9867  158.1718 C   0  0  2  0  0  0  0  0  0  0  0  0
  151.5368  143.9258  157.3811 C   0  0  0  0  0  0  0  0  0  0  0  0
  152.3357  144.6067  158.5016 C   0  0  2  0  0  0  0  0  0  0  0  0
  153.3918  143.6646  159.0938 C   0  0  0  0  0  0  0  0  0  0  0  0
  152.5262  142.6909  159.8909 C   0  0  0  0  0  0  0  0  0  0  0  0
  151.1098  143.2249  159.6157 C   0  0  1  0  0  0  0  0  0  0  0  0
  151.3803  144.6149  159.5491 O   0  0  0  0  0  0  0  0  0  0  0  0
  148.6383  140.0815  153.2035 H   0  0  0  0  0  0  0  0  0  0  0  0
  147.5832  141.9225  154.5777 H   0  0  0  0  0  0  0  0  0  0  0  0
  150.9101  140.8954  158.4203 H   0  0  0  0  0  0  0  0  0  0  0  0
  149.5954  143.3388  158.0697 H   0  0  0  0  0  0  0  0  0  0  0  0
  152.1859  143.4140  156.6690 H   0  0  0  0  0  0  0  0  0  0  0  0
  150.9411  144.6546  156.8304 H   0  0  0  0  0  0  0  0  0  0  0  0
  152.7217  145.5911  158.2353 H   0  0  0  0  0  0  0  0  0  0  0  0
  153.9874  143.1717  158.3247 H   0  0  0  0  0  0  0  0  0  0  0  0
  154.0685  144.2052  159.7564 H   0  0  0  0  0  0  0  0  0  0  0  0
  152.6608  141.6527  159.5866 H   0  0  0  0  0  0  0  0  0  0  0  0
  152.7603  142.7614  160.9537 H   0  0  0  0  0  0  0  0  0  0  0  0
  150.3816  142.9518  160.3797 H   0  0  0  0  0  0  0  0  0  0  0  0
  1  2  3  0  0  0  0
  2  3  1  0  0  0  0
  3  8  1  0  0  0  0
  3  4  2  0  0  0  0
  4  5  1  0  0  0  0
  5  6  2  0  0  0  0
  5 17  1  0  0  0  0
  6  7  1  0  0  0  0
  6 18  1  0  0  0  0
  7  8  2  0  0  0  0
  8  9  1  0  0  0  0
  9 10  1  0  0  0  0
  9 19  1  0  0  0  0
 10 15  1  0  0  0  0
 10 11  1  0  0  0  0
 10 20  1  0  0  0  0
 11 12  1  0  0  0  0
 11 21  1  0  0  0  0
 11 22  1  0  0  0  0
 12 16  1  0  0  0  0
 12 13  1  0  0  0  0
 12 23  1  0  0  0  0
 13 14  1  0  0  0  0
 13 24  1  0  0  0  0
 13 25  1  0  0  0  0
 14 15  1  0  0  0  0
 14 26  1  0  0  0  0
 14 27  1  0  0  0  0
 15 16  1  0  0  0  0
 15 28  1  0  0  0  0
M  END
> <s_m_source_file>
AV-unprocessed.smi

> <i_m_source_file_index>
2882

> <i_lp_mmshare_version>
43012

> <i_f3d_flags>
0

> <s_epik_input>
TiNDYzFuW2NIXVtjSF1uYzFbTkhdW0NASF0oW0NIMl1bQ0BASF0yMylbQ0BASF0oTzMpW0NIMl1bQ0gyXTI=

> <s_epik_cmdline>
J2VwaWtfcHl0aG9uJywgJy1waCcsICc3LjAnLCAnLXRuJywgJzgnLCAnLW1hJywgJzIwMCcsICctbWV0YWxfYmluZGluZycsICctaW1hZScsICc8aW5maWxlLm1hZT4nLCAnLW9tYWUnLCAnPG91dGZpbGUubWFlPic=

> <r_lp_tautomer_probability>
1

> <r_epik_Ionization_Penalty>
4.95445e-05

> <r_epik_Ionization_Penalty_Charging>
0

> <r_epik_Ionization_Penalty_Neutral>
4.95445e-05

> <r_epik_State_Penalty>
-0

> <r_epik_Charging_Adjusted_Penalty>
0

> <i_epik_Tot_Q>
0

> <i_epik_Tot_abs_Q>
0

> <r_epik_Metal_State_Penalty>
-0

> <b_epik_Metal_Only>
0

> <s_lp_Force_Field>
OPLS_2005

> <r_lp_Energy>
50.4858

> <b_lp_Chiralities_Consistent>
1

> <s_lp_Variant>
AV-unprocessed.smi:2882-3

> <Gold.Version>
5.8.1

> <Gold.Id.Protein>
6NUR|6NUR_protein|mol2

> <Gold.PLP.Fitness>
39.8115

> <Gold.PLP.PLP>
-32.5025

> <Gold.PLP.part.hbond>
-1.9917

> <Gold.PLP.part.metal>
0.0000

> <Gold.PLP.part.buried>
-1.9919

> <Gold.PLP.part.nonpolar>
-29.3753

> <Gold.PLP.part.repulsive>
1.4392

> <Gold.PLP.ligand.clash>
0.0000

> <Gold.PLP.ligand.torsion>
0.3261

> <Gold.PLP.Chemscore.Hbond>
1.6500

> <Gold.PLP.Chemscore.CHOScore>
1.0000

> <Gold.PLP.Chemscore.Metal>
0.0000

> <Gold.Chemscore.Hbonds>
donor molecule, donor type, donor heavy atom, donor atom, acceptor molecule, acceptor atom, score
      P1  H  7989  7998       L1     4  0.46
      P1  H  7997  8008       L1     1  1.00
      L1  C     5    17       P1  7957  0.97

> <Gold.PLP.Chemscore.Internal.Correction>
0.0112

> <Gold.Rescore>
     Score         DG    S(hbond)    S(metal)    S(lipo)     H(rot)  DE(clash)    DE(int)     intcor
     15.85     -16.28       0.92        0.00      87.87       1.00       0.03       0.40       ----

> <Gold.Chemscore.Fitness>
15.8533

> <Gold.Chemscore.DG>
-16.2804

> <Gold.Chemscore.ZeroCoef>
-5.4800

> <Gold.Chemscore.Hbond>
0.9220

> <Gold.Chemscore.Metal>
0.0000

> <Gold.Chemscore.Lipo>
87.8714

> <Gold.Chemscore.Internal_Hbond>
0.0000

> <Gold.Chemscore.DEClash>
0.0272

> <Gold.Chemscore.DEInternal>
0.3999

> <Gold.Chemscore.Rot>
1.0000

> <Gold.Chemscore.Internal.Correction>
   9.000000E+99

> <Gold.Chemscore.Hbonds>
donor molecule, donor type, donor heavy atom, donor atom, acceptor molecule, acceptor atom, score
      P1  H  7989  7998       L1     4  0.01
      P1  H  7997  8008       L1     1  0.74

> <Gold.Chemscore.Hbond.Weighted>
-3.0794

> <Gold.Chemscore.Metal.Weighted>
-0.0000

> <Gold.Chemscore.Lipo.Weighted>
-10.2810

> <Gold.Chemscore.Internal_Hbond.Weighted>
0.0000

> <Gold.Chemscore.DEClash.Weighted>
0.0272

> <Gold.Chemscore.DEInternal.Weighted>
0.3999

> <Gold.Chemscore.Rot.Weighted>
2.5600

> <Gold.Chemscore.Internal.Correction.Weighted>
   9.000000E+99

> <Gold.Protein.RotatedTorsions>
[ 6907 6896 6895 6894 ] final  -50.42 input  -60.11 | X-H torsion
[ 7974 7965 7964 7962 ] final  158.21 input  175.53 | X-H torsion
[ 8008 7997 7996 7995 ] final  -49.33 input   59.86 | X-H torsion
[ 10167 10162 10161 10158 ] final   50.63 input  -65.29 | X-H torsion
[ 10718 10713 10712 10709 ] final  108.33 input   66.30 | X-H torsion
[ 10763 10752 10751 10750 ] final   38.54 input  -60.55 | X-H torsion
[ 11005 11000 10999 10996 ] final  160.24 input  -57.11 | X-H torsion

> <Gold.Protein.ActiveResidues>
 VAL166  LYS551  ARG553  GLY616  TRP617  ASP618  TYR619  PRO620  LYS621  CYS622 
 ASP623  PHE694  ASN695  SER759  ASP760  ASP761  ALA762  ILE779  LEU786  VAL792 
 PHE793  MET794  SER795  GLU796  ALA797  LYS798  CYS799  TRP800  GLU811  SER814 

> <Gold.Protein.RotatedAtoms>
  150.8708  134.8082  159.7153 H   0  0  0  0  0  0  0  0  0  0  0  0  # atno 6907 bound_to 6896
  152.4713  134.4949  159.9716 H   0  0  0  0  0  0  0  0  0  0  0  0  # atno 6908 bound_to 6896
  151.5038  133.3460  159.2909 H   0  0  0  0  0  0  0  0  0  0  0  0  # atno 6909 bound_to 6896
  144.7859  139.7447  143.6241 H   0  0  0  0  0  0  0  0  0  0  0  0  # atno 7974 bound_to 7965
  154.4042  140.1299  156.4485 H   0  0  0  0  0  0  0  0  0  0  0  0  # atno 8008 bound_to 7997
  155.7389  140.3490  155.5075 H   0  0  0  0  0  0  0  0  0  0  0  0  # atno 8009 bound_to 7997
  155.9057  140.1027  157.1307 H   0  0  0  0  0  0  0  0  0  0  0  0  # atno 8010 bound_to 7997
  140.2704  144.3272  150.6292 H   0  0  0  0  0  0  0  0  0  0  0  0  # atno 10167 bound_to 10162
  157.6591  131.0891  150.6289 H   0  0  0  0  0  0  0  0  0  0  0  0  # atno 10718 bound_to 10713
  152.9997  135.6246  154.2320 H   0  0  0  0  0  0  0  0  0  0  0  0  # atno 10763 bound_to 10752
  154.2062  135.2802  155.2975 H   0  0  0  0  0  0  0  0  0  0  0  0  # atno 10764 bound_to 10752
  154.5643  135.5695  153.7095 H   0  0  0  0  0  0  0  0  0  0  0  0  # atno 10765 bound_to 10752
  140.2040  134.8316  157.3049 H   0  0  0  0  0  0  0  0  0  0  0  0  # atno 11005 bound_to 11000
  146.2090  139.5433  142.9694 LP  0  0  0  0  0  0  0  0  0  0  0  0  # atno 17320 bound_to 7965
  145.5924  141.0367  143.2063 LP  0  0  0  0  0  0  0  0  0  0  0  0  # atno 17321 bound_to 7965
  140.5894  143.2168  151.7281 LP  0  0  0  0  0  0  0  0  0  0  0  0  # atno 17342 bound_to 10162
  139.4990  144.3962  152.0229 LP  0  0  0  0  0  0  0  0  0  0  0  0  # atno 17343 bound_to 10162
  156.6593  130.4507  149.5693 LP  0  0  0  0  0  0  0  0  0  0  0  0  # atno 17370 bound_to 10713
  156.2079  130.6660  151.1238 LP  0  0  0  0  0  0  0  0  0  0  0  0  # atno 17371 bound_to 10713
  140.2023  134.4240  155.7656 LP  0  0  0  0  0  0  0  0  0  0  0  0  # atno 17394 bound_to 11000
  141.2227  133.7078  156.8203 LP  0  0  0  0  0  0  0  0  0  0  0  0  # atno 17395 bound_to 11000

$$$$
