AV-unprocessed.smi:419|AV-procd|sdf|2531|dock1
  -GOLD-   2262022493D 1   1.00000     0.00000
 Structure written by MMmdl.
 44 46  0  0  0  0  0  0  0  0  1 V2000
  142.3705  144.5817  155.7502 C   0  0  0  0  0  0  0  0  0  0  0  0
  143.2888  144.1499  154.7565 O   0  0  0  0  0  0  0  0  0  0  0  0
  144.4155  143.4698  155.1665 C   0  0  0  0  0  0  0  0  0  0  0  0
  144.6824  143.1040  156.5087 C   0  0  0  0  0  0  0  0  0  0  0  0
  145.8633  142.4105  156.8368 C   0  0  0  0  0  0  0  0  0  0  0  0
  146.8012  142.0649  155.8440 C   0  0  0  0  0  0  0  0  0  0  0  0
  147.9296  141.3879  156.2550 O   0  0  0  0  0  0  0  0  0  0  0  0
  149.0012  141.2431  155.3320 C   0  0  0  0  0  0  0  0  0  0  0  0
  150.2915  140.9261  156.1065 C   0  0  1  0  0  0  0  0  0  0  0  0
  151.2056  140.3602  155.1878 O   0  0  0  0  0  0  0  0  0  0  0  0
  150.9373  142.2017  156.6861 C   0  0  0  0  0  0  0  0  0  0  0  0
  151.7460  141.9120  157.8695 N   0  0  0  0  0  0  0  0  0  0  0  0
  152.5539  140.8403  158.0504 C   0  0  0  0  0  0  0  0  0  0  0  0
  152.7419  139.9338  157.2390 O   0  0  0  0  0  0  0  0  0  0  0  0
  153.1195  140.9434  159.2757 N   0  0  0  0  0  0  0  0  0  0  0  0
  154.0593  140.0128  159.8887 C   0  0  0  0  0  0  0  0  0  0  0  0
  152.6726  142.1198  159.8906 C   0  0  0  0  0  0  0  0  0  0  0  0
  152.9736  142.6764  161.1455 C   0  0  0  0  0  0  0  0  0  0  0  0
  152.3489  143.9022  161.4749 C   0  0  0  0  0  0  0  0  0  0  0  0
  151.4590  144.5317  160.5661 C   0  0  0  0  0  0  0  0  0  0  0  0
  151.1748  143.9491  159.3087 C   0  0  0  0  0  0  0  0  0  0  0  0
  151.8076  142.7303  159.0070 C   0  0  0  0  0  0  0  0  0  0  0  0
  146.5336  142.4295  154.5018 C   0  0  0  0  0  0  0  0  0  0  0  0
  145.3533  143.1239  154.1738 C   0  0  0  0  0  0  0  0  0  0  0  0
  141.5418  145.1037  155.2718 H   0  0  0  0  0  0  0  0  0  0  0  0
  142.8374  145.2764  156.4497 H   0  0  0  0  0  0  0  0  0  0  0  0
  141.9544  143.7375  156.3014 H   0  0  0  0  0  0  0  0  0  0  0  0
  143.9967  143.3443  157.3069 H   0  0  0  0  0  0  0  0  0  0  0  0
  146.0517  142.1400  157.8654 H   0  0  0  0  0  0  0  0  0  0  0  0
  148.7923  140.4700  154.5898 H   0  0  0  0  0  0  0  0  0  0  0  0
  149.1227  142.1896  154.8026 H   0  0  0  0  0  0  0  0  0  0  0  0
  150.0727  140.2155  156.9049 H   0  0  0  0  0  0  0  0  0  0  0  0
  151.6723  139.6616  155.6198 H   0  0  0  0  0  0  0  0  0  0  0  0
  151.5228  142.7278  155.9311 H   0  0  0  0  0  0  0  0  0  0  0  0
  150.1580  142.9031  156.9884 H   0  0  0  0  0  0  0  0  0  0  0  0
  153.7636  139.7949  160.9152 H   0  0  0  0  0  0  0  0  0  0  0  0
  155.0594  140.4461  159.9050 H   0  0  0  0  0  0  0  0  0  0  0  0
  154.1070  139.0659  159.3491 H   0  0  0  0  0  0  0  0  0  0  0  0
  153.6534  142.1919  161.8308 H   0  0  0  0  0  0  0  0  0  0  0  0
  152.5531  144.3650  162.4292 H   0  0  0  0  0  0  0  0  0  0  0  0
  150.9941  145.4683  160.8367 H   0  0  0  0  0  0  0  0  0  0  0  0
  150.5017  144.4266  158.6124 H   0  0  0  0  0  0  0  0  0  0  0  0
  147.2182  142.1904  153.7025 H   0  0  0  0  0  0  0  0  0  0  0  0
  145.1667  143.3957  153.1452 H   0  0  0  0  0  0  0  0  0  0  0  0
  1  2  1  0  0  0  0
  1 25  1  0  0  0  0
  1 26  1  0  0  0  0
  1 27  1  0  0  0  0
  2  3  1  0  0  0  0
  3 24  1  0  0  0  0
  3  4  2  0  0  0  0
  4  5  1  0  0  0  0
  4 28  1  0  0  0  0
  5  6  2  0  0  0  0
  5 29  1  0  0  0  0
  6  7  1  0  0  0  0
  6 23  1  0  0  0  0
  7  8  1  0  0  0  0
  8  9  1  0  0  0  0
  8 30  1  0  0  0  0
  8 31  1  0  0  0  0
  9 10  1  0  0  0  0
  9 11  1  0  0  0  0
  9 32  1  0  0  0  0
 10 33  1  0  0  0  0
 11 12  1  0  0  0  0
 11 34  1  0  0  0  0
 11 35  1  0  0  0  0
 12 22  1  0  0  0  0
 12 13  1  0  0  0  0
 13 14  2  0  0  0  0
 13 15  1  0  0  0  0
 15 16  1  0  0  0  0
 15 17  1  0  0  0  0
 16 36  1  0  0  0  0
 16 37  1  0  0  0  0
 16 38  1  0  0  0  0
 17 22  2  0  0  0  0
 17 18  1  0  0  0  0
 18 19  2  0  0  0  0
 18 39  1  0  0  0  0
 19 20  1  0  0  0  0
 19 40  1  0  0  0  0
 20 21  2  0  0  0  0
 20 41  1  0  0  0  0
 21 22  1  0  0  0  0
 21 42  1  0  0  0  0
 23 24  2  0  0  0  0
 23 43  1  0  0  0  0
 24 44  1  0  0  0  0
M  END
> <s_m_source_file>
AV-unprocessed.smi

> <i_m_source_file_index>
419

> <i_lp_mmshare_version>
43012

> <i_f3d_flags>
0

> <s_epik_input>
W0NIM11PYzFbY0hdW2NIXWMoW2NIXVtjSF0xKU9bQ0gyXVtDQEhdKFtPSF0pW0NIMl1uKGMoPU8pbjJbQ0gzXSljKGMyMylbY0hdW2NIXVtjSF1bY0hdMw==

> <s_epik_cmdline>
J2VwaWtfcHl0aG9uJywgJy1waCcsICc3LjAnLCAnLXRuJywgJzgnLCAnLW1hJywgJzIwMCcsICctbWV0YWxfYmluZGluZycsICctaW1hZScsICc8aW5maWxlLm1hZT4nLCAnLW9tYWUnLCAnPG91dGZpbGUubWFlPic=

> <r_lp_tautomer_probability>
1

> <r_epik_Ionization_Penalty>
2.40131e-06

> <r_epik_Ionization_Penalty_Charging>
2.01037e-09

> <r_epik_Ionization_Penalty_Neutral>
2.3993e-06

> <r_epik_State_Penalty>
-0

> <r_epik_Charging_Adjusted_Penalty>
2.01037e-09

> <i_epik_Tot_Q>
0

> <i_epik_Tot_abs_Q>
0

> <r_epik_Metal_State_Penalty>
-0

> <b_epik_Metal_Only>
0

> <s_lp_Force_Field>
OPLS_2005

> <r_lp_Energy>
50.9462

> <b_lp_Chiralities_Consistent>
1

> <s_lp_Variant>
AV-unprocessed.smi:419-2

> <Gold.Version>
5.8.1

> <Gold.Id.Protein>
6NUR|6NUR_protein|mol2

> <Gold.PLP.Fitness>
57.1420

> <Gold.PLP.PLP>
-52.7719

> <Gold.PLP.part.hbond>
-2.0000

> <Gold.PLP.part.metal>
0.0000

> <Gold.PLP.part.buried>
-7.2985

> <Gold.PLP.part.nonpolar>
-44.1164

> <Gold.PLP.part.repulsive>
0.5124

> <Gold.PLP.ligand.clash>
0.0000

> <Gold.PLP.ligand.torsion>
1.0319

> <Gold.PLP.Chemscore.Hbond>
2.0000

> <Gold.PLP.Chemscore.CHOScore>
0.0000

> <Gold.PLP.Chemscore.Metal>
0.0000

> <Gold.Chemscore.Hbonds>
donor molecule, donor type, donor heavy atom, donor atom, acceptor molecule, acceptor atom, score
      P1  H  7989  7998       L1    10  1.00
      P1  H  7997  8009       L1    14  1.00

> <Gold.PLP.Chemscore.Internal.Correction>
0.4340

> <Gold.Rescore>
     Score         DG    S(hbond)    S(metal)    S(lipo)     H(rot)  DE(clash)    DE(int)     intcor
     16.13     -20.26       1.81        0.00     127.07       2.40       0.52       3.61       ----

> <Gold.Chemscore.Fitness>
16.1266

> <Gold.Chemscore.DG>
-20.2631

> <Gold.Chemscore.ZeroCoef>
-5.4800

> <Gold.Chemscore.Hbond>
1.8107

> <Gold.Chemscore.Metal>
0.0000

> <Gold.Chemscore.Lipo>
127.0671

> <Gold.Chemscore.Internal_Hbond>
0.0000

> <Gold.Chemscore.DEClash>
0.5235

> <Gold.Chemscore.DEInternal>
3.6130

> <Gold.Chemscore.Rot>
2.3952

> <Gold.Chemscore.Internal.Correction>
   9.000000E+99

> <Gold.Chemscore.Hbonds>
donor molecule, donor type, donor heavy atom, donor atom, acceptor molecule, acceptor atom, score
      P1  H  7989  7998       L1    10  0.94
      P1  H  7997  8009       L1    14  0.68

> <Gold.Chemscore.Hbond.Weighted>
-6.0479

> <Gold.Chemscore.Metal.Weighted>
-0.0000

> <Gold.Chemscore.Lipo.Weighted>
-14.8669

> <Gold.Chemscore.Internal_Hbond.Weighted>
0.0000

> <Gold.Chemscore.DEClash.Weighted>
0.5235

> <Gold.Chemscore.DEInternal.Weighted>
3.6130

> <Gold.Chemscore.Rot.Weighted>
6.1316

> <Gold.Chemscore.Internal.Correction.Weighted>
   9.000000E+99

> <Gold.Protein.RotatedTorsions>
[ 6907 6896 6895 6894 ] final  114.90 input  -60.11 | X-H torsion
[ 7974 7965 7964 7962 ] final  -77.53 input  175.53 | X-H torsion
[ 8008 7997 7996 7995 ] final -171.85 input   59.86 | X-H torsion
[ 10167 10162 10161 10158 ] final -147.52 input  -65.29 | X-H torsion
[ 10718 10713 10712 10709 ] final  164.50 input   66.30 | X-H torsion
[ 10763 10752 10751 10750 ] final  -96.24 input  -60.55 | X-H torsion
[ 11005 11000 10999 10996 ] final    8.22 input  -57.11 | X-H torsion

> <Gold.Protein.ActiveResidues>
 VAL166  LYS551  ARG553  GLY616  TRP617  ASP618  TYR619  PRO620  LYS621  CYS622 
 ASP623  PHE694  ASN695  SER759  ASP760  ASP761  ALA762  ILE779  LEU786  VAL792 
 PHE793  MET794  SER795  GLU796  ALA797  LYS798  CYS799  TRP800  GLU811  SER814 

> <Gold.Protein.RotatedAtoms>
  152.4774  133.8172  159.7034 H   0  0  0  0  0  0  0  0  0  0  0  0  # atno 6907 bound_to 6896
  150.8801  133.7375  159.2941 H   0  0  0  0  0  0  0  0  0  0  0  0  # atno 6908 bound_to 6896
  151.4882  135.1059  159.9848 H   0  0  0  0  0  0  0  0  0  0  0  0  # atno 6909 bound_to 6896
  145.5984  140.9414  143.1254 H   0  0  0  0  0  0  0  0  0  0  0  0  # atno 7974 bound_to 7965
  155.9369  140.1101  157.1087 H   0  0  0  0  0  0  0  0  0  0  0  0  # atno 8008 bound_to 7997
  154.4081  140.1226  156.4942 H   0  0  0  0  0  0  0  0  0  0  0  0  # atno 8009 bound_to 7997
  155.7010  140.3472  155.4935 H   0  0  0  0  0  0  0  0  0  0  0  0  # atno 8010 bound_to 7997
  139.7614  143.8371  152.2608 H   0  0  0  0  0  0  0  0  0  0  0  0  # atno 10167 bound_to 10162
  157.0935  131.0424  151.2527 H   0  0  0  0  0  0  0  0  0  0  0  0  # atno 10718 bound_to 10713
  154.7222  135.5091  153.8829 H   0  0  0  0  0  0  0  0  0  0  0  0  # atno 10763 bound_to 10752
  153.0872  135.6649  153.9934 H   0  0  0  0  0  0  0  0  0  0  0  0  # atno 10764 bound_to 10752
  153.9754  135.3034  155.3403 H   0  0  0  0  0  0  0  0  0  0  0  0  # atno 10765 bound_to 10752
  140.5394  134.0389  155.7899 H   0  0  0  0  0  0  0  0  0  0  0  0  # atno 11005 bound_to 11000
  144.7320  139.7696  143.7343 LP  0  0  0  0  0  0  0  0  0  0  0  0  # atno 17320 bound_to 7965
  146.1594  139.4704  142.9998 LP  0  0  0  0  0  0  0  0  0  0  0  0  # atno 17321 bound_to 7965
  139.8378  144.7224  150.9369 LP  0  0  0  0  0  0  0  0  0  0  0  0  # atno 17342 bound_to 10162
  140.7807  143.4011  151.1148 LP  0  0  0  0  0  0  0  0  0  0  0  0  # atno 17343 bound_to 10162
  157.4701  130.7703  149.7315 LP  0  0  0  0  0  0  0  0  0  0  0  0  # atno 17370 bound_to 10713
  155.9892  130.3954  150.3085 LP  0  0  0  0  0  0  0  0  0  0  0  0  # atno 17371 bound_to 10713
  141.1236  133.9421  157.2681 LP  0  0  0  0  0  0  0  0  0  0  0  0  # atno 17394 bound_to 11000
  139.9512  135.0175  156.8998 LP  0  0  0  0  0  0  0  0  0  0  0  0  # atno 17395 bound_to 11000

$$$$
