AV-unprocessed.smi:1228|AV-procd|sdf|5149|dock10
  -GOLD-   22720 4223D 1   1.00000     0.00000
 Structure written by MMmdl.
 43 45  0  0  0  0  0  0  0  0  1 V2000
  146.6645  130.1295  153.2830 C   0  0  0  0  0  0  0  0  0  0  0  0
  147.6372  131.2094  153.6553 C   0  0  0  0  0  0  0  0  0  0  0  0
  147.5588  132.6015  153.3594 C   0  0  0  0  0  0  0  0  0  0  0  0
  148.6973  133.0963  153.9349 C   0  0  0  0  0  0  0  0  0  0  0  0
  149.1496  134.3780  153.9721 N   0  0  0  0  0  0  0  0  0  0  0  0
  149.7061  135.0439  154.9991 C   0  0  0  0  0  0  0  0  0  0  0  0
  149.9047  134.5856  156.1245 O   0  0  0  0  0  0  0  0  0  0  0  0
  150.0255  136.2971  154.6453 N   0  0  0  0  0  0  0  0  0  0  0  0
  150.6470  137.2866  155.5206 C   0  0  0  0  0  0  0  0  0  0  0  0
  149.6768  137.7248  156.6322 C   0  0  0  0  0  0  0  0  0  0  0  0
  150.2682  138.8796  157.4595 C   0  0  0  0  0  0  0  0  0  0  0  0
  150.5795  140.0169  156.5928 N   0  0  0  0  0  0  0  0  0  0  0  0
  151.0947  141.1026  157.4110 C   0  0  0  0  0  0  0  0  0  0  0  0
  150.0953  142.0842  157.9790 C   0  0  0  0  0  0  0  0  0  0  0  0
  151.0066  142.5040  156.8510 C   0  0  0  0  0  0  0  0  0  0  0  0
  151.6006  139.6336  155.6178 C   0  0  0  0  0  0  0  0  0  0  0  0
  151.0662  138.5179  154.7024 C   0  0  0  0  0  0  0  0  0  0  0  0
  149.3863  132.0583  154.5218 N   0  0  0  0  0  0  0  0  0  0  0  0
  150.6390  132.0801  155.2518 C   0  0  0  0  0  0  0  0  0  0  0  0
  148.7263  130.8931  154.3470 N   0  0  0  0  0  0  0  0  0  0  0  0
  145.8072  130.5388  152.7483 H   0  0  0  0  0  0  0  0  0  0  0  0
  146.2883  129.6167  154.1685 H   0  0  0  0  0  0  0  0  0  0  0  0
  147.1323  129.3849  152.6388 H   0  0  0  0  0  0  0  0  0  0  0  0
  146.7875  133.1267  152.8165 H   0  0  0  0  0  0  0  0  0  0  0  0
  149.0508  134.8933  153.1099 H   0  0  0  0  0  0  0  0  0  0  0  0
  149.8253  136.5907  153.7004 H   0  0  0  0  0  0  0  0  0  0  0  0
  151.5417  136.8571  155.9760 H   0  0  0  0  0  0  0  0  0  0  0  0
  148.7274  138.0409  156.1972 H   0  0  0  0  0  0  0  0  0  0  0  0
  149.4514  136.8837  157.2887 H   0  0  0  0  0  0  0  0  0  0  0  0
  149.5478  139.1869  158.2186 H   0  0  0  0  0  0  0  0  0  0  0  0
  151.1659  138.5490  157.9848 H   0  0  0  0  0  0  0  0  0  0  0  0
  151.9623  140.9101  158.0402 H   0  0  0  0  0  0  0  0  0  0  0  0
  149.0431  141.9352  157.7440 H   0  0  0  0  0  0  0  0  0  0  0  0
  150.2986  142.4897  158.9680 H   0  0  0  0  0  0  0  0  0  0  0  0
  151.8169  143.1903  157.0883 H   0  0  0  0  0  0  0  0  0  0  0  0
  150.5590  142.6339  155.8673 H   0  0  0  0  0  0  0  0  0  0  0  0
  151.8712  140.5004  155.0138 H   0  0  0  0  0  0  0  0  0  0  0  0
  152.5066  139.3040  156.1288 H   0  0  0  0  0  0  0  0  0  0  0  0
  151.8300  138.2409  153.9750 H   0  0  0  0  0  0  0  0  0  0  0  0
  150.2166  138.8959  154.1312 H   0  0  0  0  0  0  0  0  0  0  0  0
  151.4022  132.5832  154.6572 H   0  0  0  0  0  0  0  0  0  0  0  0
  150.9746  131.0651  155.4691 H   0  0  0  0  0  0  0  0  0  0  0  0
  150.5052  132.6181  156.1906 H   0  0  0  0  0  0  0  0  0  0  0  0
  1  2  1  0  0  0  0
  1 21  1  0  0  0  0
  1 22  1  0  0  0  0
  1 23  1  0  0  0  0
  2 20  2  0  0  0  0
  2  3  1  0  0  0  0
  3  4  2  0  0  0  0
  3 24  1  0  0  0  0
  4  5  1  0  0  0  0
  4 18  1  0  0  0  0
  5  6  1  0  0  0  0
  5 25  1  0  0  0  0
  6  7  2  0  0  0  0
  6  8  1  0  0  0  0
  8  9  1  0  0  0  0
  8 26  1  0  0  0  0
  9 17  1  0  0  0  0
  9 10  1  0  0  0  0
  9 27  1  0  0  0  0
 10 11  1  0  0  0  0
 10 28  1  0  0  0  0
 10 29  1  0  0  0  0
 11 12  1  0  0  0  0
 11 30  1  0  0  0  0
 11 31  1  0  0  0  0
 12 13  1  0  0  0  0
 12 16  1  0  0  0  0
 13 15  1  0  0  0  0
 13 14  1  0  0  0  0
 13 32  1  0  0  0  0
 14 15  1  0  0  0  0
 14 33  1  0  0  0  0
 14 34  1  0  0  0  0
 15 35  1  0  0  0  0
 15 36  1  0  0  0  0
 16 17  1  0  0  0  0
 16 37  1  0  0  0  0
 16 38  1  0  0  0  0
 17 39  1  0  0  0  0
 17 40  1  0  0  0  0
 18 19  1  0  0  0  0
 18 20  1  0  0  0  0
 19 41  1  0  0  0  0
 19 42  1  0  0  0  0
 19 43  1  0  0  0  0
M  END
> <s_m_source_file>
AV-unprocessed.smi

> <i_m_source_file_index>
1228

> <i_lp_mmshare_version>
43012

> <i_f3d_flags>
0

> <s_epik_input>
W0NIM11jMVtjSF1jKG4objEpW0NIM10pW05IXUMoPU8pW05IXVtDSF0yW0NIMl1bQ0gyXU4oW0NIMl1bQ0gyXTIpW0NIXTNbQ0gyXVtDSDJdMw==

> <s_epik_cmdline>
J2VwaWtfcHl0aG9uJywgJy1waCcsICc3LjAnLCAnLXRuJywgJzgnLCAnLW1hJywgJzIwMCcsICctbWV0YWxfYmluZGluZycsICctaW1hZScsICc8aW5maWxlLm1hZT4nLCAnLW9tYWUnLCAnPG91dGZpbGUubWFlPic=

> <r_lp_tautomer_probability>
1

> <r_epik_Ionization_Penalty>
1.01084

> <r_epik_Ionization_Penalty_Charging>
0

> <r_epik_Ionization_Penalty_Neutral>
1.01084

> <r_epik_State_Penalty>
1.06014

> <r_epik_Charging_Adjusted_Penalty>
1.06014

> <i_epik_Tot_Q>
0

> <i_epik_Tot_abs_Q>
0

> <r_epik_Metal_State_Penalty>
1.06013

> <b_epik_Metal_Only>
0

> <s_lp_Force_Field>
OPLS_2005

> <r_lp_Energy>
22.8061

> <b_lp_Chiralities_Consistent>
1

> <s_lp_Variant>
AV-unprocessed.smi:1228-3

> <Gold.Version>
5.8.1

> <Gold.Id.Protein>
6NUR|6NUR_protein|mol2

> <Gold.PLP.Fitness>
35.2916

> <Gold.PLP.PLP>
-30.8633

> <Gold.PLP.part.hbond>
-2.0000

> <Gold.PLP.part.metal>
0.0000

> <Gold.PLP.part.buried>
-4.7161

> <Gold.PLP.part.nonpolar>
-24.8760

> <Gold.PLP.part.repulsive>
0.1296

> <Gold.PLP.ligand.clash>
0.0000

> <Gold.PLP.ligand.torsion>
0.9948

> <Gold.PLP.Chemscore.Hbond>
1.7500

> <Gold.PLP.Chemscore.CHOScore>
0.0000

> <Gold.PLP.Chemscore.Metal>
0.0000

> <Gold.Chemscore.Hbonds>
donor molecule, donor type, donor heavy atom, donor atom, acceptor molecule, acceptor atom, score
      L1  H     5    25       P1  7948  0.75
      L1  H     8    26       P1  7948  1.00

> <Gold.PLP.Chemscore.Internal.Correction>
1.1678

> <Gold.Rescore>
     Score         DG    S(hbond)    S(metal)    S(lipo)     H(rot)  DE(clash)    DE(int)     intcor
     12.04     -15.21       1.62        0.00      63.14       1.19       0.02       3.14       ----

> <Gold.Chemscore.Fitness>
12.0406

> <Gold.Chemscore.DG>
-15.2076

> <Gold.Chemscore.ZeroCoef>
-5.4800

> <Gold.Chemscore.Hbond>
1.6164

> <Gold.Chemscore.Metal>
0.0000

> <Gold.Chemscore.Lipo>
63.1396

> <Gold.Chemscore.Internal_Hbond>
0.0000

> <Gold.Chemscore.DEClash>
0.0224

> <Gold.Chemscore.DEInternal>
3.1446

> <Gold.Chemscore.Rot>
1.1948

> <Gold.Chemscore.Internal.Correction>
   9.000000E+99

> <Gold.Chemscore.Hbonds>
donor molecule, donor type, donor heavy atom, donor atom, acceptor molecule, acceptor atom, score
      L1  H     5    25       P1  7948  0.09
      L1  H     8    26       P1  7948  0.35

> <Gold.Chemscore.Hbond.Weighted>
-5.3989

> <Gold.Chemscore.Metal.Weighted>
-0.0000

> <Gold.Chemscore.Lipo.Weighted>
-7.3873

> <Gold.Chemscore.Internal_Hbond.Weighted>
0.0000

> <Gold.Chemscore.DEClash.Weighted>
0.0224

> <Gold.Chemscore.DEInternal.Weighted>
3.1446

> <Gold.Chemscore.Rot.Weighted>
3.0587

> <Gold.Chemscore.Internal.Correction.Weighted>
   9.000000E+99

> <Gold.Protein.RotatedTorsions>
[ 6907 6896 6895 6894 ] final   61.39 input  -60.11 | X-H torsion
[ 7974 7965 7964 7962 ] final  -79.35 input  175.53 | X-H torsion
[ 8008 7997 7996 7995 ] final  -32.80 input   59.86 | X-H torsion
[ 10167 10162 10161 10158 ] final  -45.58 input  -65.29 | X-H torsion
[ 10718 10713 10712 10709 ] final  -82.74 input   66.30 | X-H torsion
[ 10763 10752 10751 10750 ] final  -72.11 input  -60.55 | X-H torsion
[ 11005 11000 10999 10996 ] final -155.79 input  -57.11 | X-H torsion

> <Gold.Protein.ActiveResidues>
 VAL166  LYS551  ARG553  GLY616  TRP617  ASP618  TYR619  PRO620  LYS621  CYS622 
 ASP623  PHE694  ASN695  SER759  ASP760  ASP761  ALA762  ILE779  LEU786  VAL792 
 PHE793  MET794  SER795  GLU796  ALA797  LYS798  CYS799  TRP800  GLU811  SER814 

> <Gold.Protein.RotatedAtoms>
  152.4085  134.6166  160.0039 H   0  0  0  0  0  0  0  0  0  0  0  0  # atno 6907 bound_to 6896
  151.6350  133.3324  159.3125 H   0  0  0  0  0  0  0  0  0  0  0  0  # atno 6908 bound_to 6896
  150.7977  134.7090  159.6638 H   0  0  0  0  0  0  0  0  0  0  0  0  # atno 6909 bound_to 6896
  145.5744  140.9460  143.1378 H   0  0  0  0  0  0  0  0  0  0  0  0  # atno 7974 bound_to 7965
  154.4168  140.1727  156.1786 H   0  0  0  0  0  0  0  0  0  0  0  0  # atno 8008 bound_to 7997
  155.9701  140.3386  155.6544 H   0  0  0  0  0  0  0  0  0  0  0  0  # atno 8009 bound_to 7997
  155.6637  140.0704  157.2536 H   0  0  0  0  0  0  0  0  0  0  0  0  # atno 8010 bound_to 7997
  140.6852  143.2872  151.3660 H   0  0  0  0  0  0  0  0  0  0  0  0  # atno 10167 bound_to 10162
  156.0028  130.4644  150.4151 H   0  0  0  0  0  0  0  0  0  0  0  0  # atno 10718 bound_to 10713
  154.4411  135.5940  153.6130 H   0  0  0  0  0  0  0  0  0  0  0  0  # atno 10763 bound_to 10752
  152.9805  135.5998  154.3721 H   0  0  0  0  0  0  0  0  0  0  0  0  # atno 10764 bound_to 10752
  154.3571  135.2841  155.2319 H   0  0  0  0  0  0  0  0  0  0  0  0  # atno 10765 bound_to 10752
  140.6826  134.4128  157.5225 H   0  0  0  0  0  0  0  0  0  0  0  0  # atno 11005 bound_to 11000
  144.7422  139.7416  143.7306 LP  0  0  0  0  0  0  0  0  0  0  0  0  # atno 17320 bound_to 7965
  146.1761  139.4932  142.9896 LP  0  0  0  0  0  0  0  0  0  0  0  0  # atno 17321 bound_to 7965
  139.6205  144.0917  152.2386 LP  0  0  0  0  0  0  0  0  0  0  0  0  # atno 17342 bound_to 10162
  140.0360  144.6044  150.7450 LP  0  0  0  0  0  0  0  0  0  0  0  0  # atno 17343 bound_to 10162
  157.2211  131.0482  151.2546 LP  0  0  0  0  0  0  0  0  0  0  0  0  # atno 17370 bound_to 10713
  157.3799  130.7226  149.6623 LP  0  0  0  0  0  0  0  0  0  0  0  0  # atno 17371 bound_to 10713
  139.8947  134.8700  156.2165 LP  0  0  0  0  0  0  0  0  0  0  0  0  # atno 17394 bound_to 11000
  141.0305  133.6991  156.1422 LP  0  0  0  0  0  0  0  0  0  0  0  0  # atno 17395 bound_to 11000

$$$$
