AV-unprocessed.smi:72|AV-procd|sdf|732|dock1
  -GOLD-   2262017 63D 1   1.00000     0.00000
 Structure written by MMmdl.
 28 29  0  0  0  0  0  0  0  0  2 V2000
  153.0477  139.9225  159.1702 N   0  0  0  0  0  0  0  0  0  0  0  0
  152.2401  139.9193  158.2017 C   0  0  0  0  0  0  0  0  0  0  0  0
  150.8460  140.2359  158.4223 N   0  0  0  0  0  0  0  0  0  0  0  0
  150.0539  140.2295  157.3945 C   0  0  0  0  0  0  0  0  0  0  0  0
  150.5347  139.9203  156.0535 N   0  0  0  0  0  0  0  0  0  0  0  0
  149.6145  139.9151  154.8429 C   0  0  1  0  0  0  0  0  0  0  0  0
  148.4503  139.1919  155.1288 O   0  0  0  0  0  0  0  0  0  0  0  0
  147.3394  140.0747  155.2361 C   0  0  2  0  0  0  0  0  0  0  0  0
  146.0149  139.3213  155.0224 C   0  0  0  0  0  0  0  0  0  0  0  0
  145.8956  138.9074  153.6778 O   0  0  0  0  0  0  0  0  0  0  0  0
  147.6734  141.1962  154.2448 C   0  0  2  0  0  0  0  0  0  0  0  0
  147.3361  140.8284  152.9199 O   0  0  0  0  0  0  0  0  0  0  0  0
  149.1835  141.3343  154.3914 C   0  0  1  0  0  0  0  0  0  0  0  0
  149.4799  142.3531  155.3315 O   0  0  0  0  0  0  0  0  0  0  0  0
  151.9083  139.6086  155.8687 C   0  0  0  0  0  0  0  0  0  0  0  0
  152.2960  139.3546  154.7280 O   0  0  0  0  0  0  0  0  0  0  0  0
  152.7325  139.6088  156.9536 N   0  5  0  0  0  0  0  0  0  0  0  0
  150.1520  139.3645  154.0693 H   0  0  0  0  0  0  0  0  0  0  0  0
  147.3483  140.4928  156.2440 H   0  0  0  0  0  0  0  0  0  0  0  0
  147.1418  142.1191  154.4810 H   0  0  0  0  0  0  0  0  0  0  0  0
  149.6721  141.5868  153.4493 H   0  0  0  0  0  0  0  0  0  0  0  0
  153.9895  139.6872  158.8935 H   0  0  0  0  0  0  0  0  0  0  0  0
  148.9908  140.4536  157.4760 H   0  0  0  0  0  0  0  0  0  0  0  0
  145.9316  138.4581  155.6829 H   0  0  0  0  0  0  0  0  0  0  0  0
  145.1758  139.9776  155.2545 H   0  0  0  0  0  0  0  0  0  0  0  0
  145.2228  139.4259  153.2629 H   0  0  0  0  0  0  0  0  0  0  0  0
  148.1213  140.5368  152.4829 H   0  0  0  0  0  0  0  0  0  0  0  0
  149.0490  143.1483  155.0583 H   0  0  0  0  0  0  0  0  0  0  0  0
  1  2  2  0  0  0  0
  1 22  1  0  0  0  0
  2 17  1  0  0  0  0
  2  3  1  0  0  0  0
  3  4  2  0  0  0  0
  4  5  1  0  0  0  0
  4 23  1  0  0  0  0
  5  6  1  0  0  0  0
  5 15  1  0  0  0  0
  6 18  1  0  0  0  0
  6 13  1  0  0  0  0
  6  7  1  0  0  0  0
  7  8  1  0  0  0  0
  8 19  1  0  0  0  0
  8  9  1  0  0  0  0
  8 11  1  0  0  0  0
  9 10  1  0  0  0  0
  9 24  1  0  0  0  0
  9 25  1  0  0  0  0
 10 26  1  0  0  0  0
 11 20  1  0  0  0  0
 11 12  1  0  0  0  0
 11 13  1  0  0  0  0
 12 27  1  0  0  0  0
 13 21  1  0  0  0  0
 13 14  1  0  0  0  0
 14 28  1  0  0  0  0
 15 16  2  0  0  0  0
 15 17  1  0  0  0  0
M  CHG  1  17  -1
M  END
> <s_m_source_file>
AV-unprocessed.smi

> <i_m_source_file_index>
72

> <i_lp_mmshare_version>
43012

> <i_f3d_flags>
0

> <s_epik_input>
W05IMl1jMW5bY0hdbihjKD1PKW4xKVtDQEBIXTJPW0NASF0oW0NIMl1bT0hdKVtDQEBIXShbT0hdKVtDQEhdMltPSF0=

> <s_epik_cmdline>
J2VwaWtfcHl0aG9uJywgJy1waCcsICc3LjAnLCAnLXRuJywgJzgnLCAnLW1hJywgJzIwMCcsICctbWV0YWxfYmluZGluZycsICctaW1hZScsICc8aW5maWxlLm1hZT4nLCAnLW9tYWUnLCAnPG91dGZpbGUubWFlPic=

> <r_lp_tautomer_probability>
7.17554e-07

> <r_epik_Ionization_Penalty>
12.8705

> <r_epik_Ionization_Penalty_Charging>
5.64144

> <r_epik_Ionization_Penalty_Neutral>
7.22905

> <r_epik_State_Penalty>
3.30104

> <r_epik_Charging_Adjusted_Penalty>
8.94249

> <i_epik_Tot_Q>
-1

> <i_epik_Tot_abs_Q>
1

> <r_epik_Metal_State_Penalty>
0.529074

> <b_epik_Metal_Only>
1

> <s_epik_Chemistry_Notes>
This compound contains an acetal/aminal-like group ( X-CH(R)-Y where X, Y are N, S, or O) that may be acid/base labile, releasing an aldehyde.

> <s_lp_Force_Field>
OPLS_2005

> <r_lp_Energy>
37.8021

> <b_lp_Chiralities_Consistent>
1

> <s_lp_Variant>
AV-unprocessed.smi:72-70

> <Gold.Version>
5.8.1

> <Gold.Id.Protein>
6NUR|6NUR_protein|mol2

> <Gold.PLP.Fitness>
38.5915

> <Gold.PLP.PLP>
-22.4992

> <Gold.PLP.part.hbond>
-4.7558

> <Gold.PLP.part.metal>
0.0000

> <Gold.PLP.part.buried>
-2.5567

> <Gold.PLP.part.nonpolar>
-14.5027

> <Gold.PLP.part.repulsive>
0.1198

> <Gold.PLP.ligand.clash>
0.0000

> <Gold.PLP.ligand.torsion>
0.3261

> <Gold.PLP.Chemscore.Hbond>
5.5680

> <Gold.PLP.Chemscore.CHOScore>
0.0000

> <Gold.PLP.Chemscore.Metal>
0.0000

> <Gold.Chemscore.Hbonds>
donor molecule, donor type, donor heavy atom, donor atom, acceptor molecule, acceptor atom, score
      L1  H    10    26       P1 10175  1.00
      L1  H    12    27       P1  7957  0.99
      L1  H    14    28       P1  8028  0.75
      P1  H  7989  7998       L1    16  0.75
      P1  H  7997  8008       L1    17  2.00

> <Gold.PLP.Chemscore.Internal.Correction>
0.0405

> <Gold.Rescore>
     Score         DG    S(hbond)    S(metal)    S(lipo)     H(rot)  DE(clash)    DE(int)     intcor
     10.98     -11.69       4.28        0.00      19.18       4.04       0.15       0.57       ----

> <Gold.Chemscore.Fitness>
10.9751

> <Gold.Chemscore.DG>
-11.6913

> <Gold.Chemscore.ZeroCoef>
-5.4800

> <Gold.Chemscore.Hbond>
4.2846

> <Gold.Chemscore.Metal>
0.0000

> <Gold.Chemscore.Lipo>
19.1770

> <Gold.Chemscore.Internal_Hbond>
0.0000

> <Gold.Chemscore.DEClash>
0.1490

> <Gold.Chemscore.DEInternal>
0.5672

> <Gold.Chemscore.Rot>
4.0403

> <Gold.Chemscore.Internal.Correction>
   9.000000E+99

> <Gold.Chemscore.Hbonds>
donor molecule, donor type, donor heavy atom, donor atom, acceptor molecule, acceptor atom, score
      L1  H    10    26       P1 10175  0.93
      L1  H    12    27       P1  7957  0.92
      L1  H    14    28       P1  8028  0.76
      P1  H  7989  7998       L1    16  0.46
      P1  H  7997  8008       L1    17  0.84

> <Gold.Chemscore.Hbond.Weighted>
-14.3107

> <Gold.Chemscore.Metal.Weighted>
-0.0000

> <Gold.Chemscore.Lipo.Weighted>
-2.2437

> <Gold.Chemscore.Internal_Hbond.Weighted>
0.0000

> <Gold.Chemscore.DEClash.Weighted>
0.1490

> <Gold.Chemscore.DEInternal.Weighted>
0.5672

> <Gold.Chemscore.Rot.Weighted>
10.3431

> <Gold.Chemscore.Internal.Correction.Weighted>
   9.000000E+99

> <Gold.Protein.RotatedTorsions>
[ 6907 6896 6895 6894 ] final   81.42 input  -60.11 | X-H torsion
[ 7974 7965 7964 7962 ] final   44.39 input  175.53 | X-H torsion
[ 8008 7997 7996 7995 ] final  -64.82 input   59.86 | X-H torsion
[ 10167 10162 10161 10158 ] final -101.09 input  -65.29 | X-H torsion
[ 10718 10713 10712 10709 ] final  148.89 input   66.30 | X-H torsion
[ 10763 10752 10751 10750 ] final    1.20 input  -60.55 | X-H torsion
[ 11005 11000 10999 10996 ] final -150.27 input  -57.11 | X-H torsion

> <Gold.Protein.ActiveResidues>
 VAL166  LYS551  ARG553  GLY616  TRP617  ASP618  TYR619  PRO620  LYS621  CYS622 
 ASP623  PHE694  ASN695  SER759  ASP760  ASP761  ALA762  ILE779  LEU786  VAL792 
 PHE793  MET794  SER795  GLU796  ALA797  LYS798  CYS799  TRP800  GLU811  SER814 

> <Gold.Protein.RotatedAtoms>
  152.5268  134.3206  159.9146 H   0  0  0  0  0  0  0  0  0  0  0  0  # atno 6907 bound_to 6896
  151.3155  133.4056  159.2658 H   0  0  0  0  0  0  0  0  0  0  0  0  # atno 6908 bound_to 6896
  151.0002  134.9333  159.8007 H   0  0  0  0  0  0  0  0  0  0  0  0  # atno 6909 bound_to 6896
  146.0573  139.5080  142.9681 H   0  0  0  0  0  0  0  0  0  0  0  0  # atno 7974 bound_to 7965
  154.4635  140.0946  156.6956 H   0  0  0  0  0  0  0  0  0  0  0  0  # atno 8008 bound_to 7997
  155.4926  140.3471  155.4339 H   0  0  0  0  0  0  0  0  0  0  0  0  # atno 8009 bound_to 7997
  156.0913  140.1398  156.9577 H   0  0  0  0  0  0  0  0  0  0  0  0  # atno 8010 bound_to 7997
  140.2450  143.3512  152.0767 H   0  0  0  0  0  0  0  0  0  0  0  0  # atno 10167 bound_to 10162
  157.3030  131.0874  151.1376 H   0  0  0  0  0  0  0  0  0  0  0  0  # atno 10718 bound_to 10713
  153.3110  135.6962  153.7116 H   0  0  0  0  0  0  0  0  0  0  0  0  # atno 10763 bound_to 10752
  153.5993  135.3465  155.2940 H   0  0  0  0  0  0  0  0  0  0  0  0  # atno 10764 bound_to 10752
  154.8575  135.4337  154.2248 H   0  0  0  0  0  0  0  0  0  0  0  0  # atno 10765 bound_to 10752
  140.7420  134.3504  157.5145 H   0  0  0  0  0  0  0  0  0  0  0  0  # atno 11005 bound_to 11000
  145.6622  141.0237  143.1703 LP  0  0  0  0  0  0  0  0  0  0  0  0  # atno 17320 bound_to 7965
  144.7155  139.8214  143.7400 LP  0  0  0  0  0  0  0  0  0  0  0  0  # atno 17321 bound_to 7965
  139.5065  144.6814  151.5999 LP  0  0  0  0  0  0  0  0  0  0  0  0  # atno 17342 bound_to 10162
  140.6084  143.9481  150.6435 LP  0  0  0  0  0  0  0  0  0  0  0  0  # atno 17343 bound_to 10162
  157.2727  130.6712  149.6027 LP  0  0  0  0  0  0  0  0  0  0  0  0  # atno 17370 bound_to 10713
  155.9672  130.4474  150.5578 LP  0  0  0  0  0  0  0  0  0  0  0  0  # atno 17371 bound_to 10713
  139.8804  134.9087  156.2973 LP  0  0  0  0  0  0  0  0  0  0  0  0  # atno 17394 bound_to 11000
  140.9828  133.7256  156.0698 LP  0  0  0  0  0  0  0  0  0  0  0  0  # atno 17395 bound_to 11000

$$$$
