AV-unprocessed.smi:279|AV-procd|sdf|2095|dock10
  -GOLD-   2262021373D 1   1.00000     0.00000
 Structure written by MMmdl.
 50 54  0  0  0  0  0  0  0  0  1 V2000
  150.3442  139.8185  157.5455 O   0  0  0  0  0  0  0  0  0  0  0  0
  149.6384  141.0666  157.2166 S   0  0  0  0  0  0  0  0  0  0  0  0
  149.6152  142.1908  158.1648 O   0  0  0  0  0  0  0  0  0  0  0  0
  150.2137  141.6709  155.5878 C   0  0  0  0  0  0  0  0  0  0  0  0
  149.2578  141.0460  154.5679 C   0  0  0  0  0  0  0  0  0  0  0  0
  147.8370  141.0301  155.1702 C   0  0  1  0  0  0  0  0  0  0  0  0
  146.9183  139.9574  154.5611 C   0  0  0  0  0  0  0  0  0  0  0  0
  146.6291  139.0060  155.6264 N   0  0  0  0  0  0  0  0  0  0  0  0
  146.1664  137.7625  155.3276 C   0  0  0  0  0  0  0  0  0  0  0  0
  146.0357  136.8563  156.3334 N   0  0  0  0  0  0  0  0  0  0  0  0
  145.5889  135.6224  156.0858 C   0  0  0  0  0  0  0  0  0  0  0  0
  145.2113  135.0912  154.9228 N   0  0  0  0  0  0  0  0  0  0  0  0
  145.3216  135.9951  153.9082 C   0  0  0  0  0  0  0  0  0  0  0  0
  145.7892  137.3372  154.0182 C   0  0  0  0  0  0  0  0  0  0  0  0
  145.7641  137.9406  152.7649 N   0  0  0  0  0  0  0  0  0  0  0  0
  145.3238  137.0095  151.9641 C   0  0  0  0  0  0  0  0  0  0  0  0
  145.0063  135.8174  152.5725 N   0  0  0  0  0  0  0  0  0  0  0  0
  144.5426  134.6221  151.9314 C   0  0  0  0  0  0  0  0  0  0  0  0
  145.3744  133.3373  151.9442 C   0  0  0  0  0  0  0  0  0  0  0  0
  144.8116  132.9702  150.5520 C   0  0  0  0  0  0  0  0  0  0  0  0
  145.8285  132.3803  149.5606 C   0  0  0  0  0  0  0  0  0  0  0  0
  147.1557  132.6016  149.9932 O   0  0  0  0  0  0  0  0  0  0  0  0
  143.5462  132.0886  150.5642 C   0  0  0  0  0  0  0  0  0  0  0  0
  142.8524  132.1646  149.3356 O   0  0  0  0  0  0  0  0  0  0  0  0
  144.5532  134.4861  150.4071 C   0  0  0  0  0  0  0  0  0  0  0  0
  147.5708  139.2003  156.7185 C   0  0  0  0  0  0  0  0  0  0  0  0
  147.9242  140.6869  156.6626 C   0  0  1  0  0  0  0  0  0  0  0  0
  147.3974  142.0217  155.0541 H   0  0  0  0  0  0  0  0  0  0  0  0
  147.2110  141.2767  157.2395 H   0  0  0  0  0  0  0  0  0  0  0  0
  150.1297  142.7579  155.5800 H   0  0  0  0  0  0  0  0  0  0  0  0
  151.2563  141.3963  155.4281 H   0  0  0  0  0  0  0  0  0  0  0  0
  149.2868  141.5704  153.6124 H   0  0  0  0  0  0  0  0  0  0  0  0
  149.5821  140.0216  154.3785 H   0  0  0  0  0  0  0  0  0  0  0  0
  145.9873  140.4110  154.2196 H   0  0  0  0  0  0  0  0  0  0  0  0
  147.3854  139.4633  153.7081 H   0  0  0  0  0  0  0  0  0  0  0  0
  145.5237  134.9678  156.9424 H   0  0  0  0  0  0  0  0  0  0  0  0
  145.2124  137.1722  150.9019 H   0  0  0  0  0  0  0  0  0  0  0  0
  143.5429  134.4380  152.3286 H   0  0  0  0  0  0  0  0  0  0  0  0
  146.4481  133.5349  151.9297 H   0  0  0  0  0  0  0  0  0  0  0  0
  145.1186  132.6439  152.7458 H   0  0  0  0  0  0  0  0  0  0  0  0
  145.6888  131.3039  149.4576 H   0  0  0  0  0  0  0  0  0  0  0  0
  145.7062  132.8003  148.5620 H   0  0  0  0  0  0  0  0  0  0  0  0
  147.6100  131.7728  150.0035 H   0  0  0  0  0  0  0  0  0  0  0  0
  143.7958  131.0422  150.7395 H   0  0  0  0  0  0  0  0  0  0  0  0
  142.8681  132.3741  151.3687 H   0  0  0  0  0  0  0  0  0  0  0  0
  142.3187  132.9445  149.3408 H   0  0  0  0  0  0  0  0  0  0  0  0
  143.6112  134.7470  149.9236 H   0  0  0  0  0  0  0  0  0  0  0  0
  145.3878  135.0195  149.9474 H   0  0  0  0  0  0  0  0  0  0  0  0
  147.1406  138.9278  157.6829 H   0  0  0  0  0  0  0  0  0  0  0  0
  148.4446  138.5734  156.5386 H   0  0  0  0  0  0  0  0  0  0  0  0
  1  2  2  0  0  0  0
  2 27  1  0  0  0  0
  2  3  2  0  0  0  0
  2  4  1  0  0  0  0
  4  5  1  0  0  0  0
  4 30  1  0  0  0  0
  4 31  1  0  0  0  0
  5  6  1  0  0  0  0
  5 32  1  0  0  0  0
  5 33  1  0  0  0  0
  6 28  1  0  0  0  0
  6 27  1  0  0  0  0
  6  7  1  0  0  0  0
  7  8  1  0  0  0  0
  7 34  1  0  0  0  0
  7 35  1  0  0  0  0
  8  9  1  0  0  0  0
  8 26  1  0  0  0  0
  9 14  1  0  0  0  0
  9 10  2  0  0  0  0
 10 11  1  0  0  0  0
 11 12  2  0  0  0  0
 11 36  1  0  0  0  0
 12 13  1  0  0  0  0
 13 17  1  0  0  0  0
 13 14  2  0  0  0  0
 14 15  1  0  0  0  0
 15 16  2  0  0  0  0
 16 17  1  0  0  0  0
 16 37  1  0  0  0  0
 17 18  1  0  0  0  0
 18 25  1  0  0  0  0
 18 19  1  0  0  0  0
 18 38  1  0  0  0  0
 19 20  1  0  0  0  0
 19 39  1  0  0  0  0
 19 40  1  0  0  0  0
 20 21  1  0  0  0  0
 20 23  1  0  0  0  0
 20 25  1  0  0  0  0
 21 22  1  0  0  0  0
 21 41  1  0  0  0  0
 21 42  1  0  0  0  0
 22 43  1  0  0  0  0
 23 24  1  0  0  0  0
 23 44  1  0  0  0  0
 23 45  1  0  0  0  0
 24 46  1  0  0  0  0
 25 47  1  0  0  0  0
 25 48  1  0  0  0  0
 26 27  1  0  0  0  0
 26 49  1  0  0  0  0
 26 50  1  0  0  0  0
 27 29  1  0  0  0  0
M  END
> <s_m_source_file>
AV-unprocessed.smi

> <i_m_source_file_index>
279

> <i_lp_mmshare_version>
43012

> <i_f3d_flags>
0

> <s_epik_input>
W0NIMl0xW0NIMl1TKD1PKSg9TylbQ0BASF0oW0NAQEhdMTIpW0NIMl1OKFtDSDJdMiljKG5bY0hdbjMpYyhjMzQpbltjSF1uNFtDSF0oW0NIMl01KVtDSDJdQzUoW0NIMl1bT0hdKVtDSDJdW09IXQ==

> <s_epik_cmdline>
J2VwaWtfcHl0aG9uJywgJy1waCcsICc3LjAnLCAnLXRuJywgJzgnLCAnLW1hJywgJzIwMCcsICctbWV0YWxfYmluZGluZycsICctaW1hZScsICc8aW5maWxlLm1hZT4nLCAnLW9tYWUnLCAnPG91dGZpbGUubWFlPic=

> <r_lp_tautomer_probability>
1

> <r_epik_Ionization_Penalty>
0.000990948

> <r_epik_Ionization_Penalty_Charging>
0

> <r_epik_Ionization_Penalty_Neutral>
0.000990948

> <r_epik_State_Penalty>
0.000515994

> <r_epik_Charging_Adjusted_Penalty>
0.000515994

> <i_epik_Tot_Q>
0

> <i_epik_Tot_abs_Q>
0

> <r_epik_Metal_State_Penalty>
-0

> <b_epik_Metal_Only>
0

> <s_lp_Force_Field>
OPLS_2005

> <r_lp_Energy>
54.435

> <b_lp_Chiralities_Consistent>
1

> <s_lp_Variant>
AV-unprocessed.smi:279-1

> <Gold.Version>
5.8.1

> <Gold.Id.Protein>
6NUR|6NUR_protein|mol2

> <Gold.PLP.Fitness>
42.6794

> <Gold.PLP.PLP>
-33.0771

> <Gold.PLP.part.hbond>
-4.0115

> <Gold.PLP.part.metal>
0.0000

> <Gold.PLP.part.buried>
-5.9175

> <Gold.PLP.part.nonpolar>
-24.0967

> <Gold.PLP.part.repulsive>
0.4182

> <Gold.PLP.ligand.clash>
0.2780

> <Gold.PLP.ligand.torsion>
1.1052

> <Gold.PLP.Chemscore.Hbond>
2.8200

> <Gold.PLP.Chemscore.CHOScore>
0.9426

> <Gold.PLP.Chemscore.Metal>
0.0000

> <Gold.Chemscore.Hbonds>
donor molecule, donor type, donor heavy atom, donor atom, acceptor molecule, acceptor atom, score
      L1  H    22    43       P1 10747  1.00
      L1  H    24    46       P1 10186  1.00
      P1  H 10785 10796       L1    24  0.62
      L1  C    16    37       P1 10171  1.00

> <Gold.PLP.Chemscore.Internal.Correction>
0.8027

> <Gold.Rescore>
     Score         DG    S(hbond)    S(metal)    S(lipo)     H(rot)  DE(clash)    DE(int)     intcor
     12.39     -14.68       2.41        0.00      73.93       2.94       0.18       2.11       ----

> <Gold.Chemscore.Fitness>
12.3891

> <Gold.Chemscore.DG>
-14.6760

> <Gold.Chemscore.ZeroCoef>
-5.4800

> <Gold.Chemscore.Hbond>
2.4137

> <Gold.Chemscore.Metal>
0.0000

> <Gold.Chemscore.Lipo>
73.9340

> <Gold.Chemscore.Internal_Hbond>
0.0000

> <Gold.Chemscore.DEClash>
0.1807

> <Gold.Chemscore.DEInternal>
2.1063

> <Gold.Chemscore.Rot>
2.9360

> <Gold.Chemscore.Internal.Correction>
   9.000000E+99

> <Gold.Chemscore.Hbonds>
donor molecule, donor type, donor heavy atom, donor atom, acceptor molecule, acceptor atom, score
      L1  H    22    43       P1 10747  0.95
      L1  H    24    46       P1 10186  0.98
      P1  H 10785 10796       L1    24  0.11

> <Gold.Chemscore.Hbond.Weighted>
-8.0618

> <Gold.Chemscore.Metal.Weighted>
-0.0000

> <Gold.Chemscore.Lipo.Weighted>
-8.6503

> <Gold.Chemscore.Internal_Hbond.Weighted>
0.0000

> <Gold.Chemscore.DEClash.Weighted>
0.1807

> <Gold.Chemscore.DEInternal.Weighted>
2.1063

> <Gold.Chemscore.Rot.Weighted>
7.5161

> <Gold.Chemscore.Internal.Correction.Weighted>
   9.000000E+99

> <Gold.Protein.RotatedTorsions>
[ 6907 6896 6895 6894 ] final   76.53 input  -60.11 | X-H torsion
[ 7974 7965 7964 7962 ] final   59.28 input  175.53 | X-H torsion
[ 8008 7997 7996 7995 ] final -177.39 input   59.86 | X-H torsion
[ 10167 10162 10161 10158 ] final  123.39 input  -65.29 | X-H torsion
[ 10718 10713 10712 10709 ] final   -6.46 input   66.30 | X-H torsion
[ 10763 10752 10751 10750 ] final   68.67 input  -60.55 | X-H torsion
[ 11005 11000 10999 10996 ] final  -70.14 input  -57.11 | X-H torsion

> <Gold.Protein.ActiveResidues>
 VAL166  LYS551  ARG553  GLY616  TRP617  ASP618  TYR619  PRO620  LYS621  CYS622 
 ASP623  PHE694  ASN695  SER759  ASP760  ASP761  ALA762  ILE779  LEU786  VAL792 
 PHE793  MET794  SER795  GLU796  ALA797  LYS798  CYS799  TRP800  GLU811  SER814 

> <Gold.Protein.RotatedAtoms>
  152.5077  134.3954  159.9398 H   0  0  0  0  0  0  0  0  0  0  0  0  # atno 6907 bound_to 6896
  151.3916  133.3781  159.2729 H   0  0  0  0  0  0  0  0  0  0  0  0  # atno 6908 bound_to 6896
  150.9428  134.8856  159.7682 H   0  0  0  0  0  0  0  0  0  0  0  0  # atno 6909 bound_to 6896
  145.9089  139.3639  143.0547 H   0  0  0  0  0  0  0  0  0  0  0  0  # atno 7974 bound_to 7965
  156.0064  140.1231  157.0497 H   0  0  0  0  0  0  0  0  0  0  0  0  # atno 8008 bound_to 7997
  154.4260  140.1096  156.5837 H   0  0  0  0  0  0  0  0  0  0  0  0  # atno 8009 bound_to 7997
  155.6141  140.3472  155.4634 H   0  0  0  0  0  0  0  0  0  0  0  0  # atno 8010 bound_to 7997
  139.5802  144.6983  151.3547 H   0  0  0  0  0  0  0  0  0  0  0  0  # atno 10167 bound_to 10162
  156.7315  130.5181  149.5844 H   0  0  0  0  0  0  0  0  0  0  0  0  # atno 10718 bound_to 10713
  153.0247  135.5239  154.7171 H   0  0  0  0  0  0  0  0  0  0  0  0  # atno 10763 bound_to 10752
  154.6237  135.2892  155.0299 H   0  0  0  0  0  0  0  0  0  0  0  0  # atno 10764 bound_to 10752
  154.1277  135.6598  153.4968 H   0  0  0  0  0  0  0  0  0  0  0  0  # atno 10765 bound_to 10752
  141.1568  133.6782  156.6707 H   0  0  0  0  0  0  0  0  0  0  0  0  # atno 11005 bound_to 11000
  145.8696  140.9427  143.0657 LP  0  0  0  0  0  0  0  0  0  0  0  0  # atno 17320 bound_to 7965
  144.6741  140.0637  143.7475 LP  0  0  0  0  0  0  0  0  0  0  0  0  # atno 17321 bound_to 7965
  140.7081  143.7461  150.7518 LP  0  0  0  0  0  0  0  0  0  0  0  0  # atno 17342 bound_to 10162
  140.0991  143.4804  152.2435 LP  0  0  0  0  0  0  0  0  0  0  0  0  # atno 17343 bound_to 10162
  156.1526  130.6320  151.0615 LP  0  0  0  0  0  0  0  0  0  0  0  0  # atno 17370 bound_to 10713
  157.6857  131.0825  150.7250 LP  0  0  0  0  0  0  0  0  0  0  0  0  # atno 17371 bound_to 10713
  140.3177  134.8033  157.4227 LP  0  0  0  0  0  0  0  0  0  0  0  0  # atno 17394 bound_to 11000
  140.1123  134.5328  155.8255 LP  0  0  0  0  0  0  0  0  0  0  0  0  # atno 17395 bound_to 11000

$$$$
