AV-unprocessed.smi:1428|AV-procd|sdf|5815|dock5
  -GOLD-   22720 5473D 1   1.00000     0.00000
 Structure written by MMmdl.
 44 45  0  0  0  0  0  0  0  0  2 V2000
  154.3130  140.9068  160.9171 C   0  0  0  0  0  0  0  0  0  0  0  0
  153.3817  140.9271  159.8408 O   0  0  0  0  0  0  0  0  0  0  0  0
  152.5013  141.9886  159.7502 C   0  0  0  0  0  0  0  0  0  0  0  0
  152.5249  142.9322  160.7248 N   0  0  0  0  0  0  0  0  0  0  0  0
  151.6687  143.9705  160.6347 C   0  0  0  0  0  0  0  0  0  0  0  0
  150.7571  144.1275  159.5749 C   0  0  0  0  0  0  0  0  0  0  0  0
  150.7302  143.1501  158.5630 C   0  0  0  0  0  0  0  0  0  0  0  0
  151.6113  142.0451  158.6524 C   0  0  0  0  0  0  0  0  0  0  0  0
  151.6786  141.0092  157.6809 N   0  0  0  0  0  0  0  0  0  0  0  0
  151.1371  140.9782  156.4519 C   0  0  0  0  0  0  0  0  0  0  0  0
  150.4947  141.8894  155.9311 O   0  0  0  0  0  0  0  0  0  0  0  0
  151.3647  139.7996  155.8545 N   0  0  0  0  0  0  0  0  0  0  0  0
  150.8937  139.4208  154.5228 C   0  0  2  0  0  0  0  0  0  0  0  0
  149.3605  139.2622  154.4803 C   0  0  0  0  0  0  0  0  0  0  0  0
  148.8899  138.0214  155.2586 C   0  0  0  0  0  0  0  0  0  0  0  0
  149.5547  136.7900  154.7545 N   0  3  2  0  0  0  0  0  0  0  0  0
  149.0313  135.5480  155.3796 C   0  0  0  0  0  0  0  0  0  0  0  0
  147.5756  135.2554  155.0018 C   0  0  0  0  0  0  0  0  0  0  0  0
  147.2975  135.1649  153.6993 N   0  0  0  0  0  0  0  0  0  0  0  0
  146.7113  135.1287  155.8674 O   0  0  0  0  0  0  0  0  0  0  0  0
  151.0338  136.8910  154.8468 C   0  0  0  0  0  0  0  0  0  0  0  0
  151.5612  138.1109  154.0686 C   0  0  0  0  0  0  0  0  0  0  0  0
  154.9356  140.0157  160.8379 H   0  0  0  0  0  0  0  0  0  0  0  0
  153.8060  140.8710  161.8823 H   0  0  0  0  0  0  0  0  0  0  0  0
  154.9735  141.7746  160.8905 H   0  0  0  0  0  0  0  0  0  0  0  0
  151.7168  144.7018  161.4280 H   0  0  0  0  0  0  0  0  0  0  0  0
  150.0964  144.9808  159.5365 H   0  0  0  0  0  0  0  0  0  0  0  0
  150.0478  143.2749  157.7367 H   0  0  0  0  0  0  0  0  0  0  0  0
  152.1142  140.1547  157.9963 H   0  0  0  0  0  0  0  0  0  0  0  0
  151.9071  139.1138  156.3592 H   0  0  0  0  0  0  0  0  0  0  0  0
  151.1865  140.2096  153.8272 H   0  0  0  0  0  0  0  0  0  0  0  0
  148.8686  140.1550  154.8677 H   0  0  0  0  0  0  0  0  0  0  0  0
  149.0401  139.1721  153.4414 H   0  0  0  0  0  0  0  0  0  0  0  0
  149.0978  138.1410  156.3229 H   0  0  0  0  0  0  0  0  0  0  0  0
  147.8078  137.9314  155.1605 H   0  0  0  0  0  0  0  0  0  0  0  0
  149.6173  134.6921  155.0414 H   0  0  0  0  0  0  0  0  0  0  0  0
  149.1454  135.5973  156.4640 H   0  0  0  0  0  0  0  0  0  0  0  0
  146.3549  134.9702  153.3928 H   0  0  0  0  0  0  0  0  0  0  0  0
  148.0348  135.2886  153.0198 H   0  0  0  0  0  0  0  0  0  0  0  0
  151.3310  136.9495  155.8951 H   0  0  0  0  0  0  0  0  0  0  0  0
  151.4897  135.9876  154.4402 H   0  0  0  0  0  0  0  0  0  0  0  0
  151.3684  137.9631  153.0050 H   0  0  0  0  0  0  0  0  0  0  0  0
  152.6447  138.1823  154.1717 H   0  0  0  0  0  0  0  0  0  0  0  0
  149.3358  136.7199  153.7706 H   0  0  0  0  0  0  0  0  0  0  0  0
  1  2  1  0  0  0  0
  1 23  1  0  0  0  0
  1 24  1  0  0  0  0
  1 25  1  0  0  0  0
  2  3  1  0  0  0  0
  3  8  1  0  0  0  0
  3  4  2  0  0  0  0
  4  5  1  0  0  0  0
  5  6  2  0  0  0  0
  5 26  1  0  0  0  0
  6  7  1  0  0  0  0
  6 27  1  0  0  0  0
  7  8  2  0  0  0  0
  7 28  1  0  0  0  0
  8  9  1  0  0  0  0
  9 10  1  0  0  0  0
  9 29  1  0  0  0  0
 10 11  2  0  0  0  0
 10 12  1  0  0  0  0
 12 13  1  0  0  0  0
 12 30  1  0  0  0  0
 13 22  1  0  0  0  0
 13 14  1  0  0  0  0
 13 31  1  0  0  0  0
 14 15  1  0  0  0  0
 14 32  1  0  0  0  0
 14 33  1  0  0  0  0
 15 16  1  0  0  0  0
 15 34  1  0  0  0  0
 15 35  1  0  0  0  0
 16 17  1  0  0  0  0
 16 21  1  0  0  0  0
 16 44  1  0  0  0  0
 17 18  1  0  0  0  0
 17 36  1  0  0  0  0
 17 37  1  0  0  0  0
 18 19  1  0  0  0  0
 18 20  2  0  0  0  0
 19 38  1  0  0  0  0
 19 39  1  0  0  0  0
 21 22  1  0  0  0  0
 21 40  1  0  0  0  0
 21 41  1  0  0  0  0
 22 42  1  0  0  0  0
 22 43  1  0  0  0  0
M  CHG  1  16   1
M  END
> <s_m_source_file>
AV-unprocessed.smi

> <i_m_source_file_index>
1428

> <i_lp_mmshare_version>
43012

> <i_f3d_flags>
0

> <s_epik_input>
W0NIM11PYzFuW2NIXVtjSF1bY0hdYzFbTkhdQyg9TylbTkhdW0NIXTJbQ0gyXVtDSDJdTihbQ0gyXVtDSDJdMilbQ0gyXUMoPU8pW05IMl0=

> <s_epik_cmdline>
J2VwaWtfcHl0aG9uJywgJy1waCcsICc3LjAnLCAnLXRuJywgJzgnLCAnLW1hJywgJzIwMCcsICctbWV0YWxfYmluZGluZycsICctaW1hZScsICc8aW5maWxlLm1hZT4nLCAnLW9tYWUnLCAnPG91dGZpbGUubWFlPic=

> <r_lp_tautomer_probability>
1

> <r_epik_Ionization_Penalty>
0.838963

> <r_epik_Ionization_Penalty_Charging>
0.838844

> <r_epik_Ionization_Penalty_Neutral>
0.000119189

> <r_epik_State_Penalty>
0.8734

> <r_epik_Charging_Adjusted_Penalty>
1.71224

> <i_epik_Tot_Q>
1

> <i_epik_Tot_abs_Q>
1

> <r_epik_Metal_State_Penalty>
0.890706

> <b_epik_Metal_Only>
0

> <s_lp_Force_Field>
OPLS_2005

> <r_lp_Energy>
14.3057

> <b_lp_Chiralities_Consistent>
1

> <s_lp_Variant>
AV-unprocessed.smi:1428-3

> <Gold.Version>
5.8.1

> <Gold.Id.Protein>
6NUR|6NUR_protein|mol2

> <Gold.PLP.Fitness>
42.5766

> <Gold.PLP.PLP>
-33.9436

> <Gold.PLP.part.hbond>
-2.2145

> <Gold.PLP.part.metal>
0.0000

> <Gold.PLP.part.buried>
-4.1590

> <Gold.PLP.part.nonpolar>
-27.5705

> <Gold.PLP.part.repulsive>
0.3614

> <Gold.PLP.ligand.clash>
0.0000

> <Gold.PLP.ligand.torsion>
0.2015

> <Gold.PLP.Chemscore.Hbond>
3.0000

> <Gold.PLP.Chemscore.CHOScore>
0.0000

> <Gold.PLP.Chemscore.Metal>
0.0000

> <Gold.Chemscore.Hbonds>
donor molecule, donor type, donor heavy atom, donor atom, acceptor molecule, acceptor atom, score
      L1  H    16    44       P1  7948  2.00
      L1  H    19    39       P1  7948  1.00

> <Gold.PLP.Chemscore.Internal.Correction>
0.0361

> <Gold.Rescore>
     Score         DG    S(hbond)    S(metal)    S(lipo)     H(rot)  DE(clash)    DE(int)     intcor
     14.15     -15.99       1.96        0.00      84.74       2.33       0.32       1.51       ----

> <Gold.Chemscore.Fitness>
14.1510

> <Gold.Chemscore.DG>
-15.9854

> <Gold.Chemscore.ZeroCoef>
-5.4800

> <Gold.Chemscore.Hbond>
1.9606

> <Gold.Chemscore.Metal>
0.0000

> <Gold.Chemscore.Lipo>
84.7384

> <Gold.Chemscore.Internal_Hbond>
0.0000

> <Gold.Chemscore.DEClash>
0.3248

> <Gold.Chemscore.DEInternal>
1.5096

> <Gold.Chemscore.Rot>
2.3271

> <Gold.Chemscore.Internal.Correction>
   9.000000E+99

> <Gold.Chemscore.Hbonds>
donor molecule, donor type, donor heavy atom, donor atom, acceptor molecule, acceptor atom, score
      L1  H    16    44       P1  7948  0.92
      L1  H    19    39       P1  7948  0.98

> <Gold.Chemscore.Hbond.Weighted>
-6.5484

> <Gold.Chemscore.Metal.Weighted>
-0.0000

> <Gold.Chemscore.Lipo.Weighted>
-9.9144

> <Gold.Chemscore.Internal_Hbond.Weighted>
0.0000

> <Gold.Chemscore.DEClash.Weighted>
0.3248

> <Gold.Chemscore.DEInternal.Weighted>
1.5096

> <Gold.Chemscore.Rot.Weighted>
5.9573

> <Gold.Chemscore.Internal.Correction.Weighted>
   9.000000E+99

> <Gold.Protein.RotatedTorsions>
[ 6907 6896 6895 6894 ] final   35.31 input  -60.11 | X-H torsion
[ 7974 7965 7964 7962 ] final  150.48 input  175.53 | X-H torsion
[ 8008 7997 7996 7995 ] final  101.57 input   59.86 | X-H torsion
[ 10167 10162 10161 10158 ] final  -37.63 input  -65.29 | X-H torsion
[ 10718 10713 10712 10709 ] final  -96.26 input   66.30 | X-H torsion
[ 10763 10752 10751 10750 ] final -166.36 input  -60.55 | X-H torsion
[ 11005 11000 10999 10996 ] final  158.51 input  -57.11 | X-H torsion

> <Gold.Protein.ActiveResidues>
 VAL166  LYS551  ARG553  GLY616  TRP617  ASP618  TYR619  PRO620  LYS621  CYS622 
 ASP623  PHE694  ASN695  SER759  ASP760  ASP761  ALA762  ILE779  LEU786  VAL792 
 PHE793  MET794  SER795  GLU796  ALA797  LYS798  CYS799  TRP800  GLU811  SER814 

> <Gold.Protein.RotatedAtoms>
  152.1144  134.9251  160.0565 H   0  0  0  0  0  0  0  0  0  0  0  0  # atno 6907 bound_to 6896
  152.0416  133.3975  159.4347 H   0  0  0  0  0  0  0  0  0  0  0  0  # atno 6908 bound_to 6896
  150.6845  134.3329  159.4878 H   0  0  0  0  0  0  0  0  0  0  0  0  # atno 6909 bound_to 6896
  144.8361  139.6413  143.6037 H   0  0  0  0  0  0  0  0  0  0  0  0  # atno 7974 bound_to 7965
  156.1311  140.3195  155.8351 H   0  0  0  0  0  0  0  0  0  0  0  0  # atno 8008 bound_to 7997
  155.4329  140.0520  157.3034 H   0  0  0  0  0  0  0  0  0  0  0  0  # atno 8009 bound_to 7997
  154.4900  140.2088  155.9582 H   0  0  0  0  0  0  0  0  0  0  0  0  # atno 8010 bound_to 7997
  140.7113  143.3330  151.2527 H   0  0  0  0  0  0  0  0  0  0  0  0  # atno 10167 bound_to 10162
  156.0059  130.5144  150.6200 H   0  0  0  0  0  0  0  0  0  0  0  0  # atno 10718 bound_to 10713
  154.6841  135.2959  154.9572 H   0  0  0  0  0  0  0  0  0  0  0  0  # atno 10763 bound_to 10752
  154.0557  135.6638  153.4809 H   0  0  0  0  0  0  0  0  0  0  0  0  # atno 10764 bound_to 10752
  153.0567  135.5140  154.7899 H   0  0  0  0  0  0  0  0  0  0  0  0  # atno 10765 bound_to 10752
  140.1872  134.8433  157.2871 H   0  0  0  0  0  0  0  0  0  0  0  0  # atno 11005 bound_to 11000
  146.2660  139.6520  142.9329 LP  0  0  0  0  0  0  0  0  0  0  0  0  # atno 17320 bound_to 7965
  145.4791  141.0437  143.2656 LP  0  0  0  0  0  0  0  0  0  0  0  0  # atno 17321 bound_to 7965
  139.6817  143.9843  152.2812 LP  0  0  0  0  0  0  0  0  0  0  0  0  # atno 17342 bound_to 10162
  139.9476  144.6641  150.8204 LP  0  0  0  0  0  0  0  0  0  0  0  0  # atno 17343 bound_to 10162
  157.4017  131.0811  151.1302 LP  0  0  0  0  0  0  0  0  0  0  0  0  # atno 17370 bound_to 10713
  157.1962  130.6374  149.5722 LP  0  0  0  0  0  0  0  0  0  0  0  0  # atno 17371 bound_to 10713
  140.2200  134.4035  155.7570 LP  0  0  0  0  0  0  0  0  0  0  0  0  # atno 17394 bound_to 11000
  141.2225  133.7161  156.8475 LP  0  0  0  0  0  0  0  0  0  0  0  0  # atno 17395 bound_to 11000

$$$$
