AV-unprocessed.smi:1047|AV-procd|sdf|4564|dock1
  -GOLD-   22720 3 13D 1   1.00000     0.00000
 Structure written by MMmdl.
 57 59  0  0  0  0  0  0  0  0  3 V2000
  146.1544  135.2188  153.0659 C   0  0  0  0  0  0  0  0  0  0  0  0
  146.2900  136.4191  154.0139 C   0  0  0  0  0  0  0  0  0  0  0  0
  146.8183  137.6300  153.3364 N   0  3  1  0  0  0  0  0  0  0  0  0
  146.0649  137.9540  152.1014 C   0  0  0  0  0  0  0  0  0  0  0  0
  146.6767  139.1770  151.3979 C   0  0  0  0  0  0  0  0  0  0  0  0
  146.6979  140.2844  152.2910 O   0  0  0  0  0  0  0  0  0  0  0  0
  147.4821  140.0256  153.4506 C   0  0  1  0  0  0  0  0  0  0  0  0
  147.5666  141.3093  154.2941 C   0  0  0  0  0  0  0  0  0  0  0  0
  148.2511  141.0854  155.5846 N   0  3  0  0  0  0  0  0  0  0  0  0
  149.6185  141.6381  155.6422 C   0  0  0  0  0  0  0  0  0  0  0  0
  150.0670  141.8801  157.0962 C   0  0  1  0  0  0  0  0  0  0  0  0
  150.3231  140.6280  157.7028 O   0  0  0  0  0  0  0  0  0  0  0  0
  151.3264  142.7670  157.2121 C   0  0  0  0  0  0  0  0  0  0  0  0
  151.4604  143.4190  158.5051 N   0  0  0  0  0  0  0  0  0  0  0  0
  150.8846  144.5723  158.8973 C   0  0  0  0  0  0  0  0  0  0  0  0
  151.1338  144.9877  160.1353 N   0  0  0  0  0  0  0  0  0  0  0  0
  151.9770  143.9932  160.5990 C   0  0  0  0  0  0  0  0  0  0  0  0
  152.6052  143.8356  161.8535 C   0  0  0  0  0  0  0  0  0  0  0  0
  153.4390  142.7246  162.1122 C   0  0  0  0  0  0  0  0  0  0  0  0
  154.0975  142.5977  163.4746 C   0  0  0  0  0  0  0  0  0  0  0  0
  153.6559  141.7493  161.1061 C   0  0  0  0  0  0  0  0  0  0  0  0
  154.5518  140.5500  161.3601 C   0  0  0  0  0  0  0  0  0  0  0  0
  153.0345  141.8903  159.8477 C   0  0  0  0  0  0  0  0  0  0  0  0
  152.2057  142.9997  159.6026 C   0  0  0  0  0  0  0  0  0  0  0  0
  146.8986  138.8209  154.2190 C   0  0  0  0  0  0  0  0  0  0  0  0
  145.6651  134.3867  153.5727 H   0  0  0  0  0  0  0  0  0  0  0  0
  147.1229  134.8578  152.7203 H   0  0  0  0  0  0  0  0  0  0  0  0
  145.5543  135.4700  152.1910 H   0  0  0  0  0  0  0  0  0  0  0  0
  145.2997  136.6425  154.4130 H   0  0  0  0  0  0  0  0  0  0  0  0
  146.9176  136.1634  154.8689 H   0  0  0  0  0  0  0  0  0  0  0  0
  146.0781  137.0993  151.4237 H   0  0  0  0  0  0  0  0  0  0  0  0
  145.0204  138.1493  152.3496 H   0  0  0  0  0  0  0  0  0  0  0  0
  147.6857  138.9592  151.0437 H   0  0  0  0  0  0  0  0  0  0  0  0
  146.0831  139.4413  150.5226 H   0  0  0  0  0  0  0  0  0  0  0  0
  148.4963  139.7776  153.1314 H   0  0  0  0  0  0  0  0  0  0  0  0
  148.0961  142.0816  153.7344 H   0  0  0  0  0  0  0  0  0  0  0  0
  146.5630  141.6896  154.4879 H   0  0  0  0  0  0  0  0  0  0  0  0
  147.7017  141.5042  156.3216 H   0  0  0  0  0  0  0  0  0  0  0  0
  150.3028  140.9563  155.1351 H   0  0  0  0  0  0  0  0  0  0  0  0
  149.6354  142.5793  155.0910 H   0  0  0  0  0  0  0  0  0  0  0  0
  149.2587  142.3597  157.6498 H   0  0  0  0  0  0  0  0  0  0  0  0
  150.2829  139.9570  157.0374 H   0  0  0  0  0  0  0  0  0  0  0  0
  152.2189  142.1645  157.0399 H   0  0  0  0  0  0  0  0  0  0  0  0
  151.3243  143.5340  156.4363 H   0  0  0  0  0  0  0  0  0  0  0  0
  150.2395  145.1352  158.2385 H   0  0  0  0  0  0  0  0  0  0  0  0
  152.4422  144.5801  162.6191 H   0  0  0  0  0  0  0  0  0  0  0  0
  155.1821  142.6499  163.3783 H   0  0  0  0  0  0  0  0  0  0  0  0
  153.8357  141.6482  163.9420 H   0  0  0  0  0  0  0  0  0  0  0  0
  153.7817  143.3974  164.1451 H   0  0  0  0  0  0  0  0  0  0  0  0
  154.6433  139.9256  160.4709 H   0  0  0  0  0  0  0  0  0  0  0  0
  154.1455  139.9340  162.1625 H   0  0  0  0  0  0  0  0  0  0  0  0
  155.5530  140.8734  161.6448 H   0  0  0  0  0  0  0  0  0  0  0  0
  153.1935  141.1546  159.0735 H   0  0  0  0  0  0  0  0  0  0  0  0
  145.9021  139.0529  154.5981 H   0  0  0  0  0  0  0  0  0  0  0  0
  147.5284  138.6097  155.0828 H   0  0  0  0  0  0  0  0  0  0  0  0
  148.3131  140.0911  155.7524 H   0  0  0  0  0  0  0  0  0  0  0  0
  147.7605  137.4096  153.0454 H   0  0  0  0  0  0  0  0  0  0  0  0
  1  2  1  0  0  0  0
  1 26  1  0  0  0  0
  1 27  1  0  0  0  0
  1 28  1  0  0  0  0
  2  3  1  0  0  0  0
  2 29  1  0  0  0  0
  2 30  1  0  0  0  0
  3 25  1  0  0  0  0
  3  4  1  0  0  0  0
  3 57  1  0  0  0  0
  4  5  1  0  0  0  0
  4 31  1  0  0  0  0
  4 32  1  0  0  0  0
  5  6  1  0  0  0  0
  5 33  1  0  0  0  0
  5 34  1  0  0  0  0
  6  7  1  0  0  0  0
  7  8  1  0  0  0  0
  7 25  1  0  0  0  0
  7 35  1  0  0  0  0
  8  9  1  0  0  0  0
  8 36  1  0  0  0  0
  8 37  1  0  0  0  0
  9 10  1  0  0  0  0
  9 38  1  0  0  0  0
  9 56  1  0  0  0  0
 10 11  1  0  0  0  0
 10 39  1  0  0  0  0
 10 40  1  0  0  0  0
 11 12  1  0  0  0  0
 11 13  1  0  0  0  0
 11 41  1  0  0  0  0
 12 42  1  0  0  0  0
 13 14  1  0  0  0  0
 13 43  1  0  0  0  0
 13 44  1  0  0  0  0
 14 24  1  0  0  0  0
 14 15  1  0  0  0  0
 15 16  2  0  0  0  0
 15 45  1  0  0  0  0
 16 17  1  0  0  0  0
 17 24  2  0  0  0  0
 17 18  1  0  0  0  0
 18 19  2  0  0  0  0
 18 46  1  0  0  0  0
 19 20  1  0  0  0  0
 19 21  1  0  0  0  0
 20 47  1  0  0  0  0
 20 48  1  0  0  0  0
 20 49  1  0  0  0  0
 21 22  1  0  0  0  0
 21 23  2  0  0  0  0
 22 50  1  0  0  0  0
 22 51  1  0  0  0  0
 22 52  1  0  0  0  0
 23 24  1  0  0  0  0
 23 53  1  0  0  0  0
 25 54  1  0  0  0  0
 25 55  1  0  0  0  0
M  CHG  1   3   1
M  CHG  1   9   1
M  END
> <s_m_source_file>
AV-unprocessed.smi

> <i_m_source_file_index>
1047

> <i_lp_mmshare_version>
43012

> <i_f3d_flags>
0

> <s_epik_input>
W0NIM11bQ0gyXU4xW0NIMl1bQ0gyXU9bQ0BIXShbQ0gyXTEpW0NIMl1bTkhdW0NIMl1bQ0BIXShbT0hdKVtDSDJdbihbY0hdbjIpYyhjMjMpW2NIXWMoW0NIM10pYyhbY0hdMylbQ0gzXQ==

> <s_epik_cmdline>
J2VwaWtfcHl0aG9uJywgJy1waCcsICc3LjAnLCAnLXRuJywgJzgnLCAnLW1hJywgJzIwMCcsICctbWV0YWxfYmluZGluZycsICctaW1hZScsICc8aW5maWxlLm1hZT4nLCAnLW9tYWUnLCAnPG91dGZpbGUubWFlPic=

> <r_epik_Ionization_Penalty>
0.528991

> <r_epik_Ionization_Penalty_Charging>
0.438567

> <r_epik_Ionization_Penalty_Neutral>
0.0904237

> <r_epik_State_Penalty>
0.533036

> <r_epik_Charging_Adjusted_Penalty>
0.971603

> <i_epik_Tot_Q>
2

> <i_epik_Tot_abs_Q>
2

> <r_epik_Metal_State_Penalty>
0.448985

> <b_epik_Metal_Only>
0

> <s_lp_Force_Field>
OPLS_2005

> <r_lp_Energy>
29.0334

> <b_lp_Chiralities_Consistent>
1

> <s_lp_Variant>
AV-unprocessed.smi:1047-5

> <Gold.Version>
5.8.1

> <Gold.Id.Protein>
6NUR|6NUR_protein|mol2

> <Gold.PLP.Fitness>
60.1591

> <Gold.PLP.PLP>
-53.6117

> <Gold.PLP.part.hbond>
-1.0000

> <Gold.PLP.part.metal>
0.0000

> <Gold.PLP.part.buried>
-2.7669

> <Gold.PLP.part.nonpolar>
-49.4816

> <Gold.PLP.part.repulsive>
1.3669

> <Gold.PLP.ligand.clash>
0.0000

> <Gold.PLP.ligand.torsion>
1.1355

> <Gold.PLP.Chemscore.Hbond>
1.7920

> <Gold.PLP.Chemscore.CHOScore>
0.9602

> <Gold.PLP.Chemscore.Metal>
0.0000

> <Gold.Chemscore.Hbonds>
donor molecule, donor type, donor heavy atom, donor atom, acceptor molecule, acceptor atom, score
      L1  H     3    57       P1  7948  1.78
      L1  C    15    45       P1  8028  0.03
      L1  C    15    45       P1  8029  0.66

> <Gold.PLP.Chemscore.Internal.Correction>
0.5618

> <Gold.Rescore>
     Score         DG    S(hbond)    S(metal)    S(lipo)     H(rot)  DE(clash)    DE(int)     intcor
     16.76     -19.11       0.96        0.00     148.09       2.70       1.25       1.10       ----

> <Gold.Chemscore.Fitness>
16.7565

> <Gold.Chemscore.DG>
-19.1088

> <Gold.Chemscore.ZeroCoef>
-5.4800

> <Gold.Chemscore.Hbond>
0.9613

> <Gold.Chemscore.Metal>
0.0000

> <Gold.Chemscore.Lipo>
148.0868

> <Gold.Chemscore.Internal_Hbond>
0.0000

> <Gold.Chemscore.DEClash>
1.2528

> <Gold.Chemscore.DEInternal>
1.0994

> <Gold.Chemscore.Rot>
2.6985

> <Gold.Chemscore.Internal.Correction>
   9.000000E+99

> <Gold.Chemscore.Hbonds>
donor molecule, donor type, donor heavy atom, donor atom, acceptor molecule, acceptor atom, score
      L1  H     3    57       P1  7948  0.83

> <Gold.Chemscore.Hbond.Weighted>
-3.2108

> <Gold.Chemscore.Metal.Weighted>
-0.0000

> <Gold.Chemscore.Lipo.Weighted>
-17.3262

> <Gold.Chemscore.Internal_Hbond.Weighted>
0.0000

> <Gold.Chemscore.DEClash.Weighted>
1.2528

> <Gold.Chemscore.DEInternal.Weighted>
1.0994

> <Gold.Chemscore.Rot.Weighted>
6.9081

> <Gold.Chemscore.Internal.Correction.Weighted>
   9.000000E+99

> <Gold.Protein.RotatedTorsions>
[ 6907 6896 6895 6894 ] final  161.34 input  -60.11 | X-H torsion
[ 7974 7965 7964 7962 ] final   -5.68 input  175.53 | X-H torsion
[ 8008 7997 7996 7995 ] final -162.76 input   59.86 | X-H torsion
[ 10167 10162 10161 10158 ] final -164.25 input  -65.29 | X-H torsion
[ 10718 10713 10712 10709 ] final  113.26 input   66.30 | X-H torsion
[ 10763 10752 10751 10750 ] final   69.16 input  -60.55 | X-H torsion
[ 11005 11000 10999 10996 ] final -138.74 input  -57.11 | X-H torsion

> <Gold.Protein.ActiveResidues>
 VAL166  LYS551  ARG553  GLY616  TRP617  ASP618  TYR619  PRO620  LYS621  CYS622 
 ASP623  PHE694  ASN695  SER759  ASP760  ASP761  ALA762  ILE779  LEU786  VAL792 
 PHE793  MET794  SER795  GLU796  ALA797  LYS798  CYS799  TRP800  GLU811  SER814 

> <Gold.Protein.RotatedAtoms>
  151.9571  133.3683  159.4021 H   0  0  0  0  0  0  0  0  0  0  0  0  # atno 6907 bound_to 6896
  150.6970  134.4279  159.5244 H   0  0  0  0  0  0  0  0  0  0  0  0  # atno 6908 bound_to 6896
  152.1962  134.8628  160.0563 H   0  0  0  0  0  0  0  0  0  0  0  0  # atno 6909 bound_to 6896
  146.2347  140.2058  142.8334 H   0  0  0  0  0  0  0  0  0  0  0  0  # atno 7974 bound_to 7965
  155.8114  140.0906  157.1901 H   0  0  0  0  0  0  0  0  0  0  0  0  # atno 8008 bound_to 7997
  154.3980  140.1454  156.3451 H   0  0  0  0  0  0  0  0  0  0  0  0  # atno 8009 bound_to 7997
  155.8361  140.3440  155.5605 H   0  0  0  0  0  0  0  0  0  0  0  0  # atno 8010 bound_to 7997
  139.6264  144.0524  152.1978 H   0  0  0  0  0  0  0  0  0  0  0  0  # atno 10167 bound_to 10162
  157.6348  131.0981  150.7015 H   0  0  0  0  0  0  0  0  0  0  0  0  # atno 10718 bound_to 10713
  153.0272  135.5221  154.7245 H   0  0  0  0  0  0  0  0  0  0  0  0  # atno 10763 bound_to 10752
  154.6291  135.2898  155.0240 H   0  0  0  0  0  0  0  0  0  0  0  0  # atno 10764 bound_to 10752
  154.1198  135.6609  153.4953 H   0  0  0  0  0  0  0  0  0  0  0  0  # atno 10765 bound_to 10752
  140.8586  134.2196  157.4720 H   0  0  0  0  0  0  0  0  0  0  0  0  # atno 11005 bound_to 11000
  144.9746  140.8401  143.5434 LP  0  0  0  0  0  0  0  0  0  0  0  0  # atno 17320 bound_to 7965
  145.2043  139.2236  143.5176 LP  0  0  0  0  0  0  0  0  0  0  0  0  # atno 17321 bound_to 7965
  140.0179  144.6175  150.7592 LP  0  0  0  0  0  0  0  0  0  0  0  0  # atno 17342 bound_to 10162
  140.7413  143.2816  151.3581 LP  0  0  0  0  0  0  0  0  0  0  0  0  # atno 17343 bound_to 10162
  156.7348  130.4721  149.5491 LP  0  0  0  0  0  0  0  0  0  0  0  0  # atno 17370 bound_to 10713
  156.1578  130.6354  151.0680 LP  0  0  0  0  0  0  0  0  0  0  0  0  # atno 17371 bound_to 10713
  139.8706  134.9719  156.4752 LP  0  0  0  0  0  0  0  0  0  0  0  0  # atno 17394 bound_to 11000
  140.8708  133.7990  155.9362 LP  0  0  0  0  0  0  0  0  0  0  0  0  # atno 17395 bound_to 11000

$$$$
