AV-unprocessed.smi:1840|AV-procd|sdf|7495|dock10
  -GOLD-   22720 9193D 1   1.00000     0.00000
 Structure written by MMmdl.
 43 44  0  0  0  0  0  0  0  0  1 V2000
  146.5291  141.3369  154.8723 C   0  0  0  0  0  0  0  0  0  0  0  0
  147.9485  140.8660  155.2168 C   0  0  1  0  0  0  0  0  0  0  0  0
  148.7233  140.4395  153.9512 C   0  0  0  0  0  0  0  0  0  0  0  0
  149.9368  139.7019  154.2592 N   0  0  0  0  0  0  0  0  0  0  0  0
  150.1741  138.3500  154.1264 C   0  0  0  0  0  0  0  0  0  0  0  0
  151.4464  138.1161  154.5631 C   0  0  0  0  0  0  0  0  0  0  0  0
  151.9148  139.4041  154.9459 C   0  0  0  0  0  0  0  0  0  0  0  0
  151.0113  140.3522  154.7579 N   0  0  0  0  0  0  0  0  0  0  0  0
  148.6509  141.9395  155.9196 N   0  0  0  0  0  0  0  0  0  0  0  0
  149.1669  141.8516  157.1546 C   0  0  0  0  0  0  0  0  0  0  0  0
  149.0591  140.8628  157.8806 O   0  0  0  0  0  0  0  0  0  0  0  0
  149.8420  142.9591  157.4911 N   0  0  0  0  0  0  0  0  0  0  0  0
  150.5768  143.1472  158.7402 C   0  0  1  0  0  0  0  0  0  0  0  0
  152.0765  143.3539  158.4353 C   0  0  0  0  0  0  0  0  0  0  0  0
  152.8841  143.6132  159.7148 C   0  0  0  0  0  0  0  0  0  0  0  0
  152.3153  144.8087  160.4906 C   0  0  0  0  0  0  0  0  0  0  0  0
  150.8273  144.6005  160.8103 C   0  0  0  0  0  0  0  0  0  0  0  0
  149.9955  144.3416  159.5373 C   0  0  2  0  0  0  0  0  0  0  0  0
  148.5107  144.1452  159.8932 C   0  0  0  0  0  0  0  0  0  0  0  0
  145.9653  140.5476  154.3743 H   0  0  0  0  0  0  0  0  0  0  0  0
  146.5465  142.2022  154.2086 H   0  0  0  0  0  0  0  0  0  0  0  0
  145.9787  141.6167  155.7713 H   0  0  0  0  0  0  0  0  0  0  0  0
  147.8486  139.9984  155.8717 H   0  0  0  0  0  0  0  0  0  0  0  0
  148.0962  139.8005  153.3281 H   0  0  0  0  0  0  0  0  0  0  0  0
  148.9770  141.3109  153.3448 H   0  0  0  0  0  0  0  0  0  0  0  0
  149.4229  137.6743  153.7447 H   0  0  0  0  0  0  0  0  0  0  0  0
  151.9628  137.1687  154.6064 H   0  0  0  0  0  0  0  0  0  0  0  0
  152.8780  139.6765  155.3514 H   0  0  0  0  0  0  0  0  0  0  0  0
  148.7986  142.7957  155.4056 H   0  0  0  0  0  0  0  0  0  0  0  0
  149.8776  143.7162  156.8246 H   0  0  0  0  0  0  0  0  0  0  0  0
  150.4682  142.2494  159.3523 H   0  0  0  0  0  0  0  0  0  0  0  0
  152.4819  142.4804  157.9230 H   0  0  0  0  0  0  0  0  0  0  0  0
  152.2018  144.1950  157.7519 H   0  0  0  0  0  0  0  0  0  0  0  0
  152.8655  142.7239  160.3460 H   0  0  0  0  0  0  0  0  0  0  0  0
  153.9298  143.7944  159.4647 H   0  0  0  0  0  0  0  0  0  0  0  0
  152.8769  144.9540  161.4137 H   0  0  0  0  0  0  0  0  0  0  0  0
  152.4410  145.7201  159.9046 H   0  0  0  0  0  0  0  0  0  0  0  0
  150.7191  143.7603  161.4976 H   0  0  0  0  0  0  0  0  0  0  0  0
  150.4444  145.4769  161.3344 H   0  0  0  0  0  0  0  0  0  0  0  0
  150.0666  145.2331  158.9117 H   0  0  0  0  0  0  0  0  0  0  0  0
  148.3637  143.2429  160.4876 H   0  0  0  0  0  0  0  0  0  0  0  0
  147.8895  144.0609  159.0016 H   0  0  0  0  0  0  0  0  0  0  0  0
  148.1318  144.9882  160.4715 H   0  0  0  0  0  0  0  0  0  0  0  0
  1  2  1  0  0  0  0
  1 20  1  0  0  0  0
  1 21  1  0  0  0  0
  1 22  1  0  0  0  0
  2  3  1  0  0  0  0
  2  9  1  0  0  0  0
  2 23  1  0  0  0  0
  3  4  1  0  0  0  0
  3 24  1  0  0  0  0
  3 25  1  0  0  0  0
  4  8  1  0  0  0  0
  4  5  1  0  0  0  0
  5  6  2  0  0  0  0
  5 26  1  0  0  0  0
  6  7  1  0  0  0  0
  6 27  1  0  0  0  0
  7  8  2  0  0  0  0
  7 28  1  0  0  0  0
  9 10  1  0  0  0  0
  9 29  1  0  0  0  0
 10 11  2  0  0  0  0
 10 12  1  0  0  0  0
 12 13  1  0  0  0  0
 12 30  1  0  0  0  0
 13 18  1  0  0  0  0
 13 14  1  0  0  0  0
 13 31  1  0  0  0  0
 14 15  1  0  0  0  0
 14 32  1  0  0  0  0
 14 33  1  0  0  0  0
 15 16  1  0  0  0  0
 15 34  1  0  0  0  0
 15 35  1  0  0  0  0
 16 17  1  0  0  0  0
 16 36  1  0  0  0  0
 16 37  1  0  0  0  0
 17 18  1  0  0  0  0
 17 38  1  0  0  0  0
 17 39  1  0  0  0  0
 18 19  1  0  0  0  0
 18 40  1  0  0  0  0
 19 41  1  0  0  0  0
 19 42  1  0  0  0  0
 19 43  1  0  0  0  0
M  END
> <s_m_source_file>
AV-unprocessed.smi

> <i_m_source_file_index>
1840

> <i_lp_mmshare_version>
43012

> <i_f3d_flags>
0

> <s_epik_input>
bjFbY0hdW2NIXVtjSF1uMVtDSDJdW0NAQEhdKFtDSDNdKVtOSF1DKD1PKVtOSF1bQ0BASF0yW0NIMl1bQ0gyXVtDSDJdW0NIMl1bQ0BIXTJbQ0gzXQ==

> <s_epik_cmdline>
J2VwaWtfcHl0aG9uJywgJy1waCcsICc3LjAnLCAnLXRuJywgJzgnLCAnLW1hJywgJzIwMCcsICctbWV0YWxfYmluZGluZycsICctaW1hZScsICc8aW5maWxlLm1hZT4nLCAnLW9tYWUnLCAnPG91dGZpbGUubWFlPic=

> <r_lp_tautomer_probability>
1

> <r_epik_Ionization_Penalty>
7.38659e-05

> <r_epik_Ionization_Penalty_Charging>
0

> <r_epik_Ionization_Penalty_Neutral>
7.38659e-05

> <r_epik_State_Penalty>
-0

> <r_epik_Charging_Adjusted_Penalty>
0

> <i_epik_Tot_Q>
0

> <i_epik_Tot_abs_Q>
0

> <r_epik_Metal_State_Penalty>
-0

> <b_epik_Metal_Only>
0

> <s_lp_Force_Field>
OPLS_2005

> <r_lp_Energy>
7.84096

> <b_lp_Chiralities_Consistent>
1

> <s_lp_Variant>
AV-unprocessed.smi:1840-8

> <Gold.Version>
5.8.1

> <Gold.Id.Protein>
6NUR|6NUR_protein|mol2

> <Gold.PLP.Fitness>
46.7205

> <Gold.PLP.PLP>
-36.1796

> <Gold.PLP.part.hbond>
-3.0000

> <Gold.PLP.part.metal>
0.0000

> <Gold.PLP.part.buried>
-1.5170

> <Gold.PLP.part.nonpolar>
-32.4233

> <Gold.PLP.part.repulsive>
0.1766

> <Gold.PLP.ligand.clash>
0.0000

> <Gold.PLP.ligand.torsion>
0.2568

> <Gold.PLP.Chemscore.Hbond>
2.6800

> <Gold.PLP.Chemscore.CHOScore>
1.0000

> <Gold.PLP.Chemscore.Metal>
0.0000

> <Gold.Chemscore.Hbonds>
donor molecule, donor type, donor heavy atom, donor atom, acceptor molecule, acceptor atom, score
      L1  H     9    29       P1  8028  0.83
      L1  H    12    30       P1  8028  0.90
      P1  H  7989  7998       L1     8  0.68
      L1  C     5    26       P1  7948  1.00

> <Gold.PLP.Chemscore.Internal.Correction>
0.0145

> <Gold.Rescore>
     Score         DG    S(hbond)    S(metal)    S(lipo)     H(rot)  DE(clash)    DE(int)     intcor
     18.87     -19.26       1.74        0.00     102.34       1.56       0.24       0.15       ----

> <Gold.Chemscore.Fitness>
18.8674

> <Gold.Chemscore.DG>
-19.2627

> <Gold.Chemscore.ZeroCoef>
-5.4800

> <Gold.Chemscore.Hbond>
1.7355

> <Gold.Chemscore.Metal>
0.0000

> <Gold.Chemscore.Lipo>
102.3398

> <Gold.Chemscore.Internal_Hbond>
0.0000

> <Gold.Chemscore.DEClash>
0.2450

> <Gold.Chemscore.DEInternal>
0.1503

> <Gold.Chemscore.Rot>
1.5576

> <Gold.Chemscore.Internal.Correction>
   9.000000E+99

> <Gold.Chemscore.Hbonds>
donor molecule, donor type, donor heavy atom, donor atom, acceptor molecule, acceptor atom, score
      L1  H     9    29       P1  8028  0.83
      L1  H    12    30       P1  8028  0.87
      P1  H  7989  7998       L1     8  0.02

> <Gold.Chemscore.Hbond.Weighted>
-5.7964

> <Gold.Chemscore.Metal.Weighted>
-0.0000

> <Gold.Chemscore.Lipo.Weighted>
-11.9738

> <Gold.Chemscore.Internal_Hbond.Weighted>
0.0000

> <Gold.Chemscore.DEClash.Weighted>
0.2450

> <Gold.Chemscore.DEInternal.Weighted>
0.1503

> <Gold.Chemscore.Rot.Weighted>
3.9875

> <Gold.Chemscore.Internal.Correction.Weighted>
   9.000000E+99

> <Gold.Protein.RotatedTorsions>
[ 6907 6896 6895 6894 ] final  158.09 input  -60.11 | X-H torsion
[ 7974 7965 7964 7962 ] final   25.37 input  175.53 | X-H torsion
[ 8008 7997 7996 7995 ] final  130.89 input   59.86 | X-H torsion
[ 10167 10162 10161 10158 ] final  -69.28 input  -65.29 | X-H torsion
[ 10718 10713 10712 10709 ] final  -50.58 input   66.30 | X-H torsion
[ 10763 10752 10751 10750 ] final  -23.57 input  -60.55 | X-H torsion
[ 11005 11000 10999 10996 ] final -134.29 input  -57.11 | X-H torsion

> <Gold.Protein.ActiveResidues>
 VAL166  LYS551  ARG553  GLY616  TRP617  ASP618  TYR619  PRO620  LYS621  CYS622 
 ASP623  PHE694  ASN695  SER759  ASP760  ASP761  ALA762  ILE779  LEU786  VAL792 
 PHE793  MET794  SER795  GLU796  ALA797  LYS798  CYS799  TRP800  GLU811  SER814 

> <Gold.Protein.RotatedAtoms>
  152.0055  133.3841  159.4198 H   0  0  0  0  0  0  0  0  0  0  0  0  # atno 6907 bound_to 6896
  150.6905  134.3788  159.5034 H   0  0  0  0  0  0  0  0  0  0  0  0  # atno 6908 bound_to 6896
  152.1541  134.8964  160.0597 H   0  0  0  0  0  0  0  0  0  0  0  0  # atno 6909 bound_to 6896
  146.1892  139.7476  142.8844 H   0  0  0  0  0  0  0  0  0  0  0  0  # atno 7974 bound_to 7965
  156.2962  140.2585  156.2836 H   0  0  0  0  0  0  0  0  0  0  0  0  # atno 8008 bound_to 7997
  154.9578  140.0393  157.2194 H   0  0  0  0  0  0  0  0  0  0  0  0  # atno 8009 bound_to 7997
  154.7975  140.2822  155.5950 H   0  0  0  0  0  0  0  0  0  0  0  0  # atno 8010 bound_to 7997
  140.5443  143.2313  151.7031 H   0  0  0  0  0  0  0  0  0  0  0  0  # atno 10167 bound_to 10162
  156.1787  130.4150  149.9538 H   0  0  0  0  0  0  0  0  0  0  0  0  # atno 10718 bound_to 10713
  153.6699  135.6972  153.5150 H   0  0  0  0  0  0  0  0  0  0  0  0  # atno 10763 bound_to 10752
  153.2566  135.4258  155.0851 H   0  0  0  0  0  0  0  0  0  0  0  0  # atno 10764 bound_to 10752
  154.8429  135.3544  154.6243 H   0  0  0  0  0  0  0  0  0  0  0  0  # atno 10765 bound_to 10752
  140.9004  134.1698  157.4465 H   0  0  0  0  0  0  0  0  0  0  0  0  # atno 11005 bound_to 11000
  145.3845  141.0363  143.3159 LP  0  0  0  0  0  0  0  0  0  0  0  0  # atno 17320 bound_to 7965
  144.8454  139.5405  143.6881 LP  0  0  0  0  0  0  0  0  0  0  0  0  # atno 17321 bound_to 7965
  139.5001  144.3920  152.0270 LP  0  0  0  0  0  0  0  0  0  0  0  0  # atno 17342 bound_to 10162
  140.3031  144.3624  150.6054 LP  0  0  0  0  0  0  0  0  0  0  0  0  # atno 17343 bound_to 10162
  156.7315  130.9045  151.3626 LP  0  0  0  0  0  0  0  0  0  0  0  0  # atno 17370 bound_to 10713
  157.6854  130.9180  150.0372 LP  0  0  0  0  0  0  0  0  0  0  0  0  # atno 17371 bound_to 10713
  139.8741  134.9895  156.5462 LP  0  0  0  0  0  0  0  0  0  0  0  0  # atno 17394 bound_to 11000
  140.8237  133.8333  155.8919 LP  0  0  0  0  0  0  0  0  0  0  0  0  # atno 17395 bound_to 11000

$$$$
