AV-unprocessed.smi:515|AV-procd|sdf|2783|dock3
  -GOLD-   2262023253D 1   1.00000     0.00000
 Structure written by MMmdl.
 47 49  0  0  0  0  0  0  0  0  3 V2000
  151.6475  131.5570  155.7039 C   0  0  0  0  0  0  0  0  0  0  0  0
  150.3164  131.7489  156.4342 C   0  0  0  0  0  0  0  0  0  0  0  0
  150.4276  132.8792  157.2798 O   0  0  0  0  0  0  0  0  0  0  0  0
  149.4927  133.9002  156.9761 C   0  0  0  0  0  0  0  0  0  0  0  0
  149.5693  134.2431  155.4807 C   0  0  0  0  0  0  0  0  0  0  0  0
  149.0861  135.5931  155.2013 N   0  0  0  0  0  0  0  0  0  0  0  0
  147.8366  135.9518  154.8042 C   0  0  0  0  0  0  0  0  0  0  0  0
  146.7182  134.9741  154.5801 C   0  0  0  0  0  0  0  0  0  0  0  0
  146.4786  135.0094  153.1152 N   0  3  0  0  0  0  0  0  0  0  0  0
  146.2148  133.6776  152.5125 C   0  0  0  0  0  0  0  0  0  0  0  0
  146.0276  133.8061  150.9918 C   0  0  0  0  0  0  0  0  0  0  0  0
  144.9722  134.7183  150.7156 O   0  0  0  0  0  0  0  0  0  0  0  0
  145.2516  136.0212  151.2127 C   0  0  0  0  0  0  0  0  0  0  0  0
  145.4119  135.9672  152.7412 C   0  0  0  0  0  0  0  0  0  0  0  0
  147.6745  137.2651  154.6246 N   0  0  0  0  0  0  0  0  0  0  0  0
  148.9215  137.7843  154.9367 C   0  0  0  0  0  0  0  0  0  0  0  0
  149.7889  136.7995  155.2916 C   0  0  0  0  0  0  0  0  0  0  0  0
  151.1926  137.0464  155.6932 C   0  0  0  0  0  0  0  0  0  0  0  0
  151.9360  136.1213  156.0126 O   0  0  0  0  0  0  0  0  0  0  0  0
  151.5132  138.3784  155.6578 N   0  5  0  0  0  0  0  0  0  0  0  0
  150.6673  139.4070  155.3030 C   0  0  0  0  0  0  0  0  0  0  0  0
  151.0361  140.5820  155.3032 O   0  0  0  0  0  0  0  0  0  0  0  0
  149.3761  139.1308  154.9371 N   0  0  0  0  0  0  0  0  0  0  0  0
  148.4536  140.2036  154.5545 C   0  0  0  0  0  0  0  0  0  0  0  0
  151.6069  130.6956  155.0372 H   0  0  0  0  0  0  0  0  0  0  0  0
  152.4616  131.3958  156.4112 H   0  0  0  0  0  0  0  0  0  0  0  0
  151.8944  132.4340  155.1050 H   0  0  0  0  0  0  0  0  0  0  0  0
  149.5106  131.8951  155.7135 H   0  0  0  0  0  0  0  0  0  0  0  0
  150.0813  130.8595  157.0206 H   0  0  0  0  0  0  0  0  0  0  0  0
  148.4833  133.5747  157.2305 H   0  0  0  0  0  0  0  0  0  0  0  0
  149.7102  134.7870  157.5734 H   0  0  0  0  0  0  0  0  0  0  0  0
  150.5897  134.1375  155.1181 H   0  0  0  0  0  0  0  0  0  0  0  0
  148.9943  133.5242  154.8985 H   0  0  0  0  0  0  0  0  0  0  0  0
  146.9456  133.9697  154.9348 H   0  0  0  0  0  0  0  0  0  0  0  0
  145.8413  135.3264  155.1252 H   0  0  0  0  0  0  0  0  0  0  0  0
  147.0402  132.9944  152.7133 H   0  0  0  0  0  0  0  0  0  0  0  0
  145.3218  133.2418  152.9635 H   0  0  0  0  0  0  0  0  0  0  0  0
  146.9494  134.1400  150.5124 H   0  0  0  0  0  0  0  0  0  0  0  0
  145.7782  132.8363  150.5612 H   0  0  0  0  0  0  0  0  0  0  0  0
  146.1511  136.4196  150.7402 H   0  0  0  0  0  0  0  0  0  0  0  0
  144.4298  136.6855  150.9446 H   0  0  0  0  0  0  0  0  0  0  0  0
  144.4711  135.6689  153.2070 H   0  0  0  0  0  0  0  0  0  0  0  0
  145.6573  136.9605  153.1189 H   0  0  0  0  0  0  0  0  0  0  0  0
  148.2616  140.8588  155.4048 H   0  0  0  0  0  0  0  0  0  0  0  0
  147.4923  139.8275  154.2059 H   0  0  0  0  0  0  0  0  0  0  0  0
  148.8745  140.8058  153.7484 H   0  0  0  0  0  0  0  0  0  0  0  0
  147.3317  135.3576  152.7004 H   0  0  0  0  0  0  0  0  0  0  0  0
  1  2  1  0  0  0  0
  1 25  1  0  0  0  0
  1 26  1  0  0  0  0
  1 27  1  0  0  0  0
  2  3  1  0  0  0  0
  2 28  1  0  0  0  0
  2 29  1  0  0  0  0
  3  4  1  0  0  0  0
  4  5  1  0  0  0  0
  4 30  1  0  0  0  0
  4 31  1  0  0  0  0
  5  6  1  0  0  0  0
  5 32  1  0  0  0  0
  5 33  1  0  0  0  0
  6 17  1  0  0  0  0
  6  7  1  0  0  0  0
  7  8  1  0  0  0  0
  7 15  2  0  0  0  0
  8  9  1  0  0  0  0
  8 34  1  0  0  0  0
  8 35  1  0  0  0  0
  9 14  1  0  0  0  0
  9 10  1  0  0  0  0
  9 47  1  0  0  0  0
 10 11  1  0  0  0  0
 10 36  1  0  0  0  0
 10 37  1  0  0  0  0
 11 12  1  0  0  0  0
 11 38  1  0  0  0  0
 11 39  1  0  0  0  0
 12 13  1  0  0  0  0
 13 14  1  0  0  0  0
 13 40  1  0  0  0  0
 13 41  1  0  0  0  0
 14 42  1  0  0  0  0
 14 43  1  0  0  0  0
 15 16  1  0  0  0  0
 16 23  1  0  0  0  0
 16 17  2  0  0  0  0
 17 18  1  0  0  0  0
 18 19  2  0  0  0  0
 18 20  1  0  0  0  0
 20 21  1  0  0  0  0
 21 22  2  0  0  0  0
 21 23  1  0  0  0  0
 23 24  1  0  0  0  0
 24 44  1  0  0  0  0
 24 45  1  0  0  0  0
 24 46  1  0  0  0  0
M  CHG  1   9   1
M  CHG  1  20  -1
M  END
> <s_m_source_file>
AV-unprocessed.smi

> <i_m_source_file_index>
515

> <i_lp_mmshare_version>
43012

> <i_f3d_flags>
0

> <s_epik_input>
W0NIM11uMWMoPU8pW25IXWMoPU8pYyhjMTIpbihbQ0gyXVtDSDJdT1tDSDJdW0NIM10pYyhuMilbQ0gyXU4zW0NIMl1bQ0gyXU9bQ0gyXVtDSDJdMw==

> <s_epik_cmdline>
J2VwaWtfcHl0aG9uJywgJy1waCcsICc3LjAnLCAnLXRuJywgJzgnLCAnLW1hJywgJzIwMCcsICctbWV0YWxfYmluZGluZycsICctaW1hZScsICc8aW5maWxlLm1hZT4nLCAnLW9tYWUnLCAnPG91dGZpbGUubWFlPic=

> <r_epik_Ionization_Penalty>
5.22184

> <r_epik_Ionization_Penalty_Charging>
1.12852

> <r_epik_Ionization_Penalty_Neutral>
4.09332

> <r_epik_State_Penalty>
5.27165

> <r_epik_Charging_Adjusted_Penalty>
6.40017

> <i_epik_Tot_Q>
0

> <i_epik_Tot_abs_Q>
2

> <r_epik_Metal_State_Penalty>
1.73647

> <b_epik_Metal_Only>
1

> <s_lp_Force_Field>
OPLS_2005

> <r_lp_Energy>
35.0341

> <b_lp_Chiralities_Consistent>
1

> <s_lp_Variant>
AV-unprocessed.smi:515-4

> <Gold.Version>
5.8.1

> <Gold.Id.Protein>
6NUR|6NUR_protein|mol2

> <Gold.PLP.Fitness>
41.1388

> <Gold.PLP.PLP>
-29.1658

> <Gold.PLP.part.hbond>
-4.0000

> <Gold.PLP.part.metal>
0.0000

> <Gold.PLP.part.buried>
-4.2330

> <Gold.PLP.part.nonpolar>
-23.2928

> <Gold.PLP.part.repulsive>
1.2065

> <Gold.PLP.ligand.clash>
0.0000

> <Gold.PLP.ligand.torsion>
1.4300

> <Gold.PLP.Chemscore.Hbond>
4.9280

> <Gold.PLP.Chemscore.CHOScore>
0.0000

> <Gold.PLP.Chemscore.Metal>
0.0000

> <Gold.Chemscore.Hbonds>
donor molecule, donor type, donor heavy atom, donor atom, acceptor molecule, acceptor atom, score
      L1  H     9    47       P1  7948  2.00
      P1  H  6896  6909       L1     3  0.67
      P1  H  7989  7998       L1    22  0.91
      P1  H 10752 10763       L1    19  1.00

> <Gold.PLP.Chemscore.Internal.Correction>
0.0489

> <Gold.Rescore>
     Score         DG    S(hbond)    S(metal)    S(lipo)     H(rot)  DE(clash)    DE(int)     intcor
     15.69     -17.37       3.51        0.00      48.87       2.17       0.11       1.57       ----

> <Gold.Chemscore.Fitness>
15.6918

> <Gold.Chemscore.DG>
-17.3667

> <Gold.Chemscore.ZeroCoef>
-5.4800

> <Gold.Chemscore.Hbond>
3.5125

> <Gold.Chemscore.Metal>
0.0000

> <Gold.Chemscore.Lipo>
48.8716

> <Gold.Chemscore.Internal_Hbond>
0.0000

> <Gold.Chemscore.DEClash>
0.1061

> <Gold.Chemscore.DEInternal>
1.5688

> <Gold.Chemscore.Rot>
2.1731

> <Gold.Chemscore.Internal.Correction>
   9.000000E+99

> <Gold.Chemscore.Hbonds>
donor molecule, donor type, donor heavy atom, donor atom, acceptor molecule, acceptor atom, score
      L1  H     9    47       P1  7948  0.96
      P1  H  6896  6909       L1     3  0.35
      P1  H  7989  7998       L1    22  0.40
      P1  H 10752 10763       L1    19  1.00

> <Gold.Chemscore.Hbond.Weighted>
-11.7319

> <Gold.Chemscore.Metal.Weighted>
-0.0000

> <Gold.Chemscore.Lipo.Weighted>
-5.7180

> <Gold.Chemscore.Internal_Hbond.Weighted>
0.0000

> <Gold.Chemscore.DEClash.Weighted>
0.1061

> <Gold.Chemscore.DEInternal.Weighted>
1.5688

> <Gold.Chemscore.Rot.Weighted>
5.5631

> <Gold.Chemscore.Internal.Correction.Weighted>
   9.000000E+99

> <Gold.Protein.RotatedTorsions>
[ 6907 6896 6895 6894 ] final  -37.03 input  -60.11 | X-H torsion
[ 7974 7965 7964 7962 ] final  -15.86 input  175.53 | X-H torsion
[ 8008 7997 7996 7995 ] final   76.68 input   59.86 | X-H torsion
[ 10167 10162 10161 10158 ] final  127.99 input  -65.29 | X-H torsion
[ 10718 10713 10712 10709 ] final  100.63 input   66.30 | X-H torsion
[ 10763 10752 10751 10750 ] final   91.39 input  -60.55 | X-H torsion
[ 11005 11000 10999 10996 ] final -179.97 input  -57.11 | X-H torsion

> <Gold.Protein.ActiveResidues>
 VAL166  LYS551  ARG553  GLY616  TRP617  ASP618  TYR619  PRO620  LYS621  CYS622 
 ASP623  PHE694  ASN695  SER759  ASP760  ASP761  ALA762  ILE779  LEU786  VAL792 
 PHE793  MET794  SER795  GLU796  ALA797  LYS798  CYS799  TRP800  GLU811  SER814 

> <Gold.Protein.RotatedAtoms>
  151.0197  134.9460  159.8052 H   0  0  0  0  0  0  0  0  0  0  0  0  # atno 6907 bound_to 6896
  152.5322  134.2919  159.9056 H   0  0  0  0  0  0  0  0  0  0  0  0  # atno 6908 bound_to 6896
  151.2927  133.4116  159.2668 H   0  0  0  0  0  0  0  0  0  0  0  0  # atno 6909 bound_to 6896
  146.2013  140.3554  142.8422 H   0  0  0  0  0  0  0  0  0  0  0  0  # atno 7974 bound_to 7965
  155.8308  140.3466  155.5571 H   0  0  0  0  0  0  0  0  0  0  0  0  # atno 8008 bound_to 7997
  155.8244  140.0917  157.1850 H   0  0  0  0  0  0  0  0  0  0  0  0  # atno 8009 bound_to 7997
  154.4004  140.1424  156.3525 H   0  0  0  0  0  0  0  0  0  0  0  0  # atno 8010 bound_to 7997
  139.5550  144.6842  151.4210 H   0  0  0  0  0  0  0  0  0  0  0  0  # atno 10167 bound_to 10162
  157.6849  131.0704  150.5130 H   0  0  0  0  0  0  0  0  0  0  0  0  # atno 10718 bound_to 10713
  153.2077  135.4399  155.0343 H   0  0  0  0  0  0  0  0  0  0  0  0  # atno 10763 bound_to 10752
  154.8183  135.3325  154.7115 H   0  0  0  0  0  0  0  0  0  0  0  0  # atno 10764 bound_to 10752
  153.7556  135.6995  153.4992 H   0  0  0  0  0  0  0  0  0  0  0  0  # atno 10765 bound_to 10752
  140.4128  134.6676  157.4623 H   0  0  0  0  0  0  0  0  0  0  0  0  # atno 11005 bound_to 11000
  144.8690  140.7246  143.6059 LP  0  0  0  0  0  0  0  0  0  0  0  0  # atno 17320 bound_to 7965
  145.3473  139.1715  143.4453 LP  0  0  0  0  0  0  0  0  0  0  0  0  # atno 17321 bound_to 7965
  140.6821  143.8058  150.7135 LP  0  0  0  0  0  0  0  0  0  0  0  0  # atno 17342 bound_to 10162
  140.1515  143.4354  152.2128 LP  0  0  0  0  0  0  0  0  0  0  0  0  # atno 17343 bound_to 10162
  156.5446  130.4216  149.6137 LP  0  0  0  0  0  0  0  0  0  0  0  0  # atno 17370 bound_to 10713
  156.2955  130.7148  151.2007 LP  0  0  0  0  0  0  0  0  0  0  0  0  # atno 17371 bound_to 10713
  140.0255  134.6483  155.9178 LP  0  0  0  0  0  0  0  0  0  0  0  0  # atno 17394 bound_to 11000
  141.1814  133.6547  156.5038 LP  0  0  0  0  0  0  0  0  0  0  0  0  # atno 17395 bound_to 11000

$$$$
