AV-unprocessed.smi:3248|AV-procd|sdf|12416|dock4
  -GOLD-   2272018303D 1   1.00000     0.00000
 Structure written by MMmdl.
 38 39  0  0  0  0  0  0  0  0  1 V2000
  148.4751  141.3598  156.4179 C   0  0  0  0  0  0  0  0  0  0  0  0
  149.8936  141.9174  156.5947 C   0  0  1  0  0  0  0  0  0  0  0  0
  150.1286  142.4186  158.0349 C   0  0  0  0  0  0  0  0  0  0  0  0
  151.3166  143.2467  158.1490 N   0  0  0  0  0  0  0  0  0  0  0  0
  151.6238  144.4024  157.4626 C   0  0  0  0  0  0  0  0  0  0  0  0
  152.8537  144.8132  157.8896 C   0  0  0  0  0  0  0  0  0  0  0  0
  153.2229  143.8324  158.8519 C   0  0  0  0  0  0  0  0  0  0  0  0
  152.2998  142.8974  159.0073 N   0  0  0  0  0  0  0  0  0  0  0  0
  150.8626  140.8784  156.2495 N   0  0  0  0  0  0  0  0  0  0  0  0
  151.0986  139.7557  156.9509 C   0  0  0  0  0  0  0  0  0  0  0  0
  150.5913  139.5411  158.0517 O   0  0  0  0  0  0  0  0  0  0  0  0
  152.0207  138.9496  156.3711 N   0  0  0  0  0  0  0  0  0  0  0  0
  152.0694  138.8018  154.9090 C   0  0  0  0  0  0  0  0  0  0  0  0
  151.2207  137.5769  154.5158 C   0  0  0  0  0  0  0  0  0  0  0  0
  151.7160  136.4129  155.1733 O   0  0  0  0  0  0  0  0  0  0  0  0
  151.7364  136.5318  156.5944 C   0  0  0  0  0  0  0  0  0  0  0  0
  152.6026  137.7439  156.9923 C   0  0  2  0  0  0  0  0  0  0  0  0
  152.8405  137.8331  158.5143 C   0  0  0  0  0  0  0  0  0  0  0  0
  147.7254  142.1195  156.6413 H   0  0  0  0  0  0  0  0  0  0  0  0
  148.2957  140.5107  157.0783 H   0  0  0  0  0  0  0  0  0  0  0  0
  148.3091  141.0264  155.3929 H   0  0  0  0  0  0  0  0  0  0  0  0
  149.9935  142.7642  155.9134 H   0  0  0  0  0  0  0  0  0  0  0  0
  149.2761  143.0117  158.3682 H   0  0  0  0  0  0  0  0  0  0  0  0
  150.2103  141.5774  158.7255 H   0  0  0  0  0  0  0  0  0  0  0  0
  150.9517  144.8266  156.7312 H   0  0  0  0  0  0  0  0  0  0  0  0
  153.4070  145.6809  157.5629 H   0  0  0  0  0  0  0  0  0  0  0  0
  154.1283  143.7715  159.4375 H   0  0  0  0  0  0  0  0  0  0  0  0
  151.3583  140.9955  155.3779 H   0  0  0  0  0  0  0  0  0  0  0  0
  151.7047  139.6803  154.3752 H   0  0  0  0  0  0  0  0  0  0  0  0
  153.1019  138.6664  154.5849 H   0  0  0  0  0  0  0  0  0  0  0  0
  150.1722  137.7296  154.7754 H   0  0  0  0  0  0  0  0  0  0  0  0
  151.2621  137.4185  153.4383 H   0  0  0  0  0  0  0  0  0  0  0  0
  150.7195  136.6287  156.9781 H   0  0  0  0  0  0  0  0  0  0  0  0
  152.1501  135.6138  157.0122 H   0  0  0  0  0  0  0  0  0  0  0  0
  153.5923  137.6051  156.5531 H   0  0  0  0  0  0  0  0  0  0  0  0
  153.4532  136.9970  158.8523 H   0  0  0  0  0  0  0  0  0  0  0  0
  151.9137  137.7928  159.0859 H   0  0  0  0  0  0  0  0  0  0  0  0
  153.3671  138.7499  158.7803 H   0  0  0  0  0  0  0  0  0  0  0  0
  1  2  1  0  0  0  0
  1 19  1  0  0  0  0
  1 20  1  0  0  0  0
  1 21  1  0  0  0  0
  2  3  1  0  0  0  0
  2  9  1  0  0  0  0
  2 22  1  0  0  0  0
  3  4  1  0  0  0  0
  3 23  1  0  0  0  0
  3 24  1  0  0  0  0
  4  8  1  0  0  0  0
  4  5  1  0  0  0  0
  5  6  2  0  0  0  0
  5 25  1  0  0  0  0
  6  7  1  0  0  0  0
  6 26  1  0  0  0  0
  7  8  2  0  0  0  0
  7 27  1  0  0  0  0
  9 10  1  0  0  0  0
  9 28  1  0  0  0  0
 10 11  2  0  0  0  0
 10 12  1  0  0  0  0
 12 17  1  0  0  0  0
 12 13  1  0  0  0  0
 13 14  1  0  0  0  0
 13 29  1  0  0  0  0
 13 30  1  0  0  0  0
 14 15  1  0  0  0  0
 14 31  1  0  0  0  0
 14 32  1  0  0  0  0
 15 16  1  0  0  0  0
 16 17  1  0  0  0  0
 16 33  1  0  0  0  0
 16 34  1  0  0  0  0
 17 18  1  0  0  0  0
 17 35  1  0  0  0  0
 18 36  1  0  0  0  0
 18 37  1  0  0  0  0
 18 38  1  0  0  0  0
M  END
> <s_m_source_file>
AV-unprocessed.smi

> <i_m_source_file_index>
3248

> <i_lp_mmshare_version>
43012

> <i_f3d_flags>
0

> <s_epik_input>
bjFbY0hdW2NIXVtjSF1uMVtDSDJdW0NAQEhdKFtDSDNdKVtOSF1DKD1PKU4yW0NIMl1bQ0gyXU9bQ0gyXVtDQEhdMltDSDNd

> <s_epik_cmdline>
J2VwaWtfcHl0aG9uJywgJy1waCcsICc3LjAnLCAnLXRuJywgJzgnLCAnLW1hJywgJzIwMCcsICctbWV0YWxfYmluZGluZycsICctaW1hZScsICc8aW5maWxlLm1hZT4nLCAnLW9tYWUnLCAnPG91dGZpbGUubWFlPic=

> <r_lp_tautomer_probability>
1

> <r_epik_Ionization_Penalty>
4.45233e-05

> <r_epik_Ionization_Penalty_Charging>
0

> <r_epik_Ionization_Penalty_Neutral>
4.45233e-05

> <r_epik_State_Penalty>
-0

> <r_epik_Charging_Adjusted_Penalty>
0

> <i_epik_Tot_Q>
0

> <i_epik_Tot_abs_Q>
0

> <r_epik_Metal_State_Penalty>
-0

> <b_epik_Metal_Only>
0

> <s_lp_Force_Field>
OPLS_2005

> <r_lp_Energy>
30.7838

> <b_lp_Chiralities_Consistent>
1

> <s_lp_Variant>
AV-unprocessed.smi:3248-4

> <Gold.Version>
5.8.1

> <Gold.Id.Protein>
6NUR|6NUR_protein|mol2

> <Gold.PLP.Fitness>
38.9722

> <Gold.PLP.PLP>
-33.2833

> <Gold.PLP.part.hbond>
-1.0000

> <Gold.PLP.part.metal>
0.0000

> <Gold.PLP.part.buried>
-4.7404

> <Gold.PLP.part.nonpolar>
-28.6071

> <Gold.PLP.part.repulsive>
0.2165

> <Gold.PLP.ligand.clash>
0.0000

> <Gold.PLP.ligand.torsion>
0.4167

> <Gold.PLP.Chemscore.Hbond>
1.0000

> <Gold.PLP.Chemscore.CHOScore>
1.0000

> <Gold.PLP.Chemscore.Metal>
0.0000

> <Gold.Chemscore.Hbonds>
donor molecule, donor type, donor heavy atom, donor atom, acceptor molecule, acceptor atom, score
      P1  H 10752 10765       L1    15  1.00
      L1  C     5    25       P1  8028  1.00

> <Gold.PLP.Chemscore.Internal.Correction>
0.5224

> <Gold.Rescore>
     Score         DG    S(hbond)    S(metal)    S(lipo)     H(rot)  DE(clash)    DE(int)     intcor
     11.92     -15.20       0.91        0.00      88.20       1.42       0.24       3.04       ----

> <Gold.Chemscore.Fitness>
11.9153

> <Gold.Chemscore.DG>
-15.2042

> <Gold.Chemscore.ZeroCoef>
-5.4800

> <Gold.Chemscore.Hbond>
0.9095

> <Gold.Chemscore.Metal>
0.0000

> <Gold.Chemscore.Lipo>
88.1992

> <Gold.Chemscore.Internal_Hbond>
0.0000

> <Gold.Chemscore.DEClash>
0.2449

> <Gold.Chemscore.DEInternal>
3.0440

> <Gold.Chemscore.Rot>
1.4191

> <Gold.Chemscore.Internal.Correction>
   9.000000E+99

> <Gold.Chemscore.Hbonds>
donor molecule, donor type, donor heavy atom, donor atom, acceptor molecule, acceptor atom, score
      P1  H 10752 10765       L1    15  0.87

> <Gold.Chemscore.Hbond.Weighted>
-3.0379

> <Gold.Chemscore.Metal.Weighted>
-0.0000

> <Gold.Chemscore.Lipo.Weighted>
-10.3193

> <Gold.Chemscore.Internal_Hbond.Weighted>
0.0000

> <Gold.Chemscore.DEClash.Weighted>
0.2449

> <Gold.Chemscore.DEInternal.Weighted>
3.0440

> <Gold.Chemscore.Rot.Weighted>
3.6330

> <Gold.Chemscore.Internal.Correction.Weighted>
   9.000000E+99

> <Gold.Protein.RotatedTorsions>
[ 6907 6896 6895 6894 ] final -178.29 input  -60.11 | X-H torsion
[ 7974 7965 7964 7962 ] final    1.96 input  175.53 | X-H torsion
[ 8008 7997 7996 7995 ] final  -66.11 input   59.86 | X-H torsion
[ 10167 10162 10161 10158 ] final   20.29 input  -65.29 | X-H torsion
[ 10718 10713 10712 10709 ] final    6.99 input   66.30 | X-H torsion
[ 10763 10752 10751 10750 ] final  175.75 input  -60.55 | X-H torsion
[ 11005 11000 10999 10996 ] final  -85.71 input  -57.11 | X-H torsion

> <Gold.Protein.ActiveResidues>
 VAL166  LYS551  ARG553  GLY616  TRP617  ASP618  TYR619  PRO620  LYS621  CYS622 
 ASP623  PHE694  ASN695  SER759  ASP760  ASP761  ALA762  ILE779  LEU786  VAL792 
 PHE793  MET794  SER795  GLU796  ALA797  LYS798  CYS799  TRP800  GLU811  SER814 

> <Gold.Protein.RotatedAtoms>
  151.6348  133.3329  159.3116 H   0  0  0  0  0  0  0  0  0  0  0  0  # atno 6907 bound_to 6896
  150.8038  134.7153  159.6636 H   0  0  0  0  0  0  0  0  0  0  0  0  # atno 6908 bound_to 6896
  152.4132  134.6092  160.0072 H   0  0  0  0  0  0  0  0  0  0  0  0  # atno 6909 bound_to 6896
  146.2442  140.0908  142.8352 H   0  0  0  0  0  0  0  0  0  0  0  0  # atno 7974 bound_to 7965
  154.4714  140.0919  156.7154 H   0  0  0  0  0  0  0  0  0  0  0  0  # atno 8008 bound_to 7997
  155.4714  140.3464  155.4308 H   0  0  0  0  0  0  0  0  0  0  0  0  # atno 8009 bound_to 7997
  156.1045  140.1431  156.9411 H   0  0  0  0  0  0  0  0  0  0  0  0  # atno 8010 bound_to 7997
  140.5515  143.9501  150.6581 H   0  0  0  0  0  0  0  0  0  0  0  0  # atno 10167 bound_to 10162
  156.9303  130.5823  149.5649 H   0  0  0  0  0  0  0  0  0  0  0  0  # atno 10718 bound_to 10713
  154.4718  135.2771  155.1637 H   0  0  0  0  0  0  0  0  0  0  0  0  # atno 10763 bound_to 10752
  154.3382  135.6175  153.5587 H   0  0  0  0  0  0  0  0  0  0  0  0  # atno 10764 bound_to 10752
  152.9865  135.5782  154.5101 H   0  0  0  0  0  0  0  0  0  0  0  0  # atno 10765 bound_to 10752
  141.1638  133.7414  156.9055 H   0  0  0  0  0  0  0  0  0  0  0  0  # atno 11005 bound_to 11000
  145.0652  140.9116  143.4915 LP  0  0  0  0  0  0  0  0  0  0  0  0  # atno 17320 bound_to 7965
  145.1031  139.2809  143.5676 LP  0  0  0  0  0  0  0  0  0  0  0  0  # atno 17321 bound_to 7965
  140.2928  143.3313  152.1046 LP  0  0  0  0  0  0  0  0  0  0  0  0  # atno 17342 bound_to 10162
  139.5029  144.6745  151.6162 LP  0  0  0  0  0  0  0  0  0  0  0  0  # atno 17343 bound_to 10162
  156.0450  130.5528  150.8860 LP  0  0  0  0  0  0  0  0  0  0  0  0  # atno 17370 bound_to 10713
  157.5851  131.0945  150.9209 LP  0  0  0  0  0  0  0  0  0  0  0  0  # atno 17371 bound_to 10713
  140.1553  134.9202  157.2645 LP  0  0  0  0  0  0  0  0  0  0  0  0  # atno 17394 bound_to 11000
  140.2674  134.3500  155.7385 LP  0  0  0  0  0  0  0  0  0  0  0  0  # atno 17395 bound_to 11000

$$$$
