#       Name:                AV-unprocessed.smi:2660
#       Creating user name   scv26
#       Creation time:       Fri Mar 27 14:33:23 2020


#       File generated by GOLD software.
#

@<TRIPOS>MOLECULE
AV-unprocessed.smi:2660
    42    43     1
SMALL
NO_CHARGES


@<TRIPOS>ATOM
      1 ****        -4.0086  -2.5141  -1.2829 N.am           1 S1                 0.0000
      2 ****        -2.6750  -2.6103  -1.3515 C.2            1 S1                 0.0000
      3 ****        -2.1637  -3.7281  -1.4169 O.2            1 S1                 0.0000
      4 ****        -1.9705  -1.3085  -1.3391 C.2            1 S1                 0.0000
      5 ****        -2.6093  -0.1327  -1.1442 C.2            1 S1                 0.0000
      6 ****        -1.8806   1.1059  -1.1552 C.2            1 S1                 0.0000
      7 ****        -0.5393   1.1001  -1.2683 C.2            1 S1                 0.0000
      8 ****         0.2413   2.4136  -1.4049 C.3            1 S1                 0.0000
      9 ****        -0.5816   3.4608  -1.4755 F              1 S1                 0.0000
     10 ****         1.0348   2.6171  -0.3550 F              1 S1                 0.0000
     11 ****         0.9717   2.4280  -2.5210 F              1 S1                 0.0000
     12 ****         0.1581  -0.1437  -1.3765 N.am           1 S1                 0.0000
     13 ****         1.6405  -0.1909  -1.2848 C.3            1 S1                 0.0000
     14 ****         2.1555  -0.8142   0.0393 C.3            1 S1                 0.0000
     15 ****         3.5654  -0.8975  -0.0262 O.3            1 S1                 0.0000
     16 ****         1.6649  -0.0819   1.2835 C.ar           1 S1                 0.0000
     17 ****         2.3780   1.0207   1.8056 C.ar           1 S1                 0.0000
     18 ****         1.9068   1.6967   2.9477 C.ar           1 S1                 0.0000
     19 ****         0.7209   1.2745   3.5775 C.ar           1 S1                 0.0000
     20 ****         0.0070   0.1746   3.0653 C.ar           1 S1                 0.0000
     21 ****         0.4786  -0.5022   1.9240 C.ar           1 S1                 0.0000
     22 ****        -0.4978  -1.3439  -1.5280 C.2            1 S1                 0.0000
     23 ****         0.1401  -2.3710  -1.7782 O.2            1 S1                 0.0000
     24 ****        -4.5702  -3.3533  -1.2887 H              1 S1                 0.0000
     25 ****        -4.4489  -1.6076  -1.2288 H              1 S1                 0.0000
     26 ****        -3.6762  -0.0772  -0.9872 H              1 S1                 0.0000
     27 ****        -2.4328   2.0326  -1.1107 H              1 S1                 0.0000
     28 ****         2.0316  -0.7572  -2.1325 H              1 S1                 0.0000
     29 ****         2.1133   0.7788  -1.3917 H              1 S1                 0.0000
     30 ****         1.8148  -1.8466   0.1176 H              1 S1                 0.0000
     31 ****         3.9138  -0.0240  -0.1170 H              1 S1                 0.0000
     32 ****         3.2845   1.3616   1.3276 H              1 S1                 0.0000
     33 ****         2.4546   2.5413   3.3390 H              1 S1                 0.0000
     34 ****         0.3596   1.7935   4.4530 H              1 S1                 0.0000
     35 ****        -0.9031  -0.1499   3.5478 H              1 S1                 0.0000
     36 ****        -0.0779  -1.3435   1.5375 H              1 S1                 0.0000
     37 ****        -2.7427  -4.5435  -1.4181 LP             1 S1                 0.0000
     38 ****        -1.1694  -3.8209  -1.4688 LP             1 S1                 0.0000
     39 ****         3.8342  -1.4514  -0.8142 LP             1 S1                 0.0000
     40 ****         3.9177  -1.3158   0.8110 LP             1 S1                 0.0000
     41 ****        -0.3355  -3.2464  -1.8648 LP             1 S1                 0.0000
     42 ****         1.1324  -2.3275  -1.8943 LP             1 S1                 0.0000
@<TRIPOS>BOND
    1    1    2 am    
    2    1   24 1     
    3    1   25 1     
    4    2    3 2     
    5    2    4 1     
    6    4   22 1     
    7    4    5 2     
    8    5    6 1     
    9    5   26 1     
   10    6    7 2     
   11    6   27 1     
   12    7    8 1     
   13    7   12 1     
   14    8    9 1     
   15    8   10 1     
   16    8   11 1     
   17   12   13 1     
   18   12   22 am    
   19   13   14 1     
   20   13   28 1     
   21   13   29 1     
   22   14   15 1     
   23   14   16 1     
   24   14   30 1     
   25   15   31 1     
   26   16   21 ar    
   27   16   17 ar    
   28   17   18 ar    
   29   17   32 1     
   30   18   19 ar    
   31   18   33 1     
   32   19   20 ar    
   33   19   34 1     
   34   20   21 ar    
   35   20   35 1     
   36   21   36 1     
   37   22   23 2     
   38    3   37 1     
   39    3   38 1     
   40   15   39 1     
   41   15   40 1     
   42   23   41 1     
   43   23   42 1     
@<TRIPOS>SUBSTRUCTURE
      1 S1             1
@<TRIPOS>SET
LONE_PAIRS      STATIC     ATOMS    <user>   **** ""
6 37 38 39 40 41 42
DONOR_HYDROGENS      STATIC     ATOMS    <user>   **** ""
3 24 25 31
ATOM$BLUE        STATIC     ATOMS    COLORGROUP SYSTEM
6 37 38 39 40 41 42
ATOM$RED        STATIC     ATOMS    COLORGROUP SYSTEM
3 24 25 31
