AV-unprocessed.smi:1088|AV-procd|sdf|4732|dock7
  -GOLD-   22720 3263D 1   1.00000     0.00000
 Structure written by MMmdl.
 47 48  0  0  0  0  0  0  0  0  1 V2000
  152.6357  142.8818  160.0048 C   0  0  0  0  0  0  0  0  0  0  0  0
  151.7842  141.8696  159.4986 O   0  0  0  0  0  0  0  0  0  0  0  0
  151.6403  141.9339  158.0888 C   0  0  0  0  0  0  0  0  0  0  0  0
  151.0862  140.6045  157.5538 C   0  0  0  0  0  0  0  0  0  0  0  0
  150.7043  140.5525  156.1364 N   0  0  0  0  0  0  0  0  0  0  0  0
  149.8130  141.6578  155.8274 C   0  0  0  0  0  0  0  0  0  0  0  0
  149.1578  141.3325  154.4907 C   0  0  0  0  0  0  0  0  0  0  0  0
  149.1911  139.8036  154.4405 C   0  0  0  0  0  0  0  0  0  0  0  0
  149.9458  139.3718  155.7150 C   0  0  1  0  0  0  0  0  0  0  0  0
  150.7666  138.0830  155.4768 C   0  0  0  0  0  0  0  0  0  0  0  0
  149.9080  136.9028  155.4348 N   0  0  0  0  0  0  0  0  0  0  0  0
  150.3228  135.6272  155.4519 C   0  0  0  0  0  0  0  0  0  0  0  0
  151.5094  135.2992  155.4931 O   0  0  0  0  0  0  0  0  0  0  0  0
  149.2170  134.5647  155.3878 C   0  0  0  0  0  0  0  0  0  0  0  0
  149.7198  133.2237  155.0628 N   0  0  0  0  0  0  0  0  0  0  0  0
  149.2731  132.5814  153.9226 C   0  0  0  0  0  0  0  0  0  0  0  0
  149.6914  131.3530  153.5473 C   0  0  0  0  0  0  0  0  0  0  0  0
  150.6623  130.6151  154.3463 C   0  0  0  0  0  0  0  0  0  0  0  0
  151.0796  129.5001  154.0314 O   0  0  0  0  0  0  0  0  0  0  0  0
  151.0946  131.2907  155.5129 N   0  0  0  0  0  0  0  0  0  0  0  0
  152.0695  130.6519  156.3722 C   0  0  0  0  0  0  0  0  0  0  0  0
  150.6631  132.5809  155.8928 C   0  0  0  0  0  0  0  0  0  0  0  0
  151.0906  133.1374  156.9073 O   0  0  0  0  0  0  0  0  0  0  0  0
  152.7200  142.7816  161.0869 H   0  0  0  0  0  0  0  0  0  0  0  0
  152.2378  143.8741  159.7887 H   0  0  0  0  0  0  0  0  0  0  0  0
  153.6374  142.8050  159.5799 H   0  0  0  0  0  0  0  0  0  0  0  0
  151.0057  142.7668  157.7909 H   0  0  0  0  0  0  0  0  0  0  0  0
  152.6128  142.1241  157.6323 H   0  0  0  0  0  0  0  0  0  0  0  0
  151.7889  139.8024  157.7839 H   0  0  0  0  0  0  0  0  0  0  0  0
  150.1944  140.3878  158.1438 H   0  0  0  0  0  0  0  0  0  0  0  0
  149.0366  141.7364  156.5906 H   0  0  0  0  0  0  0  0  0  0  0  0
  150.3471  142.6081  155.8026 H   0  0  0  0  0  0  0  0  0  0  0  0
  148.1464  141.7336  154.4226 H   0  0  0  0  0  0  0  0  0  0  0  0
  149.7432  141.7487  153.6699 H   0  0  0  0  0  0  0  0  0  0  0  0
  148.1892  139.3740  154.4094 H   0  0  0  0  0  0  0  0  0  0  0  0
  149.7139  139.4850  153.5376 H   0  0  0  0  0  0  0  0  0  0  0  0
  149.1941  139.1626  156.4784 H   0  0  0  0  0  0  0  0  0  0  0  0
  151.3628  138.1797  154.5680 H   0  0  0  0  0  0  0  0  0  0  0  0
  151.4735  137.9010  156.2787 H   0  0  0  0  0  0  0  0  0  0  0  0
  148.9135  137.0713  155.3931 H   0  0  0  0  0  0  0  0  0  0  0  0
  148.6746  134.5391  156.3349 H   0  0  0  0  0  0  0  0  0  0  0  0
  148.4881  134.8798  154.6399 H   0  0  0  0  0  0  0  0  0  0  0  0
  148.5558  133.0884  153.2936 H   0  0  0  0  0  0  0  0  0  0  0  0
  149.3044  130.9108  152.6410 H   0  0  0  0  0  0  0  0  0  0  0  0
  151.7224  130.7445  157.4029 H   0  0  0  0  0  0  0  0  0  0  0  0
  153.0159  131.1734  156.2207 H   0  0  0  0  0  0  0  0  0  0  0  0
  152.1682  129.5935  156.1326 H   0  0  0  0  0  0  0  0  0  0  0  0
  1  2  1  0  0  0  0
  1 24  1  0  0  0  0
  1 25  1  0  0  0  0
  1 26  1  0  0  0  0
  2  3  1  0  0  0  0
  3  4  1  0  0  0  0
  3 27  1  0  0  0  0
  3 28  1  0  0  0  0
  4  5  1  0  0  0  0
  4 29  1  0  0  0  0
  4 30  1  0  0  0  0
  5  9  1  0  0  0  0
  5  6  1  0  0  0  0
  6  7  1  0  0  0  0
  6 31  1  0  0  0  0
  6 32  1  0  0  0  0
  7  8  1  0  0  0  0
  7 33  1  0  0  0  0
  7 34  1  0  0  0  0
  8  9  1  0  0  0  0
  8 35  1  0  0  0  0
  8 36  1  0  0  0  0
  9 10  1  0  0  0  0
  9 37  1  0  0  0  0
 10 11  1  0  0  0  0
 10 38  1  0  0  0  0
 10 39  1  0  0  0  0
 11 12  1  0  0  0  0
 11 40  1  0  0  0  0
 12 13  2  0  0  0  0
 12 14  1  0  0  0  0
 14 15  1  0  0  0  0
 14 41  1  0  0  0  0
 14 42  1  0  0  0  0
 15 22  1  0  0  0  0
 15 16  1  0  0  0  0
 16 17  2  0  0  0  0
 16 43  1  0  0  0  0
 17 18  1  0  0  0  0
 17 44  1  0  0  0  0
 18 19  2  0  0  0  0
 18 20  1  0  0  0  0
 20 21  1  0  0  0  0
 20 22  1  0  0  0  0
 21 45  1  0  0  0  0
 21 46  1  0  0  0  0
 21 47  1  0  0  0  0
 22 23  2  0  0  0  0
M  END
> <s_m_source_file>
AV-unprocessed.smi

> <i_m_source_file_index>
1088

> <i_lp_mmshare_version>
43012

> <i_f3d_flags>
0

> <s_epik_input>
W0NIM11PW0NIMl1bQ0gyXU4xW0NIMl1bQ0gyXVtDSDJdW0NASF0xW0NIMl1bTkhdQyg9TylbQ0gyXW4yW2NIXVtjSF1jKD1PKW4oW0NIM10pYzI9Tw==

> <s_epik_cmdline>
J2VwaWtfcHl0aG9uJywgJy1waCcsICc3LjAnLCAnLXRuJywgJzgnLCAnLW1hJywgJzIwMCcsICctbWV0YWxfYmluZGluZycsICctaW1hZScsICc8aW5maWxlLm1hZT4nLCAnLW9tYWUnLCAnPG91dGZpbGUubWFlPic=

> <r_lp_tautomer_probability>
1

> <r_epik_Ionization_Penalty>
2.28131

> <r_epik_Ionization_Penalty_Charging>
1.22971e-08

> <r_epik_Ionization_Penalty_Neutral>
2.28131

> <r_epik_State_Penalty>
2.43063

> <r_epik_Charging_Adjusted_Penalty>
2.43063

> <i_epik_Tot_Q>
0

> <i_epik_Tot_abs_Q>
0

> <r_epik_Metal_State_Penalty>
2.43056

> <b_epik_Metal_Only>
0

> <s_lp_Force_Field>
OPLS_2005

> <r_lp_Energy>
52.4092

> <b_lp_Chiralities_Consistent>
1

> <s_lp_Variant>
AV-unprocessed.smi:1088-5

> <Gold.Version>
5.8.1

> <Gold.Id.Protein>
6NUR|6NUR_protein|mol2

> <Gold.PLP.Fitness>
41.7107

> <Gold.PLP.PLP>
-36.9920

> <Gold.PLP.part.hbond>
-2.0000

> <Gold.PLP.part.metal>
0.0000

> <Gold.PLP.part.buried>
-3.5081

> <Gold.PLP.part.nonpolar>
-30.6975

> <Gold.PLP.part.repulsive>
0.1904

> <Gold.PLP.ligand.clash>
0.0000

> <Gold.PLP.ligand.torsion>
0.4859

> <Gold.PLP.Chemscore.Hbond>
1.8800

> <Gold.PLP.Chemscore.CHOScore>
0.0000

> <Gold.PLP.Chemscore.Metal>
0.0000

> <Gold.Chemscore.Hbonds>
donor molecule, donor type, donor heavy atom, donor atom, acceptor molecule, acceptor atom, score
      P1  H  6896  6909       L1    23  0.25
      P1  H 10752 10763       L1    13  1.00

> <Gold.PLP.Chemscore.Internal.Correction>
0.0506

> <Gold.Rescore>
     Score         DG    S(hbond)    S(metal)    S(lipo)     H(rot)  DE(clash)    DE(int)     intcor
     13.67     -14.49       1.96        0.00      75.74       2.49       0.07       0.75       ----

> <Gold.Chemscore.Fitness>
13.6707

> <Gold.Chemscore.DG>
-14.4943

> <Gold.Chemscore.ZeroCoef>
-5.4800

> <Gold.Chemscore.Hbond>
1.9572

> <Gold.Chemscore.Metal>
0.0000

> <Gold.Chemscore.Lipo>
75.7386

> <Gold.Chemscore.Internal_Hbond>
0.0000

> <Gold.Chemscore.DEClash>
0.0719

> <Gold.Chemscore.DEInternal>
0.7517

> <Gold.Chemscore.Rot>
2.4938

> <Gold.Chemscore.Internal.Correction>
   9.000000E+99

> <Gold.Chemscore.Hbonds>
donor molecule, donor type, donor heavy atom, donor atom, acceptor molecule, acceptor atom, score
      P1  H  6896  6909       L1    23  0.26
      P1  H 10752 10763       L1    13  0.95

> <Gold.Chemscore.Hbond.Weighted>
-6.5370

> <Gold.Chemscore.Metal.Weighted>
-0.0000

> <Gold.Chemscore.Lipo.Weighted>
-8.8614

> <Gold.Chemscore.Internal_Hbond.Weighted>
0.0000

> <Gold.Chemscore.DEClash.Weighted>
0.0719

> <Gold.Chemscore.DEInternal.Weighted>
0.7517

> <Gold.Chemscore.Rot.Weighted>
6.3841

> <Gold.Chemscore.Internal.Correction.Weighted>
   9.000000E+99

> <Gold.Protein.RotatedTorsions>
[ 6907 6896 6895 6894 ] final  -32.63 input  -60.11 | X-H torsion
[ 7974 7965 7964 7962 ] final  -15.07 input  175.53 | X-H torsion
[ 8008 7997 7996 7995 ] final   37.75 input   59.86 | X-H torsion
[ 10167 10162 10161 10158 ] final -145.22 input  -65.29 | X-H torsion
[ 10718 10713 10712 10709 ] final -175.94 input   66.30 | X-H torsion
[ 10763 10752 10751 10750 ] final   83.21 input  -60.55 | X-H torsion
[ 11005 11000 10999 10996 ] final -167.88 input  -57.11 | X-H torsion

> <Gold.Protein.ActiveResidues>
 VAL166  LYS551  ARG553  GLY616  TRP617  ASP618  TYR619  PRO620  LYS621  CYS622 
 ASP623  PHE694  ASN695  SER759  ASP760  ASP761  ALA762  ILE779  LEU786  VAL792 
 PHE793  MET794  SER795  GLU796  ALA797  LYS798  CYS799  TRP800  GLU811  SER814 

> <Gold.Protein.RotatedAtoms>
  151.0762  134.9829  159.8333 H   0  0  0  0  0  0  0  0  0  0  0  0  # atno 6907 bound_to 6896
  152.5414  134.2238  159.8808 H   0  0  0  0  0  0  0  0  0  0  0  0  # atno 6908 bound_to 6896
  151.2265  133.4430  159.2636 H   0  0  0  0  0  0  0  0  0  0  0  0  # atno 6909 bound_to 6896
  146.2048  140.3440  142.8411 H   0  0  0  0  0  0  0  0  0  0  0  0  # atno 7974 bound_to 7965
  155.2089  140.3322  155.4332 H   0  0  0  0  0  0  0  0  0  0  0  0  # atno 8008 bound_to 7997
  156.2378  140.1880  156.7120 H   0  0  0  0  0  0  0  0  0  0  0  0  # atno 8009 bound_to 7997
  154.6091  140.0611  156.9456 H   0  0  0  0  0  0  0  0  0  0  0  0  # atno 8010 bound_to 7997
  139.7826  143.8079  152.2640 H   0  0  0  0  0  0  0  0  0  0  0  0  # atno 10167 bound_to 10162
  156.8073  130.9574  151.3117 H   0  0  0  0  0  0  0  0  0  0  0  0  # atno 10718 bound_to 10713
  153.1271  135.4699  154.9289 H   0  0  0  0  0  0  0  0  0  0  0  0  # atno 10763 bound_to 10752
  154.7630  135.3137  154.8344 H   0  0  0  0  0  0  0  0  0  0  0  0  # atno 10764 bound_to 10752
  153.8895  135.6886  153.4815 H   0  0  0  0  0  0  0  0  0  0  0  0  # atno 10765 bound_to 10752
  140.5482  134.5454  157.5116 H   0  0  0  0  0  0  0  0  0  0  0  0  # atno 11005 bound_to 11000
  144.8766  140.7344  143.6013 LP  0  0  0  0  0  0  0  0  0  0  0  0  # atno 17320 bound_to 7965
  145.3360  139.1746  143.4511 LP  0  0  0  0  0  0  0  0  0  0  0  0  # atno 17321 bound_to 7965
  139.8147  144.7321  150.9651 LP  0  0  0  0  0  0  0  0  0  0  0  0  # atno 17342 bound_to 10162
  140.7819  143.4217  151.0831 LP  0  0  0  0  0  0  0  0  0  0  0  0  # atno 17343 bound_to 10162
  157.6523  130.8895  149.9659 LP  0  0  0  0  0  0  0  0  0  0  0  0  # atno 17370 bound_to 10713
  156.1065  130.3652  150.0124 LP  0  0  0  0  0  0  0  0  0  0  0  0  # atno 17371 bound_to 10713
  139.9469  134.7687  156.0542 LP  0  0  0  0  0  0  0  0  0  0  0  0  # atno 17394 bound_to 11000
  141.1187  133.6619  156.3159 LP  0  0  0  0  0  0  0  0  0  0  0  0  # atno 17395 bound_to 11000

$$$$
