AV-unprocessed.smi:87|AV-procd|sdf|823|dock3
  -GOLD-   2262017233D 1   1.00000     0.00000
 Structure written by MMmdl.
 58 60  0  0  0  0  0  0  0  0  1 V2000
  152.5183  143.0573  160.6281 C   0  0  0  0  0  0  0  0  0  0  0  0
  153.3617  141.8203  160.2860 C   0  0  0  0  0  0  0  0  0  0  0  0
  152.6566  140.7881  159.3730 C   0  0  0  0  0  0  0  0  0  0  0  0
  153.5369  139.5330  159.1643 C   0  0  0  0  0  0  0  0  0  0  0  0
  153.8484  138.7594  160.4544 C   0  0  0  0  0  0  0  0  0  0  0  0
  152.2795  141.4161  158.0064 C   0  0  0  0  0  0  0  0  0  0  0  0
  151.2881  140.6553  157.2375 N   0  0  0  0  0  0  0  0  0  0  0  0
  150.2050  141.3605  156.5467 C   0  0  0  0  0  0  0  0  0  0  0  0
  149.1433  140.4104  155.9769 C   0  0  0  0  0  0  0  0  0  0  0  0
  149.0915  140.4466  154.5082 C   0  0  0  0  0  0  0  0  0  0  0  0
  149.0510  140.4747  153.3523 N   0  0  0  0  0  0  0  0  0  0  0  0
  151.6440  139.4249  156.7790 C   0  0  0  0  0  0  0  0  0  0  0  0
  152.6912  139.3189  155.9168 N   0  0  0  0  0  0  0  0  0  0  0  0
  153.0842  138.1240  155.4681 C   0  0  0  0  0  0  0  0  0  0  0  0
  152.5760  136.9223  155.7430 N   0  0  0  0  0  0  0  0  0  0  0  0
  151.5131  137.0182  156.5910 C   0  0  0  0  0  0  0  0  0  0  0  0
  150.9855  138.2166  157.1528 C   0  0  0  0  0  0  0  0  0  0  0  0
  149.8963  137.9121  157.9622 N   0  0  0  0  0  0  0  0  0  0  0  0
  149.8025  136.6124  157.9028 C   0  0  0  0  0  0  0  0  0  0  0  0
  150.7222  135.9958  157.0859 N   0  0  0  0  0  0  0  0  0  0  0  0
  150.8486  134.5691  156.8419 C   0  0  0  0  0  0  0  0  0  0  0  0
  150.0109  134.0519  155.6486 C   0  0  1  0  0  0  0  0  0  0  0  0
  150.6946  134.4880  154.4910 O   0  0  0  0  0  0  0  0  0  0  0  0
  149.8780  132.5152  155.5430 C   0  0  1  0  0  0  0  0  0  0  0  0
  149.2883  131.9761  154.2359 C   0  0  0  0  0  0  0  0  0  0  0  0
  149.8956  130.5889  154.0924 C   0  0  0  0  0  0  0  0  0  0  0  0
  151.0227  130.5728  155.1243 C   0  0  0  0  0  0  0  0  0  0  0  0
  151.1729  131.9312  155.5060 O   0  0  0  0  0  0  0  0  0  0  0  0
  153.1181  143.7891  161.1693 H   0  0  0  0  0  0  0  0  0  0  0  0
  151.6655  142.8129  161.2600 H   0  0  0  0  0  0  0  0  0  0  0  0
  152.1445  143.5413  159.7254 H   0  0  0  0  0  0  0  0  0  0  0  0
  154.2616  142.1865  159.7964 H   0  0  0  0  0  0  0  0  0  0  0  0
  153.6977  141.3375  161.2043 H   0  0  0  0  0  0  0  0  0  0  0  0
  151.7450  140.4633  159.8754 H   0  0  0  0  0  0  0  0  0  0  0  0
  153.0687  138.8658  158.4396 H   0  0  0  0  0  0  0  0  0  0  0  0
  154.4939  139.8184  158.7311 H   0  0  0  0  0  0  0  0  0  0  0  0
  154.5522  137.9513  160.2545 H   0  0  0  0  0  0  0  0  0  0  0  0
  152.9576  138.3088  160.8901 H   0  0  0  0  0  0  0  0  0  0  0  0
  154.2991  139.4096  161.2049 H   0  0  0  0  0  0  0  0  0  0  0  0
  151.9560  142.4401  158.1799 H   0  0  0  0  0  0  0  0  0  0  0  0
  153.1587  141.5057  157.3715 H   0  0  0  0  0  0  0  0  0  0  0  0
  149.7445  142.0786  157.2259 H   0  0  0  0  0  0  0  0  0  0  0  0
  150.6171  141.9362  155.7168 H   0  0  0  0  0  0  0  0  0  0  0  0
  149.3490  139.3829  156.2777 H   0  0  0  0  0  0  0  0  0  0  0  0
  148.1494  140.6676  156.3430 H   0  0  0  0  0  0  0  0  0  0  0  0
  153.9273  138.1325  154.7929 H   0  0  0  0  0  0  0  0  0  0  0  0
  149.0455  136.0656  158.4461 H   0  0  0  0  0  0  0  0  0  0  0  0
  151.9074  134.3734  156.6648 H   0  0  0  0  0  0  0  0  0  0  0  0
  150.5847  134.0291  157.7523 H   0  0  0  0  0  0  0  0  0  0  0  0
  149.0227  134.5123  155.6527 H   0  0  0  0  0  0  0  0  0  0  0  0
  150.0614  134.6313  153.8046 H   0  0  0  0  0  0  0  0  0  0  0  0
  149.3195  132.1136  156.3911 H   0  0  0  0  0  0  0  0  0  0  0  0
  148.1992  131.9475  154.2490 H   0  0  0  0  0  0  0  0  0  0  0  0
  149.6030  132.5945  153.3942 H   0  0  0  0  0  0  0  0  0  0  0  0
  149.1679  129.8038  154.3003 H   0  0  0  0  0  0  0  0  0  0  0  0
  150.2751  130.4373  153.0813 H   0  0  0  0  0  0  0  0  0  0  0  0
  150.7382  129.9836  155.9973 H   0  0  0  0  0  0  0  0  0  0  0  0
  151.9531  130.1675  154.7266 H   0  0  0  0  0  0  0  0  0  0  0  0
  1  2  1  0  0  0  0
  1 29  1  0  0  0  0
  1 30  1  0  0  0  0
  1 31  1  0  0  0  0
  2  3  1  0  0  0  0
  2 32  1  0  0  0  0
  2 33  1  0  0  0  0
  3  4  1  0  0  0  0
  3  6  1  0  0  0  0
  3 34  1  0  0  0  0
  4  5  1  0  0  0  0
  4 35  1  0  0  0  0
  4 36  1  0  0  0  0
  5 37  1  0  0  0  0
  5 38  1  0  0  0  0
  5 39  1  0  0  0  0
  6  7  1  0  0  0  0
  6 40  1  0  0  0  0
  6 41  1  0  0  0  0
  7  8  1  0  0  0  0
  7 12  1  0  0  0  0
  8  9  1  0  0  0  0
  8 42  1  0  0  0  0
  8 43  1  0  0  0  0
  9 10  1  0  0  0  0
  9 44  1  0  0  0  0
  9 45  1  0  0  0  0
 10 11  3  0  0  0  0
 12 17  1  0  0  0  0
 12 13  2  0  0  0  0
 13 14  1  0  0  0  0
 14 15  2  0  0  0  0
 14 46  1  0  0  0  0
 15 16  1  0  0  0  0
 16 20  1  0  0  0  0
 16 17  2  0  0  0  0
 17 18  1  0  0  0  0
 18 19  2  0  0  0  0
 19 20  1  0  0  0  0
 19 47  1  0  0  0  0
 20 21  1  0  0  0  0
 21 22  1  0  0  0  0
 21 48  1  0  0  0  0
 21 49  1  0  0  0  0
 22 23  1  0  0  0  0
 22 24  1  0  0  0  0
 22 50  1  0  0  0  0
 23 51  1  0  0  0  0
 24 28  1  0  0  0  0
 24 25  1  0  0  0  0
 24 52  1  0  0  0  0
 25 26  1  0  0  0  0
 25 53  1  0  0  0  0
 25 54  1  0  0  0  0
 26 27  1  0  0  0  0
 26 55  1  0  0  0  0
 26 56  1  0  0  0  0
 27 28  1  0  0  0  0
 27 57  1  0  0  0  0
 27 58  1  0  0  0  0
M  END
> <s_m_source_file>
AV-unprocessed.smi

> <i_m_source_file_index>
87

> <i_lp_mmshare_version>
43012

> <i_f3d_flags>
0

> <s_epik_input>
W0NIM11bQ0gyXVtDSF0oW0NIMl1bQ0gzXSlbQ0gyXU4oW0NIMl1bQ0gyXUMjTiljKG5bY0hdbjEpYyhjMTIpbltjSF1uMltDSDJdW0NASF0oW09IXSlbQ0BASF0zW0NIMl1bQ0gyXVtDSDJdTzM=

> <s_epik_cmdline>
J2VwaWtfcHl0aG9uJywgJy1waCcsICc3LjAnLCAnLXRuJywgJzgnLCAnLW1hJywgJzIwMCcsICctbWV0YWxfYmluZGluZycsICctaW1hZScsICc8aW5maWxlLm1hZT4nLCAnLW9tYWUnLCAnPG91dGZpbGUubWFlPic=

> <r_lp_tautomer_probability>
1

> <r_epik_Ionization_Penalty>
0.000348566

> <r_epik_Ionization_Penalty_Charging>
0

> <r_epik_Ionization_Penalty_Neutral>
0.000348566

> <r_epik_State_Penalty>
-0

> <r_epik_Charging_Adjusted_Penalty>
0

> <i_epik_Tot_Q>
0

> <i_epik_Tot_abs_Q>
0

> <r_epik_Metal_State_Penalty>
-0

> <b_epik_Metal_Only>
0

> <s_lp_Force_Field>
OPLS_2005

> <r_lp_Energy>
38.5026

> <b_lp_Chiralities_Consistent>
1

> <s_lp_Variant>
AV-unprocessed.smi:87-4

> <Gold.Version>
5.8.1

> <Gold.Id.Protein>
6NUR|6NUR_protein|mol2

> <Gold.PLP.Fitness>
51.8091

> <Gold.PLP.PLP>
-44.8206

> <Gold.PLP.part.hbond>
-5.8007

> <Gold.PLP.part.metal>
0.0000

> <Gold.PLP.part.buried>
-6.6231

> <Gold.PLP.part.nonpolar>
-33.9578

> <Gold.PLP.part.repulsive>
1.7961

> <Gold.PLP.ligand.clash>
0.0000

> <Gold.PLP.ligand.torsion>
2.6827

> <Gold.PLP.Chemscore.Hbond>
3.6322

> <Gold.PLP.Chemscore.CHOScore>
0.0000

> <Gold.PLP.Chemscore.Metal>
0.0000

> <Gold.Chemscore.Hbonds>
donor molecule, donor type, donor heavy atom, donor atom, acceptor molecule, acceptor atom, score
      P1  H  7997  8008       L1    13  1.00
      P1  H  8011  8017       L1    11  0.29
      P1  H 10752 10764       L1    15  0.69

> <Gold.PLP.Chemscore.Internal.Correction>
1.4575

> <Gold.Rescore>
     Score         DG    S(hbond)    S(metal)    S(lipo)     H(rot)  DE(clash)    DE(int)     intcor
     11.03     -15.52       2.22        0.00      96.21       3.37       1.77       2.71       ----

> <Gold.Chemscore.Fitness>
11.0337

> <Gold.Chemscore.DG>
-15.5172

> <Gold.Chemscore.ZeroCoef>
-5.4800

> <Gold.Chemscore.Hbond>
2.2158

> <Gold.Chemscore.Metal>
0.0000

> <Gold.Chemscore.Lipo>
96.2104

> <Gold.Chemscore.Internal_Hbond>
0.0000

> <Gold.Chemscore.DEClash>
1.7700

> <Gold.Chemscore.DEInternal>
2.7136

> <Gold.Chemscore.Rot>
3.3672

> <Gold.Chemscore.Internal.Correction>
   9.000000E+99

> <Gold.Chemscore.Hbonds>
donor molecule, donor type, donor heavy atom, donor atom, acceptor molecule, acceptor atom, score
      P1  H  7997  8008       L1    13  0.31
      P1  H  8011  8017       L1    11  0.29
      P1  H 10752 10764       L1    15  0.66

> <Gold.Chemscore.Hbond.Weighted>
-7.4007

> <Gold.Chemscore.Metal.Weighted>
-0.0000

> <Gold.Chemscore.Lipo.Weighted>
-11.2566

> <Gold.Chemscore.Internal_Hbond.Weighted>
0.0000

> <Gold.Chemscore.DEClash.Weighted>
1.7700

> <Gold.Chemscore.DEInternal.Weighted>
2.7136

> <Gold.Chemscore.Rot.Weighted>
8.6201

> <Gold.Chemscore.Internal.Correction.Weighted>
   9.000000E+99

> <Gold.Protein.RotatedTorsions>
[ 6907 6896 6895 6894 ] final  -59.15 input  -60.11 | X-H torsion
[ 7974 7965 7964 7962 ] final -125.65 input  175.53 | X-H torsion
[ 8008 7997 7996 7995 ] final  -55.10 input   59.86 | X-H torsion
[ 10167 10162 10161 10158 ] final  -57.68 input  -65.29 | X-H torsion
[ 10718 10713 10712 10709 ] final  105.49 input   66.30 | X-H torsion
[ 10763 10752 10751 10750 ] final  -52.05 input  -60.55 | X-H torsion
[ 11005 11000 10999 10996 ] final   30.77 input  -57.11 | X-H torsion

> <Gold.Protein.ActiveResidues>
 VAL166  LYS551  ARG553  GLY616  TRP617  ASP618  TYR619  PRO620  LYS621  CYS622 
 ASP623  PHE694  ASN695  SER759  ASP760  ASP761  ALA762  ILE779  LEU786  VAL792 
 PHE793  MET794  SER795  GLU796  ALA797  LYS798  CYS799  TRP800  GLU811  SER814 

> <Gold.Protein.RotatedAtoms>
  150.7952  134.7006  159.6547 H   0  0  0  0  0  0  0  0  0  0  0  0  # atno 6907 bound_to 6896
  152.4063  134.6198  160.0057 H   0  0  0  0  0  0  0  0  0  0  0  0  # atno 6908 bound_to 6896
  151.6454  133.3287  159.3176 H   0  0  0  0  0  0  0  0  0  0  0  0  # atno 6909 bound_to 6896
  144.9954  140.7771  143.4529 H   0  0  0  0  0  0  0  0  0  0  0  0  # atno 7974 bound_to 7965
  154.4184  140.1161  156.5421 H   0  0  0  0  0  0  0  0  0  0  0  0  # atno 8008 bound_to 7997
  155.6497  140.3496  155.4724 H   0  0  0  0  0  0  0  0  0  0  0  0  # atno 8009 bound_to 7997
  155.9803  140.1159  157.0722 H   0  0  0  0  0  0  0  0  0  0  0  0  # atno 8010 bound_to 7997
  140.6243  143.2432  151.5402 H   0  0  0  0  0  0  0  0  0  0  0  0  # atno 10167 bound_to 10162
  157.6703  131.0829  150.5864 H   0  0  0  0  0  0  0  0  0  0  0  0  # atno 10718 bound_to 10713
  154.1365  135.6512  153.4933 H   0  0  0  0  0  0  0  0  0  0  0  0  # atno 10763 bound_to 10752
  153.0179  135.5305  154.6948 H   0  0  0  0  0  0  0  0  0  0  0  0  # atno 10764 bound_to 10752
  154.6198  135.2963  155.0310 H   0  0  0  0  0  0  0  0  0  0  0  0  # atno 10765 bound_to 10752
  140.2908  134.2866  155.7776 H   0  0  0  0  0  0  0  0  0  0  0  0  # atno 11005 bound_to 11000
  145.2228  139.2151  143.5084 LP  0  0  0  0  0  0  0  0  0  0  0  0  # atno 17320 bound_to 7965
  146.3440  140.2089  142.8590 LP  0  0  0  0  0  0  0  0  0  0  0  0  # atno 17321 bound_to 7965
  139.5466  144.2505  152.1454 LP  0  0  0  0  0  0  0  0  0  0  0  0  # atno 17342 bound_to 10162
  140.1732  144.4915  150.6568 LP  0  0  0  0  0  0  0  0  0  0  0  0  # atno 17343 bound_to 10162
  156.6165  130.4394  149.5839 LP  0  0  0  0  0  0  0  0  0  0  0  0  # atno 17370 bound_to 10713
  156.2389  130.6839  151.1537 LP  0  0  0  0  0  0  0  0  0  0  0  0  # atno 17371 bound_to 10713
  141.2146  133.7584  156.9622 LP  0  0  0  0  0  0  0  0  0  0  0  0  # atno 17394 bound_to 11000
  140.1197  134.9425  157.2185 LP  0  0  0  0  0  0  0  0  0  0  0  0  # atno 17395 bound_to 11000

$$$$
