AV-unprocessed.smi:2895|AV-procd|sdf|11132|dock9
  -GOLD-   2272016 03D 1   1.00000     0.00000
 Structure written by MMmdl.
 54 57  0  0  0  0  0  0  0  0  3 V2000
  147.1762  136.0178  154.6963 O   0  0  0  0  0  0  0  0  0  0  0  0
  148.0678  135.2346  155.0261 C   0  0  0  0  0  0  0  0  0  0  0  0
  149.2241  135.6607  155.5627 N   0  0  0  0  0  0  0  0  0  0  0  0
  149.5666  137.0540  155.8261 C   0  0  0  0  0  0  0  0  0  0  0  0
  149.7481  137.8559  154.5259 C   0  0  0  0  0  0  0  0  0  0  0  0
  149.6141  139.3499  154.7505 C   0  0  0  0  0  0  0  0  0  0  0  0
  148.5652  140.0718  154.1393 C   0  0  0  0  0  0  0  0  0  0  0  0
  148.4611  141.4596  154.3656 C   0  0  0  0  0  0  0  0  0  0  0  0
  149.3611  142.0811  155.1591 N   0  3  0  0  0  0  0  0  0  0  0  0
  150.3790  141.4283  155.7620 C   0  0  0  0  0  0  0  0  0  0  0  0
  150.5323  140.0393  155.5734 C   0  0  0  0  0  0  0  0  0  0  0  0
  147.9546  133.8868  154.9060 N   0  0  0  0  0  0  0  0  0  0  0  0
  149.0177  132.8961  155.1408 C   0  0  0  0  0  0  0  0  0  0  0  0
  149.4013  132.2271  153.8037 C   0  0  0  0  0  0  0  0  0  0  0  0
  148.2231  131.6325  153.1085 N   0  3  0  0  0  0  0  0  0  0  0  0
  147.8127  130.3064  153.6628 C   0  0  2  0  0  0  0  0  0  0  0  0
  148.7280  129.1327  153.2339 C   0  0  0  0  0  0  0  0  0  0  0  0
  147.7309  128.0743  152.7259 C   0  0  2  0  0  0  0  0  0  0  0  0
  147.2161  128.5026  151.3410 C   0  0  0  0  0  0  0  0  0  0  0  0
  146.3142  129.7032  151.6773 C   0  0  0  0  0  0  0  0  0  0  0  0
  146.4187  129.7963  153.2154 C   0  0  1  0  0  0  0  0  0  0  0  0
  146.5097  128.3237  153.6020 C   0  0  0  0  0  0  0  0  0  0  0  0
  147.1134  132.6203  152.9837 C   0  0  0  0  0  0  0  0  0  0  0  0
  146.7560  133.2574  154.3401 C   0  0  0  0  0  0  0  0  0  0  0  0
  149.9083  134.9660  155.8251 H   0  0  0  0  0  0  0  0  0  0  0  0
  148.7999  137.5096  156.4553 H   0  0  0  0  0  0  0  0  0  0  0  0
  150.4915  137.0700  156.4035 H   0  0  0  0  0  0  0  0  0  0  0  0
  150.7243  137.6422  154.0884 H   0  0  0  0  0  0  0  0  0  0  0  0
  149.0077  137.5524  153.7847 H   0  0  0  0  0  0  0  0  0  0  0  0
  147.8481  139.5688  153.5065 H   0  0  0  0  0  0  0  0  0  0  0  0
  147.6912  142.0861  153.9395 H   0  0  0  0  0  0  0  0  0  0  0  0
  151.0347  142.0324  156.3721 H   0  0  0  0  0  0  0  0  0  0  0  0
  151.3444  139.5136  156.0547 H   0  0  0  0  0  0  0  0  0  0  0  0
  149.9154  133.3083  155.6006 H   0  0  0  0  0  0  0  0  0  0  0  0
  148.6535  132.1511  155.8490 H   0  0  0  0  0  0  0  0  0  0  0  0
  149.8344  132.9795  153.1433 H   0  0  0  0  0  0  0  0  0  0  0  0
  150.1866  131.4893  153.9648 H   0  0  0  0  0  0  0  0  0  0  0  0
  147.8122  130.3693  154.7518 H   0  0  0  0  0  0  0  0  0  0  0  0
  149.4422  129.4000  152.4541 H   0  0  0  0  0  0  0  0  0  0  0  0
  149.2945  128.7599  154.0883 H   0  0  0  0  0  0  0  0  0  0  0  0
  148.1191  127.0558  152.7514 H   0  0  0  0  0  0  0  0  0  0  0  0
  148.0243  128.7654  150.6576 H   0  0  0  0  0  0  0  0  0  0  0  0
  146.6346  127.7037  150.8789 H   0  0  0  0  0  0  0  0  0  0  0  0
  146.6317  130.6153  151.1719 H   0  0  0  0  0  0  0  0  0  0  0  0
  145.2863  129.5010  151.3738 H   0  0  0  0  0  0  0  0  0  0  0  0
  145.5837  130.3192  153.6824 H   0  0  0  0  0  0  0  0  0  0  0  0
  145.6358  127.7419  153.3025 H   0  0  0  0  0  0  0  0  0  0  0  0
  146.6988  128.1620  154.6648 H   0  0  0  0  0  0  0  0  0  0  0  0
  147.4422  133.4052  152.3010 H   0  0  0  0  0  0  0  0  0  0  0  0
  146.2311  132.1859  152.5167 H   0  0  0  0  0  0  0  0  0  0  0  0
  146.3842  132.5018  155.0332 H   0  0  0  0  0  0  0  0  0  0  0  0
  145.9317  133.9591  154.2060 H   0  0  0  0  0  0  0  0  0  0  0  0
  148.5223  131.4335  152.1644 H   0  0  0  0  0  0  0  0  0  0  0  0
  149.2680  143.0860  155.3095 H   0  0  0  0  0  0  0  0  0  0  0  0
  1  2  2  0  0  0  0
  2  3  1  0  0  0  0
  2 12  1  0  0  0  0
  3  4  1  0  0  0  0
  3 25  1  0  0  0  0
  4  5  1  0  0  0  0
  4 26  1  0  0  0  0
  4 27  1  0  0  0  0
  5  6  1  0  0  0  0
  5 28  1  0  0  0  0
  5 29  1  0  0  0  0
  6 11  1  0  0  0  0
  6  7  2  0  0  0  0
  7  8  1  0  0  0  0
  7 30  1  0  0  0  0
  8  9  2  0  0  0  0
  8 31  1  0  0  0  0
  9 10  1  0  0  0  0
  9 54  1  0  0  0  0
 10 11  2  0  0  0  0
 10 32  1  0  0  0  0
 11 33  1  0  0  0  0
 12 24  1  0  0  0  0
 12 13  1  0  0  0  0
 13 14  1  0  0  0  0
 13 34  1  0  0  0  0
 13 35  1  0  0  0  0
 14 15  1  0  0  0  0
 14 36  1  0  0  0  0
 14 37  1  0  0  0  0
 15 16  1  0  0  0  0
 15 23  1  0  0  0  0
 15 53  1  0  0  0  0
 16 21  1  0  0  0  0
 16 17  1  0  0  0  0
 16 38  1  0  0  0  0
 17 18  1  0  0  0  0
 17 39  1  0  0  0  0
 17 40  1  0  0  0  0
 18 22  1  0  0  0  0
 18 19  1  0  0  0  0
 18 41  1  0  0  0  0
 19 20  1  0  0  0  0
 19 42  1  0  0  0  0
 19 43  1  0  0  0  0
 20 21  1  0  0  0  0
 20 44  1  0  0  0  0
 20 45  1  0  0  0  0
 21 22  1  0  0  0  0
 21 46  1  0  0  0  0
 22 47  1  0  0  0  0
 22 48  1  0  0  0  0
 23 24  1  0  0  0  0
 23 49  1  0  0  0  0
 23 50  1  0  0  0  0
 24 51  1  0  0  0  0
 24 52  1  0  0  0  0
M  CHG  1   9   1
M  CHG  1  15   1
M  END
> <s_m_source_file>
AV-unprocessed.smi

> <i_m_source_file_index>
2895

> <i_lp_mmshare_version>
43012

> <i_f3d_flags>
0

> <s_epik_input>
W0NIMl0xW0NIMl1bQ0BASF0oW0NIMl0yKVtDQEBIXShbQ0gyXVtDQEhdMTIpTihbQ0gyXVtDSDJdMylbQ0gyXVtDSDJdTjNDKD1PKVtOSF1bQ0gyXVtDSDJdYzRbY0hdW2NIXW5bY0hdW2NIXTQ=

> <s_epik_cmdline>
J2VwaWtfcHl0aG9uJywgJy1waCcsICc3LjAnLCAnLXRuJywgJzgnLCAnLW1hJywgJzIwMCcsICctbWV0YWxfYmluZGluZycsICctaW1hZScsICc8aW5maWxlLm1hZT4nLCAnLW9tYWUnLCAnPG91dGZpbGUubWFlPic=

> <r_epik_Ionization_Penalty>
1.44916

> <r_epik_Ionization_Penalty_Charging>
1.44913

> <r_epik_Ionization_Penalty_Neutral>
2.64641e-05

> <r_epik_State_Penalty>
1.53218

> <r_epik_Charging_Adjusted_Penalty>
2.98131

> <i_epik_Tot_Q>
2

> <i_epik_Tot_abs_Q>
2

> <r_epik_Metal_State_Penalty>
1.58241

> <b_epik_Metal_Only>
0

> <s_lp_Force_Field>
OPLS_2005

> <r_lp_Energy>
107.451

> <b_lp_Chiralities_Consistent>
1

> <s_lp_Variant>
AV-unprocessed.smi:2895-5

> <Gold.Version>
5.8.1

> <Gold.Id.Protein>
6NUR|6NUR_protein|mol2

> <Gold.PLP.Fitness>
46.9932

> <Gold.PLP.PLP>
-38.9635

> <Gold.PLP.part.hbond>
-2.0000

> <Gold.PLP.part.metal>
0.0000

> <Gold.PLP.part.buried>
-2.1480

> <Gold.PLP.part.nonpolar>
-34.0695

> <Gold.PLP.part.repulsive>
0.3151

> <Gold.PLP.ligand.clash>
0.0000

> <Gold.PLP.ligand.torsion>
0.5276

> <Gold.PLP.Chemscore.Hbond>
3.0000

> <Gold.PLP.Chemscore.CHOScore>
0.0000

> <Gold.PLP.Chemscore.Metal>
0.0000

> <Gold.Chemscore.Hbonds>
donor molecule, donor type, donor heavy atom, donor atom, acceptor molecule, acceptor atom, score
      L1  H     9    54       P1  8028  2.00
      L1  H    15    53       P1 10747  1.00

> <Gold.PLP.Chemscore.Internal.Correction>
0.0849

> <Gold.Rescore>
     Score         DG    S(hbond)    S(metal)    S(lipo)     H(rot)  DE(clash)    DE(int)     intcor
     21.36     -22.29       1.97        0.00     119.24       1.46       0.36       0.58       ----

> <Gold.Chemscore.Fitness>
21.3580

> <Gold.Chemscore.DG>
-22.2928

> <Gold.Chemscore.ZeroCoef>
-5.4800

> <Gold.Chemscore.Hbond>
1.9739

> <Gold.Chemscore.Metal>
0.0000

> <Gold.Chemscore.Lipo>
119.2354

> <Gold.Chemscore.Internal_Hbond>
0.0000

> <Gold.Chemscore.DEClash>
0.3566

> <Gold.Chemscore.DEInternal>
0.5782

> <Gold.Chemscore.Rot>
1.4572

> <Gold.Chemscore.Internal.Correction>
   9.000000E+99

> <Gold.Chemscore.Hbonds>
donor molecule, donor type, donor heavy atom, donor atom, acceptor molecule, acceptor atom, score
      L1  H     9    54       P1  8028  1.00
      L1  H    15    53       P1 10747  0.94

> <Gold.Chemscore.Hbond.Weighted>
-6.5928

> <Gold.Chemscore.Metal.Weighted>
-0.0000

> <Gold.Chemscore.Lipo.Weighted>
-13.9505

> <Gold.Chemscore.Internal_Hbond.Weighted>
0.0000

> <Gold.Chemscore.DEClash.Weighted>
0.3566

> <Gold.Chemscore.DEInternal.Weighted>
0.5782

> <Gold.Chemscore.Rot.Weighted>
3.7305

> <Gold.Chemscore.Internal.Correction.Weighted>
   9.000000E+99

> <Gold.Protein.RotatedTorsions>
[ 6907 6896 6895 6894 ] final  103.65 input  -60.11 | X-H torsion
[ 7974 7965 7964 7962 ] final  -62.08 input  175.53 | X-H torsion
[ 8008 7997 7996 7995 ] final   35.51 input   59.86 | X-H torsion
[ 10167 10162 10161 10158 ] final -124.79 input  -65.29 | X-H torsion
[ 10718 10713 10712 10709 ] final  122.67 input   66.30 | X-H torsion
[ 10763 10752 10751 10750 ] final  -93.05 input  -60.55 | X-H torsion
[ 11005 11000 10999 10996 ] final   96.96 input  -57.11 | X-H torsion

> <Gold.Protein.ActiveResidues>
 VAL166  LYS551  ARG553  GLY616  TRP617  ASP618  TYR619  PRO620  LYS621  CYS622 
 ASP623  PHE694  ASN695  SER759  ASP760  ASP761  ALA762  ILE779  LEU786  VAL792 
 PHE793  MET794  SER795  GLU796  ALA797  LYS798  CYS799  TRP800  GLU811  SER814 

> <Gold.Protein.RotatedAtoms>
  152.5289  133.9794  159.7799 H   0  0  0  0  0  0  0  0  0  0  0  0  # atno 6907 bound_to 6896
  151.0051  133.6011  159.2697 H   0  0  0  0  0  0  0  0  0  0  0  0  # atno 6908 bound_to 6896
  151.3106  135.0799  159.9324 H   0  0  0  0  0  0  0  0  0  0  0  0  # atno 6909 bound_to 6896
  145.7956  140.8684  143.0258 H   0  0  0  0  0  0  0  0  0  0  0  0  # atno 7974 bound_to 7965
  155.1722  140.3293  155.4390 H   0  0  0  0  0  0  0  0  0  0  0  0  # atno 8008 bound_to 7997
  156.2506  140.1941  156.6775 H   0  0  0  0  0  0  0  0  0  0  0  0  # atno 8009 bound_to 7997
  154.6329  140.0580  156.9740 H   0  0  0  0  0  0  0  0  0  0  0  0  # atno 8010 bound_to 7997
  139.9890  143.5661  152.2349 H   0  0  0  0  0  0  0  0  0  0  0  0  # atno 10167 bound_to 10162
  157.5724  131.1082  150.8342 H   0  0  0  0  0  0  0  0  0  0  0  0  # atno 10718 bound_to 10713
  154.6921  135.5209  153.8407 H   0  0  0  0  0  0  0  0  0  0  0  0  # atno 10763 bound_to 10752
  153.0640  135.6578  154.0407 H   0  0  0  0  0  0  0  0  0  0  0  0  # atno 10764 bound_to 10752
  154.0279  135.2988  155.3352 H   0  0  0  0  0  0  0  0  0  0  0  0  # atno 10765 bound_to 10752
  139.8778  134.8977  156.4237 H   0  0  0  0  0  0  0  0  0  0  0  0  # atno 11005 bound_to 11000
  144.6775  140.0186  143.7484 LP  0  0  0  0  0  0  0  0  0  0  0  0  # atno 17320 bound_to 7965
  145.9931  139.3031  143.0973 LP  0  0  0  0  0  0  0  0  0  0  0  0  # atno 17321 bound_to 7965
  139.6353  144.7649  151.2450 LP  0  0  0  0  0  0  0  0  0  0  0  0  # atno 17342 bound_to 10162
  140.7461  143.6408  150.8336 LP  0  0  0  0  0  0  0  0  0  0  0  0  # atno 17343 bound_to 10162
  156.8810  130.5179  149.5291 LP  0  0  0  0  0  0  0  0  0  0  0  0  # atno 17370 bound_to 10713
  156.0769  130.5789  150.9491 LP  0  0  0  0  0  0  0  0  0  0  0  0  # atno 17371 bound_to 10713
  140.9116  133.7708  155.9798 LP  0  0  0  0  0  0  0  0  0  0  0  0  # atno 17394 bound_to 11000
  140.8540  134.2920  157.5263 LP  0  0  0  0  0  0  0  0  0  0  0  0  # atno 17395 bound_to 11000

$$$$
