AV-unprocessed.smi:2567|AV-procd|sdf|10076|dock9
  -GOLD-   2272014103D 1   1.00000     0.00000
 Structure written by MMmdl.
 34 35  0  0  0  0  0  0  0  0  2 V2000
  150.2983  143.7648  159.2317 C   0  0  0  0  0  0  0  0  0  0  0  0
  151.5849  143.3935  158.4686 C   0  0  0  0  0  0  0  0  0  0  0  0
  152.2334  144.6666  157.8919 C   0  0  0  0  0  0  0  0  0  0  0  0
  152.5719  142.7625  159.4761 C   0  0  0  0  0  0  0  0  0  0  0  0
  151.2510  142.4424  157.3438 C   0  0  0  0  0  0  0  0  0  0  0  0
  150.2755  142.6616  156.4549 N   0  0  0  0  0  0  0  0  0  0  0  0
  150.2069  141.6284  155.5898 N   0  0  0  0  0  0  0  0  0  0  0  0
  151.1868  140.8388  156.0239 C   0  0  0  0  0  0  0  0  0  0  0  0
  151.4541  139.5182  155.3720 C   0  0  2  0  0  0  0  0  0  0  0  0
  150.4330  139.2002  154.2632 C   0  0  0  0  0  0  0  0  0  0  0  0
  150.6799  137.8474  153.7271 N   0  3  0  0  0  0  0  0  0  0  0  0
  150.6772  136.8327  154.7996 C   0  0  0  0  0  0  0  0  0  0  0  0
  151.6783  137.2226  155.9017 C   0  0  0  0  0  0  0  0  0  0  0  0
  151.3731  138.5243  156.3918 O   0  0  0  0  0  0  0  0  0  0  0  0
  151.8619  141.2792  157.1288 N   0  0  0  0  0  0  0  0  0  0  0  0
  150.5079  144.4457  160.0575 H   0  0  0  0  0  0  0  0  0  0  0  0
  149.8159  142.8802  159.6493 H   0  0  0  0  0  0  0  0  0  0  0  0
  149.5743  144.2571  158.5814 H   0  0  0  0  0  0  0  0  0  0  0  0
  151.5625  145.1805  157.2024 H   0  0  0  0  0  0  0  0  0  0  0  0
  153.1481  144.4324  157.3460 H   0  0  0  0  0  0  0  0  0  0  0  0
  152.4930  145.3735  158.6806 H   0  0  0  0  0  0  0  0  0  0  0  0
  152.8021  143.4518  160.2894 H   0  0  0  0  0  0  0  0  0  0  0  0
  153.5176  142.4985  159.0009 H   0  0  0  0  0  0  0  0  0  0  0  0
  152.1613  141.8577  159.9264 H   0  0  0  0  0  0  0  0  0  0  0  0
  152.4656  139.5286  154.9608 H   0  0  0  0  0  0  0  0  0  0  0  0
  149.4162  139.2472  154.6560 H   0  0  0  0  0  0  0  0  0  0  0  0
  150.5008  139.9282  153.4544 H   0  0  0  0  0  0  0  0  0  0  0  0
  149.9690  137.6204  153.0463 H   0  0  0  0  0  0  0  0  0  0  0  0
  149.6720  136.7532  155.2153 H   0  0  0  0  0  0  0  0  0  0  0  0
  150.9292  135.8597  154.3777 H   0  0  0  0  0  0  0  0  0  0  0  0
  151.6243  136.5128  156.7272 H   0  0  0  0  0  0  0  0  0  0  0  0
  152.7021  137.1954  155.5253 H   0  0  0  0  0  0  0  0  0  0  0  0
  151.5835  137.8388  153.2757 H   0  0  0  0  0  0  0  0  0  0  0  0
  149.6592  143.4608  156.4089 H   0  0  0  0  0  0  0  0  0  0  0  0
  1  2  1  0  0  0  0
  1 16  1  0  0  0  0
  1 17  1  0  0  0  0
  1 18  1  0  0  0  0
  2  3  1  0  0  0  0
  2  4  1  0  0  0  0
  2  5  1  0  0  0  0
  3 19  1  0  0  0  0
  3 20  1  0  0  0  0
  3 21  1  0  0  0  0
  4 22  1  0  0  0  0
  4 23  1  0  0  0  0
  4 24  1  0  0  0  0
  5 15  2  0  0  0  0
  5  6  1  0  0  0  0
  6  7  1  0  0  0  0
  6 34  1  0  0  0  0
  7  8  2  0  0  0  0
  8  9  1  0  0  0  0
  8 15  1  0  0  0  0
  9 14  1  0  0  0  0
  9 10  1  0  0  0  0
  9 25  1  0  0  0  0
 10 11  1  0  0  0  0
 10 26  1  0  0  0  0
 10 27  1  0  0  0  0
 11 12  1  0  0  0  0
 11 28  1  0  0  0  0
 11 33  1  0  0  0  0
 12 13  1  0  0  0  0
 12 29  1  0  0  0  0
 12 30  1  0  0  0  0
 13 14  1  0  0  0  0
 13 31  1  0  0  0  0
 13 32  1  0  0  0  0
M  CHG  1  11   1
M  END
> <s_m_source_file>
AV-unprocessed.smi

> <i_m_source_file_index>
2567

> <i_lp_mmshare_version>
43012

> <i_f3d_flags>
0

> <s_epik_input>
W0NIM11DKFtDSDNdKShbQ0gzXSljMW5bbkhdYyhuMSlbQ0BASF0yW0NIMl1bTkhdW0NIMl1bQ0gyXU8y

> <s_epik_cmdline>
J2VwaWtfcHl0aG9uJywgJy1waCcsICc3LjAnLCAnLXRuJywgJzgnLCAnLW1hJywgJzIwMCcsICctbWV0YWxfYmluZGluZycsICctaW1hZScsICc8aW5maWxlLm1hZT4nLCAnLW9tYWUnLCAnPG91dGZpbGUubWFlPic=

> <r_lp_tautomer_probability>
0.948284

> <r_epik_Ionization_Penalty>
0.108767

> <r_epik_Ionization_Penalty_Charging>
0.100865

> <r_epik_Ionization_Penalty_Neutral>
0.00790271

> <r_epik_State_Penalty>
0.197684

> <r_epik_Charging_Adjusted_Penalty>
0.298549

> <i_epik_Tot_Q>
1

> <i_epik_Tot_abs_Q>
1

> <r_epik_Metal_State_Penalty>
0.508163

> <b_epik_Metal_Only>
0

> <s_lp_Force_Field>
OPLS_2005

> <r_lp_Energy>
13.5153

> <b_lp_Chiralities_Consistent>
1

> <s_lp_Variant>
AV-unprocessed.smi:2567-1

> <Gold.Version>
5.8.1

> <Gold.Id.Protein>
6NUR|6NUR_protein|mol2

> <Gold.PLP.Fitness>
38.9390

> <Gold.PLP.PLP>
-30.5636

> <Gold.PLP.part.hbond>
-3.0640

> <Gold.PLP.part.metal>
0.0000

> <Gold.PLP.part.buried>
-3.0405

> <Gold.PLP.part.nonpolar>
-24.5134

> <Gold.PLP.part.repulsive>
0.2684

> <Gold.PLP.ligand.clash>
0.0000

> <Gold.PLP.ligand.torsion>
0.3217

> <Gold.PLP.Chemscore.Hbond>
3.0000

> <Gold.PLP.Chemscore.CHOScore>
0.0000

> <Gold.PLP.Chemscore.Metal>
0.0000

> <Gold.Chemscore.Hbonds>
donor molecule, donor type, donor heavy atom, donor atom, acceptor molecule, acceptor atom, score
      L1  H     6    34       P1  8028  1.00
      L1  H    11    28       P1  7948  1.95

> <Gold.PLP.Chemscore.Internal.Correction>
0.0188

> <Gold.Rescore>
     Score         DG    S(hbond)    S(metal)    S(lipo)     H(rot)  DE(clash)    DE(int)     intcor
     16.06     -16.14       1.78        0.00      67.93       1.26       0.03       0.04       ----

> <Gold.Chemscore.Fitness>
16.0625

> <Gold.Chemscore.DG>
-16.1388

> <Gold.Chemscore.ZeroCoef>
-5.4800

> <Gold.Chemscore.Hbond>
1.7811

> <Gold.Chemscore.Metal>
0.0000

> <Gold.Chemscore.Lipo>
67.9274

> <Gold.Chemscore.Internal_Hbond>
0.0000

> <Gold.Chemscore.DEClash>
0.0323

> <Gold.Chemscore.DEInternal>
0.0441

> <Gold.Chemscore.Rot>
1.2647

> <Gold.Chemscore.Internal.Correction>
   9.000000E+99

> <Gold.Chemscore.Hbonds>
donor molecule, donor type, donor heavy atom, donor atom, acceptor molecule, acceptor atom, score
      L1  H     6    34       P1  8028  0.98
      L1  H    11    28       P1  7948  0.26

> <Gold.Chemscore.Hbond.Weighted>
-5.9488

> <Gold.Chemscore.Metal.Weighted>
-0.0000

> <Gold.Chemscore.Lipo.Weighted>
-7.9475

> <Gold.Chemscore.Internal_Hbond.Weighted>
0.0000

> <Gold.Chemscore.DEClash.Weighted>
0.0323

> <Gold.Chemscore.DEInternal.Weighted>
0.0441

> <Gold.Chemscore.Rot.Weighted>
3.2375

> <Gold.Chemscore.Internal.Correction.Weighted>
   9.000000E+99

> <Gold.Protein.RotatedTorsions>
[ 6907 6896 6895 6894 ] final   22.94 input  -60.11 | X-H torsion
[ 7974 7965 7964 7962 ] final   74.56 input  175.53 | X-H torsion
[ 8008 7997 7996 7995 ] final  -12.92 input   59.86 | X-H torsion
[ 10167 10162 10161 10158 ] final   56.44 input  -65.29 | X-H torsion
[ 10718 10713 10712 10709 ] final  -27.97 input   66.30 | X-H torsion
[ 10763 10752 10751 10750 ] final   31.62 input  -60.55 | X-H torsion
[ 11005 11000 10999 10996 ] final -117.15 input  -57.11 | X-H torsion

> <Gold.Protein.ActiveResidues>
 VAL166  LYS551  ARG553  GLY616  TRP617  ASP618  TYR619  PRO620  LYS621  CYS622 
 ASP623  PHE694  ASN695  SER759  ASP760  ASP761  ALA762  ILE779  LEU786  VAL792 
 PHE793  MET794  SER795  GLU796  ALA797  LYS798  CYS799  TRP800  GLU811  SER814 

> <Gold.Protein.RotatedAtoms>
  151.9348  135.0240  160.0531 H   0  0  0  0  0  0  0  0  0  0  0  0  # atno 6907 bound_to 6896
  152.2088  133.4890  159.5107 H   0  0  0  0  0  0  0  0  0  0  0  0  # atno 6908 bound_to 6896
  150.6971  134.1412  159.4148 H   0  0  0  0  0  0  0  0  0  0  0  0  # atno 6909 bound_to 6896
  145.7268  139.2668  143.1564 H   0  0  0  0  0  0  0  0  0  0  0  0  # atno 7974 bound_to 7965
  154.5336  140.2263  155.8762 H   0  0  0  0  0  0  0  0  0  0  0  0  # atno 8008 bound_to 7997
  156.1788  140.3105  155.9073 H   0  0  0  0  0  0  0  0  0  0  0  0  # atno 8009 bound_to 7997
  155.3401  140.0450  157.3035 H   0  0  0  0  0  0  0  0  0  0  0  0  # atno 8010 bound_to 7997
  140.2087  144.3912  150.6498 H   0  0  0  0  0  0  0  0  0  0  0  0  # atno 10167 bound_to 10162
  156.4313  130.4446  149.7115 H   0  0  0  0  0  0  0  0  0  0  0  0  # atno 10718 bound_to 10713
  153.0306  135.6434  154.1227 H   0  0  0  0  0  0  0  0  0  0  0  0  # atno 10763 bound_to 10752
  154.0950  135.2863  155.3265 H   0  0  0  0  0  0  0  0  0  0  0  0  # atno 10764 bound_to 10752
  154.6438  135.5450  153.7884 H   0  0  0  0  0  0  0  0  0  0  0  0  # atno 10765 bound_to 10752
  141.0374  133.9888  157.3049 H   0  0  0  0  0  0  0  0  0  0  0  0  # atno 11005 bound_to 11000
  146.0575  140.8006  142.9751 LP  0  0  0  0  0  0  0  0  0  0  0  0  # atno 17320 bound_to 7965
  144.6903  140.3146  143.7242 LP  0  0  0  0  0  0  0  0  0  0  0  0  # atno 17321 bound_to 7965
  140.6339  143.2192  151.6436 LP  0  0  0  0  0  0  0  0  0  0  0  0  # atno 17342 bound_to 10162
  139.5188  144.3272  152.0859 LP  0  0  0  0  0  0  0  0  0  0  0  0  # atno 17343 bound_to 10162
  156.4017  130.7678  151.2686 LP  0  0  0  0  0  0  0  0  0  0  0  0  # atno 17370 bound_to 10713
  157.7508  131.0238  150.3848 LP  0  0  0  0  0  0  0  0  0  0  0  0  # atno 17371 bound_to 10713
  139.9251  135.0201  156.8204 LP  0  0  0  0  0  0  0  0  0  0  0  0  # atno 17394 bound_to 11000
  140.6297  133.9917  155.7656 LP  0  0  0  0  0  0  0  0  0  0  0  0  # atno 17395 bound_to 11000

$$$$
