AV-unprocessed.smi:474|AV-procd|sdf|2665|dock8
  -GOLD-   2262023 83D 1   1.00000     0.00000
 Structure written by MMmdl.
 37 38  0  0  0  0  0  0  0  0  1 V2000
  146.8474  139.2024  152.4657 C   0  0  0  0  0  0  0  0  0  0  0  0
  147.7488  139.8769  153.4421 C   0  0  0  0  0  0  0  0  0  0  0  0
  147.9440  141.1873  153.7760 C   0  0  0  0  0  0  0  0  0  0  0  0
  148.9505  141.1138  154.7827 C   0  0  0  0  0  0  0  0  0  0  0  0
  149.5233  142.2077  155.4813 N   0  0  0  0  0  0  0  0  0  0  0  0
  150.6117  142.2190  156.2692 C   0  0  0  0  0  0  0  0  0  0  0  0
  151.3054  141.2394  156.5424 O   0  0  0  0  0  0  0  0  0  0  0  0
  150.8607  143.4522  156.7330 N   0  0  0  0  0  0  0  0  0  0  0  0
  151.9731  143.8121  157.6046 C   0  0  0  0  0  0  0  0  0  0  0  0
  151.4826  144.2354  159.0003 C   0  0  0  0  0  0  0  0  0  0  0  0
  152.1805  143.4843  160.1218 C   0  0  0  0  0  0  0  0  0  0  0  0
  153.0489  142.4837  159.8771 C   0  0  0  0  0  0  0  0  0  0  0  0
  153.7628  141.6898  160.9571 C   0  0  0  0  0  0  0  0  0  0  0  0
  153.1477  141.9081  162.3496 C   0  0  0  0  0  0  0  0  0  0  0  0
  152.8314  143.3894  162.5893 C   0  0  0  0  0  0  0  0  0  0  0  0
  151.8413  143.9273  161.5407 C   0  0  0  0  0  0  0  0  0  0  0  0
  149.3304  139.8742  155.0324 N   0  0  0  0  0  0  0  0  0  0  0  0
  148.5649  139.0738  154.1764 O   0  0  0  0  0  0  0  0  0  0  0  0
  146.0641  139.8805  152.1266 H   0  0  0  0  0  0  0  0  0  0  0  0
  146.3684  138.3328  152.9161 H   0  0  0  0  0  0  0  0  0  0  0  0
  147.4067  138.8673  151.5922 H   0  0  0  0  0  0  0  0  0  0  0  0
  147.4385  142.0449  153.3588 H   0  0  0  0  0  0  0  0  0  0  0  0
  149.0531  143.0919  155.3549 H   0  0  0  0  0  0  0  0  0  0  0  0
  150.2386  144.1988  156.4595 H   0  0  0  0  0  0  0  0  0  0  0  0
  152.6268  142.9433  157.6800 H   0  0  0  0  0  0  0  0  0  0  0  0
  152.5649  144.6082  157.1493 H   0  0  0  0  0  0  0  0  0  0  0  0
  151.6407  145.3064  159.1355 H   0  0  0  0  0  0  0  0  0  0  0  0
  150.4078  144.0721  159.0875 H   0  0  0  0  0  0  0  0  0  0  0  0
  153.2794  142.2093  158.8578 H   0  0  0  0  0  0  0  0  0  0  0  0
  153.7355  140.6299  160.7022 H   0  0  0  0  0  0  0  0  0  0  0  0
  154.8109  141.9898  160.9571 H   0  0  0  0  0  0  0  0  0  0  0  0
  152.2278  141.3283  162.4368 H   0  0  0  0  0  0  0  0  0  0  0  0
  153.8234  141.5331  163.1189 H   0  0  0  0  0  0  0  0  0  0  0  0
  152.4267  143.5342  163.5913 H   0  0  0  0  0  0  0  0  0  0  0  0
  153.7574  143.9645  162.5449 H   0  0  0  0  0  0  0  0  0  0  0  0
  151.8188  145.0166  161.5879 H   0  0  0  0  0  0  0  0  0  0  0  0
  150.8349  143.5795  161.7748 H   0  0  0  0  0  0  0  0  0  0  0  0
  1  2  1  0  0  0  0
  1 19  1  0  0  0  0
  1 20  1  0  0  0  0
  1 21  1  0  0  0  0
  2 18  1  0  0  0  0
  2  3  2  0  0  0  0
  3  4  1  0  0  0  0
  3 22  1  0  0  0  0
  4  5  1  0  0  0  0
  4 17  2  0  0  0  0
  5  6  1  0  0  0  0
  5 23  1  0  0  0  0
  6  7  2  0  0  0  0
  6  8  1  0  0  0  0
  8  9  1  0  0  0  0
  8 24  1  0  0  0  0
  9 10  1  0  0  0  0
  9 25  1  0  0  0  0
  9 26  1  0  0  0  0
 10 11  1  0  0  0  0
 10 27  1  0  0  0  0
 10 28  1  0  0  0  0
 11 16  1  0  0  0  0
 11 12  2  0  0  0  0
 12 13  1  0  0  0  0
 12 29  1  0  0  0  0
 13 14  1  0  0  0  0
 13 30  1  0  0  0  0
 13 31  1  0  0  0  0
 14 15  1  0  0  0  0
 14 32  1  0  0  0  0
 14 33  1  0  0  0  0
 15 16  1  0  0  0  0
 15 34  1  0  0  0  0
 15 35  1  0  0  0  0
 16 36  1  0  0  0  0
 16 37  1  0  0  0  0
 17 18  1  0  0  0  0
M  END
> <s_m_source_file>
AV-unprocessed.smi

> <i_m_source_file_index>
474

> <i_lp_mmshare_version>
43012

> <i_f3d_flags>
0

> <s_epik_input>
W0NIM11jMVtjSF1jKG5vMSlbTkhdQyg9TylbTkhdW0NIMl1bQ0gyXUMyPVtDSF1bQ0gyXVtDSDJdW0NIMl1bQ0gyXTI=

> <s_epik_cmdline>
J2VwaWtfcHl0aG9uJywgJy1waCcsICc3LjAnLCAnLXRuJywgJzgnLCAnLW1hJywgJzIwMCcsICctbWV0YWxfYmluZGluZycsICctaW1hZScsICc8aW5maWxlLm1hZT4nLCAnLW9tYWUnLCAnPG91dGZpbGUubWFlPic=

> <r_lp_tautomer_probability>
1

> <r_epik_Ionization_Penalty>
2.87157e-05

> <r_epik_Ionization_Penalty_Charging>
0

> <r_epik_Ionization_Penalty_Neutral>
2.87157e-05

> <r_epik_State_Penalty>
-0

> <r_epik_Charging_Adjusted_Penalty>
0

> <i_epik_Tot_Q>
0

> <i_epik_Tot_abs_Q>
0

> <r_epik_Metal_State_Penalty>
0.00793999

> <b_epik_Metal_Only>
0

> <s_lp_Force_Field>
OPLS_2005

> <r_lp_Energy>
6.67712

> <b_lp_Chiralities_Consistent>
1

> <s_lp_Variant>
AV-unprocessed.smi:474-1

> <Gold.Version>
5.8.1

> <Gold.Id.Protein>
6NUR|6NUR_protein|mol2

> <Gold.PLP.Fitness>
49.4855

> <Gold.PLP.PLP>
-44.3564

> <Gold.PLP.part.hbond>
-2.0000

> <Gold.PLP.part.metal>
0.0000

> <Gold.PLP.part.buried>
-2.9765

> <Gold.PLP.part.nonpolar>
-39.5720

> <Gold.PLP.part.repulsive>
0.4835

> <Gold.PLP.ligand.clash>
0.0000

> <Gold.PLP.ligand.torsion>
0.4429

> <Gold.PLP.Chemscore.Hbond>
2.0000

> <Gold.PLP.Chemscore.CHOScore>
0.0000

> <Gold.PLP.Chemscore.Metal>
0.0000

> <Gold.Chemscore.Hbonds>
donor molecule, donor type, donor heavy atom, donor atom, acceptor molecule, acceptor atom, score
      L1  H     5    23       P1  8028  1.00
      L1  H     8    24       P1  8028  1.00

> <Gold.PLP.Chemscore.Internal.Correction>
0.0150

> <Gold.Rescore>
     Score         DG    S(hbond)    S(metal)    S(lipo)     H(rot)  DE(clash)    DE(int)     intcor
     19.71     -21.56       1.93        0.00     114.64       1.48       0.07       1.79       ----

> <Gold.Chemscore.Fitness>
19.7050

> <Gold.Chemscore.DG>
-21.5603

> <Gold.Chemscore.ZeroCoef>
-5.4800

> <Gold.Chemscore.Hbond>
1.9343

> <Gold.Chemscore.Metal>
0.0000

> <Gold.Chemscore.Lipo>
114.6401

> <Gold.Chemscore.Internal_Hbond>
0.0000

> <Gold.Chemscore.DEClash>
0.0692

> <Gold.Chemscore.DEInternal>
1.7861

> <Gold.Chemscore.Rot>
1.4818

> <Gold.Chemscore.Internal.Correction>
   9.000000E+99

> <Gold.Chemscore.Hbonds>
donor molecule, donor type, donor heavy atom, donor atom, acceptor molecule, acceptor atom, score
      L1  H     5    23       P1  8028  0.97
      L1  H     8    24       P1  8028  0.96

> <Gold.Chemscore.Hbond.Weighted>
-6.4607

> <Gold.Chemscore.Metal.Weighted>
-0.0000

> <Gold.Chemscore.Lipo.Weighted>
-13.4129

> <Gold.Chemscore.Internal_Hbond.Weighted>
0.0000

> <Gold.Chemscore.DEClash.Weighted>
0.0692

> <Gold.Chemscore.DEInternal.Weighted>
1.7861

> <Gold.Chemscore.Rot.Weighted>
3.7933

> <Gold.Chemscore.Internal.Correction.Weighted>
   9.000000E+99

> <Gold.Protein.RotatedTorsions>
[ 6907 6896 6895 6894 ] final -143.36 input  -60.11 | X-H torsion
[ 7974 7965 7964 7962 ] final   27.41 input  175.53 | X-H torsion
[ 8008 7997 7996 7995 ] final   80.95 input   59.86 | X-H torsion
[ 10167 10162 10161 10158 ] final  161.97 input  -65.29 | X-H torsion
[ 10718 10713 10712 10709 ] final  135.58 input   66.30 | X-H torsion
[ 10763 10752 10751 10750 ] final   83.86 input  -60.55 | X-H torsion
[ 11005 11000 10999 10996 ] final -157.53 input  -57.11 | X-H torsion

> <Gold.Protein.ActiveResidues>
 VAL166  LYS551  ARG553  GLY616  TRP617  ASP618  TYR619  PRO620  LYS621  CYS622 
 ASP623  PHE694  ASN695  SER759  ASP760  ASP761  ALA762  ILE779  LEU786  VAL792 
 PHE793  MET794  SER795  GLU796  ALA797  LYS798  CYS799  TRP800  GLU811  SER814 

> <Gold.Protein.RotatedAtoms>
  151.0994  133.5255  159.2610 H   0  0  0  0  0  0  0  0  0  0  0  0  # atno 6907 bound_to 6896
  151.2092  135.0473  159.8914 H   0  0  0  0  0  0  0  0  0  0  0  0  # atno 6908 bound_to 6896
  152.5441  134.0812  159.8290 H   0  0  0  0  0  0  0  0  0  0  0  0  # atno 6909 bound_to 6896
  146.1786  139.7195  142.8917 H   0  0  0  0  0  0  0  0  0  0  0  0  # atno 7974 bound_to 7965
  155.8904  140.3439  155.5952 H   0  0  0  0  0  0  0  0  0  0  0  0  # atno 8008 bound_to 7997
  155.7617  140.0833  157.2171 H   0  0  0  0  0  0  0  0  0  0  0  0  # atno 8009 bound_to 7997
  154.4033  140.1534  156.2827 H   0  0  0  0  0  0  0  0  0  0  0  0  # atno 8010 bound_to 7997
  139.4855  144.4483  151.8863 H   0  0  0  0  0  0  0  0  0  0  0  0  # atno 10167 bound_to 10162
  157.4556  131.1069  150.9982 H   0  0  0  0  0  0  0  0  0  0  0  0  # atno 10718 bound_to 10713
  153.1329  135.4676  154.9376 H   0  0  0  0  0  0  0  0  0  0  0  0  # atno 10763 bound_to 10752
  154.7680  135.3150  154.8250 H   0  0  0  0  0  0  0  0  0  0  0  0  # atno 10764 bound_to 10752
  153.8788  135.6896  153.4822 H   0  0  0  0  0  0  0  0  0  0  0  0  # atno 10765 bound_to 10752
  140.6636  134.4323  157.5234 H   0  0  0  0  0  0  0  0  0  0  0  0  # atno 11005 bound_to 11000
  145.4142  141.0400  143.3000 LP  0  0  0  0  0  0  0  0  0  0  0  0  # atno 17320 bound_to 7965
  144.8276  139.5682  143.6958 LP  0  0  0  0  0  0  0  0  0  0  0  0  # atno 17321 bound_to 7965
  140.3939  144.2580  150.5897 LP  0  0  0  0  0  0  0  0  0  0  0  0  # atno 17342 bound_to 10162
  140.5121  143.2288  151.8520 LP  0  0  0  0  0  0  0  0  0  0  0  0  # atno 17343 bound_to 10162
  157.0797  130.5898  149.5418 LP  0  0  0  0  0  0  0  0  0  0  0  0  # atno 17370 bound_to 10713
  156.0006  130.5084  150.7647 LP  0  0  0  0  0  0  0  0  0  0  0  0  # atno 17371 bound_to 10713
  139.9004  134.8568  156.1918 LP  0  0  0  0  0  0  0  0  0  0  0  0  # atno 17394 bound_to 11000
  141.0446  133.6920  156.1660 LP  0  0  0  0  0  0  0  0  0  0  0  0  # atno 17395 bound_to 11000

$$$$
