AV-unprocessed.smi:2709|AV-procd|sdf|10461|dock5
  -GOLD-   2272014503D 1   1.00000     0.00000
 Structure written by MMmdl.
 40 42  0  0  0  0  0  0  0  0  1 V2000
  146.3903  133.1597  150.8121 C   0  0  0  0  0  0  0  0  0  0  0  0
  146.3011  134.3848  151.5235 O   0  0  0  0  0  0  0  0  0  0  0  0
  145.0308  135.0211  151.4114 C   0  0  1  0  0  0  0  0  0  0  0  0
  144.0131  134.1135  152.1106 C   0  0  0  0  0  0  0  0  0  0  0  0
  143.9998  134.5886  153.5591 C   0  0  0  0  0  0  0  0  0  0  0  0
  144.1278  136.1062  153.4462 C   0  0  0  0  0  0  0  0  0  0  0  0
  144.9707  136.3660  152.1831 C   0  0  1  0  0  0  0  0  0  0  0  0
  146.2948  136.8634  152.5561 N   0  0  0  0  0  0  0  0  0  0  0  0
  146.5462  137.9287  153.3288 C   0  0  0  0  0  0  0  0  0  0  0  0
  145.6686  138.6223  153.8404 O   0  0  0  0  0  0  0  0  0  0  0  0
  147.8695  138.1195  153.4632 N   0  0  0  0  0  0  0  0  0  0  0  0
  148.5606  139.1326  154.1818 C   0  0  0  0  0  0  0  0  0  0  0  0
  147.9645  140.2595  154.8011 C   0  0  0  0  0  0  0  0  0  0  0  0
  148.7021  141.1813  155.4575 N   0  0  0  0  0  0  0  0  0  0  0  0
  150.0240  140.9926  155.4864 C   0  0  0  0  0  0  0  0  0  0  0  0
  150.8322  141.9980  156.2465 C   0  0  0  0  0  0  0  0  0  0  0  0
  151.7057  141.5766  157.4108 C   0  0  0  0  0  0  0  0  0  0  0  0
  150.4575  142.3747  157.6653 C   0  0  0  0  0  0  0  0  0  0  0  0
  150.6936  139.9701  154.9481 N   0  0  0  0  0  0  0  0  0  0  0  0
  149.9642  139.0435  154.2910 C   0  0  0  0  0  0  0  0  0  0  0  0
  147.3993  132.7578  150.9018 H   0  0  0  0  0  0  0  0  0  0  0  0
  146.1731  133.2916  149.7519 H   0  0  0  0  0  0  0  0  0  0  0  0
  145.6982  132.4212  151.2186 H   0  0  0  0  0  0  0  0  0  0  0  0
  144.7499  135.1454  150.3636 H   0  0  0  0  0  0  0  0  0  0  0  0
  143.0260  134.2693  151.6732 H   0  0  0  0  0  0  0  0  0  0  0  0
  144.2502  133.0533  152.0145 H   0  0  0  0  0  0  0  0  0  0  0  0
  143.1024  134.2809  154.0964 H   0  0  0  0  0  0  0  0  0  0  0  0
  144.8633  134.1826  154.0878 H   0  0  0  0  0  0  0  0  0  0  0  0
  143.1359  136.5402  153.3122 H   0  0  0  0  0  0  0  0  0  0  0  0
  144.5492  136.5489  154.3499 H   0  0  0  0  0  0  0  0  0  0  0  0
  144.4429  137.0983  151.5696 H   0  0  0  0  0  0  0  0  0  0  0  0
  147.0831  136.3606  152.1753 H   0  0  0  0  0  0  0  0  0  0  0  0
  148.4596  137.4385  153.0079 H   0  0  0  0  0  0  0  0  0  0  0  0
  146.9042  140.4530  154.7793 H   0  0  0  0  0  0  0  0  0  0  0  0
  151.2020  142.7851  155.5920 H   0  0  0  0  0  0  0  0  0  0  0  0
  151.6968  140.5273  157.6995 H   0  0  0  0  0  0  0  0  0  0  0  0
  152.6609  142.0842  157.5285 H   0  0  0  0  0  0  0  0  0  0  0  0
  150.5774  143.4161  157.9567 H   0  0  0  0  0  0  0  0  0  0  0  0
  149.6182  141.8559  158.1243 H   0  0  0  0  0  0  0  0  0  0  0  0
  150.5089  138.2211  153.8506 H   0  0  0  0  0  0  0  0  0  0  0  0
  1  2  1  0  0  0  0
  1 21  1  0  0  0  0
  1 22  1  0  0  0  0
  1 23  1  0  0  0  0
  2  3  1  0  0  0  0
  3  7  1  0  0  0  0
  3  4  1  0  0  0  0
  3 24  1  0  0  0  0
  4  5  1  0  0  0  0
  4 25  1  0  0  0  0
  4 26  1  0  0  0  0
  5  6  1  0  0  0  0
  5 27  1  0  0  0  0
  5 28  1  0  0  0  0
  6  7  1  0  0  0  0
  6 29  1  0  0  0  0
  6 30  1  0  0  0  0
  7  8  1  0  0  0  0
  7 31  1  0  0  0  0
  8  9  1  0  0  0  0
  8 32  1  0  0  0  0
  9 10  2  0  0  0  0
  9 11  1  0  0  0  0
 11 12  1  0  0  0  0
 11 33  1  0  0  0  0
 12 20  1  0  0  0  0
 12 13  2  0  0  0  0
 13 14  1  0  0  0  0
 13 34  1  0  0  0  0
 14 15  2  0  0  0  0
 15 16  1  0  0  0  0
 15 19  1  0  0  0  0
 16 18  1  0  0  0  0
 16 17  1  0  0  0  0
 16 35  1  0  0  0  0
 17 18  1  0  0  0  0
 17 36  1  0  0  0  0
 17 37  1  0  0  0  0
 18 38  1  0  0  0  0
 18 39  1  0  0  0  0
 19 20  2  0  0  0  0
 20 40  1  0  0  0  0
M  END
> <s_m_source_file>
AV-unprocessed.smi

> <i_m_source_file_index>
2709

> <i_lp_mmshare_version>
43012

> <i_f3d_flags>
0

> <s_epik_input>
W0NIM11PW0NAQEhdMVtDSDJdW0NIMl1bQ0gyXVtDQEhdMVtOSF1DKD1PKVtOSF1jMltjSF1uYyhuW2NIXTIpW0NIXTNbQ0gyXVtDSDJdMw==

> <s_epik_cmdline>
J2VwaWtfcHl0aG9uJywgJy1waCcsICc3LjAnLCAnLXRuJywgJzgnLCAnLW1hJywgJzIwMCcsICctbWV0YWxfYmluZGluZycsICctaW1hZScsICc8aW5maWxlLm1hZT4nLCAnLW9tYWUnLCAnPG91dGZpbGUubWFlPic=

> <r_lp_tautomer_probability>
1

> <r_epik_Ionization_Penalty>
2.49969e-05

> <r_epik_Ionization_Penalty_Charging>
0

> <r_epik_Ionization_Penalty_Neutral>
2.49969e-05

> <r_epik_State_Penalty>
-0

> <r_epik_Charging_Adjusted_Penalty>
0

> <i_epik_Tot_Q>
0

> <i_epik_Tot_abs_Q>
0

> <r_epik_Metal_State_Penalty>
-0

> <b_epik_Metal_Only>
0

> <s_lp_Force_Field>
OPLS_2005

> <r_lp_Energy>
20.4457

> <b_lp_Chiralities_Consistent>
1

> <s_lp_Variant>
AV-unprocessed.smi:2709-2

> <Gold.Version>
5.8.1

> <Gold.Id.Protein>
6NUR|6NUR_protein|mol2

> <Gold.PLP.Fitness>
39.1148

> <Gold.PLP.PLP>
-30.2504

> <Gold.PLP.part.hbond>
-3.0869

> <Gold.PLP.part.metal>
0.0000

> <Gold.PLP.part.buried>
-4.4360

> <Gold.PLP.part.nonpolar>
-24.1093

> <Gold.PLP.part.repulsive>
1.9965

> <Gold.PLP.ligand.clash>
0.0000

> <Gold.PLP.ligand.torsion>
0.1301

> <Gold.PLP.Chemscore.Hbond>
3.0000

> <Gold.PLP.Chemscore.CHOScore>
0.0000

> <Gold.PLP.Chemscore.Metal>
0.0000

> <Gold.Chemscore.Hbonds>
donor molecule, donor type, donor heavy atom, donor atom, acceptor molecule, acceptor atom, score
      L1  H     8    32       P1  7948  1.00
      L1  H    11    33       P1  7948  1.00
      P1  H  7989  7998       L1    19  1.00

> <Gold.PLP.Chemscore.Internal.Correction>
0.1246

> <Gold.Rescore>
     Score         DG    S(hbond)    S(metal)    S(lipo)     H(rot)  DE(clash)    DE(int)     intcor
     13.71     -17.34       2.21        0.00      69.16       1.41       1.19       2.44       ----

> <Gold.Chemscore.Fitness>
13.7142

> <Gold.Chemscore.DG>
-17.3420

> <Gold.Chemscore.ZeroCoef>
-5.4800

> <Gold.Chemscore.Hbond>
2.2107

> <Gold.Chemscore.Metal>
0.0000

> <Gold.Chemscore.Lipo>
69.1580

> <Gold.Chemscore.Internal_Hbond>
0.0000

> <Gold.Chemscore.DEClash>
1.1920

> <Gold.Chemscore.DEInternal>
2.4359

> <Gold.Chemscore.Rot>
1.4114

> <Gold.Chemscore.Internal.Correction>
   9.000000E+99

> <Gold.Chemscore.Hbonds>
donor molecule, donor type, donor heavy atom, donor atom, acceptor molecule, acceptor atom, score
      L1  H     8    32       P1  7948  0.95
      L1  H    11    33       P1  7948  0.99
      P1  H  7989  7998       L1    19  0.10

> <Gold.Chemscore.Hbond.Weighted>
-7.3838

> <Gold.Chemscore.Metal.Weighted>
-0.0000

> <Gold.Chemscore.Lipo.Weighted>
-8.0915

> <Gold.Chemscore.Internal_Hbond.Weighted>
0.0000

> <Gold.Chemscore.DEClash.Weighted>
1.1920

> <Gold.Chemscore.DEInternal.Weighted>
2.4359

> <Gold.Chemscore.Rot.Weighted>
3.6133

> <Gold.Chemscore.Internal.Correction.Weighted>
   9.000000E+99

> <Gold.Protein.RotatedTorsions>
[ 6907 6896 6895 6894 ] final    1.86 input  -60.11 | X-H torsion
[ 7974 7965 7964 7962 ] final  -34.24 input  175.53 | X-H torsion
[ 8008 7997 7996 7995 ] final   36.45 input   59.86 | X-H torsion
[ 10167 10162 10161 10158 ] final  -56.28 input  -65.29 | X-H torsion
[ 10718 10713 10712 10709 ] final  102.29 input   66.30 | X-H torsion
[ 10763 10752 10751 10750 ] final  127.83 input  -60.55 | X-H torsion
[ 11005 11000 10999 10996 ] final   86.30 input  -57.11 | X-H torsion

> <Gold.Protein.ActiveResidues>
 VAL166  LYS551  ARG553  GLY616  TRP617  ASP618  TYR619  PRO620  LYS621  CYS622 
 ASP623  PHE694  ASN695  SER759  ASP760  ASP761  ALA762  ILE779  LEU786  VAL792 
 PHE793  MET794  SER795  GLU796  ALA797  LYS798  CYS799  TRP800  GLU811  SER814 

> <Gold.Protein.RotatedAtoms>
  151.5996  135.1048  160.0056 H   0  0  0  0  0  0  0  0  0  0  0  0  # atno 6907 bound_to 6896
  152.4265  133.7199  159.6538 H   0  0  0  0  0  0  0  0  0  0  0  0  # atno 6908 bound_to 6896
  150.8154  133.8275  159.3185 H   0  0  0  0  0  0  0  0  0  0  0  0  # atno 6909 bound_to 6896
  146.0845  140.6015  142.8893 H   0  0  0  0  0  0  0  0  0  0  0  0  # atno 7974 bound_to 7965
  155.1876  140.3305  155.4364 H   0  0  0  0  0  0  0  0  0  0  0  0  # atno 8008 bound_to 7997
  156.2454  140.1916  156.6921 H   0  0  0  0  0  0  0  0  0  0  0  0  # atno 8009 bound_to 7997
  154.6228  140.0593  156.9622 H   0  0  0  0  0  0  0  0  0  0  0  0  # atno 8010 bound_to 7997
  140.6326  143.2467  151.5201 H   0  0  0  0  0  0  0  0  0  0  0  0  # atno 10167 bound_to 10162
  157.6806  131.0749  150.5381 H   0  0  0  0  0  0  0  0  0  0  0  0  # atno 10718 bound_to 10713
  153.7158  135.3261  155.3256 H   0  0  0  0  0  0  0  0  0  0  0  0  # atno 10763 bound_to 10752
  154.8371  135.4487  154.1268 H   0  0  0  0  0  0  0  0  0  0  0  0  # atno 10764 bound_to 10752
  153.2374  135.6967  153.7900 H   0  0  0  0  0  0  0  0  0  0  0  0  # atno 10765 bound_to 10752
  139.8948  134.8346  156.2701 H   0  0  0  0  0  0  0  0  0  0  0  0  # atno 11005 bound_to 11000
  144.7316  140.4688  143.6933 LP  0  0  0  0  0  0  0  0  0  0  0  0  # atno 17320 bound_to 7965
  145.6155  139.1518  143.3052 LP  0  0  0  0  0  0  0  0  0  0  0  0  # atno 17321 bound_to 7965
  139.5539  144.2325  152.1579 LP  0  0  0  0  0  0  0  0  0  0  0  0  # atno 17342 bound_to 10162
  140.1573  144.5059  150.6653 LP  0  0  0  0  0  0  0  0  0  0  0  0  # atno 17343 bound_to 10162
  156.5689  130.4274  149.6028 LP  0  0  0  0  0  0  0  0  0  0  0  0  # atno 17370 bound_to 10713
  156.2757  130.7042  151.1853 LP  0  0  0  0  0  0  0  0  0  0  0  0  # atno 17371 bound_to 10713
  141.0106  133.7098  156.1106 LP  0  0  0  0  0  0  0  0  0  0  0  0  # atno 17394 bound_to 11000
  140.7372  134.4190  157.5559 LP  0  0  0  0  0  0  0  0  0  0  0  0  # atno 17395 bound_to 11000

$$$$
