AV-unprocessed.smi:944|AV-procd|sdf|4231|dock10
  -GOLD-   22720 2143D 1   1.00000     0.00000
 Structure written by MMmdl.
 28 28  0  0  0  0  0  0  0  0  1 V2000
  151.4494  140.9941  157.2852 C   0  0  0  0  0  0  0  0  0  0  0  0
  151.4939  142.3966  157.6688 N   0  0  0  0  0  0  0  0  0  0  0  0
  151.1393  142.8608  158.8754 C   0  0  0  0  0  0  0  0  0  0  0  0
  150.7479  142.1311  159.7881 O   0  0  0  0  0  0  0  0  0  0  0  0
  151.2640  144.3794  159.0830 C   0  0  2  0  0  0  0  0  0  0  0  0
  152.2408  144.6225  160.2455 C   0  0  0  0  0  0  0  0  0  0  0  0
  149.9735  144.9581  159.4518 N   0  0  0  0  0  0  0  0  0  0  0  0
  149.3701  144.8176  160.6433 C   0  0  0  0  0  0  0  0  0  0  0  0
  149.8455  144.1661  161.5730 O   0  0  0  0  0  0  0  0  0  0  0  0
  148.0235  145.5216  160.8119 C   0  0  0  0  0  0  0  0  0  0  0  0
  146.9456  144.5598  160.9527 N   0  0  0  0  0  0  0  0  0  0  0  0
  145.6357  144.7445  161.1285 C   0  0  0  0  0  0  0  0  0  0  0  0
  144.9444  143.6173  161.2250 N   0  0  0  0  0  0  0  0  0  0  0  0
  145.9608  142.7140  161.0903 C   0  0  0  0  0  0  0  0  0  0  0  0
  147.1804  143.2263  160.9251 N   0  0  0  0  0  0  0  0  0  0  0  0
  151.7885  140.8793  156.2558 H   0  0  0  0  0  0  0  0  0  0  0  0
  150.4327  140.6049  157.3548 H   0  0  0  0  0  0  0  0  0  0  0  0
  152.0969  140.3948  157.9267 H   0  0  0  0  0  0  0  0  0  0  0  0
  151.8075  143.0575  156.9726 H   0  0  0  0  0  0  0  0  0  0  0  0
  151.6443  144.8568  158.1775 H   0  0  0  0  0  0  0  0  0  0  0  0
  153.2285  144.2155  160.0253 H   0  0  0  0  0  0  0  0  0  0  0  0
  151.8916  144.1659  161.1730 H   0  0  0  0  0  0  0  0  0  0  0  0
  152.3652  145.6899  160.4312 H   0  0  0  0  0  0  0  0  0  0  0  0
  149.5092  145.5166  158.7501 H   0  0  0  0  0  0  0  0  0  0  0  0
  148.0424  146.1578  161.6977 H   0  0  0  0  0  0  0  0  0  0  0  0
  147.8285  146.1681  159.9547 H   0  0  0  0  0  0  0  0  0  0  0  0
  145.1806  145.7223  161.1900 H   0  0  0  0  0  0  0  0  0  0  0  0
  145.7971  141.6467  161.1154 H   0  0  0  0  0  0  0  0  0  0  0  0
  1  2  1  0  0  0  0
  1 16  1  0  0  0  0
  1 17  1  0  0  0  0
  1 18  1  0  0  0  0
  2  3  1  0  0  0  0
  2 19  1  0  0  0  0
  3  4  2  0  0  0  0
  3  5  1  0  0  0  0
  5  6  1  0  0  0  0
  5  7  1  0  0  0  0
  5 20  1  0  0  0  0
  6 21  1  0  0  0  0
  6 22  1  0  0  0  0
  6 23  1  0  0  0  0
  7  8  1  0  0  0  0
  7 24  1  0  0  0  0
  8  9  2  0  0  0  0
  8 10  1  0  0  0  0
 10 11  1  0  0  0  0
 10 25  1  0  0  0  0
 10 26  1  0  0  0  0
 11 15  1  0  0  0  0
 11 12  1  0  0  0  0
 12 13  2  0  0  0  0
 12 27  1  0  0  0  0
 13 14  1  0  0  0  0
 14 15  2  0  0  0  0
 14 28  1  0  0  0  0
M  END
> <s_m_source_file>
AV-unprocessed.smi

> <i_m_source_file_index>
944

> <i_lp_mmshare_version>
43012

> <i_f3d_flags>
0

> <s_epik_input>
W0NIM11bTkhdQyg9TylbQ0BIXShbQ0gzXSlbTkhdQyg9TylbQ0gyXW4xW2NIXW5bY0hdbjE=

> <s_epik_cmdline>
J2VwaWtfcHl0aG9uJywgJy1waCcsICc3LjAnLCAnLXRuJywgJzgnLCAnLW1hJywgJzIwMCcsICctbWV0YWxfYmluZGluZycsICctaW1hZScsICc8aW5maWxlLm1hZT4nLCAnLW9tYWUnLCAnPG91dGZpbGUubWFlPic=

> <r_lp_tautomer_probability>
1

> <r_epik_Ionization_Penalty>
7.54354e-06

> <r_epik_Ionization_Penalty_Charging>
0

> <r_epik_Ionization_Penalty_Neutral>
7.54354e-06

> <r_epik_State_Penalty>
-0

> <r_epik_Charging_Adjusted_Penalty>
0

> <i_epik_Tot_Q>
0

> <i_epik_Tot_abs_Q>
0

> <r_epik_Metal_State_Penalty>
-0

> <b_epik_Metal_Only>
0

> <s_lp_Force_Field>
OPLS_2005

> <r_lp_Energy>
4.44665

> <b_lp_Chiralities_Consistent>
1

> <s_lp_Variant>
AV-unprocessed.smi:944-1

> <Gold.Version>
5.8.1

> <Gold.Id.Protein>
6NUR|6NUR_protein|mol2

> <Gold.PLP.Fitness>
36.6267

> <Gold.PLP.PLP>
-31.4550

> <Gold.PLP.part.hbond>
-4.8507

> <Gold.PLP.part.metal>
0.0000

> <Gold.PLP.part.buried>
-4.9877

> <Gold.PLP.part.nonpolar>
-22.2552

> <Gold.PLP.part.repulsive>
0.6267

> <Gold.PLP.ligand.clash>
0.0000

> <Gold.PLP.ligand.torsion>
0.2154

> <Gold.PLP.Chemscore.Hbond>
1.8640

> <Gold.PLP.Chemscore.CHOScore>
0.0000

> <Gold.PLP.Chemscore.Metal>
0.0000

> <Gold.Chemscore.Hbonds>
donor molecule, donor type, donor heavy atom, donor atom, acceptor molecule, acceptor atom, score
      L1  H     7    24       P1  8029  0.54
      P1  H  6933  6944       L1    15  1.00

> <Gold.PLP.Chemscore.Internal.Correction>
0.0105

> <Gold.Rescore>
     Score         DG    S(hbond)    S(metal)    S(lipo)     H(rot)  DE(clash)    DE(int)     intcor
      5.47      -9.00       1.87        0.00      36.83       2.74       0.03       3.50       ----

> <Gold.Chemscore.Fitness>
5.4696

> <Gold.Chemscore.DG>
-8.9990

> <Gold.Chemscore.ZeroCoef>
-5.4800

> <Gold.Chemscore.Hbond>
1.8656

> <Gold.Chemscore.Metal>
0.0000

> <Gold.Chemscore.Lipo>
36.8270

> <Gold.Chemscore.Internal_Hbond>
0.0000

> <Gold.Chemscore.DEClash>
0.0335

> <Gold.Chemscore.DEInternal>
3.4959

> <Gold.Chemscore.Rot>
2.7426

> <Gold.Chemscore.Internal.Correction>
   9.000000E+99

> <Gold.Chemscore.Hbonds>
donor molecule, donor type, donor heavy atom, donor atom, acceptor molecule, acceptor atom, score
      L1  H     7    24       P1  8029  0.51
      P1  H  6933  6944       L1    15  0.95

> <Gold.Chemscore.Hbond.Weighted>
-6.2312

> <Gold.Chemscore.Metal.Weighted>
-0.0000

> <Gold.Chemscore.Lipo.Weighted>
-4.3088

> <Gold.Chemscore.Internal_Hbond.Weighted>
0.0000

> <Gold.Chemscore.DEClash.Weighted>
0.0335

> <Gold.Chemscore.DEInternal.Weighted>
3.4959

> <Gold.Chemscore.Rot.Weighted>
7.0210

> <Gold.Chemscore.Internal.Correction.Weighted>
   9.000000E+99

> <Gold.Protein.RotatedTorsions>
[ 6907 6896 6895 6894 ] final   37.88 input  -60.11 | X-H torsion
[ 7974 7965 7964 7962 ] final   38.47 input  175.53 | X-H torsion
[ 8008 7997 7996 7995 ] final -163.81 input   59.86 | X-H torsion
[ 10167 10162 10161 10158 ] final  141.89 input  -65.29 | X-H torsion
[ 10718 10713 10712 10709 ] final  138.47 input   66.30 | X-H torsion
[ 10763 10752 10751 10750 ] final -176.07 input  -60.55 | X-H torsion
[ 11005 11000 10999 10996 ] final  138.32 input  -57.11 | X-H torsion

> <Gold.Protein.ActiveResidues>
 VAL166  LYS551  ARG553  GLY616  TRP617  ASP618  TYR619  PRO620  LYS621  CYS622 
 ASP623  PHE694  ASN695  SER759  ASP760  ASP761  ALA762  ILE779  LEU786  VAL792 
 PHE793  MET794  SER795  GLU796  ALA797  LYS798  CYS799  TRP800  GLU811  SER814 

> <Gold.Protein.RotatedAtoms>
  152.1491  134.9002  160.0548 H   0  0  0  0  0  0  0  0  0  0  0  0  # atno 6907 bound_to 6896
  152.0041  133.3831  159.4202 H   0  0  0  0  0  0  0  0  0  0  0  0  # atno 6908 bound_to 6896
  150.6873  134.3724  159.5041 H   0  0  0  0  0  0  0  0  0  0  0  0  # atno 6909 bound_to 6896
  146.1059  139.5768  142.9384 H   0  0  0  0  0  0  0  0  0  0  0  0  # atno 7974 bound_to 7965
  155.8266  140.0927  157.1817 H   0  0  0  0  0  0  0  0  0  0  0  0  # atno 8008 bound_to 7997
  154.3979  140.1427  156.3624 H   0  0  0  0  0  0  0  0  0  0  0  0  # atno 8009 bound_to 7997
  155.8210  140.3446  155.5516 H   0  0  0  0  0  0  0  0  0  0  0  0  # atno 8010 bound_to 7997
  139.5008  144.6143  151.6201 H   0  0  0  0  0  0  0  0  0  0  0  0  # atno 10167 bound_to 10162
  157.4250  131.1042  151.0312 H   0  0  0  0  0  0  0  0  0  0  0  0  # atno 10718 bound_to 10713
  154.5768  135.2832  155.0773 H   0  0  0  0  0  0  0  0  0  0  0  0  # atno 10763 bound_to 10752
  154.2124  135.6405  153.5123 H   0  0  0  0  0  0  0  0  0  0  0  0  # atno 10764 bound_to 10752
  153.0075  135.5495  154.6409 H   0  0  0  0  0  0  0  0  0  0  0  0  # atno 10765 bound_to 10752
  140.0175  134.9411  157.0406 H   0  0  0  0  0  0  0  0  0  0  0  0  # atno 11005 bound_to 11000
  145.5761  141.0388  143.2147 LP  0  0  0  0  0  0  0  0  0  0  0  0  # atno 17320 bound_to 7965
  144.7471  139.7292  143.7288 LP  0  0  0  0  0  0  0  0  0  0  0  0  # atno 17321 bound_to 7965
  140.5826  143.9919  150.6277 LP  0  0  0  0  0  0  0  0  0  0  0  0  # atno 17342 bound_to 10162
  140.3074  143.3221  152.0913 LP  0  0  0  0  0  0  0  0  0  0  0  0  # atno 17343 bound_to 10162
  157.1229  130.6069  149.5509 LP  0  0  0  0  0  0  0  0  0  0  0  0  # atno 17370 bound_to 10713
  155.9893  130.4940  150.7209 LP  0  0  0  0  0  0  0  0  0  0  0  0  # atno 17371 bound_to 10713
  140.4445  134.1647  155.7176 LP  0  0  0  0  0  0  0  0  0  0  0  0  # atno 17394 bound_to 11000
  141.1752  133.8527  157.1443 LP  0  0  0  0  0  0  0  0  0  0  0  0  # atno 17395 bound_to 11000

$$$$
