AV-unprocessed.smi:3349|AV-procd|sdf|12938|dock3
  -GOLD-   2272019373D 1   1.00000     0.00000
 Structure written by MMmdl.
 41 42  0  0  0  0  0  0  0  0  2 V2000
  147.4195  142.6852  158.3413 C   0  0  0  0  0  0  0  0  0  0  0  0
  148.8777  142.2323  158.0795 C   0  0  1  0  0  0  0  0  0  0  0  0
  148.9823  141.4797  156.7258 C   0  0  0  0  0  0  0  0  0  0  0  0
  149.8923  140.3377  156.7766 N   0  0  0  0  0  0  0  0  0  0  0  0
  150.7082  139.9417  155.7861 C   0  0  0  0  0  0  0  0  0  0  0  0
  150.7656  140.5079  154.6941 O   0  0  0  0  0  0  0  0  0  0  0  0
  151.5856  138.7149  156.0815 C   0  0  1  0  0  0  0  0  0  0  0  0
  152.6921  138.5060  155.0315 C   0  0  0  0  0  0  0  0  0  0  0  0
  152.1512  138.7989  157.4209 N   0  0  0  0  0  0  0  0  0  0  0  0
  152.0175  137.9997  158.4837 C   0  0  0  0  0  0  0  0  0  0  0  0
  152.6764  138.4166  159.5556 N   0  0  0  0  0  0  0  0  0  0  0  0
  153.2234  139.5637  159.0548 C   0  0  0  0  0  0  0  0  0  0  0  0
  152.9363  139.8416  157.7832 N   0  0  0  0  0  0  0  0  0  0  0  0
  149.8635  143.3636  158.1268 N   0  3  0  0  0  0  0  0  0  0  0  0
  149.9331  144.0967  159.4223 C   0  0  0  0  0  0  0  0  0  0  0  0
  150.9530  145.2472  159.3608 C   0  0  0  0  0  0  0  0  0  0  0  0
  152.2285  144.7446  158.9939 O   0  0  0  0  0  0  0  0  0  0  0  0
  152.1985  144.1482  157.7066 C   0  0  0  0  0  0  0  0  0  0  0  0
  151.2351  142.9503  157.7187 C   0  0  0  0  0  0  0  0  0  0  0  0
  146.7192  141.8525  158.2908 H   0  0  0  0  0  0  0  0  0  0  0  0
  147.0964  143.4285  157.6114 H   0  0  0  0  0  0  0  0  0  0  0  0
  147.2907  143.1043  159.3391 H   0  0  0  0  0  0  0  0  0  0  0  0
  149.1365  141.5368  158.8799 H   0  0  0  0  0  0  0  0  0  0  0  0
  147.9887  141.1763  156.3916 H   0  0  0  0  0  0  0  0  0  0  0  0
  149.3741  142.1260  155.9430 H   0  0  0  0  0  0  0  0  0  0  0  0
  149.9138  139.8123  157.6393 H   0  0  0  0  0  0  0  0  0  0  0  0
  150.9339  137.8394  156.0461 H   0  0  0  0  0  0  0  0  0  0  0  0
  152.2763  138.4406  154.0252 H   0  0  0  0  0  0  0  0  0  0  0  0
  153.2355  137.5798  155.2206 H   0  0  0  0  0  0  0  0  0  0  0  0
  153.4179  139.3202  155.0411 H   0  0  0  0  0  0  0  0  0  0  0  0
  151.4266  137.0954  158.4724 H   0  0  0  0  0  0  0  0  0  0  0  0
  153.8511  140.2146  159.6458 H   0  0  0  0  0  0  0  0  0  0  0  0
  148.9686  144.5360  159.6744 H   0  0  0  0  0  0  0  0  0  0  0  0
  150.1987  143.4031  160.2217 H   0  0  0  0  0  0  0  0  0  0  0  0
  150.6327  146.0146  158.6540 H   0  0  0  0  0  0  0  0  0  0  0  0
  151.0326  145.7287  160.3357 H   0  0  0  0  0  0  0  0  0  0  0  0
  151.9029  144.8816  156.9544 H   0  0  0  0  0  0  0  0  0  0  0  0
  153.2049  143.8172  157.4495 H   0  0  0  0  0  0  0  0  0  0  0  0
  151.6053  142.1876  158.4057 H   0  0  0  0  0  0  0  0  0  0  0  0
  151.2371  142.5074  156.7250 H   0  0  0  0  0  0  0  0  0  0  0  0
  149.5471  144.0404  157.4468 H   0  0  0  0  0  0  0  0  0  0  0  0
  1  2  1  0  0  0  0
  1 20  1  0  0  0  0
  1 21  1  0  0  0  0
  1 22  1  0  0  0  0
  2  3  1  0  0  0  0
  2 14  1  0  0  0  0
  2 23  1  0  0  0  0
  3  4  1  0  0  0  0
  3 24  1  0  0  0  0
  3 25  1  0  0  0  0
  4  5  1  0  0  0  0
  4 26  1  0  0  0  0
  5  6  2  0  0  0  0
  5  7  1  0  0  0  0
  7  8  1  0  0  0  0
  7  9  1  0  0  0  0
  7 27  1  0  0  0  0
  8 28  1  0  0  0  0
  8 29  1  0  0  0  0
  8 30  1  0  0  0  0
  9 13  1  0  0  0  0
  9 10  1  0  0  0  0
 10 11  2  0  0  0  0
 10 31  1  0  0  0  0
 11 12  1  0  0  0  0
 12 13  2  0  0  0  0
 12 32  1  0  0  0  0
 14 19  1  0  0  0  0
 14 15  1  0  0  0  0
 14 41  1  0  0  0  0
 15 16  1  0  0  0  0
 15 33  1  0  0  0  0
 15 34  1  0  0  0  0
 16 17  1  0  0  0  0
 16 35  1  0  0  0  0
 16 36  1  0  0  0  0
 17 18  1  0  0  0  0
 18 19  1  0  0  0  0
 18 37  1  0  0  0  0
 18 38  1  0  0  0  0
 19 39  1  0  0  0  0
 19 40  1  0  0  0  0
M  CHG  1  14   1
M  END
> <s_m_source_file>
AV-unprocessed.smi

> <i_m_source_file_index>
3349

> <i_lp_mmshare_version>
43012

> <i_f3d_flags>
0

> <s_epik_input>
W0NIMl0xW0NIMl1PW0NIMl1bQ0gyXU4xW0NASF0oW0NIM10pW0NIMl1bTkhdQyg9TylbQ0BIXShbQ0gzXSluMltjSF1uW2NIXW4y

> <s_epik_cmdline>
J2VwaWtfcHl0aG9uJywgJy1waCcsICc3LjAnLCAnLXRuJywgJzgnLCAnLW1hJywgJzIwMCcsICctbWV0YWxfYmluZGluZycsICctaW1hZScsICc8aW5maWxlLm1hZT4nLCAnLW9tYWUnLCAnPG91dGZpbGUubWFlPic=

> <r_lp_tautomer_probability>
1

> <r_epik_Ionization_Penalty>
0.71326

> <r_epik_Ionization_Penalty_Charging>
0.713252

> <r_epik_Ionization_Penalty_Neutral>
8.10337e-06

> <r_epik_State_Penalty>
0.737017

> <r_epik_Charging_Adjusted_Penalty>
1.45027

> <i_epik_Tot_Q>
1

> <i_epik_Tot_abs_Q>
1

> <r_epik_Metal_State_Penalty>
0.73702

> <b_epik_Metal_Only>
0

> <s_lp_Force_Field>
OPLS_2005

> <r_lp_Energy>
26.9228

> <b_lp_Chiralities_Consistent>
1

> <s_lp_Variant>
AV-unprocessed.smi:3349-8

> <Gold.Version>
5.8.1

> <Gold.Id.Protein>
6NUR|6NUR_protein|mol2

> <Gold.PLP.Fitness>
40.9394

> <Gold.PLP.PLP>
-31.0147

> <Gold.PLP.part.hbond>
-2.8799

> <Gold.PLP.part.metal>
0.0000

> <Gold.PLP.part.buried>
-5.7543

> <Gold.PLP.part.nonpolar>
-22.6435

> <Gold.PLP.part.repulsive>
0.1898

> <Gold.PLP.ligand.clash>
0.0000

> <Gold.PLP.ligand.torsion>
1.0992

> <Gold.PLP.Chemscore.Hbond>
4.0000

> <Gold.PLP.Chemscore.CHOScore>
0.0000

> <Gold.PLP.Chemscore.Metal>
0.0000

> <Gold.Chemscore.Hbonds>
donor molecule, donor type, donor heavy atom, donor atom, acceptor molecule, acceptor atom, score
      L1  H    14    41       P1  8028  2.00
      P1  H  7989  7998       L1     6  0.98
      P1  H  7997  8010       L1    13  1.00

> <Gold.PLP.Chemscore.Internal.Correction>
0.1233

> <Gold.Rescore>
     Score         DG    S(hbond)    S(metal)    S(lipo)     H(rot)  DE(clash)    DE(int)     intcor
     13.53     -15.61       2.78        0.00      64.95       2.63       1.07       1.00       ----

> <Gold.Chemscore.Fitness>
13.5330

> <Gold.Chemscore.DG>
-15.6107

> <Gold.Chemscore.ZeroCoef>
-5.4800

> <Gold.Chemscore.Hbond>
2.7758

> <Gold.Chemscore.Metal>
0.0000

> <Gold.Chemscore.Lipo>
64.9548

> <Gold.Chemscore.Internal_Hbond>
0.0000

> <Gold.Chemscore.DEClash>
1.0736

> <Gold.Chemscore.DEInternal>
1.0041

> <Gold.Chemscore.Rot>
2.6329

> <Gold.Chemscore.Internal.Correction>
   9.000000E+99

> <Gold.Chemscore.Hbonds>
donor molecule, donor type, donor heavy atom, donor atom, acceptor molecule, acceptor atom, score
      L1  H    14    41       P1  8028  0.29
      P1  H  7989  7998       L1     6  0.88
      P1  H  7997  8010       L1    13  0.74

> <Gold.Chemscore.Hbond.Weighted>
-9.2713

> <Gold.Chemscore.Metal.Weighted>
-0.0000

> <Gold.Chemscore.Lipo.Weighted>
-7.5997

> <Gold.Chemscore.Internal_Hbond.Weighted>
0.0000

> <Gold.Chemscore.DEClash.Weighted>
1.0736

> <Gold.Chemscore.DEInternal.Weighted>
1.0041

> <Gold.Chemscore.Rot.Weighted>
6.7403

> <Gold.Chemscore.Internal.Correction.Weighted>
   9.000000E+99

> <Gold.Protein.RotatedTorsions>
[ 6907 6896 6895 6894 ] final   46.12 input  -60.11 | X-H torsion
[ 7974 7965 7964 7962 ] final  133.65 input  175.53 | X-H torsion
[ 8008 7997 7996 7995 ] final   52.57 input   59.86 | X-H torsion
[ 10167 10162 10161 10158 ] final  -44.93 input  -65.29 | X-H torsion
[ 10718 10713 10712 10709 ] final  -38.45 input   66.30 | X-H torsion
[ 10763 10752 10751 10750 ] final  -72.66 input  -60.55 | X-H torsion
[ 11005 11000 10999 10996 ] final  -53.26 input  -57.11 | X-H torsion

> <Gold.Protein.ActiveResidues>
 VAL166  LYS551  ARG553  GLY616  TRP617  ASP618  TYR619  PRO620  LYS621  CYS622 
 ASP623  PHE694  ASN695  SER759  ASP760  ASP761  ALA762  ILE779  LEU786  VAL792 
 PHE793  MET794  SER795  GLU796  ALA797  LYS798  CYS799  TRP800  GLU811  SER814 

> <Gold.Protein.RotatedAtoms>
  152.2526  134.8116  160.0443 H   0  0  0  0  0  0  0  0  0  0  0  0  # atno 6907 bound_to 6896
  151.8791  133.3486  159.3768 H   0  0  0  0  0  0  0  0  0  0  0  0  # atno 6908 bound_to 6896
  150.7089  134.4963  159.5584 H   0  0  0  0  0  0  0  0  0  0  0  0  # atno 6909 bound_to 6896
  144.9843  139.4472  143.5370 H   0  0  0  0  0  0  0  0  0  0  0  0  # atno 7974 bound_to 7965
  155.4540  140.3459  155.4304 H   0  0  0  0  0  0  0  0  0  0  0  0  # atno 8008 bound_to 7997
  156.1202  140.1485  156.9245 H   0  0  0  0  0  0  0  0  0  0  0  0  # atno 8009 bound_to 7997
  154.4818  140.0867  156.7374 H   0  0  0  0  0  0  0  0  0  0  0  0  # atno 8010 bound_to 7997
  140.6878  143.2905  151.3566 H   0  0  0  0  0  0  0  0  0  0  0  0  # atno 10167 bound_to 10162
  156.3036  130.4243  149.8118 H   0  0  0  0  0  0  0  0  0  0  0  0  # atno 10718 bound_to 10713
  154.4488  135.5922  153.6178 H   0  0  0  0  0  0  0  0  0  0  0  0  # atno 10763 bound_to 10752
  152.9811  135.6016  154.3631 H   0  0  0  0  0  0  0  0  0  0  0  0  # atno 10764 bound_to 10752
  154.3489  135.2841  155.2361 H   0  0  0  0  0  0  0  0  0  0  0  0  # atno 10765 bound_to 10752
  141.0967  133.6623  156.4146 H   0  0  0  0  0  0  0  0  0  0  0  0  # atno 11005 bound_to 11000
  146.3416  139.9136  142.8777 LP  0  0  0  0  0  0  0  0  0  0  0  0  # atno 17320 bound_to 7965
  145.2376  140.9997  143.3954 LP  0  0  0  0  0  0  0  0  0  0  0  0  # atno 17321 bound_to 7965
  139.6252  144.0829  152.2427 LP  0  0  0  0  0  0  0  0  0  0  0  0  # atno 17342 bound_to 10162
  140.0286  144.6098  150.7507 LP  0  0  0  0  0  0  0  0  0  0  0  0  # atno 17343 bound_to 10162
  156.5488  130.8332  151.3293 LP  0  0  0  0  0  0  0  0  0  0  0  0  # atno 17370 bound_to 10713
  157.7374  130.9795  150.2191 LP  0  0  0  0  0  0  0  0  0  0  0  0  # atno 17371 bound_to 10713
  140.5123  134.6383  157.5289 LP  0  0  0  0  0  0  0  0  0  0  0  0  # atno 17394 bound_to 11000
  139.9805  134.7144  155.9868 LP  0  0  0  0  0  0  0  0  0  0  0  0  # atno 17395 bound_to 11000

$$$$
