AV-unprocessed.smi:2322|AV-procd|sdf|9288|dock4
  -GOLD-   2272012513D 1   1.00000     0.00000
 Structure written by MMmdl.
 38 40  0  0  0  0  0  0  0  0  1 V2000
  147.4065  132.7655  152.5237 C   0  0  0  0  0  0  0  0  0  0  0  0
  148.3968  132.2744  153.4627 N   0  0  0  0  0  0  0  0  0  0  0  0
  148.4770  130.9569  153.7625 N   0  0  0  0  0  0  0  0  0  0  0  0
  149.4831  130.9156  154.6352 C   0  0  0  0  0  0  0  0  0  0  0  0
  150.0689  132.1136  154.9297 N   0  0  0  0  0  0  0  0  0  0  0  0
  149.3392  132.9169  154.1598 C   0  0  0  0  0  0  0  0  0  0  0  0
  149.4708  134.3312  154.0278 N   0  0  0  0  0  0  0  0  0  0  0  0
  150.0375  135.2510  154.8364 C   0  0  0  0  0  0  0  0  0  0  0  0
  150.5568  134.9235  155.9020 O   0  0  0  0  0  0  0  0  0  0  0  0
  149.9913  136.5244  154.4114 N   0  0  0  0  0  0  0  0  0  0  0  0
  150.5235  137.6776  155.1299 C   0  0  1  0  0  0  0  0  0  0  0  0
  151.9860  137.9105  154.7288 C   0  0  0  0  0  0  0  0  0  0  0  0
  152.5303  139.1908  155.3803 C   0  0  0  0  0  0  0  0  0  0  0  0
  151.7169  140.3100  155.0350 O   0  0  0  0  0  0  0  0  0  0  0  0
  150.3446  140.2082  155.4188 C   0  0  2  0  0  0  0  0  0  0  0  0
  150.1674  140.3114  156.9277 C   0  0  0  0  0  0  0  0  0  0  0  0
  149.0029  141.0719  157.5178 C   0  0  0  0  0  0  0  0  0  0  0  0
  150.4043  141.6212  157.6415 C   0  0  0  0  0  0  0  0  0  0  0  0
  149.7054  138.9425  154.8147 C   0  0  0  0  0  0  0  0  0  0  0  0
  147.9067  133.2348  151.6764 H   0  0  0  0  0  0  0  0  0  0  0  0
  146.7694  133.5015  153.0143 H   0  0  0  0  0  0  0  0  0  0  0  0
  146.7842  131.9476  152.1583 H   0  0  0  0  0  0  0  0  0  0  0  0
  149.8071  129.9854  155.0780 H   0  0  0  0  0  0  0  0  0  0  0  0
  149.0769  134.7083  153.1784 H   0  0  0  0  0  0  0  0  0  0  0  0
  149.5454  136.7066  153.5229 H   0  0  0  0  0  0  0  0  0  0  0  0
  150.4875  137.4755  156.2017 H   0  0  0  0  0  0  0  0  0  0  0  0
  152.5989  137.0559  155.0176 H   0  0  0  0  0  0  0  0  0  0  0  0
  152.0647  137.9991  153.6441 H   0  0  0  0  0  0  0  0  0  0  0  0
  152.5936  139.0798  156.4628 H   0  0  0  0  0  0  0  0  0  0  0  0
  153.5450  139.3810  155.0303 H   0  0  0  0  0  0  0  0  0  0  0  0
  149.8450  141.0718  154.9780 H   0  0  0  0  0  0  0  0  0  0  0  0
  150.4634  139.4205  157.4771 H   0  0  0  0  0  0  0  0  0  0  0  0
  148.3246  141.5753  156.8316 H   0  0  0  0  0  0  0  0  0  0  0  0
  148.5407  140.6638  158.4144 H   0  0  0  0  0  0  0  0  0  0  0  0
  150.8770  141.5802  158.6206 H   0  0  0  0  0  0  0  0  0  0  0  0
  150.6583  142.4895  157.0368 H   0  0  0  0  0  0  0  0  0  0  0  0
  149.6429  139.0670  153.7327 H   0  0  0  0  0  0  0  0  0  0  0  0
  148.6793  138.8360  155.1689 H   0  0  0  0  0  0  0  0  0  0  0  0
  1  2  1  0  0  0  0
  1 20  1  0  0  0  0
  1 21  1  0  0  0  0
  1 22  1  0  0  0  0
  2  6  1  0  0  0  0
  2  3  1  0  0  0  0
  3  4  2  0  0  0  0
  4  5  1  0  0  0  0
  4 23  1  0  0  0  0
  5  6  2  0  0  0  0
  6  7  1  0  0  0  0
  7  8  1  0  0  0  0
  7 24  1  0  0  0  0
  8  9  2  0  0  0  0
  8 10  1  0  0  0  0
 10 11  1  0  0  0  0
 10 25  1  0  0  0  0
 11 19  1  0  0  0  0
 11 12  1  0  0  0  0
 11 26  1  0  0  0  0
 12 13  1  0  0  0  0
 12 27  1  0  0  0  0
 12 28  1  0  0  0  0
 13 14  1  0  0  0  0
 13 29  1  0  0  0  0
 13 30  1  0  0  0  0
 14 15  1  0  0  0  0
 15 16  1  0  0  0  0
 15 19  1  0  0  0  0
 15 31  1  0  0  0  0
 16 18  1  0  0  0  0
 16 17  1  0  0  0  0
 16 32  1  0  0  0  0
 17 18  1  0  0  0  0
 17 33  1  0  0  0  0
 17 34  1  0  0  0  0
 18 35  1  0  0  0  0
 18 36  1  0  0  0  0
 19 37  1  0  0  0  0
 19 38  1  0  0  0  0
M  END
> <s_m_source_file>
AV-unprocessed.smi

> <i_m_source_file_index>
2322

> <i_lp_mmshare_version>
43012

> <i_f3d_flags>
0

> <s_epik_input>
W0NIM11uMW5bY0hdbmMxW05IXUMoPU8pW05IXVtDQEBIXTJbQ0gyXVtDSDJdT1tDQEhdKFtDSDJdMilbQ0hdM1tDSDJdW0NIMl0z

> <s_epik_cmdline>
J2VwaWtfcHl0aG9uJywgJy1waCcsICc3LjAnLCAnLXRuJywgJzgnLCAnLW1hJywgJzIwMCcsICctbWV0YWxfYmluZGluZycsICctaW1hZScsICc8aW5maWxlLm1hZT4nLCAnLW9tYWUnLCAnPG91dGZpbGUubWFlPic=

> <r_lp_tautomer_probability>
1

> <r_epik_Ionization_Penalty>
2.16399e-05

> <r_epik_Ionization_Penalty_Charging>
0

> <r_epik_Ionization_Penalty_Neutral>
2.16399e-05

> <r_epik_State_Penalty>
-0

> <r_epik_Charging_Adjusted_Penalty>
0

> <i_epik_Tot_Q>
0

> <i_epik_Tot_abs_Q>
0

> <r_epik_Metal_State_Penalty>
-0

> <b_epik_Metal_Only>
0

> <s_lp_Force_Field>
OPLS_2005

> <r_lp_Energy>
22.4811

> <b_lp_Chiralities_Consistent>
1

> <s_lp_Variant>
AV-unprocessed.smi:2322-4

> <Gold.Version>
5.8.1

> <Gold.Id.Protein>
6NUR|6NUR_protein|mol2

> <Gold.PLP.Fitness>
38.8781

> <Gold.PLP.PLP>
-32.1736

> <Gold.PLP.part.hbond>
-3.2317

> <Gold.PLP.part.metal>
0.0000

> <Gold.PLP.part.buried>
-3.2473

> <Gold.PLP.part.nonpolar>
-26.5789

> <Gold.PLP.part.repulsive>
0.2558

> <Gold.PLP.ligand.clash>
0.0000

> <Gold.PLP.ligand.torsion>
1.0466

> <Gold.PLP.Chemscore.Hbond>
2.5728

> <Gold.PLP.Chemscore.CHOScore>
0.0000

> <Gold.PLP.Chemscore.Metal>
0.0000

> <Gold.Chemscore.Hbonds>
donor molecule, donor type, donor heavy atom, donor atom, acceptor molecule, acceptor atom, score
      L1  H     7    24       P1  7948  0.63
      L1  H    10    25       P1  7948  1.00
      P1  H  7989  7998       L1    14  0.88

> <Gold.PLP.Chemscore.Internal.Correction>
1.0794

> <Gold.Rescore>
     Score         DG    S(hbond)    S(metal)    S(lipo)     H(rot)  DE(clash)    DE(int)     intcor
     12.75     -14.67       2.00        0.00      50.10       1.31       0.05       1.88       ----

> <Gold.Chemscore.Fitness>
12.7478

> <Gold.Chemscore.DG>
-14.6728

> <Gold.Chemscore.ZeroCoef>
-5.4800

> <Gold.Chemscore.Hbond>
1.9991

> <Gold.Chemscore.Metal>
0.0000

> <Gold.Chemscore.Lipo>
50.1045

> <Gold.Chemscore.Internal_Hbond>
0.0000

> <Gold.Chemscore.DEClash>
0.0469

> <Gold.Chemscore.DEInternal>
1.8781

> <Gold.Chemscore.Rot>
1.3072

> <Gold.Chemscore.Internal.Correction>
   9.000000E+99

> <Gold.Chemscore.Hbonds>
donor molecule, donor type, donor heavy atom, donor atom, acceptor molecule, acceptor atom, score
      L1  H     7    24       P1  7948  0.05
      L1  H    10    25       P1  7948  0.72
      P1  H  7989  7998       L1    14  0.38

> <Gold.Chemscore.Hbond.Weighted>
-6.6770

> <Gold.Chemscore.Metal.Weighted>
-0.0000

> <Gold.Chemscore.Lipo.Weighted>
-5.8622

> <Gold.Chemscore.Internal_Hbond.Weighted>
0.0000

> <Gold.Chemscore.DEClash.Weighted>
0.0469

> <Gold.Chemscore.DEInternal.Weighted>
1.8781

> <Gold.Chemscore.Rot.Weighted>
3.3464

> <Gold.Chemscore.Internal.Correction.Weighted>
   9.000000E+99

> <Gold.Protein.RotatedTorsions>
[ 6907 6896 6895 6894 ] final   20.04 input  -60.11 | X-H torsion
[ 7974 7965 7964 7962 ] final   28.97 input  175.53 | X-H torsion
[ 8008 7997 7996 7995 ] final  -61.55 input   59.86 | X-H torsion
[ 10167 10162 10161 10158 ] final -126.25 input  -65.29 | X-H torsion
[ 10718 10713 10712 10709 ] final   87.20 input   66.30 | X-H torsion
[ 10763 10752 10751 10750 ] final -141.10 input  -60.55 | X-H torsion
[ 11005 11000 10999 10996 ] final   46.33 input  -57.11 | X-H torsion

> <Gold.Protein.ActiveResidues>
 VAL166  LYS551  ARG553  GLY616  TRP617  ASP618  TYR619  PRO620  LYS621  CYS622 
 ASP623  PHE694  ASN695  SER759  ASP760  ASP761  ALA762  ILE779  LEU786  VAL792 
 PHE793  MET794  SER795  GLU796  ALA797  LYS798  CYS799  TRP800  GLU811  SER814 

> <Gold.Protein.RotatedAtoms>
  151.8902  135.0419  160.0496 H   0  0  0  0  0  0  0  0  0  0  0  0  # atno 6907 bound_to 6896
  152.2442  133.5156  159.5296 H   0  0  0  0  0  0  0  0  0  0  0  0  # atno 6908 bound_to 6896
  150.7063  134.0964  159.3992 H   0  0  0  0  0  0  0  0  0  0  0  0  # atno 6909 bound_to 6896
  146.1698  139.6985  142.8975 H   0  0  0  0  0  0  0  0  0  0  0  0  # atno 7974 bound_to 7965
  154.4454  140.1015  156.6449 H   0  0  0  0  0  0  0  0  0  0  0  0  # atno 8008 bound_to 7997
  155.5461  140.3484  155.4439 H   0  0  0  0  0  0  0  0  0  0  0  0  # atno 8009 bound_to 7997
  156.0562  140.1315  156.9983 H   0  0  0  0  0  0  0  0  0  0  0  0  # atno 8010 bound_to 7997
  139.9735  143.5820  152.2404 H   0  0  0  0  0  0  0  0  0  0  0  0  # atno 10167 bound_to 10162
  157.6937  131.0246  150.3087 H   0  0  0  0  0  0  0  0  0  0  0  0  # atno 10718 bound_to 10713
  154.8556  135.3534  154.5814 H   0  0  0  0  0  0  0  0  0  0  0  0  # atno 10763 bound_to 10752
  153.6425  135.6997  153.5241 H   0  0  0  0  0  0  0  0  0  0  0  0  # atno 10764 bound_to 10752
  153.2960  135.4220  155.1168 H   0  0  0  0  0  0  0  0  0  0  0  0  # atno 10765 bound_to 10752
  140.1379  134.4621  155.8472 H   0  0  0  0  0  0  0  0  0  0  0  0  # atno 11005 bound_to 11000
  145.4369  141.0419  143.2879 LP  0  0  0  0  0  0  0  0  0  0  0  0  # atno 17320 bound_to 7965
  144.8147  139.5899  143.7014 LP  0  0  0  0  0  0  0  0  0  0  0  0  # atno 17321 bound_to 7965
  139.6463  144.7658  151.2237 LP  0  0  0  0  0  0  0  0  0  0  0  0  # atno 17342 bound_to 10162
  140.7514  143.6233  150.8492 LP  0  0  0  0  0  0  0  0  0  0  0  0  # atno 17343 bound_to 10162
  156.3592  130.3844  149.7265 LP  0  0  0  0  0  0  0  0  0  0  0  0  # atno 17370 bound_to 10713
  156.4717  130.8000  151.3017 LP  0  0  0  0  0  0  0  0  0  0  0  0  # atno 17371 bound_to 10713
  141.2181  133.6821  156.7191 LP  0  0  0  0  0  0  0  0  0  0  0  0  # atno 17394 bound_to 11000
  140.2759  134.8355  157.3890 LP  0  0  0  0  0  0  0  0  0  0  0  0  # atno 17395 bound_to 11000

$$$$
