#       Name:                AV-unprocessed.smi:1330
#       Creating user name   scv26
#       Creation time:       Fri Mar 27 05:06:09 2020


#       File generated by GOLD software.
#

@<TRIPOS>MOLECULE
AV-unprocessed.smi:1330
    50    51     1
SMALL
NO_CHARGES


@<TRIPOS>ATOM
      1 ****        -1.3295   4.2862  -3.4176 C.3            1 S1                 0.0000
      2 ****        -1.2256   3.4152  -2.1946 C.2            1 S1                 0.0000
      3 ****        -0.7461   2.2271  -2.3668 N.2            1 S1                 0.0000
      4 ****        -0.6078   1.3485  -1.3112 N.am           1 S1                 0.0000
      5 ****        -0.0441   0.0477  -1.6890 C.3            1 S1                 0.0000
      6 ****         1.4666  -0.0392  -1.3762 C.3            1 S1                 0.0000
      7 ****         2.1889   0.4591  -2.4840 O.3            1 S1                 0.0000
      8 ****         1.9282  -1.4849  -1.1414 C.3            1 S1                 0.0000
      9 ****         1.3751  -1.9423   0.0812 O.3            1 S1                 0.0000
     10 ****         1.7402  -3.2762   0.3941 C.3            1 S1                 0.0000
     11 ****         1.1492  -3.7354   1.7143 C.ar           1 S1                 0.0000
     12 ****         0.9231  -2.8133   2.7595 C.ar           1 S1                 0.0000
     13 ****         0.3912  -3.2511   3.9880 C.ar           1 S1                 0.0000
     14 ****         0.0888  -4.6131   4.1803 C.ar           1 S1                 0.0000
     15 ****        -0.5612  -5.1492   5.6858 Cl             1 S1                 0.0000
     16 ****         0.3208  -5.5377   3.1433 C.ar           1 S1                 0.0000
     17 ****         0.8525  -5.1000   1.9145 C.ar           1 S1                 0.0000
     18 ****        -0.9408   1.6270  -0.0181 C.2            1 S1                 0.0000
     19 ****        -0.7858   0.8155   0.8960 O.2            1 S1                 0.0000
     20 ****        -1.4870   2.9729   0.1693 C.2            1 S1                 0.0000
     21 ****        -1.8526   3.3051   1.5085 C.1            1 S1                 0.0000
     22 ****        -2.1541   3.5927   2.5885 N.1            1 S1                 0.0000
     23 ****        -1.6327   3.8443  -0.8603 C.2            1 S1                 0.0000
     24 ****        -2.1912   5.2536  -0.7183 C.3            1 S1                 0.0000
     25 ****        -0.7772   5.2159  -3.2796 H              1 S1                 0.0000
     26 ****        -2.3697   4.5379  -3.6248 H              1 S1                 0.0000
     27 ****        -0.9265   3.7934  -4.3038 H              1 S1                 0.0000
     28 ****        -0.5839  -0.7308  -1.1466 H              1 S1                 0.0000
     29 ****        -0.2330  -0.1727  -2.7416 H              1 S1                 0.0000
     30 ****         1.7242   0.5568  -0.4997 H              1 S1                 0.0000
     31 ****         1.9372   1.3592  -2.6244 H              1 S1                 0.0000
     32 ****         1.6202  -2.1271  -1.9684 H              1 S1                 0.0000
     33 ****         3.0172  -1.5261  -1.0792 H              1 S1                 0.0000
     34 ****         1.4037  -3.9423  -0.4021 H              1 S1                 0.0000
     35 ****         2.8260  -3.3616   0.4554 H              1 S1                 0.0000
     36 ****         1.1559  -1.7669   2.6257 H              1 S1                 0.0000
     37 ****         0.2179  -2.5405   4.7828 H              1 S1                 0.0000
     38 ****         0.0931  -6.5834   3.2894 H              1 S1                 0.0000
     39 ****         1.0316  -5.8160   1.1257 H              1 S1                 0.0000
     40 ****        -2.5292   5.4631   0.2960 H              1 S1                 0.0000
     41 ****        -3.0447   5.3985  -1.3811 H              1 S1                 0.0000
     42 ****        -1.4300   5.9921  -0.9711 H              1 S1                 0.0000
     43 ****        -0.4697   1.9386  -3.2835 LP             1 S1                 0.0000
     44 ****         1.9752  -0.0820  -3.2974 LP             1 S1                 0.0000
     45 ****         3.1701   0.4079  -2.2980 LP             1 S1                 0.0000
     46 ****         0.3784  -1.8920   0.0179 LP             1 S1                 0.0000
     47 ****         1.6929  -1.3447   0.8173 LP             1 S1                 0.0000
     48 ****        -0.4025  -0.0878   0.7031 LP             1 S1                 0.0000
     49 ****        -1.0433   1.0601   1.8308 LP             1 S1                 0.0000
     50 ****        -2.4145   3.8411   3.5215 LP             1 S1                 0.0000
@<TRIPOS>BOND
    1    1    2 1     
    2    1   25 1     
    3    1   26 1     
    4    1   27 1     
    5    2   23 1     
    6    2    3 2     
    7    3    4 1     
    8    4    5 1     
    9    4   18 am    
   10    5    6 1     
   11    5   28 1     
   12    5   29 1     
   13    6    7 1     
   14    6    8 1     
   15    6   30 1     
   16    7   31 1     
   17    8    9 1     
   18    8   32 1     
   19    8   33 1     
   20    9   10 1     
   21   10   11 1     
   22   10   34 1     
   23   10   35 1     
   24   11   17 ar    
   25   11   12 ar    
   26   12   13 ar    
   27   12   36 1     
   28   13   14 ar    
   29   13   37 1     
   30   14   15 1     
   31   14   16 ar    
   32   16   17 ar    
   33   16   38 1     
   34   17   39 1     
   35   18   19 2     
   36   18   20 1     
   37   20   21 1     
   38   20   23 2     
   39   21   22 3     
   40   23   24 1     
   41   24   40 1     
   42   24   41 1     
   43   24   42 1     
   44    3   43 1     
   45    7   44 1     
   46    7   45 1     
   47    9   46 1     
   48    9   47 1     
   49   19   48 1     
   50   19   49 1     
   51   22   50 1     
@<TRIPOS>SUBSTRUCTURE
      1 S1             1
@<TRIPOS>SET
LONE_PAIRS      STATIC     ATOMS    <user>   **** ""
8 43 44 45 46 47 48 49 50
DONOR_HYDROGENS      STATIC     ATOMS    <user>   **** ""
1 31
ATOM$BLUE        STATIC     ATOMS    COLORGROUP SYSTEM
8 43 44 45 46 47 48 49 50
ATOM$RED        STATIC     ATOMS    COLORGROUP SYSTEM
1 31
