AV-unprocessed.smi:102|AV-procd|sdf|959|dock1
  -GOLD-   2262017493D 1   1.00000     0.00000
 Structure written by MMmdl.
 44 45  0  0  0  0  0  0  0  0  1 V2000
  152.2896  143.9727  159.3902 C   0  0  0  0  0  0  0  0  0  0  0  0
  152.1668  142.5125  158.9760 C   0  0  0  0  0  0  0  0  0  0  0  0
  152.9561  141.6584  159.3791 O   0  0  0  0  0  0  0  0  0  0  0  0
  151.1334  142.3047  158.1516 O   0  0  0  0  0  0  0  0  0  0  0  0
  150.9536  141.0381  157.5407 C   0  0  0  0  0  0  0  0  0  0  0  0
  151.0386  141.1470  156.0058 C   0  0  2  0  0  0  0  0  0  0  0  0
  149.9386  141.9262  155.5428 O   0  0  0  0  0  0  0  0  0  0  0  0
  149.1902  141.2220  154.5965 C   0  0  2  0  0  0  0  0  0  0  0  0
  147.7169  141.4614  154.8462 N   0  0  0  0  0  0  0  0  0  0  0  0
  147.2654  142.2208  155.9187 C   0  0  0  0  0  0  0  0  0  0  0  0
  145.9515  142.4113  156.1829 C   0  0  0  0  0  0  0  0  0  0  0  0
  145.5894  143.1529  157.2431 F   0  0  0  0  0  0  0  0  0  0  0  0
  144.9263  141.8118  155.3334 C   0  0  0  0  0  0  0  0  0  0  0  0
  143.7128  141.9305  155.4892 O   0  0  0  0  0  0  0  0  0  0  0  0
  145.4275  141.0475  154.2754 N   0  0  0  0  0  0  0  0  0  0  0  0
  146.7790  140.8375  153.9963 C   0  0  0  0  0  0  0  0  0  0  0  0
  147.1118  140.1268  153.0489 O   0  0  0  0  0  0  0  0  0  0  0  0
  149.5707  139.7353  154.7060 C   0  0  2  0  0  0  0  0  0  0  0  0
  148.7015  139.0587  155.6140 O   0  0  0  0  0  0  0  0  0  0  0  0
  148.7919  137.7312  155.7933 C   0  0  0  0  0  0  0  0  0  0  0  0
  147.7553  137.2107  156.7793 C   0  0  0  0  0  0  0  0  0  0  0  0
  149.6035  136.9787  155.2549 O   0  0  0  0  0  0  0  0  0  0  0  0
  151.0043  139.8296  155.2106 C   0  0  2  0  0  0  0  0  0  0  0  0
  151.4033  138.6708  155.9364 O   0  0  0  0  0  0  0  0  0  0  0  0
  152.7039  138.3569  156.0550 C   0  0  0  0  0  0  0  0  0  0  0  0
  152.9439  137.2702  157.0940 C   0  0  0  0  0  0  0  0  0  0  0  0
  153.6327  138.8664  155.4281 O   0  0  0  0  0  0  0  0  0  0  0  0
  144.7545  140.6053  153.6663 H   0  0  0  0  0  0  0  0  0  0  0  0
  152.0803  144.6284  158.5443 H   0  0  0  0  0  0  0  0  0  0  0  0
  153.2970  144.1844  159.7492 H   0  0  0  0  0  0  0  0  0  0  0  0
  151.5821  144.1986  160.1881 H   0  0  0  0  0  0  0  0  0  0  0  0
  151.7138  140.3424  157.8987 H   0  0  0  0  0  0  0  0  0  0  0  0
  149.9843  140.6334  157.8343 H   0  0  0  0  0  0  0  0  0  0  0  0
  151.9577  141.6794  155.7595 H   0  0  0  0  0  0  0  0  0  0  0  0
  149.4156  141.6481  153.6167 H   0  0  0  0  0  0  0  0  0  0  0  0
  147.9754  142.6805  156.5893 H   0  0  0  0  0  0  0  0  0  0  0  0
  149.5198  139.2881  153.7120 H   0  0  0  0  0  0  0  0  0  0  0  0
  148.0769  137.4071  157.8022 H   0  0  0  0  0  0  0  0  0  0  0  0
  147.6190  136.1358  156.6590 H   0  0  0  0  0  0  0  0  0  0  0  0
  146.7947  137.7004  156.6174 H   0  0  0  0  0  0  0  0  0  0  0  0
  151.6382  139.9480  154.3301 H   0  0  0  0  0  0  0  0  0  0  0  0
  152.3441  136.3889  156.8659 H   0  0  0  0  0  0  0  0  0  0  0  0
  152.6703  137.6296  158.0861 H   0  0  0  0  0  0  0  0  0  0  0  0
  153.9945  136.9790  157.1090 H   0  0  0  0  0  0  0  0  0  0  0  0
  1  2  1  0  0  0  0
  1 29  1  0  0  0  0
  1 30  1  0  0  0  0
  1 31  1  0  0  0  0
  2  3  2  0  0  0  0
  2  4  1  0  0  0  0
  4  5  1  0  0  0  0
  5  6  1  0  0  0  0
  5 32  1  0  0  0  0
  5 33  1  0  0  0  0
  6 23  1  0  0  0  0
  6  7  1  0  0  0  0
  6 34  1  0  0  0  0
  7  8  1  0  0  0  0
  8  9  1  0  0  0  0
  8 18  1  0  0  0  0
  8 35  1  0  0  0  0
  9 16  1  0  0  0  0
  9 10  1  0  0  0  0
 10 11  2  0  0  0  0
 10 36  1  0  0  0  0
 11 12  1  0  0  0  0
 11 13  1  0  0  0  0
 13 14  2  0  0  0  0
 13 15  1  0  0  0  0
 15 28  1  0  0  0  0
 15 16  1  0  0  0  0
 16 17  2  0  0  0  0
 18 19  1  0  0  0  0
 18 23  1  0  0  0  0
 18 37  1  0  0  0  0
 19 20  1  0  0  0  0
 20 21  1  0  0  0  0
 20 22  2  0  0  0  0
 21 38  1  0  0  0  0
 21 39  1  0  0  0  0
 21 40  1  0  0  0  0
 23 24  1  0  0  0  0
 23 41  1  0  0  0  0
 24 25  1  0  0  0  0
 25 26  1  0  0  0  0
 25 27  2  0  0  0  0
 26 42  1  0  0  0  0
 26 43  1  0  0  0  0
 26 44  1  0  0  0  0
M  END
> <s_m_source_file>
AV-unprocessed.smi

> <i_m_source_file_index>
102

> <i_lp_mmshare_version>
43012

> <i_f3d_flags>
0

> <s_epik_input>
W0NIM11DKD1PKU9bQ0gyXVtDQEBIXTFPW0NASF0oW0NAQEhdKE9DKD1PKVtDSDNdKVtDQEhdMU9DKD1PKVtDSDNdKW4yW2NIXWMoRiljKD1PKVtuSF1jMj1P

> <s_epik_cmdline>
J2VwaWtfcHl0aG9uJywgJy1waCcsICc3LjAnLCAnLXRuJywgJzgnLCAnLW1hJywgJzIwMCcsICctbWV0YWxfYmluZGluZycsICctaW1hZScsICc8aW5maWxlLm1hZT4nLCAnLW9tYWUnLCAnPG91dGZpbGUubWFlPic=

> <r_lp_tautomer_probability>
0.999537

> <r_epik_Ionization_Penalty>
0.058267

> <r_epik_Ionization_Penalty_Charging>
0.058267

> <r_epik_Ionization_Penalty_Neutral>
6.57791e-16

> <r_epik_State_Penalty>
0.0503774

> <r_epik_Charging_Adjusted_Penalty>
0.108644

> <i_epik_Tot_Q>
0

> <i_epik_Tot_abs_Q>
0

> <r_epik_Metal_State_Penalty>
2.6644

> <b_epik_Metal_Only>
0

> <s_epik_Chemistry_Notes>
This compound has an ester and may undergo hydrolysis at high or low pH. This compound contains an acetal/aminal-like group ( X-CH(R)-Y where X, Y are N, S, or O) that may be acid/base labile, releasing an aldehyde.

> <s_lp_Force_Field>
OPLS_2005

> <r_lp_Energy>
17.4488

> <b_lp_Chiralities_Consistent>
1

> <s_lp_Variant>
AV-unprocessed.smi:102-15

> <Gold.Version>
5.8.1

> <Gold.Id.Protein>
6NUR|6NUR_protein|mol2

> <Gold.PLP.Fitness>
39.4334

> <Gold.PLP.PLP>
-33.0640

> <Gold.PLP.part.hbond>
-1.9034

> <Gold.PLP.part.metal>
0.0000

> <Gold.PLP.part.buried>
-3.9285

> <Gold.PLP.part.nonpolar>
-28.4363

> <Gold.PLP.part.repulsive>
1.2506

> <Gold.PLP.ligand.clash>
0.0000

> <Gold.PLP.ligand.torsion>
0.8701

> <Gold.PLP.Chemscore.Hbond>
1.8960

> <Gold.PLP.Chemscore.CHOScore>
0.6505

> <Gold.PLP.Chemscore.Metal>
0.0000

> <Gold.Chemscore.Hbonds>
donor molecule, donor type, donor heavy atom, donor atom, acceptor molecule, acceptor atom, score
      L1  H    15    28       P1 10175  1.00
      P1  H  7997  8010       L1    27  0.90
      L1  C    10    36       P1  8028  0.62

> <Gold.PLP.Chemscore.Internal.Correction>
0.4700

> <Gold.Rescore>
     Score         DG    S(hbond)    S(metal)    S(lipo)     H(rot)  DE(clash)    DE(int)     intcor
      3.56      -7.20       1.85        0.00      50.56       4.05       0.13       3.51       ----

> <Gold.Chemscore.Fitness>
3.5578

> <Gold.Chemscore.DG>
-7.1954

> <Gold.Chemscore.ZeroCoef>
-5.4800

> <Gold.Chemscore.Hbond>
1.8481

> <Gold.Chemscore.Metal>
0.0000

> <Gold.Chemscore.Lipo>
50.5645

> <Gold.Chemscore.Internal_Hbond>
0.0000

> <Gold.Chemscore.DEClash>
0.1293

> <Gold.Chemscore.DEInternal>
3.5083

> <Gold.Chemscore.Rot>
4.0520

> <Gold.Chemscore.Internal.Correction>
   9.000000E+99

> <Gold.Chemscore.Hbonds>
donor molecule, donor type, donor heavy atom, donor atom, acceptor molecule, acceptor atom, score
      L1  H    15    28       P1 10175  0.97
      P1  H  7997  8010       L1    27  0.87

> <Gold.Chemscore.Hbond.Weighted>
-6.1725

> <Gold.Chemscore.Metal.Weighted>
-0.0000

> <Gold.Chemscore.Lipo.Weighted>
-5.9160

> <Gold.Chemscore.Internal_Hbond.Weighted>
0.0000

> <Gold.Chemscore.DEClash.Weighted>
0.1293

> <Gold.Chemscore.DEInternal.Weighted>
3.5083

> <Gold.Chemscore.Rot.Weighted>
10.3732

> <Gold.Chemscore.Internal.Correction.Weighted>
   9.000000E+99

> <Gold.Protein.RotatedTorsions>
[ 6907 6896 6895 6894 ] final   86.11 input  -60.11 | X-H torsion
[ 7974 7965 7964 7962 ] final   61.56 input  175.53 | X-H torsion
[ 8008 7997 7996 7995 ] final  102.45 input   59.86 | X-H torsion
[ 10167 10162 10161 10158 ] final -156.41 input  -65.29 | X-H torsion
[ 10718 10713 10712 10709 ] final  -25.87 input   66.30 | X-H torsion
[ 10763 10752 10751 10750 ] final   40.21 input  -60.55 | X-H torsion
[ 11005 11000 10999 10996 ] final   87.96 input  -57.11 | X-H torsion

> <Gold.Protein.ActiveResidues>
 VAL166  LYS551  ARG553  GLY616  TRP617  ASP618  TYR619  PRO620  LYS621  CYS622 
 ASP623  PHE694  ASN695  SER759  ASP760  ASP761  ALA762  ILE779  LEU786  VAL792 
 PHE793  MET794  SER795  GLU796  ALA797  LYS798  CYS799  TRP800  GLU811  SER814 

> <Gold.Protein.RotatedAtoms>
  152.5388  134.2481  159.8887 H   0  0  0  0  0  0  0  0  0  0  0  0  # atno 6907 bound_to 6896
  151.2446  133.4375  159.2616 H   0  0  0  0  0  0  0  0  0  0  0  0  # atno 6908 bound_to 6896
  151.0595  134.9741  159.8309 H   0  0  0  0  0  0  0  0  0  0  0  0  # atno 6909 bound_to 6896
  145.8833  139.3459  143.0693 H   0  0  0  0  0  0  0  0  0  0  0  0  # atno 7974 bound_to 7965
  156.1394  140.3181  155.8471 H   0  0  0  0  0  0  0  0  0  0  0  0  # atno 8008 bound_to 7997
  155.4183  140.0510  157.3044 H   0  0  0  0  0  0  0  0  0  0  0  0  # atno 8009 bound_to 7997
  154.4963  140.2112  155.9452 H   0  0  0  0  0  0  0  0  0  0  0  0  # atno 8010 bound_to 7997
  139.6853  143.9512  152.2358 H   0  0  0  0  0  0  0  0  0  0  0  0  # atno 10167 bound_to 10162
  156.4587  130.4499  149.6943 H   0  0  0  0  0  0  0  0  0  0  0  0  # atno 10718 bound_to 10713
  152.9943  135.6198  154.2590 H   0  0  0  0  0  0  0  0  0  0  0  0  # atno 10763 bound_to 10752
  154.2326  135.2791  155.2886 H   0  0  0  0  0  0  0  0  0  0  0  0  # atno 10764 bound_to 10752
  154.5436  135.5753  153.6919 H   0  0  0  0  0  0  0  0  0  0  0  0  # atno 10765 bound_to 10752
  139.8907  134.8456  156.2933 H   0  0  0  0  0  0  0  0  0  0  0  0  # atno 11005 bound_to 11000
  145.8997  140.9251  143.0509 LP  0  0  0  0  0  0  0  0  0  0  0  0  # atno 17320 bound_to 7965
  144.6728  140.1015  143.7460 LP  0  0  0  0  0  0  0  0  0  0  0  0  # atno 17321 bound_to 7965
  139.9314  144.6739  150.8359 LP  0  0  0  0  0  0  0  0  0  0  0  0  # atno 17342 bound_to 10162
  140.7665  143.3306  151.2418 LP  0  0  0  0  0  0  0  0  0  0  0  0  # atno 17343 bound_to 10162
  156.3739  130.7545  151.2531 LP  0  0  0  0  0  0  0  0  0  0  0  0  # atno 17370 bound_to 10713
  157.7499  131.0315  150.4184 LP  0  0  0  0  0  0  0  0  0  0  0  0  # atno 17371 bound_to 10713
  140.9962  133.7179  156.0889 LP  0  0  0  0  0  0  0  0  0  0  0  0  # atno 17394 bound_to 11000
  140.7559  134.3993  157.5534 LP  0  0  0  0  0  0  0  0  0  0  0  0  # atno 17395 bound_to 11000

$$$$
