AV-unprocessed.smi:1958|AV-procd|sdf|7907|dock8
  -GOLD-   2272010 63D 1   1.00000     0.00000
 Structure written by MMmdl.
 47 48  0  0  0  0  0  0  0  0  1 V2000
  152.5077  142.2679  159.8486 C   0  0  0  0  0  0  0  0  0  0  0  0
  151.7356  142.5558  158.6965 O   0  0  0  0  0  0  0  0  0  0  0  0
  151.3823  141.3884  157.9725 C   0  0  0  0  0  0  0  0  0  0  0  0
  150.9222  141.7827  156.5595 C   0  0  0  0  0  0  0  0  0  0  0  0
  150.6403  140.6061  155.7292 N   0  0  0  0  0  0  0  0  0  0  0  0
  149.3746  140.6037  155.1673 N   0  0  0  0  0  0  0  0  0  0  0  0
  148.9924  139.6127  154.4282 C   0  0  0  0  0  0  0  0  0  0  0  0
  147.6371  139.5692  153.8126 C   0  0  0  0  0  0  0  0  0  0  0  0
  146.8171  140.4727  153.9834 O   0  0  0  0  0  0  0  0  0  0  0  0
  147.3799  138.4767  153.0699 N   0  0  0  0  0  0  0  0  0  0  0  0
  146.1320  138.1923  152.3654 C   0  0  0  0  0  0  0  0  0  0  0  0
  145.3124  137.0464  153.0241 C   0  0  1  0  0  0  0  0  0  0  0  0
  143.8076  137.2631  152.7222 C   0  0  0  0  0  0  0  0  0  0  0  0
  145.7830  135.6944  152.6394 N   0  0  0  0  0  0  0  0  0  0  0  0
  145.4861  135.3715  151.2384 C   0  0  0  0  0  0  0  0  0  0  0  0
  145.9460  133.9589  150.8379 C   0  0  0  0  0  0  0  0  0  0  0  0
  145.3475  132.9990  151.6974 O   0  0  0  0  0  0  0  0  0  0  0  0
  145.6766  133.2270  153.0605 C   0  0  0  0  0  0  0  0  0  0  0  0
  145.2123  134.6331  153.4776 C   0  0  0  0  0  0  0  0  0  0  0  0
  149.8814  138.4928  154.1681 C   0  0  0  0  0  0  0  0  0  0  0  0
  151.1136  138.5095  154.7222 C   0  0  0  0  0  0  0  0  0  0  0  0
  151.5672  139.6141  155.5688 C   0  0  0  0  0  0  0  0  0  0  0  0
  152.6801  139.6468  156.0933 O   0  0  0  0  0  0  0  0  0  0  0  0
  152.7530  143.1955  160.3656 H   0  0  0  0  0  0  0  0  0  0  0  0
  153.4426  141.7723  159.5841 H   0  0  0  0  0  0  0  0  0  0  0  0
  151.9573  141.6311  160.5425 H   0  0  0  0  0  0  0  0  0  0  0  0
  152.2485  140.7290  157.9024 H   0  0  0  0  0  0  0  0  0  0  0  0
  150.5981  140.8370  158.4936 H   0  0  0  0  0  0  0  0  0  0  0  0
  150.0388  142.4205  156.6274 H   0  0  0  0  0  0  0  0  0  0  0  0
  151.6858  142.3996  156.0830 H   0  0  0  0  0  0  0  0  0  0  0  0
  148.1128  137.7865  152.9867 H   0  0  0  0  0  0  0  0  0  0  0  0
  145.5134  139.0857  152.2655 H   0  0  0  0  0  0  0  0  0  0  0  0
  146.4472  137.9247  151.3587 H   0  0  0  0  0  0  0  0  0  0  0  0
  145.4366  137.1488  154.1034 H   0  0  0  0  0  0  0  0  0  0  0  0
  143.4719  138.2660  152.9818 H   0  0  0  0  0  0  0  0  0  0  0  0
  143.1671  136.5969  153.2982 H   0  0  0  0  0  0  0  0  0  0  0  0
  143.5925  137.1093  151.6643 H   0  0  0  0  0  0  0  0  0  0  0  0
  144.4147  135.4684  151.0553 H   0  0  0  0  0  0  0  0  0  0  0  0
  145.9864  136.0683  150.5684 H   0  0  0  0  0  0  0  0  0  0  0  0
  145.6562  133.7442  149.8092 H   0  0  0  0  0  0  0  0  0  0  0  0
  147.0329  133.8773  150.8875 H   0  0  0  0  0  0  0  0  0  0  0  0
  145.1899  132.4700  153.6753 H   0  0  0  0  0  0  0  0  0  0  0  0
  146.7522  133.1160  153.2076 H   0  0  0  0  0  0  0  0  0  0  0  0
  145.5043  134.7633  154.5178 H   0  0  0  0  0  0  0  0  0  0  0  0
  144.1226  134.6798  153.4437 H   0  0  0  0  0  0  0  0  0  0  0  0
  149.5727  137.6637  153.5483 H   0  0  0  0  0  0  0  0  0  0  0  0
  151.7847  137.6837  154.5370 H   0  0  0  0  0  0  0  0  0  0  0  0
  1  2  1  0  0  0  0
  1 24  1  0  0  0  0
  1 25  1  0  0  0  0
  1 26  1  0  0  0  0
  2  3  1  0  0  0  0
  3  4  1  0  0  0  0
  3 27  1  0  0  0  0
  3 28  1  0  0  0  0
  4  5  1  0  0  0  0
  4 29  1  0  0  0  0
  4 30  1  0  0  0  0
  5 22  1  0  0  0  0
  5  6  1  0  0  0  0
  6  7  2  0  0  0  0
  7  8  1  0  0  0  0
  7 20  1  0  0  0  0
  8  9  2  0  0  0  0
  8 10  1  0  0  0  0
 10 11  1  0  0  0  0
 10 31  1  0  0  0  0
 11 12  1  0  0  0  0
 11 32  1  0  0  0  0
 11 33  1  0  0  0  0
 12 13  1  0  0  0  0
 12 14  1  0  0  0  0
 12 34  1  0  0  0  0
 13 35  1  0  0  0  0
 13 36  1  0  0  0  0
 13 37  1  0  0  0  0
 14 19  1  0  0  0  0
 14 15  1  0  0  0  0
 15 16  1  0  0  0  0
 15 38  1  0  0  0  0
 15 39  1  0  0  0  0
 16 17  1  0  0  0  0
 16 40  1  0  0  0  0
 16 41  1  0  0  0  0
 17 18  1  0  0  0  0
 18 19  1  0  0  0  0
 18 42  1  0  0  0  0
 18 43  1  0  0  0  0
 19 44  1  0  0  0  0
 19 45  1  0  0  0  0
 20 21  2  0  0  0  0
 20 46  1  0  0  0  0
 21 22  1  0  0  0  0
 21 47  1  0  0  0  0
 22 23  2  0  0  0  0
M  END
> <s_m_source_file>
AV-unprocessed.smi

> <i_m_source_file_index>
1958

> <i_lp_mmshare_version>
43012

> <i_f3d_flags>
0

> <s_epik_input>
W0NIM11PW0NIMl1bQ0gyXW4xbmMoW2NIXVtjSF1jMT1PKUMoPU8pW05IXVtDSDJdW0NASF0oW0NIM10pTjJbQ0gyXVtDSDJdT1tDSDJdW0NIMl0y

> <s_epik_cmdline>
J2VwaWtfcHl0aG9uJywgJy1waCcsICc3LjAnLCAnLXRuJywgJzgnLCAnLW1hJywgJzIwMCcsICctbWV0YWxfYmluZGluZycsICctaW1hZScsICc8aW5maWxlLm1hZT4nLCAnLW9tYWUnLCAnPG91dGZpbGUubWFlPic=

> <r_lp_tautomer_probability>
1

> <r_epik_Ionization_Penalty>
0.206669

> <r_epik_Ionization_Penalty_Charging>
5.75808e-09

> <r_epik_Ionization_Penalty_Neutral>
0.206669

> <r_epik_State_Penalty>
0.196651

> <r_epik_Charging_Adjusted_Penalty>
0.196651

> <i_epik_Tot_Q>
0

> <i_epik_Tot_abs_Q>
0

> <r_epik_Metal_State_Penalty>
0.198415

> <b_epik_Metal_Only>
0

> <s_lp_Force_Field>
OPLS_2005

> <r_lp_Energy>
50.1951

> <b_lp_Chiralities_Consistent>
1

> <s_lp_Variant>
AV-unprocessed.smi:1958-2

> <Gold.Version>
5.8.1

> <Gold.Id.Protein>
6NUR|6NUR_protein|mol2

> <Gold.PLP.Fitness>
43.6990

> <Gold.PLP.PLP>
-39.4929

> <Gold.PLP.part.hbond>
-2.3130

> <Gold.PLP.part.metal>
0.0000

> <Gold.PLP.part.buried>
-4.6903

> <Gold.PLP.part.nonpolar>
-33.6187

> <Gold.PLP.part.repulsive>
0.5087

> <Gold.PLP.ligand.clash>
0.6522

> <Gold.PLP.ligand.torsion>
0.5364

> <Gold.PLP.Chemscore.Hbond>
1.9280

> <Gold.PLP.Chemscore.CHOScore>
0.0000

> <Gold.PLP.Chemscore.Metal>
0.0000

> <Gold.Chemscore.Hbonds>
donor molecule, donor type, donor heavy atom, donor atom, acceptor molecule, acceptor atom, score
      L1  H    10    31       P1  7948  0.81
      P1  H  7997  8009       L1    23  1.00

> <Gold.PLP.Chemscore.Internal.Correction>
0.1473

> <Gold.Rescore>
     Score         DG    S(hbond)    S(metal)    S(lipo)     H(rot)  DE(clash)    DE(int)     intcor
     15.20     -15.99       1.95        0.00      78.99       2.04       0.13       0.66       ----

> <Gold.Chemscore.Fitness>
15.2000

> <Gold.Chemscore.DG>
-15.9941

> <Gold.Chemscore.ZeroCoef>
-5.4800

> <Gold.Chemscore.Hbond>
1.9455

> <Gold.Chemscore.Metal>
0.0000

> <Gold.Chemscore.Lipo>
78.9903

> <Gold.Chemscore.Internal_Hbond>
0.0000

> <Gold.Chemscore.DEClash>
0.1320

> <Gold.Chemscore.DEInternal>
0.6621

> <Gold.Chemscore.Rot>
2.0413

> <Gold.Chemscore.Internal.Correction>
   9.000000E+99

> <Gold.Chemscore.Hbonds>
donor molecule, donor type, donor heavy atom, donor atom, acceptor molecule, acceptor atom, score
      L1  H    10    31       P1  7948  0.76
      P1  H  7997  8009       L1    23  1.00

> <Gold.Chemscore.Hbond.Weighted>
-6.4979

> <Gold.Chemscore.Metal.Weighted>
-0.0000

> <Gold.Chemscore.Lipo.Weighted>
-9.2419

> <Gold.Chemscore.Internal_Hbond.Weighted>
0.0000

> <Gold.Chemscore.DEClash.Weighted>
0.1320

> <Gold.Chemscore.DEInternal.Weighted>
0.6621

> <Gold.Chemscore.Rot.Weighted>
5.2257

> <Gold.Chemscore.Internal.Correction.Weighted>
   9.000000E+99

> <Gold.Protein.RotatedTorsions>
[ 6907 6896 6895 6894 ] final -131.52 input  -60.11 | X-H torsion
[ 7974 7965 7964 7962 ] final  -64.34 input  175.53 | X-H torsion
[ 8008 7997 7996 7995 ] final -165.46 input   59.86 | X-H torsion
[ 10167 10162 10161 10158 ] final   79.51 input  -65.29 | X-H torsion
[ 10718 10713 10712 10709 ] final  154.86 input   66.30 | X-H torsion
[ 10763 10752 10751 10750 ] final   12.85 input  -60.55 | X-H torsion
[ 11005 11000 10999 10996 ] final  150.98 input  -57.11 | X-H torsion

> <Gold.Protein.ActiveResidues>
 VAL166  LYS551  ARG553  GLY616  TRP617  ASP618  TYR619  PRO620  LYS621  CYS622 
 ASP623  PHE694  ASN695  SER759  ASP760  ASP761  ALA762  ILE779  LEU786  VAL792 
 PHE793  MET794  SER795  GLU796  ALA797  LYS798  CYS799  TRP800  GLU811  SER814 

> <Gold.Protein.RotatedAtoms>
  150.9519  133.6540  159.2770 H   0  0  0  0  0  0  0  0  0  0  0  0  # atno 6907 bound_to 6896
  151.3893  135.0952  159.9530 H   0  0  0  0  0  0  0  0  0  0  0  0  # atno 6908 bound_to 6896
  152.5113  133.9037  159.7508 H   0  0  0  0  0  0  0  0  0  0  0  0  # atno 6909 bound_to 6896
  145.7680  140.8828  143.0395 H   0  0  0  0  0  0  0  0  0  0  0  0  # atno 7974 bound_to 7965
  155.8501  140.0962  157.1680 H   0  0  0  0  0  0  0  0  0  0  0  0  # atno 8008 bound_to 7997
  154.3985  140.1384  156.3896 H   0  0  0  0  0  0  0  0  0  0  0  0  # atno 8009 bound_to 7997
  155.7970  140.3454  155.5383 H   0  0  0  0  0  0  0  0  0  0  0  0  # atno 8010 bound_to 7997
  139.9596  144.5970  150.8084 H   0  0  0  0  0  0  0  0  0  0  0  0  # atno 10167 bound_to 10162
  157.2261  131.0729  151.1882 H   0  0  0  0  0  0  0  0  0  0  0  0  # atno 10718 bound_to 10713
  153.1781  135.6823  153.8516 H   0  0  0  0  0  0  0  0  0  0  0  0  # atno 10763 bound_to 10752
  153.7857  135.3176  155.3373 H   0  0  0  0  0  0  0  0  0  0  0  0  # atno 10764 bound_to 10752
  154.8042  135.4759  154.0444 H   0  0  0  0  0  0  0  0  0  0  0  0  # atno 10765 bound_to 10752
  140.1179  134.8883  157.2030 H   0  0  0  0  0  0  0  0  0  0  0  0  # atno 11005 bound_to 11000
  144.6818  139.9815  143.7483 LP  0  0  0  0  0  0  0  0  0  0  0  0  # atno 17320 bound_to 7965
  146.0199  139.3241  143.0819 LP  0  0  0  0  0  0  0  0  0  0  0  0  # atno 17321 bound_to 7965
  140.7557  143.3052  151.2980 LP  0  0  0  0  0  0  0  0  0  0  0  0  # atno 17342 bound_to 10162
  139.6564  144.0268  152.2663 LP  0  0  0  0  0  0  0  0  0  0  0  0  # atno 17343 bound_to 10162
  157.3527  130.7090  149.6451 LP  0  0  0  0  0  0  0  0  0  0  0  0  # atno 17370 bound_to 10713
  155.9678  130.4248  150.4625 LP  0  0  0  0  0  0  0  0  0  0  0  0  # atno 17371 bound_to 10713
  140.3004  134.3138  155.7291 LP  0  0  0  0  0  0  0  0  0  0  0  0  # atno 17394 bound_to 11000
  141.2145  133.7589  156.9633 LP  0  0  0  0  0  0  0  0  0  0  0  0  # atno 17395 bound_to 11000

$$$$
