AV-unprocessed.smi:249|AV-procd|sdf|1911|dock2
  -GOLD-   2262021 03D 1   1.00000     0.00000
 Structure written by MMmdl.
 64 67  0  0  0  0  0  0  0  0  2 V2000
  144.2877  132.5088  150.9007 C   0  0  0  0  0  0  0  0  0  0  0  0
  143.7658  133.8242  151.4991 C   0  0  0  0  0  0  0  0  0  0  0  0
  143.8188  133.8533  152.9907 N   0  3  1  0  0  0  0  0  0  0  0  0
  145.1959  133.7623  153.5542 C   0  0  0  0  0  0  0  0  0  0  0  0
  145.9868  135.0706  153.3595 C   0  0  0  0  0  0  0  0  0  0  0  0
  145.2251  136.2671  153.9613 C   0  0  1  0  0  0  0  0  0  0  0  0
  145.9401  137.5321  153.7695 N   0  0  0  0  0  0  0  0  0  0  0  0
  146.3961  137.9423  152.4430 C   0  0  0  0  0  0  0  0  0  0  0  0
  146.5009  138.1338  154.8506 C   0  0  0  0  0  0  0  0  0  0  0  0
  146.2158  137.6561  156.0910 N   0  0  0  0  0  0  0  0  0  0  0  0
  146.7444  138.2295  157.1759 C   0  0  0  0  0  0  0  0  0  0  0  0
  147.5742  139.2714  157.2477 N   0  0  0  0  0  0  0  0  0  0  0  0
  147.8779  139.7469  156.0067 C   0  0  0  0  0  0  0  0  0  0  0  0
  147.3909  139.2439  154.7666 C   0  0  0  0  0  0  0  0  0  0  0  0
  147.9329  139.9787  153.7170 N   0  0  0  0  0  0  0  0  0  0  0  0
  148.6805  140.8735  154.3028 C   0  0  0  0  0  0  0  0  0  0  0  0
  148.6992  140.8105  155.6770 N   0  0  0  0  0  0  0  0  0  0  0  0
  149.4394  141.6818  156.5723 C   0  0  0  0  0  0  0  0  0  0  0  0
  150.5327  140.9515  157.3969 C   0  0  1  0  0  0  0  0  0  0  0  0
  151.7399  140.5192  156.5250 C   0  0  0  0  0  0  0  0  0  0  0  0
  151.3290  139.8653  155.3420 O   0  0  0  0  0  0  0  0  0  0  0  0
  150.9945  141.8344  158.5859 C   0  0  1  0  0  0  0  0  0  0  0  0
  152.1826  141.2924  159.3641 C   0  0  0  0  0  0  0  0  0  0  0  0
  152.6776  142.5314  160.0977 C   0  0  0  0  0  0  0  0  0  0  0  0
  152.4685  143.6047  159.1905 O   0  0  0  0  0  0  0  0  0  0  0  0
  151.5261  143.2210  158.1929 C   0  0  0  0  0  0  0  0  0  0  0  0
  143.7847  136.3251  153.4182 C   0  0  0  0  0  0  0  0  0  0  0  0
  143.0667  134.9764  153.6308 C   0  0  1  0  0  0  0  0  0  0  0  0
  141.5802  135.0301  153.2343 C   0  0  0  0  0  0  0  0  0  0  0  0
  144.0890  132.4741  149.8292 H   0  0  0  0  0  0  0  0  0  0  0  0
  143.7986  131.6458  151.3535 H   0  0  0  0  0  0  0  0  0  0  0  0
  145.3640  132.3966  151.0261 H   0  0  0  0  0  0  0  0  0  0  0  0
  144.3044  134.6698  151.0720 H   0  0  0  0  0  0  0  0  0  0  0  0
  142.7345  133.9226  151.1661 H   0  0  0  0  0  0  0  0  0  0  0  0
  145.1150  133.5492  154.6209 H   0  0  0  0  0  0  0  0  0  0  0  0
  145.7431  132.9197  153.1348 H   0  0  0  0  0  0  0  0  0  0  0  0
  146.9641  134.9799  153.8353 H   0  0  0  0  0  0  0  0  0  0  0  0
  146.1806  135.2293  152.2988 H   0  0  0  0  0  0  0  0  0  0  0  0
  145.1541  136.0584  155.0280 H   0  0  0  0  0  0  0  0  0  0  0  0
  146.4437  139.0295  152.3714 H   0  0  0  0  0  0  0  0  0  0  0  0
  145.7226  137.5893  151.6631 H   0  0  0  0  0  0  0  0  0  0  0  0
  147.3884  137.5398  152.2375 H   0  0  0  0  0  0  0  0  0  0  0  0
  146.4605  137.7915  158.1215 H   0  0  0  0  0  0  0  0  0  0  0  0
  149.2397  141.6120  153.7465 H   0  0  0  0  0  0  0  0  0  0  0  0
  149.8860  142.4858  155.9860 H   0  0  0  0  0  0  0  0  0  0  0  0
  148.7106  142.1535  157.2313 H   0  0  0  0  0  0  0  0  0  0  0  0
  150.0874  140.0504  157.8220 H   0  0  0  0  0  0  0  0  0  0  0  0
  152.3634  141.3771  156.2717 H   0  0  0  0  0  0  0  0  0  0  0  0
  152.3795  139.8146  157.0536 H   0  0  0  0  0  0  0  0  0  0  0  0
  150.4296  139.5955  155.4485 H   0  0  0  0  0  0  0  0  0  0  0  0
  150.1637  141.9670  159.2814 H   0  0  0  0  0  0  0  0  0  0  0  0
  151.9202  140.4863  160.0497 H   0  0  0  0  0  0  0  0  0  0  0  0
  152.9534  140.9278  158.6833 H   0  0  0  0  0  0  0  0  0  0  0  0
  152.0800  142.7072  160.9930 H   0  0  0  0  0  0  0  0  0  0  0  0
  153.7233  142.4550  160.3957 H   0  0  0  0  0  0  0  0  0  0  0  0
  152.0453  143.1831  157.2343 H   0  0  0  0  0  0  0  0  0  0  0  0
  150.7303  143.9618  158.1142 H   0  0  0  0  0  0  0  0  0  0  0  0
  143.2384  137.1169  153.9322 H   0  0  0  0  0  0  0  0  0  0  0  0
  143.7763  136.5872  152.3603 H   0  0  0  0  0  0  0  0  0  0  0  0
  143.0763  134.7697  154.7024 H   0  0  0  0  0  0  0  0  0  0  0  0
  141.0371  135.7195  153.8813 H   0  0  0  0  0  0  0  0  0  0  0  0
  141.1084  134.0517  153.3308 H   0  0  0  0  0  0  0  0  0  0  0  0
  141.4368  135.3800  152.2119 H   0  0  0  0  0  0  0  0  0  0  0  0
  143.3453  133.0109  153.2852 H   0  0  0  0  0  0  0  0  0  0  0  0
  1  2  1  0  0  0  0
  1 30  1  0  0  0  0
  1 31  1  0  0  0  0
  1 32  1  0  0  0  0
  2  3  1  0  0  0  0
  2 33  1  0  0  0  0
  2 34  1  0  0  0  0
  3 28  1  0  0  0  0
  3  4  1  0  0  0  0
  3 64  1  0  0  0  0
  4  5  1  0  0  0  0
  4 35  1  0  0  0  0
  4 36  1  0  0  0  0
  5  6  1  0  0  0  0
  5 37  1  0  0  0  0
  5 38  1  0  0  0  0
  6  7  1  0  0  0  0
  6 27  1  0  0  0  0
  6 39  1  0  0  0  0
  7  8  1  0  0  0  0
  7  9  1  0  0  0  0
  8 40  1  0  0  0  0
  8 41  1  0  0  0  0
  8 42  1  0  0  0  0
  9 14  1  0  0  0  0
  9 10  2  0  0  0  0
 10 11  1  0  0  0  0
 11 12  2  0  0  0  0
 11 43  1  0  0  0  0
 12 13  1  0  0  0  0
 13 17  1  0  0  0  0
 13 14  2  0  0  0  0
 14 15  1  0  0  0  0
 15 16  2  0  0  0  0
 16 17  1  0  0  0  0
 16 44  1  0  0  0  0
 17 18  1  0  0  0  0
 18 19  1  0  0  0  0
 18 45  1  0  0  0  0
 18 46  1  0  0  0  0
 19 20  1  0  0  0  0
 19 22  1  0  0  0  0
 19 47  1  0  0  0  0
 20 21  1  0  0  0  0
 20 48  1  0  0  0  0
 20 49  1  0  0  0  0
 21 50  1  0  0  0  0
 22 26  1  0  0  0  0
 22 23  1  0  0  0  0
 22 51  1  0  0  0  0
 23 24  1  0  0  0  0
 23 52  1  0  0  0  0
 23 53  1  0  0  0  0
 24 25  1  0  0  0  0
 24 54  1  0  0  0  0
 24 55  1  0  0  0  0
 25 26  1  0  0  0  0
 26 56  1  0  0  0  0
 26 57  1  0  0  0  0
 27 28  1  0  0  0  0
 27 58  1  0  0  0  0
 27 59  1  0  0  0  0
 28 29  1  0  0  0  0
 28 60  1  0  0  0  0
 29 61  1  0  0  0  0
 29 62  1  0  0  0  0
 29 63  1  0  0  0  0
M  CHG  1   3   1
M  END
> <s_m_source_file>
AV-unprocessed.smi

> <i_m_source_file_index>
249

> <i_lp_mmshare_version>
43012

> <i_f3d_flags>
0

> <s_epik_input>
W0NIM11bQ0gyXU4xW0NIMl1bQ0gyXVtDQEhdKFtDSDJdW0NASF0xW0NIM10pTihbQ0gzXSljKG5bY0hdbjIpYyhjMjMpbltjSF1uM1tDSDJdW0NASF0oW0NIMl1bT0hdKVtDQEBIXTRbQ0gyXVtDSDJdT1tDSDJdNA==

> <s_epik_cmdline>
J2VwaWtfcHl0aG9uJywgJy1waCcsICc3LjAnLCAnLXRuJywgJzgnLCAnLW1hJywgJzIwMCcsICctbWV0YWxfYmluZGluZycsICctaW1hZScsICc8aW5maWxlLm1hZT4nLCAnLW9tYWUnLCAnPG91dGZpbGUubWFlPic=

> <r_lp_tautomer_probability>
1

> <r_epik_Ionization_Penalty>
0.00294688

> <r_epik_Ionization_Penalty_Charging>
0.00169971

> <r_epik_Ionization_Penalty_Neutral>
0.00124717

> <r_epik_State_Penalty>
-0

> <r_epik_Charging_Adjusted_Penalty>
0.00169971

> <i_epik_Tot_Q>
1

> <i_epik_Tot_abs_Q>
1

> <r_epik_Metal_State_Penalty>
-0

> <b_epik_Metal_Only>
0

> <s_lp_Force_Field>
OPLS_2005

> <r_lp_Energy>
53.8972

> <b_lp_Chiralities_Consistent>
1

> <s_lp_Variant>
AV-unprocessed.smi:249-14

> <Gold.Version>
5.8.1

> <Gold.Id.Protein>
6NUR|6NUR_protein|mol2

> <Gold.PLP.Fitness>
49.0011

> <Gold.PLP.PLP>
-40.3157

> <Gold.PLP.part.hbond>
-2.0000

> <Gold.PLP.part.metal>
0.0000

> <Gold.PLP.part.buried>
-8.3377

> <Gold.PLP.part.nonpolar>
-31.6028

> <Gold.PLP.part.repulsive>
0.5883

> <Gold.PLP.ligand.clash>
0.0000

> <Gold.PLP.ligand.torsion>
0.4711

> <Gold.PLP.Chemscore.Hbond>
3.0000

> <Gold.PLP.Chemscore.CHOScore>
0.0000

> <Gold.PLP.Chemscore.Metal>
0.0000

> <Gold.Chemscore.Hbonds>
donor molecule, donor type, donor heavy atom, donor atom, acceptor molecule, acceptor atom, score
      L1  H     3    64       P1 10957  1.89
      P1  H  7989  7998       L1    21  0.78

> <Gold.PLP.Chemscore.Internal.Correction>
0.6276

> <Gold.Rescore>
     Score         DG    S(hbond)    S(metal)    S(lipo)     H(rot)  DE(clash)    DE(int)     intcor
     12.94     -16.00       1.86        0.00      94.89       2.65       0.10       2.96       ----

> <Gold.Chemscore.Fitness>
12.9388

> <Gold.Chemscore.DG>
-16.0008

> <Gold.Chemscore.ZeroCoef>
-5.4800

> <Gold.Chemscore.Hbond>
1.8581

> <Gold.Chemscore.Metal>
0.0000

> <Gold.Chemscore.Lipo>
94.8939

> <Gold.Chemscore.Internal_Hbond>
0.0000

> <Gold.Chemscore.DEClash>
0.0978

> <Gold.Chemscore.DEInternal>
2.9643

> <Gold.Chemscore.Rot>
2.6515

> <Gold.Chemscore.Internal.Correction>
   9.000000E+99

> <Gold.Chemscore.Hbonds>
donor molecule, donor type, donor heavy atom, donor atom, acceptor molecule, acceptor atom, score
      L1  H     3    64       P1 10957  0.64
      P1  H  7989  7998       L1    21  0.59

> <Gold.Chemscore.Hbond.Weighted>
-6.2062

> <Gold.Chemscore.Metal.Weighted>
-0.0000

> <Gold.Chemscore.Lipo.Weighted>
-11.1026

> <Gold.Chemscore.Internal_Hbond.Weighted>
0.0000

> <Gold.Chemscore.DEClash.Weighted>
0.0978

> <Gold.Chemscore.DEInternal.Weighted>
2.9643

> <Gold.Chemscore.Rot.Weighted>
6.7880

> <Gold.Chemscore.Internal.Correction.Weighted>
   9.000000E+99

> <Gold.Protein.RotatedTorsions>
[ 6907 6896 6895 6894 ] final -102.64 input  -60.11 | X-H torsion
[ 7974 7965 7964 7962 ] final  131.73 input  175.53 | X-H torsion
[ 8008 7997 7996 7995 ] final  -49.85 input   59.86 | X-H torsion
[ 10167 10162 10161 10158 ] final -122.12 input  -65.29 | X-H torsion
[ 10718 10713 10712 10709 ] final -113.69 input   66.30 | X-H torsion
[ 10763 10752 10751 10750 ] final  -83.78 input  -60.55 | X-H torsion
[ 11005 11000 10999 10996 ] final  -16.59 input  -57.11 | X-H torsion

> <Gold.Protein.ActiveResidues>
 VAL166  LYS551  ARG553  GLY616  TRP617  ASP618  TYR619  PRO620  LYS621  CYS622 
 ASP623  PHE694  ASN695  SER759  ASP760  ASP761  ALA762  ILE779  LEU786  VAL792 
 PHE793  MET794  SER795  GLU796  ALA797  LYS798  CYS799  TRP800  GLU811  SER814 

> <Gold.Protein.RotatedAtoms>
  150.7205  134.0550  159.3811 H   0  0  0  0  0  0  0  0  0  0  0  0  # atno 6907 bound_to 6896
  151.8528  135.0549  160.0470 H   0  0  0  0  0  0  0  0  0  0  0  0  # atno 6908 bound_to 6896
  152.2777  133.5405  159.5514 H   0  0  0  0  0  0  0  0  0  0  0  0  # atno 6909 bound_to 6896
  145.0043  139.4282  143.5277 H   0  0  0  0  0  0  0  0  0  0  0  0  # atno 7974 bound_to 7965
  154.4051  140.1286  156.4570 H   0  0  0  0  0  0  0  0  0  0  0  0  # atno 8008 bound_to 7997
  155.7310  140.3491  155.5040 H   0  0  0  0  0  0  0  0  0  0  0  0  # atno 8009 bound_to 7997
  155.9127  140.1038  157.1257 H   0  0  0  0  0  0  0  0  0  0  0  0  # atno 8010 bound_to 7997
  140.0177  143.5377  152.2235 H   0  0  0  0  0  0  0  0  0  0  0  0  # atno 10167 bound_to 10162
  156.0783  130.5987  150.8676 H   0  0  0  0  0  0  0  0  0  0  0  0  # atno 10718 bound_to 10713
  154.5918  135.5544  153.7285 H   0  0  0  0  0  0  0  0  0  0  0  0  # atno 10763 bound_to 10752
  153.0119  135.6345  154.1839 H   0  0  0  0  0  0  0  0  0  0  0  0  # atno 10764 bound_to 10752
  154.1780  135.2888  155.3041 H   0  0  0  0  0  0  0  0  0  0  0  0  # atno 10765 bound_to 10752
  140.8083  133.8160  155.9538 H   0  0  0  0  0  0  0  0  0  0  0  0  # atno 11005 bound_to 11000
  146.3458  139.9449  142.8736 LP  0  0  0  0  0  0  0  0  0  0  0  0  # atno 17320 bound_to 7965
  145.2110  140.9896  143.4100 LP  0  0  0  0  0  0  0  0  0  0  0  0  # atno 17321 bound_to 7965
  139.6161  144.7620  151.2842 LP  0  0  0  0  0  0  0  0  0  0  0  0  # atno 17342 bound_to 10162
  140.7355  143.6733  150.8063 LP  0  0  0  0  0  0  0  0  0  0  0  0  # atno 17343 bound_to 10162
  157.5888  131.0945  150.9153 LP  0  0  0  0  0  0  0  0  0  0  0  0  # atno 17370 bound_to 10713
  156.9333  130.5357  149.5279 LP  0  0  0  0  0  0  0  0  0  0  0  0  # atno 17371 bound_to 10713
  140.9224  134.2125  157.4918 LP  0  0  0  0  0  0  0  0  0  0  0  0  # atno 17394 bound_to 11000
  139.8716  134.9798  156.5050 LP  0  0  0  0  0  0  0  0  0  0  0  0  # atno 17395 bound_to 11000

$$$$
