AV-unprocessed.smi:1381|AV-procd|sdf|5611|dock10
  -GOLD-   22720 5223D 1   1.00000     0.00000
 Structure written by MMmdl.
 41 42  0  0  0  0  0  0  0  0  2 V2000
  145.2542  133.8792  162.0779 C   0  0  0  0  0  0  0  0  0  0  0  0
  146.0687  135.0303  161.5966 C   0  0  0  0  0  0  0  0  0  0  0  0
  147.4008  135.1829  161.3354 C   0  0  0  0  0  0  0  0  0  0  0  0
  147.4938  136.5329  160.8997 C   0  0  0  0  0  0  0  0  0  0  0  0
  148.6184  137.1655  160.5307 N   0  5  0  0  0  0  0  0  0  0  0  0
  149.3123  136.7432  159.4483 C   0  0  0  0  0  0  0  0  0  0  0  0
  149.1324  135.6915  158.8297 O   0  0  0  0  0  0  0  0  0  0  0  0
  150.2775  137.5899  159.0611 N   0  0  0  0  0  0  0  0  0  0  0  0
  151.1829  137.3952  157.9340 C   0  0  0  0  0  0  0  0  0  0  0  0
  152.0799  138.6280  157.7145 C   0  0  0  0  0  0  0  0  0  0  0  0
  151.3630  139.8894  157.5320 N   0  0  0  0  0  0  0  0  0  0  0  0
  151.1177  140.1474  156.1171 C   0  0  0  0  0  0  0  0  0  0  0  0
  150.3641  141.4697  155.8717 C   0  0  1  0  0  0  0  0  0  0  0  0
  148.8756  141.4036  156.2537 C   0  0  0  0  0  0  0  0  0  0  0  0
  151.0336  142.5478  156.5277 O   0  0  0  0  0  0  0  0  0  0  0  0
  151.2984  142.3442  157.9147 C   0  0  2  0  0  0  0  0  0  0  0  0
  152.0833  143.5542  158.4319 C   0  0  0  0  0  0  0  0  0  0  0  0
  152.0738  141.0278  158.1050 C   0  0  0  0  0  0  0  0  0  0  0  0
  146.3243  137.1507  160.9150 N   0  0  0  0  0  0  0  0  0  0  0  0
  145.4038  136.1915  161.3540 O   0  0  0  0  0  0  0  0  0  0  0  0
  144.8995  134.0551  163.0933 H   0  0  0  0  0  0  0  0  0  0  0  0
  145.8411  132.9606  162.0780 H   0  0  0  0  0  0  0  0  0  0  0  0
  144.3862  133.7248  161.4368 H   0  0  0  0  0  0  0  0  0  0  0  0
  148.1843  134.4466  161.4345 H   0  0  0  0  0  0  0  0  0  0  0  0
  150.3887  138.4397  159.5943 H   0  0  0  0  0  0  0  0  0  0  0  0
  151.7898  136.5020  158.0919 H   0  0  0  0  0  0  0  0  0  0  0  0
  150.5660  137.2029  157.0572 H   0  0  0  0  0  0  0  0  0  0  0  0
  152.7837  138.7200  158.5431 H   0  0  0  0  0  0  0  0  0  0  0  0
  152.6875  138.4447  156.8272 H   0  0  0  0  0  0  0  0  0  0  0  0
  152.0707  140.1837  155.5872 H   0  0  0  0  0  0  0  0  0  0  0  0
  150.5556  139.3218  155.6785 H   0  0  0  0  0  0  0  0  0  0  0  0
  150.4081  141.6864  154.8039 H   0  0  0  0  0  0  0  0  0  0  0  0
  148.3574  140.6479  155.6628 H   0  0  0  0  0  0  0  0  0  0  0  0
  148.3843  142.3593  156.0714 H   0  0  0  0  0  0  0  0  0  0  0  0
  148.7327  141.1486  157.3036 H   0  0  0  0  0  0  0  0  0  0  0  0
  150.3548  142.2910  158.4583 H   0  0  0  0  0  0  0  0  0  0  0  0
  152.3019  143.4549  159.4954 H   0  0  0  0  0  0  0  0  0  0  0  0
  151.5147  144.4743  158.2942 H   0  0  0  0  0  0  0  0  0  0  0  0
  153.0306  143.6658  157.9034 H   0  0  0  0  0  0  0  0  0  0  0  0
  152.2355  140.8738  159.1712 H   0  0  0  0  0  0  0  0  0  0  0  0
  153.0610  141.1142  157.6481 H   0  0  0  0  0  0  0  0  0  0  0  0
  1  2  1  0  0  0  0
  1 21  1  0  0  0  0
  1 22  1  0  0  0  0
  1 23  1  0  0  0  0
  2 20  1  0  0  0  0
  2  3  2  0  0  0  0
  3  4  1  0  0  0  0
  3 24  1  0  0  0  0
  4  5  1  0  0  0  0
  4 19  2  0  0  0  0
  5  6  1  0  0  0  0
  6  7  2  0  0  0  0
  6  8  1  0  0  0  0
  8  9  1  0  0  0  0
  8 25  1  0  0  0  0
  9 10  1  0  0  0  0
  9 26  1  0  0  0  0
  9 27  1  0  0  0  0
 10 11  1  0  0  0  0
 10 28  1  0  0  0  0
 10 29  1  0  0  0  0
 11 18  1  0  0  0  0
 11 12  1  0  0  0  0
 12 13  1  0  0  0  0
 12 30  1  0  0  0  0
 12 31  1  0  0  0  0
 13 14  1  0  0  0  0
 13 15  1  0  0  0  0
 13 32  1  0  0  0  0
 14 33  1  0  0  0  0
 14 34  1  0  0  0  0
 14 35  1  0  0  0  0
 15 16  1  0  0  0  0
 16 17  1  0  0  0  0
 16 18  1  0  0  0  0
 16 36  1  0  0  0  0
 17 37  1  0  0  0  0
 17 38  1  0  0  0  0
 17 39  1  0  0  0  0
 18 40  1  0  0  0  0
 18 41  1  0  0  0  0
 19 20  1  0  0  0  0
M  CHG  1   5  -1
M  END
> <s_m_source_file>
AV-unprocessed.smi

> <i_m_source_file_index>
1381

> <i_lp_mmshare_version>
43012

> <i_f3d_flags>
0

> <s_epik_input>
W0NIM11jMVtjSF1jKG5vMSlbTkhdQyg9TylbTkhdW0NIMl1bQ0gyXU4yW0NIMl1bQ0BASF0oW0NIM10pT1tDQEBIXShbQ0gzXSlbQ0gyXTI=

> <s_epik_cmdline>
J2VwaWtfcHl0aG9uJywgJy1waCcsICc3LjAnLCAnLXRuJywgJzgnLCAnLW1hJywgJzIwMCcsICctbWV0YWxfYmluZGluZycsICctaW1hZScsICc8aW5maWxlLm1hZT4nLCAnLW9tYWUnLCAnPG91dGZpbGUubWFlPic=

> <r_epik_Ionization_Penalty>
6.88366

> <r_epik_Ionization_Penalty_Charging>
6.57198

> <r_epik_Ionization_Penalty_Neutral>
0.311678

> <r_epik_State_Penalty>
6.77619

> <r_epik_Charging_Adjusted_Penalty>
13.3482

> <i_epik_Tot_Q>
-1

> <i_epik_Tot_abs_Q>
1

> <r_epik_Metal_State_Penalty>
2.70524

> <b_epik_Metal_Only>
1

> <s_lp_Force_Field>
OPLS_2005

> <r_lp_Energy>
15.952

> <b_lp_Chiralities_Consistent>
1

> <s_lp_Variant>
AV-unprocessed.smi:1381-10

> <Gold.Version>
5.8.1

> <Gold.Id.Protein>
6NUR|6NUR_protein|mol2

> <Gold.PLP.Fitness>
40.9838

> <Gold.PLP.PLP>
-32.5948

> <Gold.PLP.part.hbond>
-3.4107

> <Gold.PLP.part.metal>
0.0000

> <Gold.PLP.part.buried>
-3.5555

> <Gold.PLP.part.nonpolar>
-25.2743

> <Gold.PLP.part.repulsive>
0.3191

> <Gold.PLP.ligand.clash>
0.0000

> <Gold.PLP.ligand.torsion>
1.0758

> <Gold.PLP.Chemscore.Hbond>
3.5040

> <Gold.PLP.Chemscore.CHOScore>
0.0000

> <Gold.PLP.Chemscore.Metal>
0.0000

> <Gold.Chemscore.Hbonds>
donor molecule, donor type, donor heavy atom, donor atom, acceptor molecule, acceptor atom, score
      P1  H  6896  6909       L1     7  0.95
      P1  H  6931  6943       L1     5  1.47
      P1  H  6934  6947       L1    19  0.66

> <Gold.PLP.Chemscore.Internal.Correction>
0.0286

> <Gold.Rescore>
     Score         DG    S(hbond)    S(metal)    S(lipo)     H(rot)  DE(clash)    DE(int)     intcor
     15.09     -16.14       1.69        0.00      76.69       1.54       0.06       0.98       ----

> <Gold.Chemscore.Fitness>
15.0907

> <Gold.Chemscore.DG>
-16.1370

> <Gold.Chemscore.ZeroCoef>
-5.4800

> <Gold.Chemscore.Hbond>
1.6853

> <Gold.Chemscore.Metal>
0.0000

> <Gold.Chemscore.Lipo>
76.6884

> <Gold.Chemscore.Internal_Hbond>
0.0000

> <Gold.Chemscore.DEClash>
0.0646

> <Gold.Chemscore.DEInternal>
0.9816

> <Gold.Chemscore.Rot>
1.5409

> <Gold.Chemscore.Internal.Correction>
   9.000000E+99

> <Gold.Chemscore.Hbonds>
donor molecule, donor type, donor heavy atom, donor atom, acceptor molecule, acceptor atom, score
      P1  H  6896  6909       L1     7  0.20
      P1  H  6931  6943       L1     5  0.45
      P1  H  6934  6947       L1    19  0.07

> <Gold.Chemscore.Hbond.Weighted>
-5.6291

> <Gold.Chemscore.Metal.Weighted>
-0.0000

> <Gold.Chemscore.Lipo.Weighted>
-8.9725

> <Gold.Chemscore.Internal_Hbond.Weighted>
0.0000

> <Gold.Chemscore.DEClash.Weighted>
0.0646

> <Gold.Chemscore.DEInternal.Weighted>
0.9816

> <Gold.Chemscore.Rot.Weighted>
3.9446

> <Gold.Chemscore.Internal.Correction.Weighted>
   9.000000E+99

> <Gold.Protein.RotatedTorsions>
[ 6907 6896 6895 6894 ] final   52.42 input  -60.11 | X-H torsion
[ 7974 7965 7964 7962 ] final -136.37 input  175.53 | X-H torsion
[ 8008 7997 7996 7995 ] final  145.87 input   59.86 | X-H torsion
[ 10167 10162 10161 10158 ] final   72.13 input  -65.29 | X-H torsion
[ 10718 10713 10712 10709 ] final    0.20 input   66.30 | X-H torsion
[ 10763 10752 10751 10750 ] final  136.22 input  -60.55 | X-H torsion
[ 11005 11000 10999 10996 ] final -110.06 input  -57.11 | X-H torsion

> <Gold.Protein.ActiveResidues>
 VAL166  LYS551  ARG553  GLY616  TRP617  ASP618  TYR619  PRO620  LYS621  CYS622 
 ASP623  PHE694  ASN695  SER759  ASP760  ASP761  ALA762  ILE779  LEU786  VAL792 
 PHE793  MET794  SER795  GLU796  ALA797  LYS798  CYS799  TRP800  GLU811  SER814 

> <Gold.Protein.RotatedAtoms>
  152.3231  134.7355  160.0308 H   0  0  0  0  0  0  0  0  0  0  0  0  # atno 6907 bound_to 6896
  151.7796  133.3343  159.3476 H   0  0  0  0  0  0  0  0  0  0  0  0  # atno 6908 bound_to 6896
  150.7381  134.5874  159.6014 H   0  0  0  0  0  0  0  0  0  0  0  0  # atno 6909 bound_to 6896
  144.8933  140.6672  143.5131 H   0  0  0  0  0  0  0  0  0  0  0  0  # atno 7974 bound_to 7965
  156.2871  140.2197  156.5284 H   0  0  0  0  0  0  0  0  0  0  0  0  # atno 8008 bound_to 7997
  154.7469  140.0483  157.0882 H   0  0  0  0  0  0  0  0  0  0  0  0  # atno 8009 bound_to 7997
  155.0159  140.3118  155.4815 H   0  0  0  0  0  0  0  0  0  0  0  0  # atno 8010 bound_to 7997
  140.0386  144.5408  150.7451 H   0  0  0  0  0  0  0  0  0  0  0  0  # atno 10167 bound_to 10162
  156.8298  130.5485  149.5688 H   0  0  0  0  0  0  0  0  0  0  0  0  # atno 10718 bound_to 10713
  153.8530  135.3077  155.3433 H   0  0  0  0  0  0  0  0  0  0  0  0  # atno 10763 bound_to 10752
  154.7883  135.4797  153.9997 H   0  0  0  0  0  0  0  0  0  0  0  0  # atno 10764 bound_to 10752
  153.1507  135.6842  153.8980 H   0  0  0  0  0  0  0  0  0  0  0  0  # atno 10765 bound_to 10752
  141.0813  133.9215  157.2282 H   0  0  0  0  0  0  0  0  0  0  0  0  # atno 11005 bound_to 11000
  145.3745  139.1651  143.4314 LP  0  0  0  0  0  0  0  0  0  0  0  0  # atno 17320 bound_to 7965
  146.3066  140.3820  142.8685 LP  0  0  0  0  0  0  0  0  0  0  0  0  # atno 17321 bound_to 7965
  140.7270  143.2647  151.4085 LP  0  0  0  0  0  0  0  0  0  0  0  0  # atno 17342 bound_to 10162
  139.6028  144.1259  152.2217 LP  0  0  0  0  0  0  0  0  0  0  0  0  # atno 17343 bound_to 10162
  156.0940  130.5918  150.9782 LP  0  0  0  0  0  0  0  0  0  0  0  0  # atno 17370 bound_to 10713
  157.6412  131.0910  150.8246 LP  0  0  0  0  0  0  0  0  0  0  0  0  # atno 17371 bound_to 10713
  139.9627  135.0150  156.9305 LP  0  0  0  0  0  0  0  0  0  0  0  0  # atno 17394 bound_to 11000
  140.5462  134.0672  155.7355 LP  0  0  0  0  0  0  0  0  0  0  0  0  # atno 17395 bound_to 11000

$$$$
