#       Name:                AV-unprocessed.smi:1867
#       Creating user name   scv26
#       Creation time:       Fri Mar 27 09:29:01 2020


#       File generated by GOLD software.
#

@<TRIPOS>MOLECULE
AV-unprocessed.smi:1867
    55    58     1
SMALL
NO_CHARGES


@<TRIPOS>ATOM
      1 ****        -0.5680   1.6514   0.7565 O.2            1 S1                 0.0000
      2 ****        -0.9735   0.5749   0.3225 C.2            1 S1                 0.0000
      3 ****        -0.0773  -0.3203  -0.1613 N.am           1 S1                 0.0000
      4 ****         1.3416  -0.2497  -0.1795 C.ar           1 S1                 0.0000
      5 ****         2.0265  -1.0078  -1.1516 C.ar           1 S1                 0.0000
      6 ****         3.4357  -0.9848  -1.1926 C.ar           1 S1                 0.0000
      7 ****         4.1515  -0.2075  -0.2517 C.ar           1 S1                 0.0000
      8 ****         5.5575  -0.1378  -0.2313 N.pl3          1 S1                 0.0000
      9 ****         6.2539   0.8288   0.6035 C.3            1 S1                 0.0000
     10 ****         7.7182   0.7201   0.1816 C.3            1 S1                 0.0000
     11 ****         7.6249   0.3689  -1.3030 C.3            1 S1                 0.0000
     12 ****         6.3468  -0.4714  -1.4089 C.3            1 S1                 0.0000
     13 ****         3.4529   0.4852   0.6790 N.pl3          1 S1                 1.0000
     14 ****         2.1044   0.4923   0.7530 C.ar           1 S1                 0.0000
     15 ****        -2.3081   0.2794   0.3015 N.pl3          1 S1                -1.0000
     16 ****        -2.9874  -0.9339  -0.1854 C.3            1 S1                 0.0000
     17 ****        -3.0895  -1.9684   0.9429 C.3            1 S1                 0.0000
     18 ****        -4.3665  -1.6066   1.7254 C.3            1 S1                 0.0000
     19 ****        -5.1820  -0.7209   0.8551 N.4            1 S1                 1.0000
     20 ****        -5.4820   0.5930   1.4947 C.3            1 S1                 0.0000
     21 ****        -6.1147   1.5883   0.5151 C.3            1 S1                 0.0000
     22 ****        -5.1688   1.8318  -0.6626 C.3            1 S1                 0.0000
     23 ****        -4.9047   0.5076  -1.3918 C.3            1 S1                 0.0000
     24 ****        -4.4820  -0.6624  -0.4592 C.3            1 S1                 0.0000
     25 ****        -0.4768  -1.1324  -0.6084 H              1 S1                 0.0000
     26 ****         1.4771  -1.6023  -1.8669 H              1 S1                 0.0000
     27 ****         3.9492  -1.5700  -1.9408 H              1 S1                 0.0000
     28 ****         5.8696   1.8299   0.4024 H              1 S1                 0.0000
     29 ****         6.1232   0.6134   1.6646 H              1 S1                 0.0000
     30 ****         8.2836   1.6329   0.3711 H              1 S1                 0.0000
     31 ****         8.2003  -0.0951   0.7231 H              1 S1                 0.0000
     32 ****         7.5097   1.2840  -1.8856 H              1 S1                 0.0000
     33 ****         8.5070  -0.1541  -1.6735 H              1 S1                 0.0000
     34 ****         6.5820  -1.5359  -1.3846 H              1 S1                 0.0000
     35 ****         5.8183  -0.2585  -2.3384 H              1 S1                 0.0000
     36 ****         1.6951   1.0793   1.5616 H              1 S1                 0.0000
     37 ****        -2.5025  -1.3578  -1.0659 H              1 S1                 0.0000
     38 ****        -3.2087  -2.9605   0.5051 H              1 S1                 0.0000
     39 ****        -2.2040  -2.0070   1.5792 H              1 S1                 0.0000
     40 ****        -4.9332  -2.5018   1.9826 H              1 S1                 0.0000
     41 ****        -4.1090  -1.1140   2.6653 H              1 S1                 0.0000
     42 ****        -6.1488   0.4279   2.3414 H              1 S1                 0.0000
     43 ****        -4.5678   1.0299   1.8999 H              1 S1                 0.0000
     44 ****        -7.0740   1.2101   0.1589 H              1 S1                 0.0000
     45 ****        -6.3194   2.5297   1.0256 H              1 S1                 0.0000
     46 ****        -5.6034   2.5566  -1.3513 H              1 S1                 0.0000
     47 ****        -4.2329   2.2648  -0.3080 H              1 S1                 0.0000
     48 ****        -5.8344   0.2207  -1.8852 H              1 S1                 0.0000
     49 ****        -4.1881   0.6572  -2.2016 H              1 S1                 0.0000
     50 ****        -4.8231  -1.5608  -0.9775 H              1 S1                 0.0000
     51 ****        -6.0718  -1.1680   0.6903 H              1 S1                 0.0000
     52 ****         3.9724   1.0325   1.3652 H              1 S1                 0.0000
     53 ****         0.4107   1.8566   0.7494 LP             1 S1                 0.0000
     54 ****        -1.2169   2.3217   1.1165 LP             1 S1                 0.0000
     55 ****        -2.9096   0.9885   0.6694 LP             1 S1                 0.0000
@<TRIPOS>BOND
    1    1    2 2     
    2    2    3 am    
    3    2   15 1     
    4    3    4 1     
    5    3   25 1     
    6    4   14 ar    
    7    4    5 ar    
    8    5    6 ar    
    9    5   26 1     
   10    6    7 ar    
   11    6   27 1     
   12    7    8 1     
   13    7   13 ar    
   14    8   12 1     
   15    8    9 1     
   16    9   10 1     
   17    9   28 1     
   18    9   29 1     
   19   10   11 1     
   20   10   30 1     
   21   10   31 1     
   22   11   12 1     
   23   11   32 1     
   24   11   33 1     
   25   12   34 1     
   26   12   35 1     
   27   13   14 ar    
   28   13   52 1     
   29   14   36 1     
   30   15   16 1     
   31   16   24 1     
   32   16   17 1     
   33   16   37 1     
   34   17   18 1     
   35   17   38 1     
   36   17   39 1     
   37   18   19 1     
   38   18   40 1     
   39   18   41 1     
   40   19   24 1     
   41   19   20 1     
   42   19   51 1     
   43   20   21 1     
   44   20   42 1     
   45   20   43 1     
   46   21   22 1     
   47   21   44 1     
   48   21   45 1     
   49   22   23 1     
   50   22   46 1     
   51   22   47 1     
   52   23   24 1     
   53   23   48 1     
   54   23   49 1     
   55   24   50 1     
   56    1   53 1     
   57    1   54 1     
   58   15   55 1     
@<TRIPOS>SUBSTRUCTURE
      1 S1             1
@<TRIPOS>SET
LONE_PAIRS      STATIC     ATOMS    <user>   **** ""
3 53 54 55
DONOR_HYDROGENS      STATIC     ATOMS    <user>   **** ""
3 25 52 51
ATOM$BLUE        STATIC     ATOMS    COLORGROUP SYSTEM
3 53 54 55
ATOM$RED        STATIC     ATOMS    COLORGROUP SYSTEM
3 25 52 51
