#       Name:                AV-unprocessed.smi:848
#       Creating user name   scv26
#       Creation time:       Fri Mar 27 01:40:43 2020


#       File generated by GOLD software.
#

@<TRIPOS>MOLECULE
AV-unprocessed.smi:848
    53    55     1
SMALL
NO_CHARGES


@<TRIPOS>ATOM
      1 ****        -5.6746  -0.1622  -2.2709 C.3            1 S1                 0.0000
      2 ****        -4.5064   0.7456  -1.9453 C.ar           1 S1                 0.0000
      3 ****        -4.6447   2.1448  -2.0393 C.ar           1 S1                 0.0000
      4 ****        -3.5533   2.9837  -1.7405 C.ar           1 S1                 0.0000
      5 ****        -3.7017   4.4884  -1.8343 C.3            1 S1                 0.0000
      6 ****        -2.3236   2.4180  -1.3475 C.ar           1 S1                 0.0000
      7 ****        -2.1683   1.0203  -1.2478 C.ar           1 S1                 0.0000
      8 ****        -0.9298   0.5566  -0.8595 O.3            1 S1                 0.0000
      9 ****        -0.7496  -0.8461  -0.7075 C.3            1 S1                 0.0000
     10 ****         0.6939  -1.1498  -0.2723 C.3            1 S1                 0.0000
     11 ****         1.5457  -1.0683  -1.3977 O.3            1 S1                 0.0000
     12 ****         1.1952  -0.2635   0.8865 C.3            1 S1                 0.0000
     13 ****         2.5332  -0.6324   1.3296 N.pl3          1 S1                 0.0000
     14 ****         3.7156  -0.0363   1.0308 C.2            1 S1                 0.0000
     15 ****         3.7839   1.1732   0.1416 C.3            1 S1                 0.0000
     16 ****         5.0939   1.5141  -0.2653 O.3            1 S1                 0.0000
     17 ****         4.7959  -0.5908   1.5869 N.2            1 S1                 0.0000
     18 ****         4.2657  -1.6428   2.3066 C.ar           1 S1                 0.0000
     19 ****         4.8978  -2.6146   3.1149 C.ar           1 S1                 0.0000
     20 ****         4.1359  -3.6077   3.7648 C.ar           1 S1                 0.0000
     21 ****         2.7342  -3.6432   3.6161 C.ar           1 S1                 0.0000
     22 ****         2.0848  -2.6844   2.8149 C.ar           1 S1                 0.0000
     23 ****         2.8503  -1.6957   2.1683 C.ar           1 S1                 0.0000
     24 ****        -3.2742   0.1860  -1.5497 C.ar           1 S1                 0.0000
     25 ****        -6.5826   0.4100  -2.4633 H              1 S1                 0.0000
     26 ****        -5.8706  -0.8411  -1.4407 H              1 S1                 0.0000
     27 ****        -5.4529  -0.7578  -3.1568 H              1 S1                 0.0000
     28 ****        -5.5883   2.5764  -2.3408 H              1 S1                 0.0000
     29 ****        -2.7606   4.9547  -2.1275 H              1 S1                 0.0000
     30 ****        -4.0014   4.8960  -0.8686 H              1 S1                 0.0000
     31 ****        -4.4571   4.7611  -2.5719 H              1 S1                 0.0000
     32 ****        -1.4870   3.0619  -1.1175 H              1 S1                 0.0000
     33 ****        -1.4330  -1.2067   0.0630 H              1 S1                 0.0000
     34 ****        -0.9823  -1.3775  -1.6320 H              1 S1                 0.0000
     35 ****         0.7265  -2.1910   0.0506 H              1 S1                 0.0000
     36 ****         1.2331  -1.6701  -2.0559 H              1 S1                 0.0000
     37 ****         1.1837   0.7897   0.6064 H              1 S1                 0.0000
     38 ****         0.5208  -0.3545   1.7387 H              1 S1                 0.0000
     39 ****         3.1868   1.0028  -0.7535 H              1 S1                 0.0000
     40 ****         3.3489   2.0232   0.6676 H              1 S1                 0.0000
     41 ****         5.0462   2.2738  -0.8247 H              1 S1                 0.0000
     42 ****         5.9709  -2.5949   3.2351 H              1 S1                 0.0000
     43 ****         4.6297  -4.3453   4.3804 H              1 S1                 0.0000
     44 ****         2.1582  -4.4067   4.1181 H              1 S1                 0.0000
     45 ****         1.0115  -2.7082   2.6989 H              1 S1                 0.0000
     46 ****        -3.2008  -0.8890  -1.4870 H              1 S1                 0.0000
     47 ****        -0.7191   0.9790   0.0221 LP             1 S1                 0.0000
     48 ****        -0.2700   0.8669  -1.5440 LP             1 S1                 0.0000
     49 ****         2.4784  -1.3131  -1.1329 LP             1 S1                 0.0000
     50 ****         1.5360  -0.1367  -1.7610 LP             1 S1                 0.0000
     51 ****         5.5005   0.7507  -0.7672 LP             1 S1                 0.0000
     52 ****         5.6533   1.7209   0.5374 LP             1 S1                 0.0000
     53 ****         5.7527  -0.3126   1.5027 LP             1 S1                 0.0000
@<TRIPOS>BOND
    1    1    2 1     
    2    1   25 1     
    3    1   26 1     
    4    1   27 1     
    5    2   24 ar    
    6    2    3 ar    
    7    3    4 ar    
    8    3   28 1     
    9    4    5 1     
   10    4    6 ar    
   11    5   29 1     
   12    5   30 1     
   13    5   31 1     
   14    6    7 ar    
   15    6   32 1     
   16    7    8 1     
   17    7   24 ar    
   18    8    9 1     
   19    9   10 1     
   20    9   33 1     
   21    9   34 1     
   22   10   11 1     
   23   10   12 1     
   24   10   35 1     
   25   11   36 1     
   26   12   13 1     
   27   12   37 1     
   28   12   38 1     
   29   13   23 1     
   30   13   14 1     
   31   14   15 1     
   32   14   17 2     
   33   15   16 1     
   34   15   39 1     
   35   15   40 1     
   36   16   41 1     
   37   17   18 1     
   38   18   23 ar    
   39   18   19 ar    
   40   19   20 ar    
   41   19   42 1     
   42   20   21 ar    
   43   20   43 1     
   44   21   22 ar    
   45   21   44 1     
   46   22   23 ar    
   47   22   45 1     
   48   24   46 1     
   49    8   47 1     
   50    8   48 1     
   51   11   49 1     
   52   11   50 1     
   53   16   51 1     
   54   16   52 1     
   55   17   53 1     
@<TRIPOS>SUBSTRUCTURE
      1 S1             1
@<TRIPOS>SET
LONE_PAIRS      STATIC     ATOMS    <user>   **** ""
7 47 48 49 50 51 52 53
DONOR_HYDROGENS      STATIC     ATOMS    <user>   **** ""
2 36 41
ATOM$BLUE        STATIC     ATOMS    COLORGROUP SYSTEM
7 47 48 49 50 51 52 53
ATOM$RED        STATIC     ATOMS    COLORGROUP SYSTEM
2 36 41
