AV-unprocessed.smi:25|AV-procd|sdf|182|dock5
  -GOLD-   2262015443D 1   1.00000     0.00000
 Structure written by MMmdl.
 47 50  0  0  0  0  0  0  0  0  1 V2000
  155.0643  138.4318  160.0077 C   0  0  0  0  0  0  0  0  0  0  0  0
  153.8206  139.1316  160.5930 C   0  0  1  0  0  0  0  0  0  0  0  0
  154.1443  140.5812  161.0175 C   0  0  0  0  0  0  0  0  0  0  0  0
  153.2527  141.4030  160.1399 C   0  0  0  0  0  0  0  0  0  0  0  0
  153.2084  142.8070  160.0972 C   0  0  0  0  0  0  0  0  0  0  0  0
  152.3057  143.4211  159.2070 C   0  0  0  0  0  0  0  0  0  0  0  0
  151.4735  142.6303  158.3854 C   0  0  0  0  0  0  0  0  0  0  0  0
  151.5320  141.2204  158.4414 C   0  0  0  0  0  0  0  0  0  0  0  0
  152.4412  140.6036  159.3357 C   0  0  0  0  0  0  0  0  0  0  0  0
  152.7179  139.2282  159.6073 N   0  0  0  0  0  0  0  0  0  0  0  0
  152.0515  138.1104  159.2064 C   0  0  0  0  0  0  0  0  0  0  0  0
  152.2712  137.0180  159.7357 O   0  0  0  0  0  0  0  0  0  0  0  0
  150.9831  138.1680  158.0980 C   0  0  0  0  0  0  0  0  0  0  0  0
  150.2403  136.8979  157.9220 N   0  0  0  0  0  0  0  0  0  0  0  0
  150.5765  136.0535  156.8350 C   0  0  0  0  0  0  0  0  0  0  0  0
  151.4564  136.3635  156.0306 O   0  0  0  0  0  0  0  0  0  0  0  0
  149.8185  134.8112  156.7473 C   0  0  0  0  0  0  0  0  0  0  0  0
  150.1148  133.9170  155.7890 F   0  0  0  0  0  0  0  0  0  0  0  0
  148.8334  134.5346  157.6260 C   0  0  0  0  0  0  0  0  0  0  0  0
  148.4602  135.4023  158.6372 N   0  0  0  0  0  0  0  0  0  0  0  0
  147.4033  135.0303  159.6571 C   0  0  1  0  0  0  0  0  0  0  0  0
  147.9342  134.8949  161.0952 C   0  0  0  0  0  0  0  0  0  0  0  0
  147.4173  136.1604  161.7509 C   0  0  0  0  0  0  0  0  0  0  0  0
  146.1206  136.3949  160.9860 C   0  0  0  0  0  0  0  0  0  0  0  0
  146.4375  136.0389  159.6468 O   0  0  0  0  0  0  0  0  0  0  0  0
  149.2050  136.5867  158.8376 C   0  0  0  0  0  0  0  0  0  0  0  0
  148.9532  137.3389  159.7818 O   0  0  0  0  0  0  0  0  0  0  0  0
  155.8799  138.4218  160.7311 H   0  0  0  0  0  0  0  0  0  0  0  0
  155.4202  138.9454  159.1138 H   0  0  0  0  0  0  0  0  0  0  0  0
  154.8639  137.3956  159.7360 H   0  0  0  0  0  0  0  0  0  0  0  0
  153.4783  138.5807  161.4712 H   0  0  0  0  0  0  0  0  0  0  0  0
  153.8983  140.7570  162.0654 H   0  0  0  0  0  0  0  0  0  0  0  0
  155.1893  140.8494  160.8570 H   0  0  0  0  0  0  0  0  0  0  0  0
  153.8509  143.4010  160.7305 H   0  0  0  0  0  0  0  0  0  0  0  0
  152.2508  144.4983  159.1526 H   0  0  0  0  0  0  0  0  0  0  0  0
  150.7849  143.1095  157.7051 H   0  0  0  0  0  0  0  0  0  0  0  0
  150.8736  140.6789  157.7873 H   0  0  0  0  0  0  0  0  0  0  0  0
  150.2979  138.9862  158.3197 H   0  0  0  0  0  0  0  0  0  0  0  0
  151.4681  138.4278  157.1568 H   0  0  0  0  0  0  0  0  0  0  0  0
  148.3314  133.5863  157.5201 H   0  0  0  0  0  0  0  0  0  0  0  0
  146.9784  134.0821  159.3240 H   0  0  0  0  0  0  0  0  0  0  0  0
  147.4603  134.0241  161.5502 H   0  0  0  0  0  0  0  0  0  0  0  0
  149.0136  134.7537  161.1502 H   0  0  0  0  0  0  0  0  0  0  0  0
  147.2646  136.0531  162.8249 H   0  0  0  0  0  0  0  0  0  0  0  0
  148.1047  136.9903  161.5857 H   0  0  0  0  0  0  0  0  0  0  0  0
  145.3326  135.7362  161.3543 H   0  0  0  0  0  0  0  0  0  0  0  0
  145.7686  137.4240  161.0552 H   0  0  0  0  0  0  0  0  0  0  0  0
  1  2  1  0  0  0  0
  1 28  1  0  0  0  0
  1 29  1  0  0  0  0
  1 30  1  0  0  0  0
  2 10  1  0  0  0  0
  2  3  1  0  0  0  0
  2 31  1  0  0  0  0
  3  4  1  0  0  0  0
  3 32  1  0  0  0  0
  3 33  1  0  0  0  0
  4  9  2  0  0  0  0
  4  5  1  0  0  0  0
  5  6  2  0  0  0  0
  5 34  1  0  0  0  0
  6  7  1  0  0  0  0
  6 35  1  0  0  0  0
  7  8  2  0  0  0  0
  7 36  1  0  0  0  0
  8  9  1  0  0  0  0
  8 37  1  0  0  0  0
  9 10  1  0  0  0  0
 10 11  1  0  0  0  0
 11 12  2  0  0  0  0
 11 13  1  0  0  0  0
 13 14  1  0  0  0  0
 13 38  1  0  0  0  0
 13 39  1  0  0  0  0
 14 26  1  0  0  0  0
 14 15  1  0  0  0  0
 15 16  2  0  0  0  0
 15 17  1  0  0  0  0
 17 18  1  0  0  0  0
 17 19  2  0  0  0  0
 19 20  1  0  0  0  0
 19 40  1  0  0  0  0
 20 21  1  0  0  0  0
 20 26  1  0  0  0  0
 21 25  1  0  0  0  0
 21 22  1  0  0  0  0
 21 41  1  0  0  0  0
 22 23  1  0  0  0  0
 22 42  1  0  0  0  0
 22 43  1  0  0  0  0
 23 24  1  0  0  0  0
 23 44  1  0  0  0  0
 23 45  1  0  0  0  0
 24 25  1  0  0  0  0
 24 46  1  0  0  0  0
 24 47  1  0  0  0  0
 26 27  2  0  0  0  0
M  END
> <s_m_source_file>
AV-unprocessed.smi

> <i_m_source_file_index>
25

> <i_lp_mmshare_version>
43012

> <i_f3d_flags>
0

> <s_epik_input>
W2NIXTFbY0hdW2NIXVtjSF1jKGMxMilOKFtDQEhdKFtDSDNdKVtDSDJdMilDKD1PKVtDSDJdbjNjKD1PKWMoRilbY0hdbihjMz1PKVtDQEBIXTRbQ0gyXVtDSDJdW0NIMl1PNA==

> <s_epik_cmdline>
J2VwaWtfcHl0aG9uJywgJy1waCcsICc3LjAnLCAnLXRuJywgJzgnLCAnLW1hJywgJzIwMCcsICctbWV0YWxfYmluZGluZycsICctaW1hZScsICc8aW5maWxlLm1hZT4nLCAnLW9tYWUnLCAnPG91dGZpbGUubWFlPic=

> <r_lp_tautomer_probability>
1

> <r_epik_Ionization_Penalty>
1.67943e-06

> <r_epik_Ionization_Penalty_Charging>
3.79603e-09

> <r_epik_Ionization_Penalty_Neutral>
1.67563e-06

> <r_epik_State_Penalty>
-0

> <r_epik_Charging_Adjusted_Penalty>
3.79603e-09

> <i_epik_Tot_Q>
0

> <i_epik_Tot_abs_Q>
0

> <r_epik_Metal_State_Penalty>
-0

> <b_epik_Metal_Only>
0

> <s_epik_Chemistry_Notes>
This compound contains an acetal/aminal-like group ( X-CH(R)-Y where X, Y are N, S, or O) that may be acid/base labile, releasing an aldehyde.

> <s_lp_Force_Field>
OPLS_2005

> <r_lp_Energy>
55.1146

> <b_lp_Chiralities_Consistent>
1

> <s_lp_Variant>
AV-unprocessed.smi:25-4

> <Gold.Version>
5.8.1

> <Gold.Id.Protein>
6NUR|6NUR_protein|mol2

> <Gold.PLP.Fitness>
49.7456

> <Gold.PLP.PLP>
-44.0211

> <Gold.PLP.part.hbond>
-3.4710

> <Gold.PLP.part.metal>
0.0000

> <Gold.PLP.part.buried>
-6.4362

> <Gold.PLP.part.nonpolar>
-35.2319

> <Gold.PLP.part.repulsive>
0.0158

> <Gold.PLP.ligand.clash>
0.0000

> <Gold.PLP.ligand.torsion>
0.3921

> <Gold.PLP.Chemscore.Hbond>
2.1109

> <Gold.PLP.Chemscore.CHOScore>
0.0000

> <Gold.PLP.Chemscore.Metal>
0.0000

> <Gold.Chemscore.Hbonds>
donor molecule, donor type, donor heavy atom, donor atom, acceptor molecule, acceptor atom, score
      P1  H  6896  6908       L1    12  1.00
      P1  H  6931  6943       L1    27  0.14
      P1  H 10752 10763       L1    16  0.78

> <Gold.PLP.Chemscore.Internal.Correction>
0.1758

> <Gold.Rescore>
     Score         DG    S(hbond)    S(metal)    S(lipo)     H(rot)  DE(clash)    DE(int)     intcor
     19.59     -20.53       2.11        0.00     102.27       1.55       0.03       0.91       ----

> <Gold.Chemscore.Fitness>
19.5903

> <Gold.Chemscore.DG>
-20.5313

> <Gold.Chemscore.ZeroCoef>
-5.4800

> <Gold.Chemscore.Hbond>
2.1110

> <Gold.Chemscore.Metal>
0.0000

> <Gold.Chemscore.Lipo>
102.2701

> <Gold.Chemscore.Internal_Hbond>
0.0000

> <Gold.Chemscore.DEClash>
0.0331

> <Gold.Chemscore.DEInternal>
0.9079

> <Gold.Chemscore.Rot>
1.5489

> <Gold.Chemscore.Internal.Correction>
   9.000000E+99

> <Gold.Chemscore.Hbonds>
donor molecule, donor type, donor heavy atom, donor atom, acceptor molecule, acceptor atom, score
      P1  H  6896  6908       L1    12  0.99
      P1  H  6931  6943       L1    27  0.14
      P1  H 10752 10763       L1    16  0.77

> <Gold.Chemscore.Hbond.Weighted>
-7.0508

> <Gold.Chemscore.Metal.Weighted>
-0.0000

> <Gold.Chemscore.Lipo.Weighted>
-11.9656

> <Gold.Chemscore.Internal_Hbond.Weighted>
0.0000

> <Gold.Chemscore.DEClash.Weighted>
0.0331

> <Gold.Chemscore.DEInternal.Weighted>
0.9079

> <Gold.Chemscore.Rot.Weighted>
3.9651

> <Gold.Chemscore.Internal.Correction.Weighted>
   9.000000E+99

> <Gold.Protein.RotatedTorsions>
[ 6907 6896 6895 6894 ] final -110.87 input  -60.11 | X-H torsion
[ 7974 7965 7964 7962 ] final  150.24 input  175.53 | X-H torsion
[ 8008 7997 7996 7995 ] final -120.03 input   59.86 | X-H torsion
[ 10167 10162 10161 10158 ] final   82.48 input  -65.29 | X-H torsion
[ 10718 10713 10712 10709 ] final -175.39 input   66.30 | X-H torsion
[ 10763 10752 10751 10750 ] final   78.87 input  -60.55 | X-H torsion
[ 11005 11000 10999 10996 ] final   75.76 input  -57.11 | X-H torsion

> <Gold.Protein.ActiveResidues>
 VAL166  LYS551  ARG553  GLY616  TRP617  ASP618  TYR619  PRO620  LYS621  CYS622 
 ASP623  PHE694  ASN695  SER759  ASP760  ASP761  ALA762  ILE779  LEU786  VAL792 
 PHE793  MET794  SER795  GLU796  ALA797  LYS798  CYS799  TRP800  GLU811  SER814 

> <Gold.Protein.RotatedAtoms>
  150.7653  133.9319  159.3429 H   0  0  0  0  0  0  0  0  0  0  0  0  # atno 6907 bound_to 6896
  151.7218  135.0891  160.0295 H   0  0  0  0  0  0  0  0  0  0  0  0  # atno 6908 bound_to 6896
  152.3645  133.6301  159.6076 H   0  0  0  0  0  0  0  0  0  0  0  0  # atno 6909 bound_to 6896
  144.8378  139.6383  143.6030 H   0  0  0  0  0  0  0  0  0  0  0  0  # atno 7974 bound_to 7965
  155.1253  140.0399  157.2761 H   0  0  0  0  0  0  0  0  0  0  0  0  # atno 8008 bound_to 7997
  154.6583  140.2585  155.7111 H   0  0  0  0  0  0  0  0  0  0  0  0  # atno 8009 bound_to 7997
  156.2608  140.2822  156.1044 H   0  0  0  0  0  0  0  0  0  0  0  0  # atno 8010 bound_to 7997
  139.9284  144.6168  150.8369 H   0  0  0  0  0  0  0  0  0  0  0  0  # atno 10167 bound_to 10162
  156.7992  130.9546  151.3119 H   0  0  0  0  0  0  0  0  0  0  0  0  # atno 10718 bound_to 10713
  153.0908  135.4861  154.8685 H   0  0  0  0  0  0  0  0  0  0  0  0  # atno 10763 bound_to 10752
  154.7266  135.3051  154.8962 H   0  0  0  0  0  0  0  0  0  0  0  0  # atno 10764 bound_to 10752
  153.9611  135.6812  153.4798 H   0  0  0  0  0  0  0  0  0  0  0  0  # atno 10765 bound_to 10752
  139.9329  134.7544  156.1311 H   0  0  0  0  0  0  0  0  0  0  0  0  # atno 11005 bound_to 11000
  146.2675  139.6555  142.9319 LP  0  0  0  0  0  0  0  0  0  0  0  0  # atno 17320 bound_to 7965
  145.4757  141.0437  143.2674 LP  0  0  0  0  0  0  0  0  0  0  0  0  # atno 17321 bound_to 7965
  140.7644  143.3247  151.2542 LP  0  0  0  0  0  0  0  0  0  0  0  0  # atno 17342 bound_to 10162
  139.6803  143.9866  152.2804 LP  0  0  0  0  0  0  0  0  0  0  0  0  # atno 17343 bound_to 10162
  157.6562  130.8926  149.9734 LP  0  0  0  0  0  0  0  0  0  0  0  0  # atno 17370 bound_to 10713
  156.1112  130.3650  150.0047 LP  0  0  0  0  0  0  0  0  0  0  0  0  # atno 17371 bound_to 10713
  141.0927  133.6708  156.2577 LP  0  0  0  0  0  0  0  0  0  0  0  0  # atno 17394 bound_to 11000
  140.6153  134.5416  157.5540 LP  0  0  0  0  0  0  0  0  0  0  0  0  # atno 17395 bound_to 11000

$$$$
