AV-unprocessed.smi:2864|AV-procd|sdf|11013|dock4
  -GOLD-   2272015473D 1   1.00000     0.00000
 Structure written by MMmdl.
 37 38  0  0  0  0  0  0  0  0  1 V2000
  153.4408  139.3015  160.0130 C   0  0  0  0  0  0  0  0  0  0  0  0
  153.0357  140.7131  159.6419 C   0  0  0  0  0  0  0  0  0  0  0  0
  153.6823  141.8130  160.2356 C   0  0  0  0  0  0  0  0  0  0  0  0
  153.3114  143.1224  159.8802 C   0  0  0  0  0  0  0  0  0  0  0  0
  152.2908  143.3481  158.9319 C   0  0  0  0  0  0  0  0  0  0  0  0
  151.9402  144.7814  158.5682 C   0  0  0  0  0  0  0  0  0  0  0  0
  151.6247  142.2434  158.3378 C   0  0  0  0  0  0  0  0  0  0  0  0
  150.5205  142.4454  157.2998 C   0  0  2  0  0  0  0  0  0  0  0  0
  149.4289  143.1751  157.8283 O   0  0  0  0  0  0  0  0  0  0  0  0
  150.0015  141.0874  156.7782 C   0  0  0  0  0  0  0  0  0  0  0  0
  149.0642  141.2514  155.6604 N   0  0  0  0  0  0  0  0  0  0  0  0
  147.8458  141.8012  156.0219 N   0  0  0  0  0  0  0  0  0  0  0  0
  146.9087  141.9935  155.1507 C   0  0  0  0  0  0  0  0  0  0  0  0
  145.6145  142.5921  155.6442 C   0  0  0  0  0  0  0  0  0  0  0  0
  145.3327  143.7011  154.9597 F   0  0  0  0  0  0  0  0  0  0  0  0
  144.6030  141.7355  155.4990 F   0  0  0  0  0  0  0  0  0  0  0  0
  145.7196  142.9080  156.9356 F   0  0  0  0  0  0  0  0  0  0  0  0
  147.1481  141.6265  153.7649 C   0  0  0  0  0  0  0  0  0  0  0  0
  148.3354  141.0865  153.4157 C   0  0  0  0  0  0  0  0  0  0  0  0
  149.3945  140.8589  154.3961 C   0  0  0  0  0  0  0  0  0  0  0  0
  150.4801  140.3546  154.1114 O   0  0  0  0  0  0  0  0  0  0  0  0
  152.0155  140.9316  158.6953 C   0  0  0  0  0  0  0  0  0  0  0  0
  153.7899  139.2557  161.0450 H   0  0  0  0  0  0  0  0  0  0  0  0
  154.2452  138.9583  159.3622 H   0  0  0  0  0  0  0  0  0  0  0  0
  152.5993  138.6155  159.9107 H   0  0  0  0  0  0  0  0  0  0  0  0
  154.4675  141.6567  160.9609 H   0  0  0  0  0  0  0  0  0  0  0  0
  153.8210  143.9571  160.3392 H   0  0  0  0  0  0  0  0  0  0  0  0
  151.9696  144.9251  157.4882 H   0  0  0  0  0  0  0  0  0  0  0  0
  152.6424  145.4871  159.0128 H   0  0  0  0  0  0  0  0  0  0  0  0
  150.9420  145.0327  158.9271 H   0  0  0  0  0  0  0  0  0  0  0  0
  150.9097  143.0401  156.4742 H   0  0  0  0  0  0  0  0  0  0  0  0
  149.2785  143.9301  157.2798 H   0  0  0  0  0  0  0  0  0  0  0  0
  150.8463  140.5053  156.4040 H   0  0  0  0  0  0  0  0  0  0  0  0
  149.5882  140.4816  157.5871 H   0  0  0  0  0  0  0  0  0  0  0  0
  146.3798  141.7852  153.0229 H   0  0  0  0  0  0  0  0  0  0  0  0
  148.5092  140.8143  152.3848 H   0  0  0  0  0  0  0  0  0  0  0  0
  151.5327  140.0799  158.2385 H   0  0  0  0  0  0  0  0  0  0  0  0
  1  2  1  0  0  0  0
  1 23  1  0  0  0  0
  1 24  1  0  0  0  0
  1 25  1  0  0  0  0
  2 22  1  0  0  0  0
  2  3  2  0  0  0  0
  3  4  1  0  0  0  0
  3 26  1  0  0  0  0
  4  5  2  0  0  0  0
  4 27  1  0  0  0  0
  5  6  1  0  0  0  0
  5  7  1  0  0  0  0
  6 28  1  0  0  0  0
  6 29  1  0  0  0  0
  6 30  1  0  0  0  0
  7  8  1  0  0  0  0
  7 22  2  0  0  0  0
  8  9  1  0  0  0  0
  8 10  1  0  0  0  0
  8 31  1  0  0  0  0
  9 32  1  0  0  0  0
 10 11  1  0  0  0  0
 10 33  1  0  0  0  0
 10 34  1  0  0  0  0
 11 20  1  0  0  0  0
 11 12  1  0  0  0  0
 12 13  2  0  0  0  0
 13 14  1  0  0  0  0
 13 18  1  0  0  0  0
 14 15  1  0  0  0  0
 14 16  1  0  0  0  0
 14 17  1  0  0  0  0
 18 19  2  0  0  0  0
 18 35  1  0  0  0  0
 19 20  1  0  0  0  0
 19 36  1  0  0  0  0
 20 21  2  0  0  0  0
 22 37  1  0  0  0  0
M  END
> <s_m_source_file>
AV-unprocessed.smi

> <i_m_source_file_index>
2864

> <i_lp_mmshare_version>
43012

> <i_f3d_flags>
0

> <s_epik_input>
W0NIM11jMVtjSF1bY0hdYyhbQ0gzXSljKFtjSF0xKVtDQEhdKFtPSF0pW0NIMl1uMm5jKEMoRikoRilGKVtjSF1bY0hdYzI9Tw==

> <s_epik_cmdline>
J2VwaWtfcHl0aG9uJywgJy1waCcsICc3LjAnLCAnLXRuJywgJzgnLCAnLW1hJywgJzIwMCcsICctbWV0YWxfYmluZGluZycsICctaW1hZScsICc8aW5maWxlLm1hZT4nLCAnLW9tYWUnLCAnPG91dGZpbGUubWFlPic=

> <r_lp_tautomer_probability>
1

> <r_epik_Ionization_Penalty>
5.25156e-08

> <r_epik_Ionization_Penalty_Charging>
3.92872e-09

> <r_epik_Ionization_Penalty_Neutral>
4.85868e-08

> <r_epik_State_Penalty>
-0

> <r_epik_Charging_Adjusted_Penalty>
3.92872e-09

> <i_epik_Tot_Q>
0

> <i_epik_Tot_abs_Q>
0

> <r_epik_Metal_State_Penalty>
-0

> <b_epik_Metal_Only>
0

> <s_lp_Force_Field>
OPLS_2005

> <r_lp_Energy>
30.6225

> <b_lp_Chiralities_Consistent>
1

> <s_lp_Variant>
AV-unprocessed.smi:2864-1

> <Gold.Version>
5.8.1

> <Gold.Id.Protein>
6NUR|6NUR_protein|mol2

> <Gold.PLP.Fitness>
52.0096

> <Gold.PLP.PLP>
-46.2946

> <Gold.PLP.part.hbond>
-2.4977

> <Gold.PLP.part.metal>
0.0000

> <Gold.PLP.part.buried>
-4.3447

> <Gold.PLP.part.nonpolar>
-40.4971

> <Gold.PLP.part.repulsive>
0.2950

> <Gold.PLP.ligand.clash>
0.0000

> <Gold.PLP.ligand.torsion>
0.1475

> <Gold.PLP.Chemscore.Hbond>
2.0000

> <Gold.PLP.Chemscore.CHOScore>
0.0000

> <Gold.PLP.Chemscore.Metal>
0.0000

> <Gold.Chemscore.Hbonds>
donor molecule, donor type, donor heavy atom, donor atom, acceptor molecule, acceptor atom, score
      L1  H     9    32       P1  8028  1.00
      P1  H  7989  7998       L1    21  0.66

> <Gold.PLP.Chemscore.Internal.Correction>
0.0099

> <Gold.Rescore>
     Score         DG    S(hbond)    S(metal)    S(lipo)     H(rot)  DE(clash)    DE(int)     intcor
     17.84     -19.44       1.71        0.00     115.40       2.05       0.06       1.54       ----

> <Gold.Chemscore.Fitness>
17.8426

> <Gold.Chemscore.DG>
-19.4447

> <Gold.Chemscore.ZeroCoef>
-5.4800

> <Gold.Chemscore.Hbond>
1.7112

> <Gold.Chemscore.Metal>
0.0000

> <Gold.Chemscore.Lipo>
115.3986

> <Gold.Chemscore.Internal_Hbond>
0.0000

> <Gold.Chemscore.DEClash>
0.0580

> <Gold.Chemscore.DEInternal>
1.5442

> <Gold.Chemscore.Rot>
2.0517

> <Gold.Chemscore.Internal.Correction>
   9.000000E+99

> <Gold.Chemscore.Hbonds>
donor molecule, donor type, donor heavy atom, donor atom, acceptor molecule, acceptor atom, score
      L1  H     9    32       P1  8028  0.29
      P1  H  7989  7998       L1    21  0.63

> <Gold.Chemscore.Hbond.Weighted>
-5.7155

> <Gold.Chemscore.Metal.Weighted>
-0.0000

> <Gold.Chemscore.Lipo.Weighted>
-13.5016

> <Gold.Chemscore.Internal_Hbond.Weighted>
0.0000

> <Gold.Chemscore.DEClash.Weighted>
0.0580

> <Gold.Chemscore.DEInternal.Weighted>
1.5442

> <Gold.Chemscore.Rot.Weighted>
5.2524

> <Gold.Chemscore.Internal.Correction.Weighted>
   9.000000E+99

> <Gold.Protein.RotatedTorsions>
[ 6907 6896 6895 6894 ] final  -96.88 input  -60.11 | X-H torsion
[ 7974 7965 7964 7962 ] final   13.55 input  175.53 | X-H torsion
[ 8008 7997 7996 7995 ] final -121.74 input   59.86 | X-H torsion
[ 10167 10162 10161 10158 ] final -118.37 input  -65.29 | X-H torsion
[ 10718 10713 10712 10709 ] final   75.79 input   66.30 | X-H torsion
[ 10763 10752 10751 10750 ] final   37.07 input  -60.55 | X-H torsion
[ 11005 11000 10999 10996 ] final -169.27 input  -57.11 | X-H torsion

> <Gold.Protein.ActiveResidues>
 VAL166  LYS551  ARG553  GLY616  TRP617  ASP618  TYR619  PRO620  LYS621  CYS622 
 ASP623  PHE694  ASN695  SER759  ASP760  ASP761  ALA762  ILE779  LEU786  VAL792 
 PHE793  MET794  SER795  GLU796  ALA797  LYS798  CYS799  TRP800  GLU811  SER814 

> <Gold.Protein.RotatedAtoms>
  150.7000  134.1435  159.4113 H   0  0  0  0  0  0  0  0  0  0  0  0  # atno 6907 bound_to 6896
  151.9419  135.0207  160.0545 H   0  0  0  0  0  0  0  0  0  0  0  0  # atno 6908 bound_to 6896
  152.2086  133.4859  159.5134 H   0  0  0  0  0  0  0  0  0  0  0  0  # atno 6909 bound_to 6896
  146.2326  139.9172  142.8515 H   0  0  0  0  0  0  0  0  0  0  0  0  # atno 7974 bound_to 7965
  155.1529  140.0404  157.2825 H   0  0  0  0  0  0  0  0  0  0  0  0  # atno 8008 bound_to 7997
  154.6391  140.2542  155.7316 H   0  0  0  0  0  0  0  0  0  0  0  0  # atno 8009 bound_to 7997
  156.2523  140.2859  156.0777 H   0  0  0  0  0  0  0  0  0  0  0  0  # atno 8010 bound_to 7997
  140.0582  143.4993  152.2046 H   0  0  0  0  0  0  0  0  0  0  0  0  # atno 10167 bound_to 10162
  157.6648  130.9743  150.1403 H   0  0  0  0  0  0  0  0  0  0  0  0  # atno 10718 bound_to 10713
  153.0052  135.6288  154.2086 H   0  0  0  0  0  0  0  0  0  0  0  0  # atno 10763 bound_to 10752
  154.1830  135.2812  155.3048 H   0  0  0  0  0  0  0  0  0  0  0  0  # atno 10764 bound_to 10752
  154.5820  135.5644  153.7254 H   0  0  0  0  0  0  0  0  0  0  0  0  # atno 10765 bound_to 10752
  140.5327  134.5601  157.5079 H   0  0  0  0  0  0  0  0  0  0  0  0  # atno 11005 bound_to 11000
  145.2172  140.9920  143.4066 LP  0  0  0  0  0  0  0  0  0  0  0  0  # atno 17320 bound_to 7965
  144.9641  139.3949  143.6341 LP  0  0  0  0  0  0  0  0  0  0  0  0  # atno 17321 bound_to 7965
  139.5910  144.7550  151.3401 LP  0  0  0  0  0  0  0  0  0  0  0  0  # atno 17342 bound_to 10162
  140.7184  143.7202  150.7701 LP  0  0  0  0  0  0  0  0  0  0  0  0  # atno 17343 bound_to 10162
  156.2227  130.3675  149.8536 LP  0  0  0  0  0  0  0  0  0  0  0  0  # atno 17370 bound_to 10713
  156.6385  130.8695  151.3509 LP  0  0  0  0  0  0  0  0  0  0  0  0  # atno 17371 bound_to 10713
  139.9546  134.7558  156.0371 LP  0  0  0  0  0  0  0  0  0  0  0  0  # atno 17394 bound_to 11000
  141.1272  133.6596  156.3369 LP  0  0  0  0  0  0  0  0  0  0  0  0  # atno 17395 bound_to 11000

$$$$
