#       Name:                AV-unprocessed.smi:602
#       Creating user name   scv26
#       Creation time:       Thu Mar 26 23:55:17 2020


#       File generated by GOLD software.
#

@<TRIPOS>MOLECULE
AV-unprocessed.smi:602
    55    56     1
SMALL
NO_CHARGES


@<TRIPOS>ATOM
      1 ****        -4.2013  -3.5981  -0.4391 C.3            1 S1                 0.0000
      2 ****        -3.3792  -2.3108  -0.5526 C.3            1 S1                 0.0000
      3 ****        -3.1028  -1.6717   0.8184 C.3            1 S1                 0.0000
      4 ****        -2.3023  -0.4679   0.7175 N.am           1 S1                 0.0000
      5 ****        -0.9048  -0.4654   0.7418 C.2            1 S1                 0.0000
      6 ****        -0.2537  -1.6841   0.8686 N.pl3          1 S1                 0.0000
      7 ****        -0.1868   0.6896   0.6084 C.2            1 S1                 0.0000
      8 ****         1.2202   0.6915   0.6443 N.am           1 S1                 0.0000
      9 ****         1.8512   0.5587   1.9684 C.3            1 S1                 0.0000
     10 ****         2.1101   1.9271   2.6303 C.3            1 S1                 0.0000
     11 ****         3.0518   2.7135   1.9136 O.3            1 S1                 0.0000
     12 ****         4.4038   2.3649   2.1663 C.3            1 S1                 0.0000
     13 ****         1.9681   0.7276  -0.4909 C.2            1 S1                 0.0000
     14 ****         3.1994   0.7252  -0.4609 O.2            1 S1                 0.0000
     15 ****         1.2552   0.7766  -1.8611 C.3            1 S1                 0.0000
     16 ****         0.7169  -0.5824  -2.3415 C.3            1 S1                 0.0000
     17 ****         1.2120  -0.2347  -3.7475 C.3            1 S1                 0.0000
     18 ****         2.1700   0.7706  -3.1033 C.3            1 S1                 0.0000
     19 ****        -0.8706   1.9820   0.4634 C.2            1 S1                 0.0000
     20 ****        -0.3208   3.0786   0.3692 O.2            1 S1                 0.0000
     21 ****        -2.2603   1.9080   0.4248 N.am           1 S1                 0.0000
     22 ****        -3.0116   0.7427   0.5281 C.2            1 S1                 0.0000
     23 ****        -4.2390   0.8079   0.4510 O.2            1 S1                 0.0000
     24 ****        -2.7653   2.7741   0.3043 H              1 S1                 0.0000
     25 ****        -4.3816  -4.0325  -1.4225 H              1 S1                 0.0000
     26 ****        -5.1701  -3.4061   0.0230 H              1 S1                 0.0000
     27 ****        -3.6831  -4.3435   0.1646 H              1 S1                 0.0000
     28 ****        -2.4352  -2.5300  -1.0530 H              1 S1                 0.0000
     29 ****        -3.9083  -1.6033  -1.1919 H              1 S1                 0.0000
     30 ****        -4.0232  -1.4279   1.3523 H              1 S1                 0.0000
     31 ****        -2.5682  -2.3544   1.4784 H              1 S1                 0.0000
     32 ****        -0.7623  -2.5537   0.9420 H              1 S1                 0.0000
     33 ****         0.7508  -1.7446   0.9536 H              1 S1                 0.0000
     34 ****         1.1909  -0.0126   2.6223 H              1 S1                 0.0000
     35 ****         2.7665  -0.0318   1.9181 H              1 S1                 0.0000
     36 ****         1.1767   2.4874   2.6816 H              1 S1                 0.0000
     37 ****         2.4355   1.7958   3.6634 H              1 S1                 0.0000
     38 ****         5.0591   3.0079   1.5790 H              1 S1                 0.0000
     39 ****         4.6179   1.3326   1.8900 H              1 S1                 0.0000
     40 ****         4.6549   2.5036   3.2185 H              1 S1                 0.0000
     41 ****         0.5123   1.5710  -1.9391 H              1 S1                 0.0000
     42 ****         1.2363  -1.4388  -1.9072 H              1 S1                 0.0000
     43 ****        -0.3655  -0.6915  -2.2661 H              1 S1                 0.0000
     44 ****         1.6985  -1.0551  -4.2759 H              1 S1                 0.0000
     45 ****         0.4452   0.2442  -4.3583 H              1 S1                 0.0000
     46 ****         2.2261   1.7259  -3.6261 H              1 S1                 0.0000
     47 ****         3.1625   0.3455  -2.9459 H              1 S1                 0.0000
     48 ****         2.9208   3.6715   2.1687 LP             1 S1                 0.0000
     49 ****         2.8755   2.6019   0.9356 LP             1 S1                 0.0000
     50 ****         3.6781   0.6960   0.4166 LP             1 S1                 0.0000
     51 ****         3.7204   0.7524  -1.3140 LP             1 S1                 0.0000
     52 ****         0.6771   3.1409   0.3885 LP             1 S1                 0.0000
     53 ****        -0.8718   3.9076   0.2733 LP             1 S1                 0.0000
     54 ****        -4.7894  -0.0239   0.5228 LP             1 S1                 0.0000
     55 ****        -4.6852   1.6926   0.3166 LP             1 S1                 0.0000
@<TRIPOS>BOND
    1    1    2 1     
    2    1   25 1     
    3    1   26 1     
    4    1   27 1     
    5    2    3 1     
    6    2   28 1     
    7    2   29 1     
    8    3    4 1     
    9    3   30 1     
   10    3   31 1     
   11    4   22 1     
   12    4    5 1     
   13    5    6 1     
   14    5    7 2     
   15    6   32 1     
   16    6   33 1     
   17    7    8 1     
   18    7   19 1     
   19    8    9 1     
   20    8   13 am    
   21    9   10 1     
   22    9   34 1     
   23    9   35 1     
   24   10   11 1     
   25   10   36 1     
   26   10   37 1     
   27   11   12 1     
   28   12   38 1     
   29   12   39 1     
   30   12   40 1     
   31   13   14 2     
   32   13   15 1     
   33   15   18 1     
   34   15   16 1     
   35   15   41 1     
   36   16   17 1     
   37   16   42 1     
   38   16   43 1     
   39   17   18 1     
   40   17   44 1     
   41   17   45 1     
   42   18   46 1     
   43   18   47 1     
   44   19   20 2     
   45   19   21 1     
   46   21   24 1     
   47   21   22 1     
   48   22   23 2     
   49   11   48 1     
   50   11   49 1     
   51   14   50 1     
   52   14   51 1     
   53   20   52 1     
   54   20   53 1     
   55   23   54 1     
   56   23   55 1     
@<TRIPOS>SUBSTRUCTURE
      1 S1             1
@<TRIPOS>SET
LONE_PAIRS      STATIC     ATOMS    <user>   **** ""
8 48 49 50 51 52 53 54 55
DONOR_HYDROGENS      STATIC     ATOMS    <user>   **** ""
3 32 33 24
ATOM$BLUE        STATIC     ATOMS    COLORGROUP SYSTEM
8 48 49 50 51 52 53 54 55
ATOM$RED        STATIC     ATOMS    COLORGROUP SYSTEM
3 32 33 24
