#       Name:                AV-unprocessed.smi:2666
#       Creating user name   scv26
#       Creation time:       Fri Mar 27 14:35:11 2020


#       File generated by GOLD software.
#

@<TRIPOS>MOLECULE
AV-unprocessed.smi:2666
    48    49     1
SMALL
NO_CHARGES


@<TRIPOS>ATOM
      1 ****        -0.5485  -1.9586   0.6546 O.2            1 S1                 0.0000
      2 ****        -0.2300  -1.4012  -0.3951 C.2            1 S1                 0.0000
      3 ****        -0.5611  -1.8230  -1.6275 N.am           1 S1                 0.0000
      4 ****        -1.3546  -2.9446  -1.9904 C.ar           1 S1                 0.0000
      5 ****        -1.1977  -3.4777  -3.2864 C.ar           1 S1                 0.0000
      6 ****        -1.9842  -4.5786  -3.6757 C.ar           1 S1                 0.0000
      7 ****        -2.9101  -5.0999  -2.7515 C.ar           1 S1                 0.0000
      8 ****        -3.0857  -4.5917  -1.5136 N.ar           1 S1                 0.0000
      9 ****        -2.3261  -3.5372  -1.1458 C.ar           1 S1                 0.0000
     10 ****         0.5239  -0.2927  -0.4515 N.am           1 S1                 0.0000
     11 ****         1.0820   0.4316   0.6944 C.3            1 S1                 0.0000
     12 ****         2.6286   0.3400   0.6428 C.3            1 S1                 0.0000
     13 ****         3.1991  -1.0909   0.6267 C.3            1 S1                 0.0000
     14 ****         2.9130  -1.7522   1.8410 O.3            1 S1                 0.0000
     15 ****         0.5443   1.8926   0.7121 C.3            1 S1                 0.0000
     16 ****         1.0441   2.6945   1.9396 C.3            1 S1                 0.0000
     17 ****         0.4958   4.1306   1.9674 C.3            1 S1                 0.0000
     18 ****        -1.0366   4.1461   1.9215 C.3            1 S1                 0.0000
     19 ****        -1.5461   3.3841   0.6926 C.3            1 S1                 0.0000
     20 ****        -1.0051   1.9460   0.6643 C.3            1 S1                 0.0000
     21 ****        -0.1511  -1.3144  -2.3969 H              1 S1                 0.0000
     22 ****        -0.4801  -3.0544  -3.9742 H              1 S1                 0.0000
     23 ****        -1.8811  -5.0127  -4.6592 H              1 S1                 0.0000
     24 ****        -3.5307  -5.9433  -3.0161 H              1 S1                 0.0000
     25 ****        -2.5298  -3.1590  -0.1562 H              1 S1                 0.0000
     26 ****         0.7319   0.0862  -1.3636 H              1 S1                 0.0000
     27 ****         0.7548  -0.0419   1.6218 H              1 S1                 0.0000
     28 ****         2.9857   0.8679  -0.2423 H              1 S1                 0.0000
     29 ****         3.0685   0.8544   1.4959 H              1 S1                 0.0000
     30 ****         2.8086  -1.6735  -0.2077 H              1 S1                 0.0000
     31 ****         4.2819  -1.0552   0.5045 H              1 S1                 0.0000
     32 ****         3.2653  -2.6281   1.7979 H              1 S1                 0.0000
     33 ****         0.9162   2.3939  -0.1829 H              1 S1                 0.0000
     34 ****         0.7583   2.1785   2.8571 H              1 S1                 0.0000
     35 ****         2.1309   2.7569   1.9460 H              1 S1                 0.0000
     36 ****         0.8448   4.6436   2.8639 H              1 S1                 0.0000
     37 ****         0.8921   4.6886   1.1182 H              1 S1                 0.0000
     38 ****        -1.4376   3.6927   2.8291 H              1 S1                 0.0000
     39 ****        -1.3993   5.1741   1.9006 H              1 S1                 0.0000
     40 ****        -2.6364   3.3707   0.6902 H              1 S1                 0.0000
     41 ****        -1.2415   3.9071  -0.2149 H              1 S1                 0.0000
     42 ****        -1.3825   1.4623  -0.2364 H              1 S1                 0.0000
     43 ****        -1.4158   1.3870   1.5062 H              1 S1                 0.0000
     44 ****        -1.0970  -2.7943   0.6304 LP             1 S1                 0.0000
     45 ****        -0.2587  -1.5758   1.5318 LP             1 S1                 0.0000
     46 ****        -3.7586  -4.9845  -0.8869 LP             1 S1                 0.0000
     47 ****         1.9232  -1.7936   1.9769 LP             1 S1                 0.0000
     48 ****         3.3335  -1.2571   2.6013 LP             1 S1                 0.0000
@<TRIPOS>BOND
    1    1    2 2     
    2    2    3 am    
    3    2   10 am    
    4    3    4 1     
    5    3   21 1     
    6    4    9 ar    
    7    4    5 ar    
    8    5    6 ar    
    9    5   22 1     
   10    6    7 ar    
   11    6   23 1     
   12    7    8 ar    
   13    7   24 1     
   14    8    9 ar    
   15    9   25 1     
   16   10   11 1     
   17   10   26 1     
   18   11   12 1     
   19   11   15 1     
   20   11   27 1     
   21   12   13 1     
   22   12   28 1     
   23   12   29 1     
   24   13   14 1     
   25   13   30 1     
   26   13   31 1     
   27   14   32 1     
   28   15   20 1     
   29   15   16 1     
   30   15   33 1     
   31   16   17 1     
   32   16   34 1     
   33   16   35 1     
   34   17   18 1     
   35   17   36 1     
   36   17   37 1     
   37   18   19 1     
   38   18   38 1     
   39   18   39 1     
   40   19   20 1     
   41   19   40 1     
   42   19   41 1     
   43   20   42 1     
   44   20   43 1     
   45    1   44 1     
   46    1   45 1     
   47    8   46 1     
   48   14   47 1     
   49   14   48 1     
@<TRIPOS>SUBSTRUCTURE
      1 S1             1
@<TRIPOS>SET
LONE_PAIRS      STATIC     ATOMS    <user>   **** ""
5 44 45 46 47 48
DONOR_HYDROGENS      STATIC     ATOMS    <user>   **** ""
3 21 26 32
ATOM$BLUE        STATIC     ATOMS    COLORGROUP SYSTEM
5 44 45 46 47 48
ATOM$RED        STATIC     ATOMS    COLORGROUP SYSTEM
3 21 26 32
