AV-unprocessed.smi:3129|AV-procd|sdf|11925|dock3
  -GOLD-   2272017313D 1   1.00000     0.00000
 Structure written by MMmdl.
 39 39  0  0  0  0  0  0  0  0  1 V2000
  153.3451  142.7366  159.7370 C   0  0  0  0  0  0  0  0  0  0  0  0
  152.4469  143.0924  158.5390 C   0  0  0  0  0  0  0  0  0  0  0  0
  152.4643  144.6073  158.2880 C   0  0  0  0  0  0  0  0  0  0  0  0
  150.9972  142.5878  158.7025 C   0  0  0  0  0  0  0  0  0  0  0  0
  150.9247  141.1380  158.8611 N   0  0  0  0  0  0  0  0  0  0  0  0
  151.2130  140.2330  157.9126 C   0  0  0  0  0  0  0  0  0  0  0  0
  151.5820  140.5349  156.7768 O   0  0  0  0  0  0  0  0  0  0  0  0
  151.0646  138.7543  158.3066 C   0  0  1  0  0  0  0  0  0  0  0  0
  152.1259  138.3794  159.3523 C   0  0  0  0  0  0  0  0  0  0  0  0
  149.7229  138.4103  158.8113 N   0  0  0  0  0  0  0  0  0  0  0  0
  149.5464  136.9963  159.1228 C   0  0  0  0  0  0  0  0  0  0  0  0
  148.0508  136.7012  159.3049 C   0  0  0  0  0  0  0  0  0  0  0  0
  147.7497  136.2869  160.6614 N   0  0  0  0  0  0  0  0  0  0  0  0
  147.5419  135.0110  161.1414 C   0  0  0  0  0  0  0  0  0  0  0  0
  147.2953  135.1161  162.4804 C   0  0  0  0  0  0  0  0  0  0  0  0
  147.3753  136.5149  162.7298 C   0  0  0  0  0  0  0  0  0  0  0  0
  147.6490  137.2130  161.6393 N   0  0  0  0  0  0  0  0  0  0  0  0
  152.9475  143.1481  160.6652 H   0  0  0  0  0  0  0  0  0  0  0  0
  154.3525  143.1315  159.6033 H   0  0  0  0  0  0  0  0  0  0  0  0
  153.4395  141.6582  159.8630 H   0  0  0  0  0  0  0  0  0  0  0  0
  152.8713  142.6131  157.6558 H   0  0  0  0  0  0  0  0  0  0  0  0
  152.0426  145.1532  159.1327 H   0  0  0  0  0  0  0  0  0  0  0  0
  151.8854  144.8661  157.4012 H   0  0  0  0  0  0  0  0  0  0  0  0
  153.4809  144.9695  158.1319 H   0  0  0  0  0  0  0  0  0  0  0  0
  150.5076  143.0980  159.5340 H   0  0  0  0  0  0  0  0  0  0  0  0
  150.4201  142.8430  157.8134 H   0  0  0  0  0  0  0  0  0  0  0  0
  150.6311  140.7947  159.7641 H   0  0  0  0  0  0  0  0  0  0  0  0
  151.2499  138.1455  157.4198 H   0  0  0  0  0  0  0  0  0  0  0  0
  153.1319  138.6045  158.9953 H   0  0  0  0  0  0  0  0  0  0  0  0
  152.0917  137.3132  159.5780 H   0  0  0  0  0  0  0  0  0  0  0  0
  151.9767  138.9203  160.2878 H   0  0  0  0  0  0  0  0  0  0  0  0
  148.9995  138.7132  158.1745 H   0  0  0  0  0  0  0  0  0  0  0  0
  149.9437  136.3716  158.3219 H   0  0  0  0  0  0  0  0  0  0  0  0
  150.0917  136.7493  160.0346 H   0  0  0  0  0  0  0  0  0  0  0  0
  147.4521  137.5824  159.0677 H   0  0  0  0  0  0  0  0  0  0  0  0
  147.7331  135.9096  158.6247 H   0  0  0  0  0  0  0  0  0  0  0  0
  147.5872  134.1445  160.4979 H   0  0  0  0  0  0  0  0  0  0  0  0
  147.0894  134.3159  163.1757 H   0  0  0  0  0  0  0  0  0  0  0  0
  147.2444  137.0402  163.6645 H   0  0  0  0  0  0  0  0  0  0  0  0
  1  2  1  0  0  0  0
  1 18  1  0  0  0  0
  1 19  1  0  0  0  0
  1 20  1  0  0  0  0
  2  3  1  0  0  0  0
  2  4  1  0  0  0  0
  2 21  1  0  0  0  0
  3 22  1  0  0  0  0
  3 23  1  0  0  0  0
  3 24  1  0  0  0  0
  4  5  1  0  0  0  0
  4 25  1  0  0  0  0
  4 26  1  0  0  0  0
  5  6  1  0  0  0  0
  5 27  1  0  0  0  0
  6  7  2  0  0  0  0
  6  8  1  0  0  0  0
  8  9  1  0  0  0  0
  8 10  1  0  0  0  0
  8 28  1  0  0  0  0
  9 29  1  0  0  0  0
  9 30  1  0  0  0  0
  9 31  1  0  0  0  0
 10 11  1  0  0  0  0
 10 32  1  0  0  0  0
 11 12  1  0  0  0  0
 11 33  1  0  0  0  0
 11 34  1  0  0  0  0
 12 13  1  0  0  0  0
 12 35  1  0  0  0  0
 12 36  1  0  0  0  0
 13 17  1  0  0  0  0
 13 14  1  0  0  0  0
 14 15  2  0  0  0  0
 14 37  1  0  0  0  0
 15 16  1  0  0  0  0
 15 38  1  0  0  0  0
 16 17  2  0  0  0  0
 16 39  1  0  0  0  0
M  END
> <s_m_source_file>
AV-unprocessed.smi

> <i_m_source_file_index>
3129

> <i_lp_mmshare_version>
43012

> <i_f3d_flags>
0

> <s_epik_input>
W0NIM11bQ0hdKFtDSDNdKVtDSDJdW05IXUMoPU8pW0NASF0oW0NIM10pW05IXVtDSDJdW0NIMl1uMVtjSF1bY0hdW2NIXW4x

> <s_epik_cmdline>
J2VwaWtfcHl0aG9uJywgJy1waCcsICc3LjAnLCAnLXRuJywgJzgnLCAnLW1hJywgJzIwMCcsICctbWV0YWxfYmluZGluZycsICctaW1hZScsICc8aW5maWxlLm1hZT4nLCAnLW9tYWUnLCAnPG91dGZpbGUubWFlPic=

> <r_lp_tautomer_probability>
1

> <r_epik_Ionization_Penalty>
0.724007

> <r_epik_Ionization_Penalty_Charging>
0

> <r_epik_Ionization_Penalty_Neutral>
0.724007

> <r_epik_State_Penalty>
0.74758

> <r_epik_Charging_Adjusted_Penalty>
0.74758

> <i_epik_Tot_Q>
0

> <i_epik_Tot_abs_Q>
0

> <r_epik_Metal_State_Penalty>
0.746851

> <b_epik_Metal_Only>
0

> <s_lp_Force_Field>
OPLS_2005

> <r_lp_Energy>
5.77618

> <b_lp_Chiralities_Consistent>
1

> <s_lp_Variant>
AV-unprocessed.smi:3129-4

> <Gold.Version>
5.8.1

> <Gold.Id.Protein>
6NUR|6NUR_protein|mol2

> <Gold.PLP.Fitness>
43.4918

> <Gold.PLP.PLP>
-39.8451

> <Gold.PLP.part.hbond>
-2.4550

> <Gold.PLP.part.metal>
0.0000

> <Gold.PLP.part.buried>
-4.7784

> <Gold.PLP.part.nonpolar>
-31.8950

> <Gold.PLP.part.repulsive>
0.1851

> <Gold.PLP.ligand.clash>
0.0000

> <Gold.PLP.ligand.torsion>
0.7892

> <Gold.PLP.Chemscore.Hbond>
1.6978

> <Gold.PLP.Chemscore.CHOScore>
0.0000

> <Gold.PLP.Chemscore.Metal>
0.0000

> <Gold.Chemscore.Hbonds>
donor molecule, donor type, donor heavy atom, donor atom, acceptor molecule, acceptor atom, score
      P1  H  6931  6943       L1    17  0.99
      P1  H  6934  6947       L1    17  0.75

> <Gold.PLP.Chemscore.Internal.Correction>
0.1314

> <Gold.Rescore>
     Score         DG    S(hbond)    S(metal)    S(lipo)     H(rot)  DE(clash)    DE(int)     intcor
     14.92     -15.58       1.54        0.00      89.02       2.13       0.00       0.66       ----

> <Gold.Chemscore.Fitness>
14.9209

> <Gold.Chemscore.DG>
-15.5833

> <Gold.Chemscore.ZeroCoef>
-5.4800

> <Gold.Chemscore.Hbond>
1.5426

> <Gold.Chemscore.Metal>
0.0000

> <Gold.Chemscore.Lipo>
89.0195

> <Gold.Chemscore.Internal_Hbond>
0.0000

> <Gold.Chemscore.DEClash>
0.0048

> <Gold.Chemscore.DEInternal>
0.6575

> <Gold.Chemscore.Rot>
2.1345

> <Gold.Chemscore.Internal.Correction>
   9.000000E+99

> <Gold.Chemscore.Hbonds>
donor molecule, donor type, donor heavy atom, donor atom, acceptor molecule, acceptor atom, score
      P1  H  6931  6943       L1    17  0.67
      P1  H  6934  6947       L1    17  0.61

> <Gold.Chemscore.Hbond.Weighted>
-5.1522

> <Gold.Chemscore.Metal.Weighted>
-0.0000

> <Gold.Chemscore.Lipo.Weighted>
-10.4153

> <Gold.Chemscore.Internal_Hbond.Weighted>
0.0000

> <Gold.Chemscore.DEClash.Weighted>
0.0048

> <Gold.Chemscore.DEInternal.Weighted>
0.6575

> <Gold.Chemscore.Rot.Weighted>
5.4642

> <Gold.Chemscore.Internal.Correction.Weighted>
   9.000000E+99

> <Gold.Protein.RotatedTorsions>
[ 6907 6896 6895 6894 ] final  106.44 input  -60.11 | X-H torsion
[ 7974 7965 7964 7962 ] final  150.13 input  175.53 | X-H torsion
[ 8008 7997 7996 7995 ] final -109.08 input   59.86 | X-H torsion
[ 10167 10162 10161 10158 ] final -122.52 input  -65.29 | X-H torsion
[ 10718 10713 10712 10709 ] final   85.95 input   66.30 | X-H torsion
[ 10763 10752 10751 10750 ] final   45.34 input  -60.55 | X-H torsion
[ 11005 11000 10999 10996 ] final    5.29 input  -57.11 | X-H torsion

> <Gold.Protein.ActiveResidues>
 VAL166  LYS551  ARG553  GLY616  TRP617  ASP618  TYR619  PRO620  LYS621  CYS622 
 ASP623  PHE694  ASN695  SER759  ASP760  ASP761  ALA762  ILE779  LEU786  VAL792 
 PHE793  MET794  SER795  GLU796  ALA797  LYS798  CYS799  TRP800  GLU811  SER814 

> <Gold.Protein.RotatedAtoms>
  152.5193  133.9381  159.7612 H   0  0  0  0  0  0  0  0  0  0  0  0  # atno 6907 bound_to 6896
  150.9717  133.6329  159.2744 H   0  0  0  0  0  0  0  0  0  0  0  0  # atno 6908 bound_to 6896
  151.3538  135.0895  159.9464 H   0  0  0  0  0  0  0  0  0  0  0  0  # atno 6909 bound_to 6896
  144.8387  139.6369  143.6026 H   0  0  0  0  0  0  0  0  0  0  0  0  # atno 7974 bound_to 7965
  154.9540  140.0400  157.2158 H   0  0  0  0  0  0  0  0  0  0  0  0  # atno 8008 bound_to 7997
  154.7952  140.2842  155.5940 H   0  0  0  0  0  0  0  0  0  0  0  0  # atno 8009 bound_to 7997
  156.2954  140.2566  156.2808 H   0  0  0  0  0  0  0  0  0  0  0  0  # atno 8010 bound_to 7997
  140.0134  143.5418  152.2253 H   0  0  0  0  0  0  0  0  0  0  0  0  # atno 10167 bound_to 10162
  157.6922  131.0196  150.2899 H   0  0  0  0  0  0  0  0  0  0  0  0  # atno 10718 bound_to 10713
  152.9826  135.6042  154.3421 H   0  0  0  0  0  0  0  0  0  0  0  0  # atno 10763 bound_to 10752
  154.3117  135.2771  155.2564 H   0  0  0  0  0  0  0  0  0  0  0  0  # atno 10764 bound_to 10752
  154.4771  135.5927  153.6418 H   0  0  0  0  0  0  0  0  0  0  0  0  # atno 10765 bound_to 10752
  140.5723  134.0090  155.8014 H   0  0  0  0  0  0  0  0  0  0  0  0  # atno 11005 bound_to 11000
  146.2682  139.6571  142.9314 LP  0  0  0  0  0  0  0  0  0  0  0  0  # atno 17320 bound_to 7965
  145.4740  141.0436  143.2683 LP  0  0  0  0  0  0  0  0  0  0  0  0  # atno 17321 bound_to 7965
  139.6189  144.7625  151.2784 LP  0  0  0  0  0  0  0  0  0  0  0  0  # atno 17342 bound_to 10162
  140.7372  143.6684  150.8102 LP  0  0  0  0  0  0  0  0  0  0  0  0  # atno 17343 bound_to 10162
  156.3432  130.3819  149.7391 LP  0  0  0  0  0  0  0  0  0  0  0  0  # atno 17370 bound_to 10713
  156.4893  130.8078  151.3088 LP  0  0  0  0  0  0  0  0  0  0  0  0  # atno 17371 bound_to 10713
  141.1048  133.9711  157.3016 LP  0  0  0  0  0  0  0  0  0  0  0  0  # atno 17394 bound_to 11000
  139.9356  135.0197  156.8543 LP  0  0  0  0  0  0  0  0  0  0  0  0  # atno 17395 bound_to 11000

$$$$
