AV-unprocessed.smi:3314|AV-procd|sdf|12740|dock4
  -GOLD-   2272019 83D 1   1.00000     0.00000
 Structure written by MMmdl.
 38 39  0  0  0  0  0  0  0  0  2 V2000
  151.8539  145.6664  159.9579 C   0  0  0  0  0  0  0  0  0  0  0  0
  151.8917  144.2655  159.3824 C   0  0  0  0  0  0  0  0  0  0  0  0
  152.6316  143.2130  160.0577 C   0  0  0  0  0  0  0  0  0  0  0  0
  152.6521  141.9767  159.5311 C   0  0  0  0  0  0  0  0  0  0  0  0
  153.3911  140.8099  160.1520 C   0  0  0  0  0  0  0  0  0  0  0  0
  151.9750  141.6925  158.3519 N   0  0  0  0  0  0  0  0  0  0  0  0
  151.2383  142.6546  157.6387 C   0  0  0  0  0  0  0  0  0  0  0  0
  150.5887  142.4407  156.5314 N   0  0  0  0  0  0  0  0  0  0  0  0
  150.5432  141.1926  155.9159 C   0  0  0  0  0  0  0  0  0  0  0  0
  151.1819  140.1684  156.1745 O   0  0  0  0  0  0  0  0  0  0  0  0
  149.5398  141.1629  154.7568 C   0  0  1  0  0  0  0  0  0  0  0  0
  149.1235  139.7147  154.4213 C   0  0  0  0  0  0  0  0  0  0  0  0
  148.0817  139.7061  153.3687 N   0  3  1  0  0  0  0  0  0  0  0  0
  147.6744  138.3390  152.9803 C   0  0  0  0  0  0  0  0  0  0  0  0
  146.9335  140.5576  153.7538 C   0  0  0  0  0  0  0  0  0  0  0  0
  147.4156  141.9753  154.1007 C   0  0  0  0  0  0  0  0  0  0  0  0
  148.3848  141.9062  155.1391 O   0  0  0  0  0  0  0  0  0  0  0  0
  151.2354  143.9832  158.2323 C   0  0  0  0  0  0  0  0  0  0  0  0
  152.4317  145.7302  160.8804 H   0  0  0  0  0  0  0  0  0  0  0  0
  150.8267  145.9580  160.1790 H   0  0  0  0  0  0  0  0  0  0  0  0
  152.2695  146.3802  159.2461 H   0  0  0  0  0  0  0  0  0  0  0  0
  153.1610  143.4233  160.9755 H   0  0  0  0  0  0  0  0  0  0  0  0
  153.8852  141.1036  161.0787 H   0  0  0  0  0  0  0  0  0  0  0  0
  154.1506  140.4339  159.4660 H   0  0  0  0  0  0  0  0  0  0  0  0
  152.6989  139.9983  160.3779 H   0  0  0  0  0  0  0  0  0  0  0  0
  149.9867  141.6359  153.8793 H   0  0  0  0  0  0  0  0  0  0  0  0
  149.9889  139.1461  154.0769 H   0  0  0  0  0  0  0  0  0  0  0  0
  148.7426  139.2104  155.3118 H   0  0  0  0  0  0  0  0  0  0  0  0
  147.2198  137.8115  153.8200 H   0  0  0  0  0  0  0  0  0  0  0  0
  148.5364  137.7636  152.6410 H   0  0  0  0  0  0  0  0  0  0  0  0
  146.9521  138.3699  152.1639 H   0  0  0  0  0  0  0  0  0  0  0  0
  146.2139  140.5997  152.9354 H   0  0  0  0  0  0  0  0  0  0  0  0
  146.4207  140.1181  154.6109 H   0  0  0  0  0  0  0  0  0  0  0  0
  147.8368  142.4710  153.2247 H   0  0  0  0  0  0  0  0  0  0  0  0
  146.5777  142.5851  154.4395 H   0  0  0  0  0  0  0  0  0  0  0  0
  150.6962  144.7915  157.7587 H   0  0  0  0  0  0  0  0  0  0  0  0
  152.0384  140.7394  158.0238 H   0  0  0  0  0  0  0  0  0  0  0  0
  148.4944  140.1293  152.5497 H   0  0  0  0  0  0  0  0  0  0  0  0
  1  2  1  0  0  0  0
  1 19  1  0  0  0  0
  1 20  1  0  0  0  0
  1 21  1  0  0  0  0
  2 18  2  0  0  0  0
  2  3  1  0  0  0  0
  3  4  2  0  0  0  0
  3 22  1  0  0  0  0
  4  5  1  0  0  0  0
  4  6  1  0  0  0  0
  5 23  1  0  0  0  0
  5 24  1  0  0  0  0
  5 25  1  0  0  0  0
  6  7  1  0  0  0  0
  6 37  1  0  0  0  0
  7  8  2  0  0  0  0
  7 18  1  0  0  0  0
  8  9  1  0  0  0  0
  9 10  2  0  0  0  0
  9 11  1  0  0  0  0
 11 17  1  0  0  0  0
 11 12  1  0  0  0  0
 11 26  1  0  0  0  0
 12 13  1  0  0  0  0
 12 27  1  0  0  0  0
 12 28  1  0  0  0  0
 13 14  1  0  0  0  0
 13 15  1  0  0  0  0
 13 38  1  0  0  0  0
 14 29  1  0  0  0  0
 14 30  1  0  0  0  0
 14 31  1  0  0  0  0
 15 16  1  0  0  0  0
 15 32  1  0  0  0  0
 15 33  1  0  0  0  0
 16 17  1  0  0  0  0
 16 34  1  0  0  0  0
 16 35  1  0  0  0  0
 18 36  1  0  0  0  0
M  CHG  1  13   1
M  END
> <s_m_source_file>
AV-unprocessed.smi

> <i_m_source_file_index>
3314

> <i_lp_mmshare_version>
43012

> <i_f3d_flags>
0

> <s_epik_input>
W0NIM11jMVtjSF1jKFtDSDNdKW5jKFtjSF0xKVtOSF1DKD1PKVtDQEBIXTJbQ0gyXU4oW0NIM10pW0NIMl1bQ0gyXU8y

> <s_epik_cmdline>
J2VwaWtfcHl0aG9uJywgJy1waCcsICc3LjAnLCAnLXRuJywgJzgnLCAnLW1hJywgJzIwMCcsICctbWV0YWxfYmluZGluZycsICctaW1hZScsICc8aW5maWxlLm1hZT4nLCAnLW9tYWUnLCAnPG91dGZpbGUubWFlPic=

> <r_epik_Ionization_Penalty>
0.519783

> <r_epik_Ionization_Penalty_Charging>
0.519783

> <r_epik_Ionization_Penalty_Neutral>
1.74183e-13

> <r_epik_State_Penalty>
2.39351

> <r_epik_Charging_Adjusted_Penalty>
2.91329

> <i_epik_Tot_Q>
1

> <i_epik_Tot_abs_Q>
1

> <r_epik_Metal_State_Penalty>
2.41924

> <b_epik_Metal_Only>
0

> <s_lp_Force_Field>
OPLS_2005

> <r_lp_Energy>
34.3137

> <b_lp_Chiralities_Consistent>
1

> <s_lp_Variant>
AV-unprocessed.smi:3314-10

> <Gold.Version>
5.8.1

> <Gold.Id.Protein>
6NUR|6NUR_protein|mol2

> <Gold.PLP.Fitness>
40.3585

> <Gold.PLP.PLP>
-38.5493

> <Gold.PLP.part.hbond>
-1.0000

> <Gold.PLP.part.metal>
0.0000

> <Gold.PLP.part.buried>
-2.7559

> <Gold.PLP.part.nonpolar>
-38.1057

> <Gold.PLP.part.repulsive>
3.1260

> <Gold.PLP.ligand.clash>
0.0000

> <Gold.PLP.ligand.torsion>
0.5955

> <Gold.PLP.Chemscore.Hbond>
1.0000

> <Gold.PLP.Chemscore.CHOScore>
0.0000

> <Gold.PLP.Chemscore.Metal>
0.0000

> <Gold.Chemscore.Hbonds>
donor molecule, donor type, donor heavy atom, donor atom, acceptor molecule, acceptor atom, score
      L1  H    13    38       P1  7957  1.00

> <Gold.PLP.Chemscore.Internal.Correction>
0.0002

> <Gold.Rescore>
     Score         DG    S(hbond)    S(metal)    S(lipo)     H(rot)  DE(clash)    DE(int)     intcor
     13.89     -18.25       0.99        0.00     102.64       1.00       2.44       1.92       ----

> <Gold.Chemscore.Fitness>
13.8895

> <Gold.Chemscore.DG>
-18.2482

> <Gold.Chemscore.ZeroCoef>
-5.4800

> <Gold.Chemscore.Hbond>
0.9937

> <Gold.Chemscore.Metal>
0.0000

> <Gold.Chemscore.Lipo>
102.6429

> <Gold.Chemscore.Internal_Hbond>
0.0000

> <Gold.Chemscore.DEClash>
2.4376

> <Gold.Chemscore.DEInternal>
1.9211

> <Gold.Chemscore.Rot>
1.0000

> <Gold.Chemscore.Internal.Correction>
   9.000000E+99

> <Gold.Chemscore.Hbonds>
donor molecule, donor type, donor heavy atom, donor atom, acceptor molecule, acceptor atom, score
      L1  H    13    38       P1  7957  0.94

> <Gold.Chemscore.Hbond.Weighted>
-3.3190

> <Gold.Chemscore.Metal.Weighted>
-0.0000

> <Gold.Chemscore.Lipo.Weighted>
-12.0092

> <Gold.Chemscore.Internal_Hbond.Weighted>
0.0000

> <Gold.Chemscore.DEClash.Weighted>
2.4376

> <Gold.Chemscore.DEInternal.Weighted>
1.9211

> <Gold.Chemscore.Rot.Weighted>
2.5600

> <Gold.Chemscore.Internal.Correction.Weighted>
   9.000000E+99

> <Gold.Protein.RotatedTorsions>
[ 6907 6896 6895 6894 ] final  -46.85 input  -60.11 | X-H torsion
[ 7974 7965 7964 7962 ] final -124.40 input  175.53 | X-H torsion
[ 8008 7997 7996 7995 ] final   85.79 input   59.86 | X-H torsion
[ 10167 10162 10161 10158 ] final  175.41 input  -65.29 | X-H torsion
[ 10718 10713 10712 10709 ] final  -42.67 input   66.30 | X-H torsion
[ 10763 10752 10751 10750 ] final  -97.06 input  -60.55 | X-H torsion
[ 11005 11000 10999 10996 ] final  147.72 input  -57.11 | X-H torsion

> <Gold.Protein.ActiveResidues>
 VAL166  LYS551  ARG553  GLY616  TRP617  ASP618  TYR619  PRO620  LYS621  CYS622 
 ASP623  PHE694  ASN695  SER759  ASP760  ASP761  ALA762  ILE779  LEU786  VAL792 
 PHE793  MET794  SER795  GLU796  ALA797  LYS798  CYS799  TRP800  GLU811  SER814 

> <Gold.Protein.RotatedAtoms>
  150.9069  134.8484  159.7398 H   0  0  0  0  0  0  0  0  0  0  0  0  # atno 6907 bound_to 6896
  152.4923  134.4418  159.9556 H   0  0  0  0  0  0  0  0  0  0  0  0  # atno 6908 bound_to 6896
  151.4464  133.3590  159.2824 H   0  0  0  0  0  0  0  0  0  0  0  0  # atno 6909 bound_to 6896
  145.0084  140.7884  143.4453 H   0  0  0  0  0  0  0  0  0  0  0  0  # atno 7974 bound_to 7965
  155.9546  140.3398  155.6437 H   0  0  0  0  0  0  0  0  0  0  0  0  # atno 8008 bound_to 7997
  155.6877  140.0745  157.2479 H   0  0  0  0  0  0  0  0  0  0  0  0  # atno 8009 bound_to 7997
  154.4129  140.1663  156.2039 H   0  0  0  0  0  0  0  0  0  0  0  0  # atno 8010 bound_to 7997
  139.5176  144.3034  152.0357 H   0  0  0  0  0  0  0  0  0  0  0  0  # atno 10167 bound_to 10162
  156.2572  130.4193  149.8583 H   0  0  0  0  0  0  0  0  0  0  0  0  # atno 10718 bound_to 10713
  154.7294  135.5060  153.8940 H   0  0  0  0  0  0  0  0  0  0  0  0  # atno 10763 bound_to 10752
  153.0936  135.6666  153.9815 H   0  0  0  0  0  0  0  0  0  0  0  0  # atno 10764 bound_to 10752
  153.9620  135.3047  155.3412 H   0  0  0  0  0  0  0  0  0  0  0  0  # atno 10765 bound_to 10752
  140.0899  134.9047  157.1635 H   0  0  0  0  0  0  0  0  0  0  0  0  # atno 11005 bound_to 11000
  145.2056  139.2230  143.5170 LP  0  0  0  0  0  0  0  0  0  0  0  0  # atno 17320 bound_to 7965
  146.3465  140.1883  142.8589 LP  0  0  0  0  0  0  0  0  0  0  0  0  # atno 17321 bound_to 7965
  140.2481  144.4198  150.6233 LP  0  0  0  0  0  0  0  0  0  0  0  0  # atno 17342 bound_to 10162
  140.6244  143.2179  151.6628 LP  0  0  0  0  0  0  0  0  0  0  0  0  # atno 17343 bound_to 10162
  156.6111  130.8587  151.3454 LP  0  0  0  0  0  0  0  0  0  0  0  0  # atno 17370 bound_to 10713
  157.7237  130.9593  150.1543 LP  0  0  0  0  0  0  0  0  0  0  0  0  # atno 17371 bound_to 10713
  140.3366  134.2750  155.7219 LP  0  0  0  0  0  0  0  0  0  0  0  0  # atno 17394 bound_to 11000
  141.2074  133.7805  157.0118 LP  0  0  0  0  0  0  0  0  0  0  0  0  # atno 17395 bound_to 11000

$$$$
