#       Name:                AV-unprocessed.smi:2458
#       Creating user name   scv26
#       Creation time:       Fri Mar 27 13:35:16 2020


#       File generated by GOLD software.
#

@<TRIPOS>MOLECULE
AV-unprocessed.smi:2458
    52    53     1
SMALL
NO_CHARGES


@<TRIPOS>ATOM
      1 ****        -2.2411  -3.6256  -2.6444 C.3            1 S1                 0.0000
      2 ****        -1.6352  -3.0159  -1.3654 C.3            1 S1                 0.0000
      3 ****        -2.2341  -3.7376  -0.1422 C.3            1 S1                 0.0000
      4 ****        -1.8070  -1.4696  -1.2965 C.3            1 S1                 0.0000
      5 ****        -1.1944  -0.8663  -0.0100 C.3            1 S1                 0.0000
      6 ****        -1.3857   0.6575   0.0644 C.3            1 S1                 0.0000
      7 ****        -0.7874   1.3974  -1.1477 C.3            1 S1                 0.0000
      8 ****         0.7487   1.4724  -1.0696 C.2            1 S1                 0.0000
      9 ****         1.4607   0.6388  -1.6291 O.2            1 S1                 0.0000
     10 ****         1.2485   2.4912  -0.3539 N.am           1 S1                 0.0000
     11 ****         2.6655   2.7162  -0.0827 C.3            1 S1                 0.0000
     12 ****         3.2754   1.6756   0.8859 C.3            1 S1                 0.0000
     13 ****         4.5446   2.1384   1.2988 O.3            1 S1                 0.0000
     14 ****         2.3740   1.3500   2.0697 C.ar           1 S1                 0.0000
     15 ****         2.1037   2.3070   3.0709 C.ar           1 S1                 0.0000
     16 ****         1.2412   1.9604   4.1285 C.ar           1 S1                 0.0000
     17 ****         0.6829   0.6668   4.1419 C.ar           1 S1                 0.0000
     18 ****         0.9337  -0.2587   3.1914 N.ar           1 S1                 0.0000
     19 ****         1.7644   0.0811   2.1825 C.ar           1 S1                 0.0000
     20 ****        -1.3240   0.7814  -2.4593 C.3            1 S1                 0.0000
     21 ****        -1.2010  -0.7548  -2.5295 C.3            1 S1                 0.0000
     22 ****        -2.8765  -1.2544  -1.2842 H              1 S1                 0.0000
     23 ****        -1.1421   2.4289  -1.1129 H              1 S1                 0.0000
     24 ****        -3.2937  -3.3604  -2.7500 H              1 S1                 0.0000
     25 ****        -2.1757  -4.7139  -2.6304 H              1 S1                 0.0000
     26 ****        -1.7175  -3.2984  -3.5418 H              1 S1                 0.0000
     27 ****        -0.5670  -3.2369  -1.3780 H              1 S1                 0.0000
     28 ****        -3.2843  -3.4790  -0.0038 H              1 S1                 0.0000
     29 ****        -1.7016  -3.4970   0.7772 H              1 S1                 0.0000
     30 ****        -2.1738  -4.8204  -0.2557 H              1 S1                 0.0000
     31 ****        -1.6571  -1.2956   0.8773 H              1 S1                 0.0000
     32 ****        -0.1342  -1.1146   0.0469 H              1 S1                 0.0000
     33 ****        -2.4518   0.8791   0.1266 H              1 S1                 0.0000
     34 ****        -0.9514   1.0346   0.9915 H              1 S1                 0.0000
     35 ****         0.5967   3.1360   0.0690 H              1 S1                 0.0000
     36 ****         3.2308   2.7570  -1.0151 H              1 S1                 0.0000
     37 ****         2.7345   3.7099   0.3613 H              1 S1                 0.0000
     38 ****         3.4477   0.7505   0.3342 H              1 S1                 0.0000
     39 ****         4.4346   2.9672   1.7389 H              1 S1                 0.0000
     40 ****         2.5437   3.2923   3.0269 H              1 S1                 0.0000
     41 ****         1.0116   2.6691   4.9103 H              1 S1                 0.0000
     42 ****         0.0166   0.3678   4.9374 H              1 S1                 0.0000
     43 ****         1.9372  -0.6813   1.4371 H              1 S1                 0.0000
     44 ****        -2.3764   1.0490  -2.5617 H              1 S1                 0.0000
     45 ****        -0.8221   1.2283  -3.3186 H              1 S1                 0.0000
     46 ****        -0.1577  -1.0468  -2.6448 H              1 S1                 0.0000
     47 ****        -1.7020  -1.0789  -3.4407 H              1 S1                 0.0000
     48 ****         1.0436  -0.1072  -2.1482 LP             1 S1                 0.0000
     49 ****         2.4562   0.7077  -1.5646 LP             1 S1                 0.0000
     50 ****         5.1360   2.2564   0.5011 LP             1 S1                 0.0000
     51 ****         4.9572   1.4767   1.9248 LP             1 S1                 0.0000
     52 ****         0.5174  -1.1670   3.2332 LP             1 S1                 0.0000
@<TRIPOS>BOND
    1    1    2 1     
    2    1   24 1     
    3    1   25 1     
    4    1   26 1     
    5    2    3 1     
    6    2    4 1     
    7    2   27 1     
    8    3   28 1     
    9    3   29 1     
   10    3   30 1     
   11    4   22 1     
   12    4   21 1     
   13    4    5 1     
   14    5    6 1     
   15    5   31 1     
   16    5   32 1     
   17    6    7 1     
   18    6   33 1     
   19    6   34 1     
   20    7   23 1     
   21    7    8 1     
   22    7   20 1     
   23    8    9 2     
   24    8   10 am    
   25   10   11 1     
   26   10   35 1     
   27   11   12 1     
   28   11   36 1     
   29   11   37 1     
   30   12   13 1     
   31   12   14 1     
   32   12   38 1     
   33   13   39 1     
   34   14   19 ar    
   35   14   15 ar    
   36   15   16 ar    
   37   15   40 1     
   38   16   17 ar    
   39   16   41 1     
   40   17   18 ar    
   41   17   42 1     
   42   18   19 ar    
   43   19   43 1     
   44   20   21 1     
   45   20   44 1     
   46   20   45 1     
   47   21   46 1     
   48   21   47 1     
   49    9   48 1     
   50    9   49 1     
   51   13   50 1     
   52   13   51 1     
   53   18   52 1     
@<TRIPOS>SUBSTRUCTURE
      1 S1             1
@<TRIPOS>SET
LONE_PAIRS      STATIC     ATOMS    <user>   **** ""
5 48 49 50 51 52
DONOR_HYDROGENS      STATIC     ATOMS    <user>   **** ""
2 35 39
ATOM$BLUE        STATIC     ATOMS    COLORGROUP SYSTEM
5 48 49 50 51 52
ATOM$RED        STATIC     ATOMS    COLORGROUP SYSTEM
2 35 39
