#       Name:                AV-unprocessed.smi:1282
#       Creating user name   scv26
#       Creation time:       Fri Mar 27 04:50:01 2020


#       File generated by GOLD software.
#

@<TRIPOS>MOLECULE
AV-unprocessed.smi:1282
    43    44     1
SMALL
NO_CHARGES


@<TRIPOS>ATOM
      1 ****        -5.0986   5.9967   0.1253 C.3            1 S1                 0.0000
      2 ****        -4.6281   4.6616   0.1852 O.3            1 S1                 0.0000
      3 ****        -3.2136   4.5827   0.1340 C.3            1 S1                 0.0000
      4 ****        -2.7902   3.1119   0.1786 C.3            1 S1                 0.0000
      5 ****        -1.3679   3.0487   0.1419 O.3            1 S1                 0.0000
      6 ****        -0.7617   1.8093   0.1481 C.ar           1 S1                 0.0000
      7 ****         0.6456   1.7491   0.1232 C.ar           1 S1                 0.0000
      8 ****         1.2741   0.4891   0.1268 C.ar           1 S1                 0.0000
      9 ****         0.4708  -0.6761   0.1457 C.ar           1 S1                 0.0000
     10 ****         0.9818  -2.0021   0.1695 N.am           1 S1                 0.0000
     11 ****         2.1927  -2.4451  -0.2150 C.2            1 S1                 0.0000
     12 ****         3.0755  -1.7352  -0.6969 O.2            1 S1                 0.0000
     13 ****         2.4231  -3.9528  -0.0427 C.3            1 S1                 0.0000
     14 ****         3.7242  -4.3215   0.6921 C.3            1 S1                 0.0000
     15 ****         3.9543  -5.4163  -0.3540 C.3            1 S1                 0.0000
     16 ****         2.9960  -4.6637  -1.2821 C.3            1 S1                 0.0000
     17 ****        -0.9289  -0.5066   0.1846 C.ar           1 S1                 0.0000
     18 ****        -1.5377   0.6981   0.1820 N.ar           1 S1                 0.0000
     19 ****        -6.1874   6.0046   0.1751 H              1 S1                 0.0000
     20 ****        -4.8012   6.4776  -0.8075 H              1 S1                 0.0000
     21 ****        -4.7192   6.5874   0.9601 H              1 S1                 0.0000
     22 ****        -2.8450   5.0474  -0.7818 H              1 S1                 0.0000
     23 ****        -2.7787   5.1219   0.9770 H              1 S1                 0.0000
     24 ****        -3.1658   2.6471   1.0919 H              1 S1                 0.0000
     25 ****        -3.2189   2.5812  -0.6732 H              1 S1                 0.0000
     26 ****         1.2340   2.6546   0.1061 H              1 S1                 0.0000
     27 ****         2.3518   0.4450   0.1292 H              1 S1                 0.0000
     28 ****         0.3276  -2.7118   0.4659 H              1 S1                 0.0000
     29 ****         1.5605  -4.4821   0.3672 H              1 S1                 0.0000
     30 ****         4.4916  -3.5455   0.6652 H              1 S1                 0.0000
     31 ****         3.5776  -4.6998   1.7041 H              1 S1                 0.0000
     32 ****         4.9790  -5.4901  -0.7193 H              1 S1                 0.0000
     33 ****         3.5640  -6.3861  -0.0415 H              1 S1                 0.0000
     34 ****         2.2845  -5.3072  -1.8003 H              1 S1                 0.0000
     35 ****         3.5169  -4.0055  -1.9799 H              1 S1                 0.0000
     36 ****        -1.5841  -1.3650   0.2142 H              1 S1                 0.0000
     37 ****        -5.0060   4.1531  -0.5885 LP             1 S1                 0.0000
     38 ****        -4.9417   4.2489   1.0404 LP             1 S1                 0.0000
     39 ****        -1.0299   3.5461   0.9409 LP             1 S1                 0.0000
     40 ****        -1.0734   3.5167  -0.6912 LP             1 S1                 0.0000
     41 ****         2.9155  -0.7566  -0.8256 LP             1 S1                 0.0000
     42 ****         3.9527  -2.1373  -0.9596 LP             1 S1                 0.0000
     43 ****        -2.5349   0.7691   0.2045 LP             1 S1                 0.0000
@<TRIPOS>BOND
    1    1    2 1     
    2    1   19 1     
    3    1   20 1     
    4    1   21 1     
    5    2    3 1     
    6    3    4 1     
    7    3   22 1     
    8    3   23 1     
    9    4    5 1     
   10    4   24 1     
   11    4   25 1     
   12    5    6 1     
   13    6   18 ar    
   14    6    7 ar    
   15    7    8 ar    
   16    7   26 1     
   17    8    9 ar    
   18    8   27 1     
   19    9   10 1     
   20    9   17 ar    
   21   10   11 am    
   22   10   28 1     
   23   11   12 2     
   24   11   13 1     
   25   13   16 1     
   26   13   14 1     
   27   13   29 1     
   28   14   15 1     
   29   14   30 1     
   30   14   31 1     
   31   15   16 1     
   32   15   32 1     
   33   15   33 1     
   34   16   34 1     
   35   16   35 1     
   36   17   18 ar    
   37   17   36 1     
   38    2   37 1     
   39    2   38 1     
   40    5   39 1     
   41    5   40 1     
   42   12   41 1     
   43   12   42 1     
   44   18   43 1     
@<TRIPOS>SUBSTRUCTURE
      1 S1             1
@<TRIPOS>SET
LONE_PAIRS      STATIC     ATOMS    <user>   **** ""
7 37 38 39 40 41 42 43
DONOR_HYDROGENS      STATIC     ATOMS    <user>   **** ""
1 28
ATOM$BLUE        STATIC     ATOMS    COLORGROUP SYSTEM
7 37 38 39 40 41 42 43
ATOM$RED        STATIC     ATOMS    COLORGROUP SYSTEM
1 28
