AV-unprocessed.smi:2766|AV-procd|sdf|10645|dock3
  -GOLD-   2272015 93D 1   1.00000     0.00000
 Structure written by MMmdl.
 32 33  0  0  0  0  0  0  0  0  1 V2000
  149.1153  140.5875  154.3733 C   0  0  0  0  0  0  0  0  0  0  0  0
  150.4338  140.1674  154.0705 O   0  0  0  0  0  0  0  0  0  0  0  0
  150.7334  138.8864  154.6004 C   0  0  0  0  0  0  0  0  0  0  0  0
  151.5996  139.0489  155.8601 C   0  0  1  0  0  0  0  0  0  0  0  0
  152.7396  139.8134  155.5206 O   0  0  0  0  0  0  0  0  0  0  0  0
  150.8291  139.7514  156.9991 C   0  0  0  0  0  0  0  0  0  0  0  0
  151.7008  140.4442  157.9407 N   0  0  0  0  0  0  0  0  0  0  0  0
  152.5103  139.9074  158.8917 C   0  0  0  0  0  0  0  0  0  0  0  0
  152.5938  138.4257  159.1390 C   0  0  0  0  0  0  0  0  0  0  0  0
  153.1555  137.8006  158.1029 F   0  0  0  0  0  0  0  0  0  0  0  0
  153.3356  138.1754  160.2179 F   0  0  0  0  0  0  0  0  0  0  0  0
  151.3843  137.8978  159.3203 F   0  0  0  0  0  0  0  0  0  0  0  0
  153.1998  140.7869  159.6226 N   0  0  0  0  0  0  0  0  0  0  0  0
  152.7996  142.0012  159.1033 C   0  0  0  0  0  0  0  0  0  0  0  0
  153.1736  143.3176  159.4564 C   0  0  0  0  0  0  0  0  0  0  0  0
  152.6161  144.4232  158.7815 C   0  0  0  0  0  0  0  0  0  0  0  0
  151.6783  144.2285  157.7469 C   0  0  0  0  0  0  0  0  0  0  0  0
  151.2931  142.9248  157.3795 C   0  0  0  0  0  0  0  0  0  0  0  0
  151.8552  141.8236  158.0539 C   0  0  0  0  0  0  0  0  0  0  0  0
  151.9315  138.0679  156.1996 H   0  0  0  0  0  0  0  0  0  0  0  0
  148.9365  141.5719  153.9412 H   0  0  0  0  0  0  0  0  0  0  0  0
  148.9633  140.6607  155.4510 H   0  0  0  0  0  0  0  0  0  0  0  0
  148.3760  139.8997  153.9607 H   0  0  0  0  0  0  0  0  0  0  0  0
  149.8251  138.3206  154.8167 H   0  0  0  0  0  0  0  0  0  0  0  0
  151.2873  138.3285  153.8435 H   0  0  0  0  0  0  0  0  0  0  0  0
  152.5007  140.4251  154.8415 H   0  0  0  0  0  0  0  0  0  0  0  0
  150.1245  140.4746  156.5862 H   0  0  0  0  0  0  0  0  0  0  0  0
  150.2249  139.0281  157.5457 H   0  0  0  0  0  0  0  0  0  0  0  0
  153.8893  143.4766  160.2493 H   0  0  0  0  0  0  0  0  0  0  0  0
  152.9084  145.4251  159.0598 H   0  0  0  0  0  0  0  0  0  0  0  0
  151.2551  145.0805  157.2352 H   0  0  0  0  0  0  0  0  0  0  0  0
  150.5759  142.7737  156.5867 H   0  0  0  0  0  0  0  0  0  0  0  0
  1  2  1  0  0  0  0
  1 21  1  0  0  0  0
  1 22  1  0  0  0  0
  1 23  1  0  0  0  0
  2  3  1  0  0  0  0
  3  4  1  0  0  0  0
  3 24  1  0  0  0  0
  3 25  1  0  0  0  0
  4 20  1  0  0  0  0
  4  5  1  0  0  0  0
  4  6  1  0  0  0  0
  5 26  1  0  0  0  0
  6  7  1  0  0  0  0
  6 27  1  0  0  0  0
  6 28  1  0  0  0  0
  7 19  1  0  0  0  0
  7  8  1  0  0  0  0
  8  9  1  0  0  0  0
  8 13  2  0  0  0  0
  9 10  1  0  0  0  0
  9 11  1  0  0  0  0
  9 12  1  0  0  0  0
 13 14  1  0  0  0  0
 14 19  2  0  0  0  0
 14 15  1  0  0  0  0
 15 16  2  0  0  0  0
 15 29  1  0  0  0  0
 16 17  1  0  0  0  0
 16 30  1  0  0  0  0
 17 18  2  0  0  0  0
 17 31  1  0  0  0  0
 18 19  1  0  0  0  0
 18 32  1  0  0  0  0
M  END
> <s_m_source_file>
AV-unprocessed.smi

> <i_m_source_file_index>
2766

> <i_lp_mmshare_version>
43012

> <i_f3d_flags>
0

> <s_epik_input>
W0NIM11PW0NIMl1bQ0BASF0oW09IXSlbQ0gyXW4oYyhuMSlDKEYpKEYpRiljKGMxMilbY0hdW2NIXVtjSF1bY0hdMg==

> <s_epik_cmdline>
J2VwaWtfcHl0aG9uJywgJy1waCcsICc3LjAnLCAnLXRuJywgJzgnLCAnLW1hJywgJzIwMCcsICctbWV0YWxfYmluZGluZycsICctaW1hZScsICc8aW5maWxlLm1hZT4nLCAnLW9tYWUnLCAnPG91dGZpbGUubWFlPic=

> <r_epik_Ionization_Penalty>
0.00044827

> <r_epik_Ionization_Penalty_Charging>
0

> <r_epik_Ionization_Penalty_Neutral>
0.00044827

> <r_epik_State_Penalty>
0.000276591

> <r_epik_Charging_Adjusted_Penalty>
0.000276591

> <i_epik_Tot_Q>
0

> <i_epik_Tot_abs_Q>
0

> <r_epik_Metal_State_Penalty>
-0

> <b_epik_Metal_Only>
0

> <s_lp_Force_Field>
OPLS_2005

> <r_lp_Energy>
13.5685

> <b_lp_Chiralities_Consistent>
1

> <s_lp_Variant>
AV-unprocessed.smi:2766-1

> <Gold.Version>
5.8.1

> <Gold.Id.Protein>
6NUR|6NUR_protein|mol2

> <Gold.PLP.Fitness>
45.8936

> <Gold.PLP.PLP>
-41.6383

> <Gold.PLP.part.hbond>
-2.1483

> <Gold.PLP.part.metal>
0.0000

> <Gold.PLP.part.buried>
-5.1866

> <Gold.PLP.part.nonpolar>
-35.1676

> <Gold.PLP.part.repulsive>
0.6880

> <Gold.PLP.ligand.clash>
0.0000

> <Gold.PLP.ligand.torsion>
0.8850

> <Gold.PLP.Chemscore.Hbond>
2.0000

> <Gold.PLP.Chemscore.CHOScore>
0.0000

> <Gold.PLP.Chemscore.Metal>
0.0000

> <Gold.Chemscore.Hbonds>
donor molecule, donor type, donor heavy atom, donor atom, acceptor molecule, acceptor atom, score
      P1  H  7989  7998       L1     2  0.91
      P1  H  7997  8010       L1     5  1.00

> <Gold.PLP.Chemscore.Internal.Correction>
0.0253

> <Gold.Rescore>
     Score         DG    S(hbond)    S(metal)    S(lipo)     H(rot)  DE(clash)    DE(int)     intcor
     16.02     -17.16       1.93        0.00      95.57       2.32       0.17       0.97       ----

> <Gold.Chemscore.Fitness>
16.0158

> <Gold.Chemscore.DG>
-17.1618

> <Gold.Chemscore.ZeroCoef>
-5.4800

> <Gold.Chemscore.Hbond>
1.9251

> <Gold.Chemscore.Metal>
0.0000

> <Gold.Chemscore.Lipo>
95.5714

> <Gold.Chemscore.Internal_Hbond>
0.0000

> <Gold.Chemscore.DEClash>
0.1727

> <Gold.Chemscore.DEInternal>
0.9733

> <Gold.Chemscore.Rot>
2.3164

> <Gold.Chemscore.Internal.Correction>
   9.000000E+99

> <Gold.Chemscore.Hbonds>
donor molecule, donor type, donor heavy atom, donor atom, acceptor molecule, acceptor atom, score
      P1  H  7989  7998       L1     2  0.74
      P1  H  7997  8010       L1     5  0.87

> <Gold.Chemscore.Hbond.Weighted>
-6.4298

> <Gold.Chemscore.Metal.Weighted>
-0.0000

> <Gold.Chemscore.Lipo.Weighted>
-11.1819

> <Gold.Chemscore.Internal_Hbond.Weighted>
0.0000

> <Gold.Chemscore.DEClash.Weighted>
0.1727

> <Gold.Chemscore.DEInternal.Weighted>
0.9733

> <Gold.Chemscore.Rot.Weighted>
5.9299

> <Gold.Chemscore.Internal.Correction.Weighted>
   9.000000E+99

> <Gold.Protein.RotatedTorsions>
[ 6907 6896 6895 6894 ] final -114.59 input  -60.11 | X-H torsion
[ 7974 7965 7964 7962 ] final   50.68 input  175.53 | X-H torsion
[ 8008 7997 7996 7995 ] final   79.28 input   59.86 | X-H torsion
[ 10167 10162 10161 10158 ] final  133.83 input  -65.29 | X-H torsion
[ 10718 10713 10712 10709 ] final  107.49 input   66.30 | X-H torsion
[ 10763 10752 10751 10750 ] final   76.73 input  -60.55 | X-H torsion
[ 11005 11000 10999 10996 ] final    8.09 input  -57.11 | X-H torsion

> <Gold.Protein.ActiveResidues>
 VAL166  LYS551  ARG553  GLY616  TRP617  ASP618  TYR619  PRO620  LYS621  CYS622 
 ASP623  PHE694  ASN695  SER759  ASP760  ASP761  ALA762  ILE779  LEU786  VAL792 
 PHE793  MET794  SER795  GLU796  ALA797  LYS798  CYS799  TRP800  GLU811  SER814 

> <Gold.Protein.RotatedAtoms>
  150.7914  133.8779  159.3277 H   0  0  0  0  0  0  0  0  0  0  0  0  # atno 6907 bound_to 6896
  151.6616  135.0986  160.0190 H   0  0  0  0  0  0  0  0  0  0  0  0  # atno 6908 bound_to 6896
  152.3988  133.6748  159.6334 H   0  0  0  0  0  0  0  0  0  0  0  0  # atno 6909 bound_to 6896
  145.9988  139.4417  143.0028 H   0  0  0  0  0  0  0  0  0  0  0  0  # atno 7974 bound_to 7965
  155.8674  140.3450  155.5798 H   0  0  0  0  0  0  0  0  0  0  0  0  # atno 8008 bound_to 7997
  155.7865  140.0865  157.2051 H   0  0  0  0  0  0  0  0  0  0  0  0  # atno 8009 bound_to 7997
  154.4015  140.1491  156.3100 H   0  0  0  0  0  0  0  0  0  0  0  0  # atno 8010 bound_to 7997
  139.5281  144.6597  151.5052 H   0  0  0  0  0  0  0  0  0  0  0  0  # atno 10167 bound_to 10162
  157.6626  131.0874  150.6165 H   0  0  0  0  0  0  0  0  0  0  0  0  # atno 10718 bound_to 10713
  153.0746  135.4940  154.8378 H   0  0  0  0  0  0  0  0  0  0  0  0  # atno 10763 bound_to 10752
  154.7070  135.3012  154.9257 H   0  0  0  0  0  0  0  0  0  0  0  0  # atno 10764 bound_to 10752
  153.9963  135.6772  153.4809 H   0  0  0  0  0  0  0  0  0  0  0  0  # atno 10765 bound_to 10752
  140.5409  134.0375  155.7904 H   0  0  0  0  0  0  0  0  0  0  0  0  # atno 11005 bound_to 11000
  145.7519  140.9969  143.1246 LP  0  0  0  0  0  0  0  0  0  0  0  0  # atno 17320 bound_to 7965
  144.6912  139.9224  143.7468 LP  0  0  0  0  0  0  0  0  0  0  0  0  # atno 17321 bound_to 7965
  140.6439  143.8834  150.6718 LP  0  0  0  0  0  0  0  0  0  0  0  0  # atno 17342 bound_to 10162
  140.2177  143.3833  152.1668 LP  0  0  0  0  0  0  0  0  0  0  0  0  # atno 17343 bound_to 10162
  156.6467  130.4473  149.5733 LP  0  0  0  0  0  0  0  0  0  0  0  0  # atno 17370 bound_to 10713
  156.2168  130.6713  151.1327 LP  0  0  0  0  0  0  0  0  0  0  0  0  # atno 17371 bound_to 10713
  141.1227  133.9434  157.2696 LP  0  0  0  0  0  0  0  0  0  0  0  0  # atno 17394 bound_to 11000
  139.9504  135.0176  156.8978 LP  0  0  0  0  0  0  0  0  0  0  0  0  # atno 17395 bound_to 11000

$$$$
