AV-unprocessed.smi:62|AV-procd|sdf|603|dock9
  -GOLD-   2262016493D 1   1.00000     0.00000
 Structure written by MMmdl.
 31 32  0  0  0  0  0  0  0  0  3 V2000
  151.9421  142.6391  159.2892 C   0  0  0  0  0  0  0  0  0  0  0  0
  151.5702  141.9864  158.0524 N   0  0  0  0  0  0  0  0  0  0  0  0
  150.5365  142.2881  157.1958 C   0  0  0  0  0  0  0  0  0  0  0  0
  150.5766  141.3998  156.1567 C   0  0  0  0  0  0  0  0  0  0  0  0
  149.6276  141.3600  154.9820 C   0  0  0  0  0  0  0  0  0  0  0  0
  148.6428  140.2610  155.1163 N   0  3  1  0  0  0  0  0  0  0  0  0
  147.8728  140.2510  156.3798 C   0  0  0  0  0  0  0  0  0  0  0  0
  146.5658  139.5400  156.0438 C   0  0  0  0  0  0  0  0  0  0  0  0
  146.2866  140.0283  154.6260 C   0  0  2  0  0  0  0  0  0  0  0  0
  145.4528  139.1389  153.9135 O   0  0  0  0  0  0  0  0  0  0  0  0
  147.6799  140.1565  153.9947 C   0  0  0  0  0  0  0  0  0  0  0  0
  151.7032  140.5701  156.4822 C   0  0  0  0  0  0  0  0  0  0  0  0
  152.1342  139.4172  155.6146 C   0  0  0  0  0  0  0  0  0  0  0  0
  153.1141  138.7151  155.9490 O   0  0  0  0  0  0  0  0  0  0  0  0
  151.4916  139.2039  154.5637 O   0  5  0  0  0  0  0  0  0  0  0  0
  152.2866  140.9340  157.6162 N   0  0  0  0  0  0  0  0  0  0  0  0
  151.2514  143.4549  159.5046 H   0  0  0  0  0  0  0  0  0  0  0  0
  152.9519  143.0422  159.2043 H   0  0  0  0  0  0  0  0  0  0  0  0
  151.9105  141.9214  160.1096 H   0  0  0  0  0  0  0  0  0  0  0  0
  149.8598  143.1065  157.3930 H   0  0  0  0  0  0  0  0  0  0  0  0
  149.0884  142.3034  154.8827 H   0  0  0  0  0  0  0  0  0  0  0  0
  150.1752  141.2349  154.0473 H   0  0  0  0  0  0  0  0  0  0  0  0
  148.4231  139.7580  157.1820 H   0  0  0  0  0  0  0  0  0  0  0  0
  147.6617  141.2747  156.6939 H   0  0  0  0  0  0  0  0  0  0  0  0
  146.7239  138.4601  156.0530 H   0  0  0  0  0  0  0  0  0  0  0  0
  145.7613  139.7718  156.7423 H   0  0  0  0  0  0  0  0  0  0  0  0
  145.8142  141.0107  154.6685 H   0  0  0  0  0  0  0  0  0  0  0  0
  144.8236  139.6429  153.4200 H   0  0  0  0  0  0  0  0  0  0  0  0
  147.7262  141.0113  153.3182 H   0  0  0  0  0  0  0  0  0  0  0  0
  147.9400  139.2673  153.4185 H   0  0  0  0  0  0  0  0  0  0  0  0
  149.1736  139.4005  155.0976 H   0  0  0  0  0  0  0  0  0  0  0  0
  1  2  1  0  0  0  0
  1 17  1  0  0  0  0
  1 18  1  0  0  0  0
  1 19  1  0  0  0  0
  2 16  1  0  0  0  0
  2  3  1  0  0  0  0
  3  4  2  0  0  0  0
  3 20  1  0  0  0  0
  4  5  1  0  0  0  0
  4 12  1  0  0  0  0
  5  6  1  0  0  0  0
  5 21  1  0  0  0  0
  5 22  1  0  0  0  0
  6 11  1  0  0  0  0
  6  7  1  0  0  0  0
  6 31  1  0  0  0  0
  7  8  1  0  0  0  0
  7 23  1  0  0  0  0
  7 24  1  0  0  0  0
  8  9  1  0  0  0  0
  8 25  1  0  0  0  0
  8 26  1  0  0  0  0
  9 10  1  0  0  0  0
  9 11  1  0  0  0  0
  9 27  1  0  0  0  0
 10 28  1  0  0  0  0
 11 29  1  0  0  0  0
 11 30  1  0  0  0  0
 12 13  1  0  0  0  0
 12 16  2  0  0  0  0
 13 14  2  0  0  0  0
 13 15  1  0  0  0  0
M  CHG  1   6   1
M  CHG  1  15  -1
M  END
> <s_m_source_file>
AV-unprocessed.smi

> <i_m_source_file_index>
62

> <i_lp_mmshare_version>
43012

> <i_f3d_flags>
0

> <s_epik_input>
W0NIM11uMVtjSF1jKGMobjEpQyg9TylbT0hdKVtDSDJdTjJbQ0gyXVtDSDJdW0NAQEhdKFtPSF0pW0NIMl0y

> <s_epik_cmdline>
J2VwaWtfcHl0aG9uJywgJy1waCcsICc3LjAnLCAnLXRuJywgJzgnLCAnLW1hJywgJzIwMCcsICctbWV0YWxfYmluZGluZycsICctaW1hZScsICc8aW5maWxlLm1hZT4nLCAnLW9tYWUnLCAnPG91dGZpbGUubWFlPic=

> <r_epik_Ionization_Penalty>
0.0522993

> <r_epik_Ionization_Penalty_Charging>
0.0522915

> <r_epik_Ionization_Penalty_Neutral>
7.84975e-06

> <r_epik_State_Penalty>
0.0448084

> <r_epik_Charging_Adjusted_Penalty>
0.0970998

> <i_epik_Tot_Q>
0

> <i_epik_Tot_abs_Q>
2

> <r_epik_Metal_State_Penalty>
0.0448097

> <b_epik_Metal_Only>
0

> <s_lp_Force_Field>
OPLS_2005

> <r_lp_Energy>
17.4079

> <b_lp_Chiralities_Consistent>
1

> <s_lp_Variant>
AV-unprocessed.smi:62-3

> <Gold.Version>
5.8.1

> <Gold.Id.Protein>
6NUR|6NUR_protein|mol2

> <Gold.PLP.Fitness>
38.0106

> <Gold.PLP.PLP>
-23.6666

> <Gold.PLP.part.hbond>
-3.3021

> <Gold.PLP.part.metal>
0.0000

> <Gold.PLP.part.buried>
-1.7629

> <Gold.PLP.part.nonpolar>
-18.7037

> <Gold.PLP.part.repulsive>
0.1626

> <Gold.PLP.ligand.clash>
0.0000

> <Gold.PLP.ligand.torsion>
0.2236

> <Gold.PLP.Chemscore.Hbond>
4.0000

> <Gold.PLP.Chemscore.CHOScore>
0.9270

> <Gold.PLP.Chemscore.Metal>
0.0000

> <Gold.Chemscore.Hbonds>
donor molecule, donor type, donor heavy atom, donor atom, acceptor molecule, acceptor atom, score
      L1  H    10    28       P1 10175  1.00
      P1  H  7989  7998       L1    15  1.00
      P1  H  7997  8009       L1    14  1.90
      L1  C     3    20       P1  8028  0.89

> <Gold.PLP.Chemscore.Internal.Correction>
0.0103

> <Gold.Rescore>
     Score         DG    S(hbond)    S(metal)    S(lipo)     H(rot)  DE(clash)    DE(int)     intcor
     13.80     -15.35       2.79        0.00      44.25       1.81       0.00       1.54       ----

> <Gold.Chemscore.Fitness>
13.8049

> <Gold.Chemscore.DG>
-15.3498

> <Gold.Chemscore.ZeroCoef>
-5.4800

> <Gold.Chemscore.Hbond>
2.7914

> <Gold.Chemscore.Metal>
0.0000

> <Gold.Chemscore.Lipo>
44.2548

> <Gold.Chemscore.Internal_Hbond>
0.0000

> <Gold.Chemscore.DEClash>
0.0015

> <Gold.Chemscore.DEInternal>
1.5434

> <Gold.Chemscore.Rot>
1.8091

> <Gold.Chemscore.Internal.Correction>
   9.000000E+99

> <Gold.Chemscore.Hbonds>
donor molecule, donor type, donor heavy atom, donor atom, acceptor molecule, acceptor atom, score
      L1  H    10    28       P1 10175  1.00
      P1  H  7989  7998       L1    15  0.54
      P1  H  7997  8009       L1    14  0.21

> <Gold.Chemscore.Hbond.Weighted>
-9.3234

> <Gold.Chemscore.Metal.Weighted>
-0.0000

> <Gold.Chemscore.Lipo.Weighted>
-5.1778

> <Gold.Chemscore.Internal_Hbond.Weighted>
0.0000

> <Gold.Chemscore.DEClash.Weighted>
0.0015

> <Gold.Chemscore.DEInternal.Weighted>
1.5434

> <Gold.Chemscore.Rot.Weighted>
4.6314

> <Gold.Chemscore.Internal.Correction.Weighted>
   9.000000E+99

> <Gold.Protein.RotatedTorsions>
[ 6907 6896 6895 6894 ] final   37.31 input  -60.11 | X-H torsion
[ 7974 7965 7964 7962 ] final  171.02 input  175.53 | X-H torsion
[ 8008 7997 7996 7995 ] final -161.21 input   59.86 | X-H torsion
[ 10167 10162 10161 10158 ] final -157.83 input  -65.29 | X-H torsion
[ 10718 10713 10712 10709 ] final -150.15 input   66.30 | X-H torsion
[ 10763 10752 10751 10750 ] final  111.12 input  -60.55 | X-H torsion
[ 11005 11000 10999 10996 ] final   88.11 input  -57.11 | X-H torsion

> <Gold.Protein.ActiveResidues>
 VAL166  LYS551  ARG553  GLY616  TRP617  ASP618  TYR619  PRO620  LYS621  CYS622 
 ASP623  PHE694  ASN695  SER759  ASP760  ASP761  ALA762  ILE779  LEU786  VAL792 
 PHE793  MET794  SER795  GLU796  ALA797  LYS798  CYS799  TRP800  GLU811  SER814 

> <Gold.Protein.RotatedAtoms>
  152.1414  134.9059  160.0553 H   0  0  0  0  0  0  0  0  0  0  0  0  # atno 6907 bound_to 6896
  152.0126  133.3862  159.4234 H   0  0  0  0  0  0  0  0  0  0  0  0  # atno 6908 bound_to 6896
  150.6865  134.3635  159.5004 H   0  0  0  0  0  0  0  0  0  0  0  0  # atno 6909 bound_to 6896
  144.7306  139.9288  143.6423 H   0  0  0  0  0  0  0  0  0  0  0  0  # atno 7974 bound_to 7965
  155.7889  140.0875  157.2020 H   0  0  0  0  0  0  0  0  0  0  0  0  # atno 8008 bound_to 7997
  154.3986  140.1494  156.3197 H   0  0  0  0  0  0  0  0  0  0  0  0  # atno 8009 bound_to 7997
  155.8579  140.3431  155.5739 H   0  0  0  0  0  0  0  0  0  0  0  0  # atno 8010 bound_to 7997
  139.6740  143.9696  152.2300 H   0  0  0  0  0  0  0  0  0  0  0  0  # atno 10167 bound_to 10162
  156.4423  130.8128  151.2358 H   0  0  0  0  0  0  0  0  0  0  0  0  # atno 10718 bound_to 10713
  153.4587  135.3727  155.2326 H   0  0  0  0  0  0  0  0  0  0  0  0  # atno 10763 bound_to 10752
  154.8757  135.3903  154.3950 H   0  0  0  0  0  0  0  0  0  0  0  0  # atno 10764 bound_to 10752
  153.4521  135.7085  153.6167 H   0  0  0  0  0  0  0  0  0  0  0  0  # atno 10765 bound_to 10752
  139.8904  134.8467  156.2955 H   0  0  0  0  0  0  0  0  0  0  0  0  # atno 11005 bound_to 11000
  146.0873  139.3862  143.0427 LP  0  0  0  0  0  0  0  0  0  0  0  0  # atno 17320 bound_to 7965
  145.7759  140.9877  143.1124 LP  0  0  0  0  0  0  0  0  0  0  0  0  # atno 17321 bound_to 7965
  139.9468  144.6646  150.8211 LP  0  0  0  0  0  0  0  0  0  0  0  0  # atno 17342 bound_to 10162
  140.7628  143.3208  151.2626 LP  0  0  0  0  0  0  0  0  0  0  0  0  # atno 17343 bound_to 10162
  157.7506  131.0164  150.3543 LP  0  0  0  0  0  0  0  0  0  0  0  0  # atno 17370 bound_to 10713
  156.3904  130.3897  149.7034 LP  0  0  0  0  0  0  0  0  0  0  0  0  # atno 17371 bound_to 10713
  140.9948  133.7187  156.0869 LP  0  0  0  0  0  0  0  0  0  0  0  0  # atno 17394 bound_to 11000
  140.7577  134.3974  157.5531 LP  0  0  0  0  0  0  0  0  0  0  0  0  # atno 17395 bound_to 11000

$$$$
