AV-unprocessed.smi:1433|AV-procd|sdf|5844|dock2
  -GOLD-   22720 5513D 1   1.00000     0.00000
 Structure written by MMmdl.
 45 46  0  0  0  0  0  0  0  0  2 V2000
  146.7715  130.3620  152.6477 C   0  0  0  0  0  0  0  0  0  0  0  0
  146.4728  131.8206  153.0114 C   0  0  1  0  0  0  0  0  0  0  0  0
  147.6900  132.7388  152.7582 C   0  0  0  0  0  0  0  0  0  0  0  0
  147.3615  134.1703  153.0028 N   0  3  2  0  0  0  0  0  0  0  0  0
  147.3401  134.5620  154.4537 C   0  0  1  0  0  0  0  0  0  0  0  0
  148.7473  134.3820  155.0691 C   0  0  0  0  0  0  0  0  0  0  0  0
  146.8215  136.0065  154.6954 C   0  0  0  0  0  0  0  0  0  0  0  0
  147.6923  137.0288  154.1205 N   0  0  0  0  0  0  0  0  0  0  0  0
  148.1131  138.1395  154.7487 C   0  0  0  0  0  0  0  0  0  0  0  0
  147.7719  138.4397  155.8921 O   0  0  0  0  0  0  0  0  0  0  0  0
  149.0431  139.0688  153.9628 C   0  0  0  0  0  0  0  0  0  0  0  0
  150.4340  138.9070  154.3523 N   0  0  0  0  0  0  0  0  0  0  0  0
  151.2376  137.7942  154.2163 C   0  0  0  0  0  0  0  0  0  0  0  0
  152.4635  138.1128  154.7264 C   0  0  0  0  0  0  0  0  0  0  0  0
  152.3124  139.4621  155.1521 C   0  0  0  0  0  0  0  0  0  0  0  0
  151.0974  139.9347  154.9264 N   0  0  0  0  0  0  0  0  0  0  0  0
  146.1717  134.5273  152.1828 C   0  0  0  0  0  0  0  0  0  0  0  0
  144.9826  133.5957  152.4924 C   0  0  1  0  0  0  0  0  0  0  0  0
  143.7571  133.9179  151.6306 C   0  0  0  0  0  0  0  0  0  0  0  0
  145.3761  132.2562  152.2149 O   0  0  0  0  0  0  0  0  0  0  0  0
  147.6020  129.9724  153.2370 H   0  0  0  0  0  0  0  0  0  0  0  0
  147.0336  130.2627  151.5939 H   0  0  0  0  0  0  0  0  0  0  0  0
  145.9050  129.7278  152.8363 H   0  0  0  0  0  0  0  0  0  0  0  0
  146.1828  131.8534  154.0622 H   0  0  0  0  0  0  0  0  0  0  0  0
  148.5420  132.4079  153.3482 H   0  0  0  0  0  0  0  0  0  0  0  0
  148.0010  132.6407  151.7170 H   0  0  0  0  0  0  0  0  0  0  0  0
  146.6582  133.8939  154.9793 H   0  0  0  0  0  0  0  0  0  0  0  0
  148.7491  134.5838  156.1397 H   0  0  0  0  0  0  0  0  0  0  0  0
  149.4664  135.0585  154.6063 H   0  0  0  0  0  0  0  0  0  0  0  0
  149.1323  133.3700  154.9621 H   0  0  0  0  0  0  0  0  0  0  0  0
  145.7990  136.1090  154.3274 H   0  0  0  0  0  0  0  0  0  0  0  0
  146.7912  136.2303  155.7612 H   0  0  0  0  0  0  0  0  0  0  0  0
  148.0221  136.8692  153.1795 H   0  0  0  0  0  0  0  0  0  0  0  0
  148.9462  138.8608  152.8966 H   0  0  0  0  0  0  0  0  0  0  0  0
  148.7517  140.1094  154.1141 H   0  0  0  0  0  0  0  0  0  0  0  0
  150.8738  136.8781  153.7744 H   0  0  0  0  0  0  0  0  0  0  0  0
  153.3364  137.4798  154.7848 H   0  0  0  0  0  0  0  0  0  0  0  0
  153.0443  140.1075  155.6151 H   0  0  0  0  0  0  0  0  0  0  0  0
  145.9007  135.5776  152.2763 H   0  0  0  0  0  0  0  0  0  0  0  0
  146.4450  134.4090  151.1331 H   0  0  0  0  0  0  0  0  0  0  0  0
  144.6979  133.6796  153.5425 H   0  0  0  0  0  0  0  0  0  0  0  0
  143.4049  134.9337  151.8115 H   0  0  0  0  0  0  0  0  0  0  0  0
  142.9347  133.2377  151.8533 H   0  0  0  0  0  0  0  0  0  0  0  0
  143.9856  133.8267  150.5684 H   0  0  0  0  0  0  0  0  0  0  0  0
  148.1216  134.7070  152.6095 H   0  0  0  0  0  0  0  0  0  0  0  0
  1  2  1  0  0  0  0
  1 21  1  0  0  0  0
  1 22  1  0  0  0  0
  1 23  1  0  0  0  0
  2 20  1  0  0  0  0
  2  3  1  0  0  0  0
  2 24  1  0  0  0  0
  3  4  1  0  0  0  0
  3 25  1  0  0  0  0
  3 26  1  0  0  0  0
  4  5  1  0  0  0  0
  4 17  1  0  0  0  0
  4 45  1  0  0  0  0
  5  6  1  0  0  0  0
  5  7  1  0  0  0  0
  5 27  1  0  0  0  0
  6 28  1  0  0  0  0
  6 29  1  0  0  0  0
  6 30  1  0  0  0  0
  7  8  1  0  0  0  0
  7 31  1  0  0  0  0
  7 32  1  0  0  0  0
  8  9  1  0  0  0  0
  8 33  1  0  0  0  0
  9 10  2  0  0  0  0
  9 11  1  0  0  0  0
 11 12  1  0  0  0  0
 11 34  1  0  0  0  0
 11 35  1  0  0  0  0
 12 16  1  0  0  0  0
 12 13  1  0  0  0  0
 13 14  2  0  0  0  0
 13 36  1  0  0  0  0
 14 15  1  0  0  0  0
 14 37  1  0  0  0  0
 15 16  2  0  0  0  0
 15 38  1  0  0  0  0
 17 18  1  0  0  0  0
 17 39  1  0  0  0  0
 17 40  1  0  0  0  0
 18 19  1  0  0  0  0
 18 20  1  0  0  0  0
 18 41  1  0  0  0  0
 19 42  1  0  0  0  0
 19 43  1  0  0  0  0
 19 44  1  0  0  0  0
M  CHG  1   4   1
M  END
> <s_m_source_file>
AV-unprocessed.smi

> <i_m_source_file_index>
1433

> <i_lp_mmshare_version>
43012

> <i_f3d_flags>
0

> <s_epik_input>
W0NIM11bQ0BASF0xW0NIMl1OKFtDSDJdW0NASF0oTzEpW0NIM10pW0NASF0oW0NIM10pW0NIMl1bTkhdQyg9TylbQ0gyXW4yW2NIXVtjSF1bY0hdbjI=

> <s_epik_cmdline>
J2VwaWtfcHl0aG9uJywgJy1waCcsICc3LjAnLCAnLXRuJywgJzgnLCAnLW1hJywgJzIwMCcsICctbWV0YWxfYmluZGluZycsICctaW1hZScsICc8aW5maWxlLm1hZT4nLCAnLW9tYWUnLCAnPG91dGZpbGUubWFlPic=

> <r_lp_tautomer_probability>
1

> <r_epik_Ionization_Penalty>
0.748405

> <r_epik_Ionization_Penalty_Charging>
0.748396

> <r_epik_Ionization_Penalty_Neutral>
8.54426e-06

> <r_epik_State_Penalty>
0.775162

> <r_epik_Charging_Adjusted_Penalty>
1.52356

> <i_epik_Tot_Q>
1

> <i_epik_Tot_abs_Q>
1

> <r_epik_Metal_State_Penalty>
0.775167

> <b_epik_Metal_Only>
0

> <s_lp_Force_Field>
OPLS_2005

> <r_lp_Energy>
22.8293

> <b_lp_Chiralities_Consistent>
1

> <s_lp_Variant>
AV-unprocessed.smi:1433-10

> <Gold.Version>
5.8.1

> <Gold.Id.Protein>
6NUR|6NUR_protein|mol2

> <Gold.PLP.Fitness>
44.1670

> <Gold.PLP.PLP>
-30.9192

> <Gold.PLP.part.hbond>
-3.0000

> <Gold.PLP.part.metal>
0.0000

> <Gold.PLP.part.buried>
-1.7249

> <Gold.PLP.part.nonpolar>
-26.4828

> <Gold.PLP.part.repulsive>
0.1878

> <Gold.PLP.ligand.clash>
0.0000

> <Gold.PLP.ligand.torsion>
0.4732

> <Gold.PLP.Chemscore.Hbond>
3.6500

> <Gold.PLP.Chemscore.CHOScore>
1.0518

> <Gold.PLP.Chemscore.Metal>
0.0000

> <Gold.Chemscore.Hbonds>
donor molecule, donor type, donor heavy atom, donor atom, acceptor molecule, acceptor atom, score
      L1  H     4    45       P1  7948  2.00
      L1  H     8    33       P1  7948  1.00
      P1  H  7989  7998       L1    16  0.60
      L1  C    13    36       P1  7948  0.15
      L1  C    13    36       P1  7949  0.91

> <Gold.PLP.Chemscore.Internal.Correction>
0.0888

> <Gold.Rescore>
     Score         DG    S(hbond)    S(metal)    S(lipo)     H(rot)  DE(clash)    DE(int)     intcor
     14.61     -15.05       1.83        0.00      70.37       1.87       0.07       0.37       ----

> <Gold.Chemscore.Fitness>
14.6052

> <Gold.Chemscore.DG>
-15.0471

> <Gold.Chemscore.ZeroCoef>
-5.4800

> <Gold.Chemscore.Hbond>
1.8294

> <Gold.Chemscore.Metal>
0.0000

> <Gold.Chemscore.Lipo>
70.3685

> <Gold.Chemscore.Internal_Hbond>
0.0000

> <Gold.Chemscore.DEClash>
0.0697

> <Gold.Chemscore.DEInternal>
0.3722

> <Gold.Chemscore.Rot>
1.8657

> <Gold.Chemscore.Internal.Correction>
   9.000000E+99

> <Gold.Chemscore.Hbonds>
donor molecule, donor type, donor heavy atom, donor atom, acceptor molecule, acceptor atom, score
      L1  H     4    45       P1  7948  0.55
      L1  H     8    33       P1  7948  1.00
      P1  H  7989  7998       L1    16  0.01

> <Gold.Chemscore.Hbond.Weighted>
-6.1101

> <Gold.Chemscore.Metal.Weighted>
-0.0000

> <Gold.Chemscore.Lipo.Weighted>
-8.2331

> <Gold.Chemscore.Internal_Hbond.Weighted>
0.0000

> <Gold.Chemscore.DEClash.Weighted>
0.0697

> <Gold.Chemscore.DEInternal.Weighted>
0.3722

> <Gold.Chemscore.Rot.Weighted>
4.7761

> <Gold.Chemscore.Internal.Correction.Weighted>
   9.000000E+99

> <Gold.Protein.RotatedTorsions>
[ 6907 6896 6895 6894 ] final   77.82 input  -60.11 | X-H torsion
[ 7974 7965 7964 7962 ] final   -7.46 input  175.53 | X-H torsion
[ 8008 7997 7996 7995 ] final   19.79 input   59.86 | X-H torsion
[ 10167 10162 10161 10158 ] final  140.59 input  -65.29 | X-H torsion
[ 10718 10713 10712 10709 ] final -175.44 input   66.30 | X-H torsion
[ 10763 10752 10751 10750 ] final -110.49 input  -60.55 | X-H torsion
[ 11005 11000 10999 10996 ] final  -13.73 input  -57.11 | X-H torsion

> <Gold.Protein.ActiveResidues>
 VAL166  LYS551  ARG553  GLY616  TRP617  ASP618  TYR619  PRO620  LYS621  CYS622 
 ASP623  PHE694  ASN695  SER759  ASP760  ASP761  ALA762  ILE779  LEU786  VAL792 
 PHE793  MET794  SER795  GLU796  ALA797  LYS798  CYS799  TRP800  GLU811  SER814 

> <Gold.Protein.RotatedAtoms>
  152.5134  134.3758  159.9333 H   0  0  0  0  0  0  0  0  0  0  0  0  # atno 6907 bound_to 6896
  151.3714  133.3847  159.2708 H   0  0  0  0  0  0  0  0  0  0  0  0  # atno 6908 bound_to 6896
  150.9575  134.8987  159.7768 H   0  0  0  0  0  0  0  0  0  0  0  0  # atno 6909 bound_to 6896
  146.2306  140.2322  142.8340 H   0  0  0  0  0  0  0  0  0  0  0  0  # atno 7974 bound_to 7965
  154.9259  140.3033  155.5192 H   0  0  0  0  0  0  0  0  0  0  0  0  # atno 8008 bound_to 7997
  156.3007  140.2363  156.4250 H   0  0  0  0  0  0  0  0  0  0  0  0  # atno 8009 bound_to 7997
  154.8285  140.0419  157.1449 H   0  0  0  0  0  0  0  0  0  0  0  0  # atno 8010 bound_to 7997
  139.5044  144.6225  151.6017 H   0  0  0  0  0  0  0  0  0  0  0  0  # atno 10167 bound_to 10162
  156.7999  130.9548  151.3119 H   0  0  0  0  0  0  0  0  0  0  0  0  # atno 10718 bound_to 10713
  154.8250  135.4562  154.0893 H   0  0  0  0  0  0  0  0  0  0  0  0  # atno 10763 bound_to 10752
  153.2214  135.6894  153.8002 H   0  0  0  0  0  0  0  0  0  0  0  0  # atno 10764 bound_to 10752
  153.7418  135.3311  155.3282 H   0  0  0  0  0  0  0  0  0  0  0  0  # atno 10765 bound_to 10752
  140.7792  133.8377  155.9276 H   0  0  0  0  0  0  0  0  0  0  0  0  # atno 11005 bound_to 11000
  144.9549  140.8216  143.5549 LP  0  0  0  0  0  0  0  0  0  0  0  0  # atno 17320 bound_to 7965
  145.2287  139.2125  143.5054 LP  0  0  0  0  0  0  0  0  0  0  0  0  # atno 17321 bound_to 7965
  140.5931  143.9744  150.6337 LP  0  0  0  0  0  0  0  0  0  0  0  0  # atno 17342 bound_to 10162
  140.2931  143.3311  152.1044 LP  0  0  0  0  0  0  0  0  0  0  0  0  # atno 17343 bound_to 10162
  157.6559  130.8924  149.9727 LP  0  0  0  0  0  0  0  0  0  0  0  0  # atno 17370 bound_to 10713
  156.1107  130.3650  150.0053 LP  0  0  0  0  0  0  0  0  0  0  0  0  # atno 17371 bound_to 10713
  140.9499  134.1792  157.4735 LP  0  0  0  0  0  0  0  0  0  0  0  0  # atno 17394 bound_to 11000
  139.8745  134.9905  156.5506 LP  0  0  0  0  0  0  0  0  0  0  0  0  # atno 17395 bound_to 11000

$$$$
