AV-unprocessed.smi:2775|AV-procd|sdf|10691|dock2
  -GOLD-   2272015133D 1   1.00000     0.00000
 Structure written by MMmdl.
 42 45  0  0  0  0  0  0  0  0  1 V2000
  146.1577  132.7314  160.6126 C   0  0  0  0  0  0  0  0  0  0  0  0
  146.9109  134.0324  160.8186 C   0  0  0  0  0  0  0  0  0  0  0  0
  146.9524  134.4901  162.0891 N   0  0  0  0  0  0  0  0  0  0  0  0
  147.6170  135.6392  162.3292 C   0  0  0  0  0  0  0  0  0  0  0  0
  148.2627  136.3848  161.3245 C   0  0  0  0  0  0  0  0  0  0  0  0
  148.2061  135.9162  159.9907 C   0  0  0  0  0  0  0  0  0  0  0  0
  148.8385  136.5774  158.9037 N   0  0  0  0  0  0  0  0  0  0  0  0
  150.0457  137.1730  158.8662 C   0  0  0  0  0  0  0  0  0  0  0  0
  150.8504  137.1908  159.7951 O   0  0  0  0  0  0  0  0  0  0  0  0
  150.2999  137.8083  157.7090 N   0  0  0  0  0  0  0  0  0  0  0  0
  151.5120  138.5489  157.3498 C   0  0  1  0  0  0  0  0  0  0  0  0
  152.0083  138.3018  155.9050 C   0  0  1  0  0  0  0  0  0  0  0  0
  151.1857  137.5918  154.8599 C   0  0  0  0  0  0  0  0  0  0  0  0
  150.2476  138.6866  154.3629 C   0  0  0  0  0  0  0  0  0  0  0  0
  150.9899  139.8963  154.5156 O   0  0  0  0  0  0  0  0  0  0  0  0
  151.8785  139.7985  155.6319 C   0  0  1  0  0  0  0  0  0  0  0  0
  151.2389  140.0244  157.0145 C   0  0  0  0  0  0  0  0  0  0  0  0
  149.8586  140.6976  157.1678 C   0  0  0  0  0  0  0  0  0  0  0  0
  150.5886  141.9945  157.5239 C   0  0  0  0  0  0  0  0  0  0  0  0
  151.7919  141.1361  157.9204 C   0  0  0  0  0  0  0  0  0  0  0  0
  147.5236  134.7043  159.7350 C   0  0  0  0  0  0  0  0  0  0  0  0
  147.4314  134.0631  158.1282 Cl  0  0  0  0  0  0  0  0  0  0  0  0
  145.3228  132.8813  159.9277 H   0  0  0  0  0  0  0  0  0  0  0  0
  145.7579  132.3454  161.5515 H   0  0  0  0  0  0  0  0  0  0  0  0
  146.8187  131.9736  160.1917 H   0  0  0  0  0  0  0  0  0  0  0  0
  147.6408  135.9725  163.3560 H   0  0  0  0  0  0  0  0  0  0  0  0
  148.7926  137.2853  161.5947 H   0  0  0  0  0  0  0  0  0  0  0  0
  148.2570  136.7170  158.0905 H   0  0  0  0  0  0  0  0  0  0  0  0
  149.5551  137.8248  157.0271 H   0  0  0  0  0  0  0  0  0  0  0  0
  152.3191  138.4558  158.0790 H   0  0  0  0  0  0  0  0  0  0  0  0
  153.0503  137.9794  155.9146 H   0  0  0  0  0  0  0  0  0  0  0  0
  151.8280  137.2568  154.0450 H   0  0  0  0  0  0  0  0  0  0  0  0
  150.6506  136.7188  155.2321 H   0  0  0  0  0  0  0  0  0  0  0  0
  149.9346  138.5359  153.3298 H   0  0  0  0  0  0  0  0  0  0  0  0
  149.3521  138.7296  154.9836 H   0  0  0  0  0  0  0  0  0  0  0  0
  152.8304  140.3108  155.4870 H   0  0  0  0  0  0  0  0  0  0  0  0
  149.2548  140.7580  156.2628 H   0  0  0  0  0  0  0  0  0  0  0  0
  149.2794  140.3124  158.0085 H   0  0  0  0  0  0  0  0  0  0  0  0
  150.7849  142.6209  156.6520 H   0  0  0  0  0  0  0  0  0  0  0  0
  150.1422  142.5624  158.3405 H   0  0  0  0  0  0  0  0  0  0  0  0
  151.7814  140.8633  158.9770 H   0  0  0  0  0  0  0  0  0  0  0  0
  152.7591  141.5400  157.6203 H   0  0  0  0  0  0  0  0  0  0  0  0
  1  2  1  0  0  0  0
  1 23  1  0  0  0  0
  1 24  1  0  0  0  0
  1 25  1  0  0  0  0
  2 21  1  0  0  0  0
  2  3  2  0  0  0  0
  3  4  1  0  0  0  0
  4  5  2  0  0  0  0
  4 26  1  0  0  0  0
  5  6  1  0  0  0  0
  5 27  1  0  0  0  0
  6  7  1  0  0  0  0
  6 21  2  0  0  0  0
  7  8  1  0  0  0  0
  7 28  1  0  0  0  0
  8  9  2  0  0  0  0
  8 10  1  0  0  0  0
 10 11  1  0  0  0  0
 10 29  1  0  0  0  0
 11 17  1  0  0  0  0
 11 12  1  0  0  0  0
 11 30  1  0  0  0  0
 12 16  1  0  0  0  0
 12 13  1  0  0  0  0
 12 31  1  0  0  0  0
 13 14  1  0  0  0  0
 13 32  1  0  0  0  0
 13 33  1  0  0  0  0
 14 15  1  0  0  0  0
 14 34  1  0  0  0  0
 14 35  1  0  0  0  0
 15 16  1  0  0  0  0
 16 17  1  0  0  0  0
 16 36  1  0  0  0  0
 17 20  1  0  0  0  0
 17 18  1  0  0  0  0
 18 19  1  0  0  0  0
 18 37  1  0  0  0  0
 18 38  1  0  0  0  0
 19 20  1  0  0  0  0
 19 39  1  0  0  0  0
 19 40  1  0  0  0  0
 20 41  1  0  0  0  0
 20 42  1  0  0  0  0
 21 22  1  0  0  0  0
M  END
> <s_m_source_file>
AV-unprocessed.smi

> <i_m_source_file_index>
2775

> <i_lp_mmshare_version>
43012

> <i_f3d_flags>
0

> <s_epik_input>
W0NIM11jMW5bY0hdW2NIXWMoYzFDbClbTkhdQyg9TylbTkhdW0NAQEhdMltDQEhdKFtDSDJdW0NIMl1PMylbQ0BASF0zQzI0W0NIMl1bQ0gyXVtDSDJdNA==

> <s_epik_cmdline>
J2VwaWtfcHl0aG9uJywgJy1waCcsICc3LjAnLCAnLXRuJywgJzgnLCAnLW1hJywgJzIwMCcsICctbWV0YWxfYmluZGluZycsICctaW1hZScsICc8aW5maWxlLm1hZT4nLCAnLW9tYWUnLCAnPG91dGZpbGUubWFlPic=

> <r_epik_Ionization_Penalty>
0.01026

> <r_epik_Ionization_Penalty_Charging>
0

> <r_epik_Ionization_Penalty_Neutral>
0.01026

> <r_epik_State_Penalty>
0.00780685

> <r_epik_Charging_Adjusted_Penalty>
0.00780685

> <i_epik_Tot_Q>
0

> <i_epik_Tot_abs_Q>
0

> <r_epik_Metal_State_Penalty>
0.00767411

> <b_epik_Metal_Only>
0

> <s_lp_Force_Field>
OPLS_2005

> <r_lp_Energy>
57.8128

> <b_lp_Chiralities_Consistent>
1

> <s_lp_Variant>
AV-unprocessed.smi:2775-4

> <Gold.Version>
5.8.1

> <Gold.Id.Protein>
6NUR|6NUR_protein|mol2

> <Gold.PLP.Fitness>
39.5726

> <Gold.PLP.PLP>
-34.7200

> <Gold.PLP.part.hbond>
-1.9630

> <Gold.PLP.part.metal>
0.0000

> <Gold.PLP.part.buried>
-5.4409

> <Gold.PLP.part.nonpolar>
-27.3576

> <Gold.PLP.part.repulsive>
0.2994

> <Gold.PLP.ligand.clash>
0.0000

> <Gold.PLP.ligand.torsion>
0.4464

> <Gold.PLP.Chemscore.Hbond>
1.8613

> <Gold.PLP.Chemscore.CHOScore>
0.0000

> <Gold.PLP.Chemscore.Metal>
0.0000

> <Gold.Chemscore.Hbonds>
donor molecule, donor type, donor heavy atom, donor atom, acceptor molecule, acceptor atom, score
      P1  H  6896  6909       L1     9  0.83
      P1  H  7989  7998       L1    15  1.00

> <Gold.PLP.Chemscore.Internal.Correction>
0.1616

> <Gold.Rescore>
     Score         DG    S(hbond)    S(metal)    S(lipo)     H(rot)  DE(clash)    DE(int)     intcor
     19.51     -19.95       1.94        0.00      90.27       1.00       0.00       0.43       ----

> <Gold.Chemscore.Fitness>
19.5117

> <Gold.Chemscore.DG>
-19.9468

> <Gold.Chemscore.ZeroCoef>
-5.4800

> <Gold.Chemscore.Hbond>
1.9356

> <Gold.Chemscore.Metal>
0.0000

> <Gold.Chemscore.Lipo>
90.2720

> <Gold.Chemscore.Internal_Hbond>
0.0000

> <Gold.Chemscore.DEClash>
0.0004

> <Gold.Chemscore.DEInternal>
0.4346

> <Gold.Chemscore.Rot>
1.0000

> <Gold.Chemscore.Internal.Correction>
   9.000000E+99

> <Gold.Chemscore.Hbonds>
donor molecule, donor type, donor heavy atom, donor atom, acceptor molecule, acceptor atom, score
      P1  H  6896  6909       L1     9  0.25
      P1  H  7989  7998       L1    15  0.57

> <Gold.Chemscore.Hbond.Weighted>
-6.4650

> <Gold.Chemscore.Metal.Weighted>
-0.0000

> <Gold.Chemscore.Lipo.Weighted>
-10.5618

> <Gold.Chemscore.Internal_Hbond.Weighted>
0.0000

> <Gold.Chemscore.DEClash.Weighted>
0.0004

> <Gold.Chemscore.DEInternal.Weighted>
0.4346

> <Gold.Chemscore.Rot.Weighted>
2.5600

> <Gold.Chemscore.Internal.Correction.Weighted>
   9.000000E+99

> <Gold.Protein.RotatedTorsions>
[ 6907 6896 6895 6894 ] final  106.45 input  -60.11 | X-H torsion
[ 7974 7965 7964 7962 ] final   74.06 input  175.53 | X-H torsion
[ 8008 7997 7996 7995 ] final -123.16 input   59.86 | X-H torsion
[ 10167 10162 10161 10158 ] final   82.07 input  -65.29 | X-H torsion
[ 10718 10713 10712 10709 ] final    1.40 input   66.30 | X-H torsion
[ 10763 10752 10751 10750 ] final    3.96 input  -60.55 | X-H torsion
[ 11005 11000 10999 10996 ] final  -50.32 input  -57.11 | X-H torsion

> <Gold.Protein.ActiveResidues>
 VAL166  LYS551  ARG553  GLY616  TRP617  ASP618  TYR619  PRO620  LYS621  CYS622 
 ASP623  PHE694  ASN695  SER759  ASP760  ASP761  ALA762  ILE779  LEU786  VAL792 
 PHE793  MET794  SER795  GLU796  ALA797  LYS798  CYS799  TRP800  GLU811  SER814 

> <Gold.Protein.RotatedAtoms>
  152.5193  133.9380  159.7612 H   0  0  0  0  0  0  0  0  0  0  0  0  # atno 6907 bound_to 6896
  150.9716  133.6330  159.2744 H   0  0  0  0  0  0  0  0  0  0  0  0  # atno 6908 bound_to 6896
  151.3539  135.0896  159.9465 H   0  0  0  0  0  0  0  0  0  0  0  0  # atno 6909 bound_to 6896
  145.7330  139.2691  143.1530 H   0  0  0  0  0  0  0  0  0  0  0  0  # atno 7974 bound_to 7965
  155.1760  140.0409  157.2872 H   0  0  0  0  0  0  0  0  0  0  0  0  # atno 8008 bound_to 7997
  154.6236  140.2507  155.7491 H   0  0  0  0  0  0  0  0  0  0  0  0  # atno 8009 bound_to 7997
  156.2447  140.2890  156.0556 H   0  0  0  0  0  0  0  0  0  0  0  0  # atno 8010 bound_to 7997
  139.9326  144.6142  150.8330 H   0  0  0  0  0  0  0  0  0  0  0  0  # atno 10167 bound_to 10162
  156.8476  130.5542  149.5672 H   0  0  0  0  0  0  0  0  0  0  0  0  # atno 10718 bound_to 10713
  153.2770  135.6937  153.7423 H   0  0  0  0  0  0  0  0  0  0  0  0  # atno 10763 bound_to 10752
  153.6424  135.3391  155.3076 H   0  0  0  0  0  0  0  0  0  0  0  0  # atno 10764 bound_to 10752
  154.8483  135.4435  154.1812 H   0  0  0  0  0  0  0  0  0  0  0  0  # atno 10765 bound_to 10752
  141.0809  133.6653  156.3715 H   0  0  0  0  0  0  0  0  0  0  0  0  # atno 11005 bound_to 11000
  146.0520  140.8060  142.9777 LP  0  0  0  0  0  0  0  0  0  0  0  0  # atno 17320 bound_to 7965
  144.6888  140.3067  143.7255 LP  0  0  0  0  0  0  0  0  0  0  0  0  # atno 17321 bound_to 7965
  140.7633  143.3220  151.2601 LP  0  0  0  0  0  0  0  0  0  0  0  0  # atno 17342 bound_to 10162
  139.6770  143.9921  152.2786 LP  0  0  0  0  0  0  0  0  0  0  0  0  # atno 17343 bound_to 10162
  156.0846  130.5848  150.9625 LP  0  0  0  0  0  0  0  0  0  0  0  0  # atno 17370 bound_to 10713
  157.6321  131.0920  150.8420 LP  0  0  0  0  0  0  0  0  0  0  0  0  # atno 17371 bound_to 10713
  140.5469  134.6065  157.5396 LP  0  0  0  0  0  0  0  0  0  0  0  0  # atno 17394 bound_to 11000
  139.9623  134.7431  156.0210 LP  0  0  0  0  0  0  0  0  0  0  0  0  # atno 17395 bound_to 11000

$$$$
