AV-unprocessed.smi:1697|AV-procd|sdf|6807|dock8
  -GOLD-   22720 7583D 1   1.00000     0.00000
 Structure written by MMmdl.
 55 57  0  0  0  0  0  0  0  0  3 V2000
  145.2916  132.3378  151.4186 C   0  0  0  0  0  0  0  0  0  0  0  0
  146.1372  133.3358  152.2128 C   0  0  0  0  0  0  0  0  0  0  0  0
  146.1359  132.9476  153.5787 O   0  0  0  0  0  0  0  0  0  0  0  0
  147.0474  133.6665  154.3986 C   0  0  2  0  0  0  0  0  0  0  0  0
  146.7067  135.1679  154.4326 C   0  0  0  0  0  0  0  0  0  0  0  0
  147.7872  135.9659  155.1824 C   0  0  0  0  0  0  0  0  0  0  0  0
  149.1310  135.7502  154.5809 N   0  3  1  0  0  0  0  0  0  0  0  0
  150.1969  136.5864  155.1926 C   0  0  0  0  0  0  0  0  0  0  0  0
  149.9615  138.1018  155.0211 C   0  0  2  0  0  0  0  0  0  0  0  0
  149.9296  138.4173  153.6416 O   0  0  0  0  0  0  0  0  0  0  0  0
  151.0814  138.9221  155.6920 C   0  0  0  0  0  0  0  0  0  0  0  0
  150.6977  140.3176  155.9441 N   0  0  0  0  0  0  0  0  0  0  0  0
  149.8105  141.1138  155.2872 C   0  0  0  0  0  0  0  0  0  0  0  0
  149.8129  142.3277  155.9045 N   0  3  0  0  0  0  0  0  0  0  0  0
  150.7158  142.3069  156.9698 C   0  0  0  0  0  0  0  0  0  0  0  0
  151.0678  143.2914  157.8854 C   0  0  0  0  0  0  0  0  0  0  0  0
  152.0328  142.9505  158.8601 C   0  0  0  0  0  0  0  0  0  0  0  0
  152.4425  144.0048  159.8743 C   0  0  0  0  0  0  0  0  0  0  0  0
  152.6090  141.6539  158.8952 C   0  0  0  0  0  0  0  0  0  0  0  0
  153.6453  141.2986  159.9478 C   0  0  0  0  0  0  0  0  0  0  0  0
  152.2365  140.6658  157.9558 C   0  0  0  0  0  0  0  0  0  0  0  0
  151.2867  141.0197  157.0008 C   0  0  0  0  0  0  0  0  0  0  0  0
  149.4934  134.3092  154.5679 C   0  0  0  0  0  0  0  0  0  0  0  0
  148.4495  133.4810  153.8020 C   0  0  0  0  0  0  0  0  0  0  0  0
  145.2704  132.6005  150.3606 H   0  0  0  0  0  0  0  0  0  0  0  0
  144.2628  132.3218  151.7793 H   0  0  0  0  0  0  0  0  0  0  0  0
  145.6929  131.3276  151.5051 H   0  0  0  0  0  0  0  0  0  0  0  0
  147.1520  133.3544  151.8152 H   0  0  0  0  0  0  0  0  0  0  0  0
  145.7210  134.3385  152.1054 H   0  0  0  0  0  0  0  0  0  0  0  0
  147.0443  133.2582  155.4110 H   0  0  0  0  0  0  0  0  0  0  0  0
  146.6151  135.5470  153.4136 H   0  0  0  0  0  0  0  0  0  0  0  0
  145.7419  135.3329  154.9117 H   0  0  0  0  0  0  0  0  0  0  0  0
  147.5207  137.0216  155.1563 H   0  0  0  0  0  0  0  0  0  0  0  0
  147.8063  135.6726  156.2335 H   0  0  0  0  0  0  0  0  0  0  0  0
  150.2845  136.3327  156.2503 H   0  0  0  0  0  0  0  0  0  0  0  0
  151.1595  136.3379  154.7422 H   0  0  0  0  0  0  0  0  0  0  0  0
  149.0088  138.3952  155.4598 H   0  0  0  0  0  0  0  0  0  0  0  0
  149.4317  137.7562  153.1856 H   0  0  0  0  0  0  0  0  0  0  0  0
  151.3847  138.4715  156.6381 H   0  0  0  0  0  0  0  0  0  0  0  0
  151.9707  138.9384  155.0600 H   0  0  0  0  0  0  0  0  0  0  0  0
  149.2117  140.8333  154.4325 H   0  0  0  0  0  0  0  0  0  0  0  0
  150.6243  144.2760  157.8533 H   0  0  0  0  0  0  0  0  0  0  0  0
  153.5139  144.1980  159.8154 H   0  0  0  0  0  0  0  0  0  0  0  0
  152.2047  143.6755  160.8862 H   0  0  0  0  0  0  0  0  0  0  0  0
  151.9245  144.9485  159.7004 H   0  0  0  0  0  0  0  0  0  0  0  0
  153.9724  140.2629  159.8528 H   0  0  0  0  0  0  0  0  0  0  0  0
  153.2349  141.4271  160.9494 H   0  0  0  0  0  0  0  0  0  0  0  0
  154.5245  141.9355  159.8487 H   0  0  0  0  0  0  0  0  0  0  0  0
  152.6759  139.6798  157.9819 H   0  0  0  0  0  0  0  0  0  0  0  0
  150.4670  134.1768  154.0945 H   0  0  0  0  0  0  0  0  0  0  0  0
  149.5863  133.9456  155.5926 H   0  0  0  0  0  0  0  0  0  0  0  0
  148.7251  132.4260  153.8232 H   0  0  0  0  0  0  0  0  0  0  0  0
  148.4472  133.7784  152.7521 H   0  0  0  0  0  0  0  0  0  0  0  0
  149.0706  136.0294  153.6123 H   0  0  0  0  0  0  0  0  0  0  0  0
  149.2408  143.1112  155.6163 H   0  0  0  0  0  0  0  0  0  0  0  0
  1  2  1  0  0  0  0
  1 25  1  0  0  0  0
  1 26  1  0  0  0  0
  1 27  1  0  0  0  0
  2  3  1  0  0  0  0
  2 28  1  0  0  0  0
  2 29  1  0  0  0  0
  3  4  1  0  0  0  0
  4 24  1  0  0  0  0
  4  5  1  0  0  0  0
  4 30  1  0  0  0  0
  5  6  1  0  0  0  0
  5 31  1  0  0  0  0
  5 32  1  0  0  0  0
  6  7  1  0  0  0  0
  6 33  1  0  0  0  0
  6 34  1  0  0  0  0
  7  8  1  0  0  0  0
  7 23  1  0  0  0  0
  7 54  1  0  0  0  0
  8  9  1  0  0  0  0
  8 35  1  0  0  0  0
  8 36  1  0  0  0  0
  9 10  1  0  0  0  0
  9 11  1  0  0  0  0
  9 37  1  0  0  0  0
 10 38  1  0  0  0  0
 11 12  1  0  0  0  0
 11 39  1  0  0  0  0
 11 40  1  0  0  0  0
 12 22  1  0  0  0  0
 12 13  1  0  0  0  0
 13 14  2  0  0  0  0
 13 41  1  0  0  0  0
 14 15  1  0  0  0  0
 14 55  1  0  0  0  0
 15 22  2  0  0  0  0
 15 16  1  0  0  0  0
 16 17  2  0  0  0  0
 16 42  1  0  0  0  0
 17 18  1  0  0  0  0
 17 19  1  0  0  0  0
 18 43  1  0  0  0  0
 18 44  1  0  0  0  0
 18 45  1  0  0  0  0
 19 20  1  0  0  0  0
 19 21  2  0  0  0  0
 20 46  1  0  0  0  0
 20 47  1  0  0  0  0
 20 48  1  0  0  0  0
 21 22  1  0  0  0  0
 21 49  1  0  0  0  0
 23 24  1  0  0  0  0
 23 50  1  0  0  0  0
 23 51  1  0  0  0  0
 24 52  1  0  0  0  0
 24 53  1  0  0  0  0
M  CHG  1   7   1
M  CHG  1  14   1
M  END
> <s_m_source_file>
AV-unprocessed.smi

> <i_m_source_file_index>
1697

> <i_lp_mmshare_version>
43012

> <i_f3d_flags>
0

> <s_epik_input>
W0NIM11bQ0gyXU9bQ0hdMVtDSDJdW0NIMl1OKFtDSDJdW0NIMl0xKVtDSDJdW0NASF0oW09IXSlbQ0gyXW4oW2NIXW4yKWMoYzIzKVtjSF1jKFtDSDNdKWMoW2NIXTMpW0NIM10=

> <s_epik_cmdline>
J2VwaWtfcHl0aG9uJywgJy1waCcsICc3LjAnLCAnLXRuJywgJzgnLCAnLW1hJywgJzIwMCcsICctbWV0YWxfYmluZGluZycsICctaW1hZScsICc8aW5maWxlLm1hZT4nLCAnLW9tYWUnLCAnPG91dGZpbGUubWFlPic=

> <r_epik_Ionization_Penalty>
1.20016

> <r_epik_Ionization_Penalty_Charging>
1.20016

> <r_epik_Ionization_Penalty_Neutral>
1.70998e-06

> <r_epik_State_Penalty>
1.27959

> <r_epik_Charging_Adjusted_Penalty>
2.47975

> <i_epik_Tot_Q>
2

> <i_epik_Tot_abs_Q>
2

> <r_epik_Metal_State_Penalty>
5.29682

> <b_epik_Metal_Only>
0

> <s_lp_Force_Field>
OPLS_2005

> <r_lp_Energy>
32.2014

> <b_lp_Chiralities_Consistent>
1

> <s_lp_Variant>
AV-unprocessed.smi:1697-5

> <Gold.Version>
5.8.1

> <Gold.Id.Protein>
6NUR|6NUR_protein|mol2

> <Gold.PLP.Fitness>
61.0402

> <Gold.PLP.PLP>
-47.0629

> <Gold.PLP.part.hbond>
-4.0066

> <Gold.PLP.part.metal>
0.0000

> <Gold.PLP.part.buried>
-3.6488

> <Gold.PLP.part.nonpolar>
-39.4342

> <Gold.PLP.part.repulsive>
0.2785

> <Gold.PLP.ligand.clash>
0.0000

> <Gold.PLP.ligand.torsion>
0.5808

> <Gold.PLP.Chemscore.Hbond>
4.9840

> <Gold.PLP.Chemscore.CHOScore>
0.0000

> <Gold.PLP.Chemscore.Metal>
0.0000

> <Gold.Chemscore.Hbonds>
donor molecule, donor type, donor heavy atom, donor atom, acceptor molecule, acceptor atom, score
      L1  H     7    54       P1  7948  2.00
      L1  H    10    38       P1  7948  0.98
      L1  H    14    55       P1  8028  2.00

> <Gold.PLP.Chemscore.Internal.Correction>
0.1869

> <Gold.Rescore>
     Score         DG    S(hbond)    S(metal)    S(lipo)     H(rot)  DE(clash)    DE(int)     intcor
     22.18     -22.85       2.76        0.00     120.95       2.35       0.06       0.60       ----

> <Gold.Chemscore.Fitness>
22.1807

> <Gold.Chemscore.DG>
-22.8452

> <Gold.Chemscore.ZeroCoef>
-5.4800

> <Gold.Chemscore.Hbond>
2.7610

> <Gold.Chemscore.Metal>
0.0000

> <Gold.Chemscore.Lipo>
120.9510

> <Gold.Chemscore.Internal_Hbond>
0.0000

> <Gold.Chemscore.DEClash>
0.0612

> <Gold.Chemscore.DEInternal>
0.6033

> <Gold.Chemscore.Rot>
2.3468

> <Gold.Chemscore.Internal.Correction>
   9.000000E+99

> <Gold.Chemscore.Hbonds>
donor molecule, donor type, donor heavy atom, donor atom, acceptor molecule, acceptor atom, score
      L1  H     7    54       P1  7948  0.93
      L1  H    10    38       P1  7948  0.84
      L1  H    14    55       P1  8028  0.95

> <Gold.Chemscore.Hbond.Weighted>
-9.2217

> <Gold.Chemscore.Metal.Weighted>
-0.0000

> <Gold.Chemscore.Lipo.Weighted>
-14.1513

> <Gold.Chemscore.Internal_Hbond.Weighted>
0.0000

> <Gold.Chemscore.DEClash.Weighted>
0.0612

> <Gold.Chemscore.DEInternal.Weighted>
0.6033

> <Gold.Chemscore.Rot.Weighted>
6.0077

> <Gold.Chemscore.Internal.Correction.Weighted>
   9.000000E+99

> <Gold.Protein.RotatedTorsions>
[ 6907 6896 6895 6894 ] final  133.66 input  -60.11 | X-H torsion
[ 7974 7965 7964 7962 ] final   80.68 input  175.53 | X-H torsion
[ 8008 7997 7996 7995 ] final    7.66 input   59.86 | X-H torsion
[ 10167 10162 10161 10158 ] final   42.22 input  -65.29 | X-H torsion
[ 10718 10713 10712 10709 ] final    5.67 input   66.30 | X-H torsion
[ 10763 10752 10751 10750 ] final  -53.91 input  -60.55 | X-H torsion
[ 11005 11000 10999 10996 ] final  -96.65 input  -57.11 | X-H torsion

> <Gold.Protein.ActiveResidues>
 VAL166  LYS551  ARG553  GLY616  TRP617  ASP618  TYR619  PRO620  LYS621  CYS622 
 ASP623  PHE694  ASN695  SER759  ASP760  ASP761  ALA762  ILE779  LEU786  VAL792 
 PHE793  MET794  SER795  GLU796  ALA797  LYS798  CYS799  TRP800  GLU811  SER814 

> <Gold.Protein.RotatedAtoms>
  152.3196  133.5839  159.5735 H   0  0  0  0  0  0  0  0  0  0  0  0  # atno 6907 bound_to 6896
  150.7364  134.0031  159.3653 H   0  0  0  0  0  0  0  0  0  0  0  0  # atno 6908 bound_to 6896
  151.7916  135.0734  160.0439 H   0  0  0  0  0  0  0  0  0  0  0  0  # atno 6909 bound_to 6896
  145.6480  139.2441  143.1993 H   0  0  0  0  0  0  0  0  0  0  0  0  # atno 7974 bound_to 7965
  154.7568  140.2777  155.6247 H   0  0  0  0  0  0  0  0  0  0  0  0  # atno 8008 bound_to 7997
  156.2907  140.2668  156.2263 H   0  0  0  0  0  0  0  0  0  0  0  0  # atno 8009 bound_to 7997
  155.0068  140.0372  157.2372 H   0  0  0  0  0  0  0  0  0  0  0  0  # atno 8010 bound_to 7997
  140.3566  144.2283  150.6141 H   0  0  0  0  0  0  0  0  0  0  0  0  # atno 10167 bound_to 10162
  156.9108  130.5755  149.5647 H   0  0  0  0  0  0  0  0  0  0  0  0  # atno 10718 bound_to 10713
  154.1664  135.6466  153.4998 H   0  0  0  0  0  0  0  0  0  0  0  0  # atno 10763 bound_to 10752
  153.0096  135.5373  154.6657 H   0  0  0  0  0  0  0  0  0  0  0  0  # atno 10764 bound_to 10752
  154.5985  135.2941  155.0532 H   0  0  0  0  0  0  0  0  0  0  0  0  # atno 10765 bound_to 10752
  141.1404  133.8113  157.0599 H   0  0  0  0  0  0  0  0  0  0  0  0  # atno 11005 bound_to 11000
  146.1227  140.7288  142.9450 LP  0  0  0  0  0  0  0  0  0  0  0  0  # atno 17320 bound_to 7965
  144.7133  140.4118  143.7064 LP  0  0  0  0  0  0  0  0  0  0  0  0  # atno 17321 bound_to 7965
  140.5168  143.2276  151.8451 LP  0  0  0  0  0  0  0  0  0  0  0  0  # atno 17342 bound_to 10162
  139.4819  144.4884  151.9216 LP  0  0  0  0  0  0  0  0  0  0  0  0  # atno 17343 bound_to 10162
  156.0537  130.5602  150.9044 LP  0  0  0  0  0  0  0  0  0  0  0  0  # atno 17370 bound_to 10713
  157.5968  131.0943  150.9027 LP  0  0  0  0  0  0  0  0  0  0  0  0  # atno 17371 bound_to 10713
  140.0578  134.9771  157.1251 LP  0  0  0  0  0  0  0  0  0  0  0  0  # atno 17394 bound_to 11000
  140.3894  134.2201  155.7167 LP  0  0  0  0  0  0  0  0  0  0  0  0  # atno 17395 bound_to 11000

$$$$
