AV-unprocessed.smi:266|AV-procd|sdf|2033|dock1
  -GOLD-   2262021243D 1   1.00000     0.00000
 Structure written by MMmdl.
 52 55  0  0  0  0  0  0  0  0  1 V2000
  145.2640  135.3028  151.0224 C   0  0  0  0  0  0  0  0  0  0  0  0
  145.7942  133.8597  150.9628 C   0  0  2  0  0  0  0  0  0  0  0  0
  145.4948  133.3663  149.6555 O   0  0  0  0  0  0  0  0  0  0  0  0
  144.8094  132.1247  149.7356 C   0  0  0  0  0  0  0  0  0  0  0  0
  144.1034  132.1844  151.0809 C   0  0  0  0  0  0  0  0  0  0  0  0
  145.1479  132.8637  151.9593 C   0  0  2  0  0  0  0  0  0  0  0  0
  144.4913  133.5120  153.0346 O   0  0  0  0  0  0  0  0  0  0  0  0
  146.2112  131.8958  152.5456 C   0  0  0  0  0  0  0  0  0  0  0  0
  147.2638  132.5519  153.3065 N   0  0  0  0  0  0  0  0  0  0  0  0
  148.6101  132.5384  153.0252 C   0  0  0  0  0  0  0  0  0  0  0  0
  149.3578  133.2034  153.8615 N   0  0  0  0  0  0  0  0  0  0  0  0
  148.4633  133.7233  154.7910 C   0  0  0  0  0  0  0  0  0  0  0  0
  148.5917  134.5273  155.9637 C   0  0  0  0  0  0  0  0  0  0  0  0
  149.7807  134.9470  156.4798 N   0  0  0  0  0  0  0  0  0  0  0  0
  151.0093  134.5256  155.8107 C   0  0  0  0  0  0  0  0  0  0  0  0
  149.8229  136.2084  157.2217 C   0  0  0  0  0  0  0  0  0  0  0  0
  151.0746  137.0623  156.9238 C   0  0  2  0  0  0  0  0  0  0  0  0
  151.1797  138.2664  157.8801 C   0  0  0  0  0  0  0  0  0  0  0  0
  152.2675  139.2128  157.3642 C   0  0  0  0  0  0  0  0  0  0  0  0
  152.1659  139.1220  155.5397 S   0  0  0  0  0  0  0  0  0  0  0  0
  151.3790  140.2576  155.0352 O   0  0  0  0  0  0  0  0  0  0  0  0
  153.4999  138.8235  154.9974 O   0  0  0  0  0  0  0  0  0  0  0  0
  151.1280  137.6131  155.4859 C   0  0  0  0  0  0  0  0  0  0  0  0
  147.4407  134.8695  156.6040 N   0  0  0  0  0  0  0  0  0  0  0  0
  146.2567  134.4450  156.1554 C   0  0  0  0  0  0  0  0  0  0  0  0
  145.9939  133.6769  155.0985 N   0  0  0  0  0  0  0  0  0  0  0  0
  147.1371  133.3375  154.4390 C   0  0  0  0  0  0  0  0  0  0  0  0
  145.4865  135.7687  151.9827 H   0  0  0  0  0  0  0  0  0  0  0  0
  144.1846  135.3371  150.8717 H   0  0  0  0  0  0  0  0  0  0  0  0
  145.7252  135.9166  150.2484 H   0  0  0  0  0  0  0  0  0  0  0  0
  146.8772  133.8825  151.0913 H   0  0  0  0  0  0  0  0  0  0  0  0
  144.1184  131.9951  148.9026 H   0  0  0  0  0  0  0  0  0  0  0  0
  145.5324  131.3085  149.7103 H   0  0  0  0  0  0  0  0  0  0  0  0
  143.2184  132.8162  150.9861 H   0  0  0  0  0  0  0  0  0  0  0  0
  143.7686  131.2105  151.4353 H   0  0  0  0  0  0  0  0  0  0  0  0
  144.0435  132.8595  153.5512 H   0  0  0  0  0  0  0  0  0  0  0  0
  145.7368  131.1621  153.1985 H   0  0  0  0  0  0  0  0  0  0  0  0
  146.6775  131.3218  151.7434 H   0  0  0  0  0  0  0  0  0  0  0  0
  149.0237  132.0088  152.1790 H   0  0  0  0  0  0  0  0  0  0  0  0
  151.0193  133.4450  155.6628 H   0  0  0  0  0  0  0  0  0  0  0  0
  151.8837  134.7842  156.4082 H   0  0  0  0  0  0  0  0  0  0  0  0
  151.1092  135.0108  154.8390 H   0  0  0  0  0  0  0  0  0  0  0  0
  148.9201  136.7963  157.0767 H   0  0  0  0  0  0  0  0  0  0  0  0
  149.8195  135.9563  158.2828 H   0  0  0  0  0  0  0  0  0  0  0  0
  151.9662  136.4540  157.0823 H   0  0  0  0  0  0  0  0  0  0  0  0
  150.2277  138.7987  157.8925 H   0  0  0  0  0  0  0  0  0  0  0  0
  151.3814  137.9523  158.9046 H   0  0  0  0  0  0  0  0  0  0  0  0
  152.1375  140.2413  157.7013 H   0  0  0  0  0  0  0  0  0  0  0  0
  153.2561  138.8661  157.6655 H   0  0  0  0  0  0  0  0  0  0  0  0
  151.5444  136.9016  154.7728 H   0  0  0  0  0  0  0  0  0  0  0  0
  150.1379  137.9109  155.1410 H   0  0  0  0  0  0  0  0  0  0  0  0
  145.3978  134.7609  156.7293 H   0  0  0  0  0  0  0  0  0  0  0  0
  1  2  1  0  0  0  0
  1 28  1  0  0  0  0
  1 29  1  0  0  0  0
  1 30  1  0  0  0  0
  2  6  1  0  0  0  0
  2  3  1  0  0  0  0
  2 31  1  0  0  0  0
  3  4  1  0  0  0  0
  4  5  1  0  0  0  0
  4 32  1  0  0  0  0
  4 33  1  0  0  0  0
  5  6  1  0  0  0  0
  5 34  1  0  0  0  0
  5 35  1  0  0  0  0
  6  7  1  0  0  0  0
  6  8  1  0  0  0  0
  7 36  1  0  0  0  0
  8  9  1  0  0  0  0
  8 37  1  0  0  0  0
  8 38  1  0  0  0  0
  9 27  1  0  0  0  0
  9 10  1  0  0  0  0
 10 11  2  0  0  0  0
 10 39  1  0  0  0  0
 11 12  1  0  0  0  0
 12 27  2  0  0  0  0
 12 13  1  0  0  0  0
 13 14  1  0  0  0  0
 13 24  2  0  0  0  0
 14 15  1  0  0  0  0
 14 16  1  0  0  0  0
 15 40  1  0  0  0  0
 15 41  1  0  0  0  0
 15 42  1  0  0  0  0
 16 17  1  0  0  0  0
 16 43  1  0  0  0  0
 16 44  1  0  0  0  0
 17 23  1  0  0  0  0
 17 18  1  0  0  0  0
 17 45  1  0  0  0  0
 18 19  1  0  0  0  0
 18 46  1  0  0  0  0
 18 47  1  0  0  0  0
 19 20  1  0  0  0  0
 19 48  1  0  0  0  0
 19 49  1  0  0  0  0
 20 21  2  0  0  0  0
 20 22  2  0  0  0  0
 20 23  1  0  0  0  0
 23 50  1  0  0  0  0
 23 51  1  0  0  0  0
 24 25  1  0  0  0  0
 25 26  2  0  0  0  0
 25 52  1  0  0  0  0
 26 27  1  0  0  0  0
M  END
> <s_m_source_file>
AV-unprocessed.smi

> <i_m_source_file_index>
266

> <i_lp_mmshare_version>
43012

> <i_f3d_flags>
0

> <s_epik_input>
W0NIMl0xW0NIMl1PW0NAQEhdKFtDSDNdKVtDQEBdMShbT0hdKVtDSDJdbihbY0hdbjIpYyhjMjMpbltjSF1uYzNOKFtDSDNdKVtDSDJdW0NAQEhdKFtDSDJdNClbQ0gyXVtDSDJdUzQoPU8pPU8=

> <s_epik_cmdline>
J2VwaWtfcHl0aG9uJywgJy1waCcsICc3LjAnLCAnLXRuJywgJzgnLCAnLW1hJywgJzIwMCcsICctbWV0YWxfYmluZGluZycsICctaW1hZScsICc8aW5maWxlLm1hZT4nLCAnLW9tYWUnLCAnPG91dGZpbGUubWFlPic=

> <r_lp_tautomer_probability>
1

> <r_epik_Ionization_Penalty>
0.00155497

> <r_epik_Ionization_Penalty_Charging>
0

> <r_epik_Ionization_Penalty_Neutral>
0.00155497

> <r_epik_State_Penalty>
-0

> <r_epik_Charging_Adjusted_Penalty>
0

> <i_epik_Tot_Q>
0

> <i_epik_Tot_abs_Q>
0

> <r_epik_Metal_State_Penalty>
-0

> <b_epik_Metal_Only>
0

> <s_lp_Force_Field>
OPLS_2005

> <r_lp_Energy>
29.9122

> <b_lp_Chiralities_Consistent>
1

> <s_lp_Variant>
AV-unprocessed.smi:266-3

> <Gold.Version>
5.8.1

> <Gold.Id.Protein>
6NUR|6NUR_protein|mol2

> <Gold.PLP.Fitness>
44.9990

> <Gold.PLP.PLP>
-33.1468

> <Gold.PLP.part.hbond>
-3.3478

> <Gold.PLP.part.metal>
0.0000

> <Gold.PLP.part.buried>
-5.8919

> <Gold.PLP.part.nonpolar>
-26.1519

> <Gold.PLP.part.repulsive>
3.5255

> <Gold.PLP.ligand.clash>
0.0000

> <Gold.PLP.ligand.torsion>
0.4335

> <Gold.PLP.Chemscore.Hbond>
3.0000

> <Gold.PLP.Chemscore.CHOScore>
1.0000

> <Gold.PLP.Chemscore.Metal>
0.0000

> <Gold.Chemscore.Hbonds>
donor molecule, donor type, donor heavy atom, donor atom, acceptor molecule, acceptor atom, score
      L1  H     7    36       P1 10957  0.73
      P1  H  7989  7998       L1    21  1.00
      P1  H  7997  8008       L1    22  0.62
      L1  C    10    39       P1 10747  1.00

> <Gold.PLP.Chemscore.Internal.Correction>
0.7192

> <Gold.Rescore>
     Score         DG    S(hbond)    S(metal)    S(lipo)     H(rot)  DE(clash)    DE(int)     intcor
      9.97     -13.58       1.98        0.00      66.36       2.45       0.31       3.29       ----

> <Gold.Chemscore.Fitness>
9.9746

> <Gold.Chemscore.DG>
-13.5820

> <Gold.Chemscore.ZeroCoef>
-5.4800

> <Gold.Chemscore.Hbond>
1.9767

> <Gold.Chemscore.Metal>
0.0000

> <Gold.Chemscore.Lipo>
66.3617

> <Gold.Chemscore.Internal_Hbond>
0.0000

> <Gold.Chemscore.DEClash>
0.3145

> <Gold.Chemscore.DEInternal>
3.2929

> <Gold.Chemscore.Rot>
2.4471

> <Gold.Chemscore.Internal.Correction>
   9.000000E+99

> <Gold.Chemscore.Hbonds>
donor molecule, donor type, donor heavy atom, donor atom, acceptor molecule, acceptor atom, score
      L1  H     7    36       P1 10957  0.51
      P1  H  7989  7998       L1    21  0.95
      P1  H  7997  8008       L1    22  0.06

> <Gold.Chemscore.Hbond.Weighted>
-6.6022

> <Gold.Chemscore.Metal.Weighted>
-0.0000

> <Gold.Chemscore.Lipo.Weighted>
-7.7643

> <Gold.Chemscore.Internal_Hbond.Weighted>
0.0000

> <Gold.Chemscore.DEClash.Weighted>
0.3145

> <Gold.Chemscore.DEInternal.Weighted>
3.2929

> <Gold.Chemscore.Rot.Weighted>
6.2645

> <Gold.Chemscore.Internal.Correction.Weighted>
   9.000000E+99

> <Gold.Protein.RotatedTorsions>
[ 6907 6896 6895 6894 ] final   99.39 input  -60.11 | X-H torsion
[ 7974 7965 7964 7962 ] final   34.30 input  175.53 | X-H torsion
[ 8008 7997 7996 7995 ] final  -30.11 input   59.86 | X-H torsion
[ 10167 10162 10161 10158 ] final   31.83 input  -65.29 | X-H torsion
[ 10718 10713 10712 10709 ] final  -53.94 input   66.30 | X-H torsion
[ 10763 10752 10751 10750 ] final  120.08 input  -60.55 | X-H torsion
[ 11005 11000 10999 10996 ] final   79.83 input  -57.11 | X-H torsion

> <Gold.Protein.ActiveResidues>
 VAL166  LYS551  ARG553  GLY616  TRP617  ASP618  TYR619  PRO620  LYS621  CYS622 
 ASP623  PHE694  ASN695  SER759  ASP760  ASP761  ALA762  ILE779  LEU786  VAL792 
 PHE793  MET794  SER795  GLU796  ALA797  LYS798  CYS799  TRP800  GLU811  SER814 

> <Gold.Protein.RotatedAtoms>
  152.5393  134.0435  159.8077 H   0  0  0  0  0  0  0  0  0  0  0  0  # atno 6907 bound_to 6896
  151.0588  133.5554  159.2643 H   0  0  0  0  0  0  0  0  0  0  0  0  # atno 6908 bound_to 6896
  151.2461  135.0614  159.9097 H   0  0  0  0  0  0  0  0  0  0  0  0  # atno 6909 bound_to 6896
  146.1362  139.6287  142.9193 H   0  0  0  0  0  0  0  0  0  0  0  0  # atno 7974 bound_to 7965
  154.4263  140.1800  156.1355 H   0  0  0  0  0  0  0  0  0  0  0  0  # atno 8008 bound_to 7997
  156.0033  140.3358  155.6842 H   0  0  0  0  0  0  0  0  0  0  0  0  # atno 8009 bound_to 7997
  155.6212  140.0660  157.2668 H   0  0  0  0  0  0  0  0  0  0  0  0  # atno 8010 bound_to 7997
  140.4554  144.0987  150.6200 H   0  0  0  0  0  0  0  0  0  0  0  0  # atno 10167 bound_to 10162
  156.1493  130.4152  149.9972 H   0  0  0  0  0  0  0  0  0  0  0  0  # atno 10718 bound_to 10713
  153.5929  135.3462  155.2917 H   0  0  0  0  0  0  0  0  0  0  0  0  # atno 10763 bound_to 10752
  154.8649  135.4209  154.2496 H   0  0  0  0  0  0  0  0  0  0  0  0  # atno 10764 bound_to 10752
  153.3307  135.7044  153.7021 H   0  0  0  0  0  0  0  0  0  0  0  0  # atno 10765 bound_to 10752
  139.9157  134.7873  156.1830 H   0  0  0  0  0  0  0  0  0  0  0  0  # atno 11005 bound_to 11000
  145.5150  141.0434  143.2467 LP  0  0  0  0  0  0  0  0  0  0  0  0  # atno 17320 bound_to 7965
  144.7743  139.6665  143.7181 LP  0  0  0  0  0  0  0  0  0  0  0  0  # atno 17321 bound_to 7965
  140.4158  143.2635  151.9777 LP  0  0  0  0  0  0  0  0  0  0  0  0  # atno 17342 bound_to 10162
  139.4800  144.5875  151.7828 LP  0  0  0  0  0  0  0  0  0  0  0  0  # atno 17343 bound_to 10162
  156.7835  130.9230  151.3646 LP  0  0  0  0  0  0  0  0  0  0  0  0  # atno 17370 bound_to 10713
  157.6643  130.8994  149.9898 LP  0  0  0  0  0  0  0  0  0  0  0  0  # atno 17371 bound_to 10713
  141.0630  133.6832  156.1990 LP  0  0  0  0  0  0  0  0  0  0  0  0  # atno 17394 bound_to 11000
  140.6630  134.4948  157.5584 LP  0  0  0  0  0  0  0  0  0  0  0  0  # atno 17395 bound_to 11000

$$$$
