AV-unprocessed.smi:3184|AV-procd|sdf|12162|dock2
  -GOLD-   2272017593D 1   1.00000     0.00000
 Structure written by MMmdl.
 35 36  0  0  0  0  0  0  0  0  2 V2000
  149.2319  140.1871  156.2342 C   0  0  0  0  0  0  0  0  0  0  0  0
  149.9171  141.3495  155.5035 C   0  0  1  0  0  0  0  0  0  0  0  0
  148.9529  142.0296  154.5083 C   0  0  0  0  0  0  0  0  0  0  0  0
  148.0063  141.0906  153.8970 N   0  0  0  0  0  0  0  0  0  0  0  0
  148.3021  139.9229  153.2414 C   0  0  0  0  0  0  0  0  0  0  0  0
  147.1066  139.3909  152.8322 C   0  0  0  0  0  0  0  0  0  0  0  0
  146.1319  140.2514  153.2613 N   0  3  0  0  0  0  0  0  0  0  0  0
  146.6807  141.2820  153.9126 C   0  0  0  0  0  0  0  0  0  0  0  0
  150.4113  142.3040  156.4949 N   0  0  0  0  0  0  0  0  0  0  0  0
  151.1504  142.0054  157.5782 C   0  0  0  0  0  0  0  0  0  0  0  0
  151.5145  140.8598  157.8457 O   0  0  0  0  0  0  0  0  0  0  0  0
  151.4848  143.0765  158.3294 N   0  0  0  0  0  0  0  0  0  0  0  0
  151.4787  144.4788  157.9022 C   0  0  0  0  0  0  0  0  0  0  0  0
  151.6898  145.3009  159.1737 C   0  0  0  0  0  0  0  0  0  0  0  0
  152.4204  144.3531  160.1142 C   0  0  0  0  0  0  0  0  0  0  0  0
  151.9011  142.9689  159.7264 C   0  0  0  0  0  0  0  0  0  0  0  0
  148.8791  139.4342  155.5289 H   0  0  0  0  0  0  0  0  0  0  0  0
  148.3723  140.5301  156.8114 H   0  0  0  0  0  0  0  0  0  0  0  0
  149.9199  139.6942  156.9219 H   0  0  0  0  0  0  0  0  0  0  0  0
  150.7580  140.9285  154.9491 H   0  0  0  0  0  0  0  0  0  0  0  0
  148.3604  142.7904  155.0181 H   0  0  0  0  0  0  0  0  0  0  0  0
  149.5048  142.5386  153.7163 H   0  0  0  0  0  0  0  0  0  0  0  0
  149.3153  139.5717  153.1103 H   0  0  0  0  0  0  0  0  0  0  0  0
  146.8824  138.4889  152.2817 H   0  0  0  0  0  0  0  0  0  0  0  0
  146.1559  142.1106  154.3537 H   0  0  0  0  0  0  0  0  0  0  0  0
  150.1631  143.2725  156.3534 H   0  0  0  0  0  0  0  0  0  0  0  0
  152.3000  144.6412  157.2024 H   0  0  0  0  0  0  0  0  0  0  0  0
  150.5473  144.7577  157.4068 H   0  0  0  0  0  0  0  0  0  0  0  0
  152.2384  146.2259  158.9937 H   0  0  0  0  0  0  0  0  0  0  0  0
  150.7222  145.5648  159.6028 H   0  0  0  0  0  0  0  0  0  0  0  0
  153.4932  144.4076  159.9250 H   0  0  0  0  0  0  0  0  0  0  0  0
  152.2540  144.5881  161.1658 H   0  0  0  0  0  0  0  0  0  0  0  0
  151.0362  142.6995  160.3344 H   0  0  0  0  0  0  0  0  0  0  0  0
  152.6669  142.2049  159.8691 H   0  0  0  0  0  0  0  0  0  0  0  0
  145.1389  140.1285  153.1081 H   0  0  0  0  0  0  0  0  0  0  0  0
  1  2  1  0  0  0  0
  1 17  1  0  0  0  0
  1 18  1  0  0  0  0
  1 19  1  0  0  0  0
  2  3  1  0  0  0  0
  2  9  1  0  0  0  0
  2 20  1  0  0  0  0
  3  4  1  0  0  0  0
  3 21  1  0  0  0  0
  3 22  1  0  0  0  0
  4  8  1  0  0  0  0
  4  5  1  0  0  0  0
  5  6  2  0  0  0  0
  5 23  1  0  0  0  0
  6  7  1  0  0  0  0
  6 24  1  0  0  0  0
  7  8  2  0  0  0  0
  7 35  1  0  0  0  0
  8 25  1  0  0  0  0
  9 10  1  0  0  0  0
  9 26  1  0  0  0  0
 10 11  2  0  0  0  0
 10 12  1  0  0  0  0
 12 16  1  0  0  0  0
 12 13  1  0  0  0  0
 13 14  1  0  0  0  0
 13 27  1  0  0  0  0
 13 28  1  0  0  0  0
 14 15  1  0  0  0  0
 14 29  1  0  0  0  0
 14 30  1  0  0  0  0
 15 16  1  0  0  0  0
 15 31  1  0  0  0  0
 15 32  1  0  0  0  0
 16 33  1  0  0  0  0
 16 34  1  0  0  0  0
M  CHG  1   7   1
M  END
> <s_m_source_file>
AV-unprocessed.smi

> <i_m_source_file_index>
3184

> <i_lp_mmshare_version>
43012

> <i_f3d_flags>
0

> <s_epik_input>
W2NIXTFuW2NIXVtjSF1uMVtDSDJdW0NAQEhdKFtDSDNdKVtOSF1DKD1PKU4yW0NIMl1bQ0gyXVtDSDJdW0NIMl0y

> <s_epik_cmdline>
J2VwaWtfcHl0aG9uJywgJy1waCcsICc3LjAnLCAnLXRuJywgJzgnLCAnLW1hJywgJzIwMCcsICctbWV0YWxfYmluZGluZycsICctaW1hZScsICc8aW5maWxlLm1hZT4nLCAnLW9tYWUnLCAnPG91dGZpbGUubWFlPic=

> <r_lp_tautomer_probability>
1

> <r_epik_Ionization_Penalty>
0.25331

> <r_epik_Ionization_Penalty_Charging>
0

> <r_epik_Ionization_Penalty_Neutral>
0.25331

> <r_epik_State_Penalty>
0.244676

> <r_epik_Charging_Adjusted_Penalty>
0.244676

> <i_epik_Tot_Q>
1

> <i_epik_Tot_abs_Q>
1

> <r_epik_Metal_State_Penalty>
0.535078

> <b_epik_Metal_Only>
0

> <s_lp_Force_Field>
OPLS_2005

> <r_lp_Energy>
36.5644

> <b_lp_Chiralities_Consistent>
1

> <s_lp_Variant>
AV-unprocessed.smi:3184-2

> <Gold.Version>
5.8.1

> <Gold.Id.Protein>
6NUR|6NUR_protein|mol2

> <Gold.PLP.Fitness>
41.7047

> <Gold.PLP.PLP>
-32.4109

> <Gold.PLP.part.hbond>
-1.8730

> <Gold.PLP.part.metal>
0.0000

> <Gold.PLP.part.buried>
2.2212

> <Gold.PLP.part.nonpolar>
-33.8919

> <Gold.PLP.part.repulsive>
0.0668

> <Gold.PLP.ligand.clash>
0.0000

> <Gold.PLP.ligand.torsion>
0.5926

> <Gold.PLP.Chemscore.Hbond>
2.9753

> <Gold.PLP.Chemscore.CHOScore>
0.5122

> <Gold.PLP.Chemscore.Metal>
0.0000

> <Gold.Chemscore.Hbonds>
donor molecule, donor type, donor heavy atom, donor atom, acceptor molecule, acceptor atom, score
      L1  H     7    35       P1 10175  2.00
      L1  H     9    26       P1  8028  0.96
      L1  C     5    23       P1  7957  0.40

> <Gold.PLP.Chemscore.Internal.Correction>
0.0167

> <Gold.Rescore>
     Score         DG    S(hbond)    S(metal)    S(lipo)     H(rot)  DE(clash)    DE(int)     intcor
     12.99     -17.50       1.91        0.00      84.23       1.65       2.92       1.58       ----

> <Gold.Chemscore.Fitness>
12.9925

> <Gold.Chemscore.DG>
-17.4982

> <Gold.Chemscore.ZeroCoef>
-5.4800

> <Gold.Chemscore.Hbond>
1.9133

> <Gold.Chemscore.Metal>
0.0000

> <Gold.Chemscore.Lipo>
84.2300

> <Gold.Chemscore.Internal_Hbond>
0.0000

> <Gold.Chemscore.DEClash>
2.9237

> <Gold.Chemscore.DEInternal>
1.5819

> <Gold.Chemscore.Rot>
1.6513

> <Gold.Chemscore.Internal.Correction>
   9.000000E+99

> <Gold.Chemscore.Hbonds>
donor molecule, donor type, donor heavy atom, donor atom, acceptor molecule, acceptor atom, score
      L1  H     7    35       P1 10175  0.97
      L1  H     9    26       P1  8028  0.88

> <Gold.Chemscore.Hbond.Weighted>
-6.3905

> <Gold.Chemscore.Metal.Weighted>
-0.0000

> <Gold.Chemscore.Lipo.Weighted>
-9.8549

> <Gold.Chemscore.Internal_Hbond.Weighted>
0.0000

> <Gold.Chemscore.DEClash.Weighted>
2.9237

> <Gold.Chemscore.DEInternal.Weighted>
1.5819

> <Gold.Chemscore.Rot.Weighted>
4.2273

> <Gold.Chemscore.Internal.Correction.Weighted>
   9.000000E+99

> <Gold.Protein.RotatedTorsions>
[ 6907 6896 6895 6894 ] final  160.79 input  -60.11 | X-H torsion
[ 7974 7965 7964 7962 ] final  -29.56 input  175.53 | X-H torsion
[ 8008 7997 7996 7995 ] final  142.84 input   59.86 | X-H torsion
[ 10167 10162 10161 10158 ] final -127.63 input  -65.29 | X-H torsion
[ 10718 10713 10712 10709 ] final  -41.54 input   66.30 | X-H torsion
[ 10763 10752 10751 10750 ] final -167.54 input  -60.55 | X-H torsion
[ 11005 11000 10999 10996 ] final   47.45 input  -57.11 | X-H torsion

> <Gold.Protein.ActiveResidues>
 VAL166  LYS551  ARG553  GLY616  TRP617  ASP618  TYR619  PRO620  LYS621  CYS622 
 ASP623  PHE694  ASN695  SER759  ASP760  ASP761  ALA762  ILE779  LEU786  VAL792 
 PHE793  MET794  SER795  GLU796  ALA797  LYS798  CYS799  TRP800  GLU811  SER814 

> <Gold.Protein.RotatedAtoms>
  151.9654  133.3708  159.4050 H   0  0  0  0  0  0  0  0  0  0  0  0  # atno 6907 bound_to 6896
  150.6957  134.4196  159.5208 H   0  0  0  0  0  0  0  0  0  0  0  0  # atno 6908 bound_to 6896
  152.1892  134.8687  160.0570 H   0  0  0  0  0  0  0  0  0  0  0  0  # atno 6909 bound_to 6896
  146.1208  140.5427  142.8736 H   0  0  0  0  0  0  0  0  0  0  0  0  # atno 7974 bound_to 7965
  156.2942  140.2278  156.4793 H   0  0  0  0  0  0  0  0  0  0  0  0  # atno 8008 bound_to 7997
  154.7867  140.0457  157.1190 H   0  0  0  0  0  0  0  0  0  0  0  0  # atno 8009 bound_to 7997
  154.9694  140.3064  155.4998 H   0  0  0  0  0  0  0  0  0  0  0  0  # atno 8010 bound_to 7997
  139.9589  143.5972  152.2451 H   0  0  0  0  0  0  0  0  0  0  0  0  # atno 10167 bound_to 10162
  156.2693  130.4205  149.8456 H   0  0  0  0  0  0  0  0  0  0  0  0  # atno 10718 bound_to 10713
  154.6721  135.2941  154.9727 H   0  0  0  0  0  0  0  0  0  0  0  0  # atno 10763 bound_to 10752
  154.0751  135.6612  153.4833 H   0  0  0  0  0  0  0  0  0  0  0  0  # atno 10764 bound_to 10752
  153.0493  135.5184  154.7722 H   0  0  0  0  0  0  0  0  0  0  0  0  # atno 10765 bound_to 10752
  140.1278  134.4745  155.8545 H   0  0  0  0  0  0  0  0  0  0  0  0  # atno 11005 bound_to 11000
  144.7595  140.5388  143.6745 LP  0  0  0  0  0  0  0  0  0  0  0  0  # atno 17320 bound_to 7965
  145.5470  139.1476  143.3415 LP  0  0  0  0  0  0  0  0  0  0  0  0  # atno 17321 bound_to 7965
  139.6570  144.7662  151.2037 LP  0  0  0  0  0  0  0  0  0  0  0  0  # atno 17342 bound_to 10162
  140.7559  143.6070  150.8643 LP  0  0  0  0  0  0  0  0  0  0  0  0  # atno 17343 bound_to 10162
  156.5943  130.8520  151.3416 LP  0  0  0  0  0  0  0  0  0  0  0  0  # atno 17370 bound_to 10713
  157.7278  130.9648  150.1715 LP  0  0  0  0  0  0  0  0  0  0  0  0  # atno 17371 bound_to 10713
  141.2164  133.6784  156.7012 LP  0  0  0  0  0  0  0  0  0  0  0  0  # atno 17394 bound_to 11000
  140.2881  134.8263  157.3992 LP  0  0  0  0  0  0  0  0  0  0  0  0  # atno 17395 bound_to 11000

$$$$
