AV-unprocessed.smi:2889|AV-procd|sdf|11113|dock7
  -GOLD-   2272015583D 1   1.00000     0.00000
 Structure written by MMmdl.
 35 36  0  0  0  0  0  0  0  0  2 V2000
  154.6554  140.8053  161.2935 C   0  0  0  0  0  0  0  0  0  0  0  0
  153.8976  139.9629  159.8749 S   0  0  0  0  0  0  0  0  0  0  0  0
  152.5898  141.1405  159.3843 C   0  0  1  0  0  0  0  0  0  0  0  0
  153.2038  142.5369  159.0921 C   0  0  0  0  0  0  0  0  0  0  0  0
  152.1410  143.5995  158.7426 C   0  0  0  0  0  0  0  0  0  0  0  0
  151.2673  143.0976  157.5752 C   0  0  0  0  0  0  0  0  0  0  0  0
  150.6489  141.7014  157.8463 C   0  0  0  0  0  0  0  0  0  0  0  0
  151.6828  140.6129  158.2303 C   0  0  1  0  0  0  0  0  0  0  0  0
  152.4794  140.2524  157.0637 N   0  5  0  0  0  0  0  0  0  0  0  0
  151.7811  139.4837  155.8184 S   0  0  0  0  0  0  0  0  0  0  0  0
  150.9430  140.3710  154.9942 O   0  0  0  0  0  0  0  0  0  0  0  0
  152.7313  138.6099  155.1114 O   0  0  0  0  0  0  0  0  0  0  0  0
  150.6248  138.3568  156.7153 C   0  0  0  0  0  0  0  0  0  0  0  0
  151.0314  136.9211  156.5200 C   0  0  0  0  0  0  0  0  0  0  0  0
  150.3166  135.8812  155.8624 C   0  0  0  0  0  0  0  0  0  0  0  0
  151.1453  134.8030  155.9738 C   0  0  0  0  0  0  0  0  0  0  0  0
  152.2702  135.1368  156.6551 O   0  0  0  0  0  0  0  0  0  0  0  0
  152.1866  136.4897  157.0036 N   0  0  0  0  0  0  0  0  0  0  0  0
  155.5193  140.2401  161.6424 H   0  0  0  0  0  0  0  0  0  0  0  0
  153.9499  140.8896  162.1198 H   0  0  0  0  0  0  0  0  0  0  0  0
  154.9872  141.8048  161.0128 H   0  0  0  0  0  0  0  0  0  0  0  0
  151.9563  141.2626  160.2638 H   0  0  0  0  0  0  0  0  0  0  0  0
  153.7672  142.8739  159.9627 H   0  0  0  0  0  0  0  0  0  0  0  0
  153.9306  142.4691  158.2796 H   0  0  0  0  0  0  0  0  0  0  0  0
  151.5143  143.7927  159.6141 H   0  0  0  0  0  0  0  0  0  0  0  0
  152.6185  144.5443  158.4818 H   0  0  0  0  0  0  0  0  0  0  0  0
  150.4688  143.8158  157.3868 H   0  0  0  0  0  0  0  0  0  0  0  0
  151.8640  143.0730  156.6611 H   0  0  0  0  0  0  0  0  0  0  0  0
  149.9317  141.7979  158.6623 H   0  0  0  0  0  0  0  0  0  0  0  0
  150.0683  141.3787  156.9810 H   0  0  0  0  0  0  0  0  0  0  0  0
  151.1289  139.7525  158.6076 H   0  0  0  0  0  0  0  0  0  0  0  0
  150.6558  138.6271  157.7708 H   0  0  0  0  0  0  0  0  0  0  0  0
  149.6111  138.5405  156.3604 H   0  0  0  0  0  0  0  0  0  0  0  0
  149.3551  135.9270  155.3728 H   0  0  0  0  0  0  0  0  0  0  0  0
  151.0789  133.7784  155.6389 H   0  0  0  0  0  0  0  0  0  0  0  0
  1  2  1  0  0  0  0
  1 19  1  0  0  0  0
  1 20  1  0  0  0  0
  1 21  1  0  0  0  0
  2  3  1  0  0  0  0
  3  8  1  0  0  0  0
  3  4  1  0  0  0  0
  3 22  1  0  0  0  0
  4  5  1  0  0  0  0
  4 23  1  0  0  0  0
  4 24  1  0  0  0  0
  5  6  1  0  0  0  0
  5 25  1  0  0  0  0
  5 26  1  0  0  0  0
  6  7  1  0  0  0  0
  6 27  1  0  0  0  0
  6 28  1  0  0  0  0
  7  8  1  0  0  0  0
  7 29  1  0  0  0  0
  7 30  1  0  0  0  0
  8  9  1  0  0  0  0
  8 31  1  0  0  0  0
  9 10  1  0  0  0  0
 10 11  2  0  0  0  0
 10 12  2  0  0  0  0
 10 13  1  0  0  0  0
 13 14  1  0  0  0  0
 13 32  1  0  0  0  0
 13 33  1  0  0  0  0
 14 18  2  0  0  0  0
 14 15  1  0  0  0  0
 15 16  2  0  0  0  0
 15 34  1  0  0  0  0
 16 17  1  0  0  0  0
 16 35  1  0  0  0  0
 17 18  1  0  0  0  0
M  CHG  1   9  -1
M  END
> <s_m_source_file>
AV-unprocessed.smi

> <i_m_source_file_index>
2889

> <i_lp_mmshare_version>
43012

> <i_f3d_flags>
0

> <s_epik_input>
W0NIM11TW0NAQEhdMVtDSDJdW0NIMl1bQ0gyXVtDSDJdW0NASF0xW05IXVMoPU8pKD1PKVtDSDJdYzJbY0hdW2NIXW9uMg==

> <s_epik_cmdline>
J2VwaWtfcHl0aG9uJywgJy1waCcsICc3LjAnLCAnLXRuJywgJzgnLCAnLW1hJywgJzIwMCcsICctbWV0YWxfYmluZGluZycsICctaW1hZScsICc8aW5maWxlLm1hZT4nLCAnLW9tYWUnLCAnPG91dGZpbGUubWFlPic=

> <r_lp_tautomer_probability>
1

> <r_epik_Ionization_Penalty>
4.65467

> <r_epik_Ionization_Penalty_Charging>
4.65467

> <r_epik_Ionization_Penalty_Neutral>
2.71476e-10

> <r_epik_State_Penalty>
4.65444

> <r_epik_Charging_Adjusted_Penalty>
9.30911

> <i_epik_Tot_Q>
-1

> <i_epik_Tot_abs_Q>
1

> <r_epik_Metal_State_Penalty>
0.901484

> <b_epik_Metal_Only>
1

> <s_lp_Force_Field>
OPLS_2005

> <r_lp_Energy>
11.2119

> <b_lp_Chiralities_Consistent>
1

> <s_lp_Variant>
AV-unprocessed.smi:2889-6

> <Gold.Version>
5.8.1

> <Gold.Id.Protein>
6NUR|6NUR_protein|mol2

> <Gold.PLP.Fitness>
42.1869

> <Gold.PLP.PLP>
-31.3685

> <Gold.PLP.part.hbond>
-3.0000

> <Gold.PLP.part.metal>
0.0000

> <Gold.PLP.part.buried>
-3.3377

> <Gold.PLP.part.nonpolar>
-23.7206

> <Gold.PLP.part.repulsive>
0.0700

> <Gold.PLP.ligand.clash>
0.0000

> <Gold.PLP.ligand.torsion>
0.7338

> <Gold.PLP.Chemscore.Hbond>
3.7500

> <Gold.PLP.Chemscore.CHOScore>
0.0000

> <Gold.PLP.Chemscore.Metal>
0.0000

> <Gold.Chemscore.Hbonds>
donor molecule, donor type, donor heavy atom, donor atom, acceptor molecule, acceptor atom, score
      P1  H  7989  7998       L1    11  1.00
      P1  H  7997  8008       L1     9  2.00
      P1  H 10752 10764       L1    17  0.72

> <Gold.PLP.Chemscore.Internal.Correction>
1.0360

> <Gold.Rescore>
     Score         DG    S(hbond)    S(metal)    S(lipo)     H(rot)  DE(clash)    DE(int)     intcor
     15.47     -17.52       1.79        0.00      85.43       1.53       0.23       1.82       ----

> <Gold.Chemscore.Fitness>
15.4706

> <Gold.Chemscore.DG>
-17.5227

> <Gold.Chemscore.ZeroCoef>
-5.4800

> <Gold.Chemscore.Hbond>
1.7869

> <Gold.Chemscore.Metal>
0.0000

> <Gold.Chemscore.Lipo>
85.4274

> <Gold.Chemscore.Internal_Hbond>
0.0000

> <Gold.Chemscore.DEClash>
0.2301

> <Gold.Chemscore.DEInternal>
1.8220

> <Gold.Chemscore.Rot>
1.5314

> <Gold.Chemscore.Internal.Correction>
   9.000000E+99

> <Gold.Chemscore.Hbonds>
donor molecule, donor type, donor heavy atom, donor atom, acceptor molecule, acceptor atom, score
      P1  H  7989  7998       L1    11  0.91
      P1  H  7997  8008       L1     9  0.33
      P1  H 10752 10764       L1    17  0.02

> <Gold.Chemscore.Hbond.Weighted>
-5.9681

> <Gold.Chemscore.Metal.Weighted>
-0.0000

> <Gold.Chemscore.Lipo.Weighted>
-9.9950

> <Gold.Chemscore.Internal_Hbond.Weighted>
0.0000

> <Gold.Chemscore.DEClash.Weighted>
0.2301

> <Gold.Chemscore.DEInternal.Weighted>
1.8220

> <Gold.Chemscore.Rot.Weighted>
3.9205

> <Gold.Chemscore.Internal.Correction.Weighted>
   9.000000E+99

> <Gold.Protein.RotatedTorsions>
[ 6907 6896 6895 6894 ] final  -87.10 input  -60.11 | X-H torsion
[ 7974 7965 7964 7962 ] final -118.20 input  175.53 | X-H torsion
[ 8008 7997 7996 7995 ] final  -59.18 input   59.86 | X-H torsion
[ 10167 10162 10161 10158 ] final   92.43 input  -65.29 | X-H torsion
[ 10718 10713 10712 10709 ] final   16.07 input   66.30 | X-H torsion
[ 10763 10752 10751 10750 ] final  -12.54 input  -60.55 | X-H torsion
[ 11005 11000 10999 10996 ] final  106.36 input  -57.11 | X-H torsion

> <Gold.Protein.ActiveResidues>
 VAL166  LYS551  ARG553  GLY616  TRP617  ASP618  TYR619  PRO620  LYS621  CYS622 
 ASP623  PHE694  ASN695  SER759  ASP760  ASP761  ALA762  ILE779  LEU786  VAL792 
 PHE793  MET794  SER795  GLU796  ALA797  LYS798  CYS799  TRP800  GLU811  SER814 

> <Gold.Protein.RotatedAtoms>
  150.6866  134.2949  159.4681 H   0  0  0  0  0  0  0  0  0  0  0  0  # atno 6907 bound_to 6896
  152.0850  134.9443  160.0582 H   0  0  0  0  0  0  0  0  0  0  0  0  # atno 6908 bound_to 6896
  152.0781  133.4104  159.4526 H   0  0  0  0  0  0  0  0  0  0  0  0  # atno 6909 bound_to 6896
  145.0765  140.8396  143.4064 H   0  0  0  0  0  0  0  0  0  0  0  0  # atno 7974 bound_to 7965
  154.4341  140.1067  156.6075 H   0  0  0  0  0  0  0  0  0  0  0  0  # atno 8008 bound_to 7997
  155.5845  140.3491  155.4530 H   0  0  0  0  0  0  0  0  0  0  0  0  # atno 8009 bound_to 7997
  156.0294  140.1257  157.0264 H   0  0  0  0  0  0  0  0  0  0  0  0  # atno 8010 bound_to 7997
  139.8278  144.6701  150.9438 H   0  0  0  0  0  0  0  0  0  0  0  0  # atno 10167 bound_to 10162
  157.0625  130.6315  149.5789 H   0  0  0  0  0  0  0  0  0  0  0  0  # atno 10718 bound_to 10713
  153.5000  135.7017  153.5837 H   0  0  0  0  0  0  0  0  0  0  0  0  # atno 10763 bound_to 10752
  153.3973  135.3881  155.1964 H   0  0  0  0  0  0  0  0  0  0  0  0  # atno 10764 bound_to 10752
  154.8711  135.3873  154.4469 H   0  0  0  0  0  0  0  0  0  0  0  0  # atno 10765 bound_to 10752
  139.8813  134.9367  156.5655 H   0  0  0  0  0  0  0  0  0  0  0  0  # atno 11005 bound_to 11000
  145.1229  139.2682  143.5579 LP  0  0  0  0  0  0  0  0  0  0  0  0  # atno 17320 bound_to 7965
  146.3530  140.0858  142.8615 LP  0  0  0  0  0  0  0  0  0  0  0  0  # atno 17321 bound_to 7965
  140.7809  143.4030  151.1118 LP  0  0  0  0  0  0  0  0  0  0  0  0  # atno 17342 bound_to 10162
  139.7686  143.8528  152.3116 LP  0  0  0  0  0  0  0  0  0  0  0  0  # atno 17343 bound_to 10162
  155.9974  130.5046  150.7533 LP  0  0  0  0  0  0  0  0  0  0  0  0  # atno 17370 bound_to 10713
  157.4943  131.0913  151.0390 LP  0  0  0  0  0  0  0  0  0  0  0  0  # atno 17371 bound_to 10713
  140.8137  133.8408  155.8833 LP  0  0  0  0  0  0  0  0  0  0  0  0  # atno 17394 bound_to 11000
  140.9482  134.1813  157.4747 LP  0  0  0  0  0  0  0  0  0  0  0  0  # atno 17395 bound_to 11000

$$$$
