#       Name:                AV-unprocessed.smi:459
#       Creating user name   scv26
#       Creation time:       Thu Mar 26 23:02:49 2020


#       File generated by GOLD software.
#

@<TRIPOS>MOLECULE
AV-unprocessed.smi:459
    50    52     1
SMALL
NO_CHARGES


@<TRIPOS>ATOM
      1 ****        -6.5632   3.8550  -0.1276 C.3            1 S1                 0.0000
      2 ****        -6.0709   2.5241  -0.1810 O.3            1 S1                 0.0000
      3 ****        -4.7052   2.3382  -0.1971 C.ar           1 S1                 0.0000
      4 ****        -3.7572   3.3904  -0.1937 C.ar           1 S1                 0.0000
      5 ****        -2.3780   3.1066  -0.2069 C.ar           1 S1                 0.0000
      6 ****        -1.9111   1.7774  -0.2210 C.ar           1 S1                 0.0000
      7 ****        -0.5452   1.5923  -0.2246 O.3            1 S1                 0.0000
      8 ****        -0.0473   0.2631  -0.1733 C.3            1 S1                 0.0000
      9 ****         1.4836   0.3207  -0.1090 C.3            1 S1                 0.0000
     10 ****         2.0782  -1.0175   0.0056 N.pl3          1 S1                 0.0000
     11 ****         2.4278  -1.7358   1.1116 C.2            1 S1                 0.0000
     12 ****         2.2905  -1.3126   2.5383 C.3            1 S1                 0.0000
     13 ****         3.5152  -0.5175   3.0102 C.3            1 S1                 0.0000
     14 ****         3.3558  -0.1475   4.3627 O.3            1 S1                 0.0000
     15 ****         2.9485  -2.9180   0.6764 N.pl3          1 S1                 1.0000
     16 ****         2.9185  -2.9629  -0.7181 C.ar           1 S1                 0.0000
     17 ****         3.3307  -3.9509  -1.6071 C.ar           1 S1                 0.0000
     18 ****         3.1531  -3.6803  -2.9799 C.ar           1 S1                 0.0000
     19 ****         2.5841  -2.4681  -3.4221 C.ar           1 S1                 0.0000
     20 ****         2.1717  -1.4730  -2.5111 C.ar           1 S1                 0.0000
     21 ****         2.3544  -1.7470  -1.1560 C.ar           1 S1                 0.0000
     22 ****        -2.8591   0.7251  -0.2296 C.ar           1 S1                 0.0000
     23 ****        -4.2384   1.0091  -0.2180 C.ar           1 S1                 0.0000
     24 ****        -7.6527   3.8347  -0.1076 H              1 S1                 0.0000
     25 ****        -6.2604   4.4279  -1.0051 H              1 S1                 0.0000
     26 ****        -6.2267   4.3687   0.7740 H              1 S1                 0.0000
     27 ****        -4.0617   4.4258  -0.1804 H              1 S1                 0.0000
     28 ****        -1.6692   3.9216  -0.2023 H              1 S1                 0.0000
     29 ****        -0.4310  -0.2499   0.7102 H              1 S1                 0.0000
     30 ****        -0.3640  -0.2932  -1.0568 H              1 S1                 0.0000
     31 ****         1.8977   0.8231  -0.9836 H              1 S1                 0.0000
     32 ****         1.8002   0.9011   0.7579 H              1 S1                 0.0000
     33 ****         1.3836  -0.7169   2.6482 H              1 S1                 0.0000
     34 ****         2.1573  -2.2005   3.1576 H              1 S1                 0.0000
     35 ****         4.4219  -1.1155   2.9130 H              1 S1                 0.0000
     36 ****         3.6511   0.3819   2.4089 H              1 S1                 0.0000
     37 ****         2.6064   0.4240   4.4345 H              1 S1                 0.0000
     38 ****         3.7645  -4.8814  -1.2708 H              1 S1                 0.0000
     39 ****         3.4575  -4.4180  -3.7083 H              1 S1                 0.0000
     40 ****         2.4609  -2.2979  -4.4820 H              1 S1                 0.0000
     41 ****         1.7351  -0.5488  -2.8604 H              1 S1                 0.0000
     42 ****        -2.5552  -0.3103  -0.2445 H              1 S1                 0.0000
     43 ****        -4.9482   0.1950  -0.2228 H              1 S1                 0.0000
     44 ****         3.2956  -3.6422   1.2921 H              1 S1                 0.0000
     45 ****        -6.4376   2.1047  -1.0114 LP             1 S1                 0.0000
     46 ****        -6.4268   2.0433   0.6203 LP             1 S1                 0.0000
     47 ****        -0.1783   2.0771   0.5694 LP             1 S1                 0.0000
     48 ****        -0.1918   2.0090  -1.0621 LP             1 S1                 0.0000
     49 ****         4.1750   0.3305   4.6795 LP             1 S1                 0.0000
     50 ****         3.2103  -0.9648   4.9202 LP             1 S1                 0.0000
@<TRIPOS>BOND
    1    1    2 1     
    2    1   24 1     
    3    1   25 1     
    4    1   26 1     
    5    2    3 1     
    6    3   23 ar    
    7    3    4 ar    
    8    4    5 ar    
    9    4   27 1     
   10    5    6 ar    
   11    5   28 1     
   12    6    7 1     
   13    6   22 ar    
   14    7    8 1     
   15    8    9 1     
   16    8   29 1     
   17    8   30 1     
   18    9   10 1     
   19    9   31 1     
   20    9   32 1     
   21   10   21 1     
   22   10   11 1     
   23   11   12 1     
   24   11   15 2     
   25   12   13 1     
   26   12   33 1     
   27   12   34 1     
   28   13   14 1     
   29   13   35 1     
   30   13   36 1     
   31   14   37 1     
   32   15   16 1     
   33   15   44 1     
   34   16   21 ar    
   35   16   17 ar    
   36   17   18 ar    
   37   17   38 1     
   38   18   19 ar    
   39   18   39 1     
   40   19   20 ar    
   41   19   40 1     
   42   20   21 ar    
   43   20   41 1     
   44   22   23 ar    
   45   22   42 1     
   46   23   43 1     
   47    2   45 1     
   48    2   46 1     
   49    7   47 1     
   50    7   48 1     
   51   14   49 1     
   52   14   50 1     
@<TRIPOS>SUBSTRUCTURE
      1 S1             1
@<TRIPOS>SET
LONE_PAIRS      STATIC     ATOMS    <user>   **** ""
6 45 46 47 48 49 50
DONOR_HYDROGENS      STATIC     ATOMS    <user>   **** ""
2 37 44
ATOM$BLUE        STATIC     ATOMS    COLORGROUP SYSTEM
6 45 46 47 48 49 50
ATOM$RED        STATIC     ATOMS    COLORGROUP SYSTEM
2 37 44
