AV-unprocessed.smi:44|AV-procd|sdf|404|dock7
  -GOLD-   2262016263D 1   1.00000     0.00000
 Structure written by MMmdl.
 28 30  0  0  0  0  0  0  0  0  2 V2000
  152.3979  137.9143  154.6594 O   0  0  0  0  0  0  0  0  0  0  0  0
  152.4792  138.4641  155.7560 C   0  0  0  0  0  0  0  0  0  0  0  0
  153.1820  137.9855  156.8318 N   0  5  0  0  0  0  0  0  0  0  0  0
  153.1928  138.7063  158.0243 C   0  0  0  0  0  0  0  0  0  0  0  0
  152.6019  139.8254  158.2738 N   0  0  0  0  0  0  0  0  0  0  0  0
  151.8892  140.3305  157.2059 C   0  0  0  0  0  0  0  0  0  0  0  0
  151.7689  139.7569  155.9688 C   0  0  0  0  0  0  0  0  0  0  0  0
  150.9735  140.5293  155.1307 N   0  0  0  0  0  0  0  0  0  0  0  0
  150.6471  141.5524  155.9205 C   0  0  0  0  0  0  0  0  0  0  0  0
  151.1534  141.5080  157.1707 N   0  0  0  0  0  0  0  0  0  0  0  0
  150.9635  142.4955  158.2760 C   0  0  2  0  0  0  0  0  0  0  0  0
  151.6930  143.8034  157.9472 C   0  0  0  0  0  0  0  0  0  0  0  0
  152.3396  144.1354  159.2740 C   0  0  0  0  0  0  0  0  0  0  0  0
  152.6798  142.7422  159.7997 C   0  0  1  0  0  0  0  0  0  0  0  0
  152.9090  142.6704  161.3154 C   0  0  0  0  0  0  0  0  0  0  0  0
  151.7188  142.9871  162.0059 O   0  0  0  0  0  0  0  0  0  0  0  0
  151.5345  141.9760  159.4424 O   0  0  0  0  0  0  0  0  0  0  0  0
  149.8852  142.6039  158.3957 H   0  0  0  0  0  0  0  0  0  0  0  0
  153.5432  142.3419  159.2659 H   0  0  0  0  0  0  0  0  0  0  0  0
  153.7888  138.2091  158.7938 H   0  0  0  0  0  0  0  0  0  0  0  0
  150.0173  142.3590  155.5769 H   0  0  0  0  0  0  0  0  0  0  0  0
  152.4547  143.6332  157.1844 H   0  0  0  0  0  0  0  0  0  0  0  0
  150.9973  144.5648  157.5936 H   0  0  0  0  0  0  0  0  0  0  0  0
  153.2140  144.7785  159.1720 H   0  0  0  0  0  0  0  0  0  0  0  0
  151.6216  144.6309  159.9288 H   0  0  0  0  0  0  0  0  0  0  0  0
  153.2535  141.6793  161.6124 H   0  0  0  0  0  0  0  0  0  0  0  0
  153.6794  143.3826  161.6117 H   0  0  0  0  0  0  0  0  0  0  0  0
  151.9478  143.3374  162.8531 H   0  0  0  0  0  0  0  0  0  0  0  0
  1  2  2  0  0  0  0
  2  7  1  0  0  0  0
  2  3  1  0  0  0  0
  3  4  1  0  0  0  0
  4  5  2  0  0  0  0
  4 20  1  0  0  0  0
  5  6  1  0  0  0  0
  6 10  1  0  0  0  0
  6  7  2  0  0  0  0
  7  8  1  0  0  0  0
  8  9  2  0  0  0  0
  9 10  1  0  0  0  0
  9 21  1  0  0  0  0
 10 11  1  0  0  0  0
 11 18  1  0  0  0  0
 11 17  1  0  0  0  0
 11 12  1  0  0  0  0
 12 13  1  0  0  0  0
 12 22  1  0  0  0  0
 12 23  1  0  0  0  0
 13 14  1  0  0  0  0
 13 24  1  0  0  0  0
 13 25  1  0  0  0  0
 14 19  1  0  0  0  0
 14 15  1  0  0  0  0
 14 17  1  0  0  0  0
 15 16  1  0  0  0  0
 15 26  1  0  0  0  0
 15 27  1  0  0  0  0
 16 28  1  0  0  0  0
M  CHG  1   3  -1
M  END
> <s_m_source_file>
AV-unprocessed.smi

> <i_m_source_file_index>
44

> <i_lp_mmshare_version>
43012

> <i_f3d_flags>
0

> <s_epik_input>
bjFbY0hdW25IXWMoPU8pYyhjMTIpbltjSF1uMltDQEhdM1tDSDJdW0NIMl1bQ0BIXShPMylbQ0gyXVtPSF0=

> <s_epik_cmdline>
J2VwaWtfcHl0aG9uJywgJy1waCcsICc3LjAnLCAnLXRuJywgJzgnLCAnLW1hJywgJzIwMCcsICctbWV0YWxfYmluZGluZycsICctaW1hZScsICc8aW5maWxlLm1hZT4nLCAnLW9tYWUnLCAnPG91dGZpbGUubWFlPic=

> <r_lp_tautomer_probability>
0.85571

> <r_epik_Ionization_Penalty>
2.55863

> <r_epik_Ionization_Penalty_Charging>
1.36424e-10

> <r_epik_Ionization_Penalty_Neutral>
2.55863

> <r_epik_State_Penalty>
2.63326

> <r_epik_Charging_Adjusted_Penalty>
2.63326

> <i_epik_Tot_Q>
-1

> <i_epik_Tot_abs_Q>
1

> <r_epik_Metal_State_Penalty>
0.475154

> <b_epik_Metal_Only>
1

> <s_epik_Chemistry_Notes>
This compound contains an acetal/aminal-like group ( X-CH(R)-Y where X, Y are N, S, or O) that may be acid/base labile, releasing an aldehyde.

> <s_lp_Force_Field>
OPLS_2005

> <r_lp_Energy>
46.6553

> <b_lp_Chiralities_Consistent>
1

> <s_lp_Variant>
AV-unprocessed.smi:44-10

> <Gold.Version>
5.8.1

> <Gold.Id.Protein>
6NUR|6NUR_protein|mol2

> <Gold.PLP.Fitness>
45.8407

> <Gold.PLP.PLP>
-37.8841

> <Gold.PLP.part.hbond>
-3.8506

> <Gold.PLP.part.metal>
0.0000

> <Gold.PLP.part.buried>
-5.1811

> <Gold.PLP.part.nonpolar>
-28.5316

> <Gold.PLP.part.repulsive>
0.1334

> <Gold.PLP.ligand.clash>
0.0000

> <Gold.PLP.ligand.torsion>
0.1476

> <Gold.PLP.Chemscore.Hbond>
1.9180

> <Gold.PLP.Chemscore.CHOScore>
0.8288

> <Gold.PLP.Chemscore.Metal>
0.0000

> <Gold.Chemscore.Hbonds>
donor molecule, donor type, donor heavy atom, donor atom, acceptor molecule, acceptor atom, score
      P1  H  6933  6945       L1    16  0.70
      P1  H  7989  7998       L1     8  0.98
      P1  H 10752 10765       L1     1  0.15
      L1  C     9    21       P1  8028  0.78

> <Gold.PLP.Chemscore.Internal.Correction>
0.0115

> <Gold.Rescore>
     Score         DG    S(hbond)    S(metal)    S(lipo)     H(rot)  DE(clash)    DE(int)     intcor
     10.60     -13.03       2.11        0.00      53.70       2.26       0.81       1.62       ----

> <Gold.Chemscore.Fitness>
10.6023

> <Gold.Chemscore.DG>
-13.0262

> <Gold.Chemscore.ZeroCoef>
-5.4800

> <Gold.Chemscore.Hbond>
2.1097

> <Gold.Chemscore.Metal>
0.0000

> <Gold.Chemscore.Lipo>
53.6958

> <Gold.Chemscore.Internal_Hbond>
0.0000

> <Gold.Chemscore.DEClash>
0.8073

> <Gold.Chemscore.DEInternal>
1.6166

> <Gold.Chemscore.Rot>
2.2588

> <Gold.Chemscore.Internal.Correction>
   9.000000E+99

> <Gold.Chemscore.Hbonds>
donor molecule, donor type, donor heavy atom, donor atom, acceptor molecule, acceptor atom, score
      P1  H  6933  6945       L1    16  0.44
      P1  H  7989  7998       L1     8  0.83
      P1  H 10752 10765       L1     1  0.15

> <Gold.Chemscore.Hbond.Weighted>
-7.0462

> <Gold.Chemscore.Metal.Weighted>
-0.0000

> <Gold.Chemscore.Lipo.Weighted>
-6.2824

> <Gold.Chemscore.Internal_Hbond.Weighted>
0.0000

> <Gold.Chemscore.DEClash.Weighted>
0.8073

> <Gold.Chemscore.DEInternal.Weighted>
1.6166

> <Gold.Chemscore.Rot.Weighted>
5.7825

> <Gold.Chemscore.Internal.Correction.Weighted>
   9.000000E+99

> <Gold.Protein.RotatedTorsions>
[ 6907 6896 6895 6894 ] final  153.19 input  -60.11 | X-H torsion
[ 7974 7965 7964 7962 ] final   54.36 input  175.53 | X-H torsion
[ 8008 7997 7996 7995 ] final   57.34 input   59.86 | X-H torsion
[ 10167 10162 10161 10158 ] final -153.44 input  -65.29 | X-H torsion
[ 10718 10713 10712 10709 ] final  -69.14 input   66.30 | X-H torsion
[ 10763 10752 10751 10750 ] final  168.12 input  -60.55 | X-H torsion
[ 11005 11000 10999 10996 ] final   -9.86 input  -57.11 | X-H torsion

> <Gold.Protein.ActiveResidues>
 VAL166  LYS551  ARG553  GLY616  TRP617  ASP618  TYR619  PRO620  LYS621  CYS622 
 ASP623  PHE694  ASN695  SER759  ASP760  ASP761  ALA762  ILE779  LEU786  VAL792 
 PHE793  MET794  SER795  GLU796  ALA797  LYS798  CYS799  TRP800  GLU811  SER814 

> <Gold.Protein.RotatedAtoms>
  152.0762  133.4130  159.4480 H   0  0  0  0  0  0  0  0  0  0  0  0  # atno 6907 bound_to 6896
  150.6863  134.3035  159.4725 H   0  0  0  0  0  0  0  0  0  0  0  0  # atno 6908 bound_to 6896
  152.0872  134.9431  160.0623 H   0  0  0  0  0  0  0  0  0  0  0  0  # atno 6909 bound_to 6896
  145.9617  139.4065  143.0244 H   0  0  0  0  0  0  0  0  0  0  0  0  # atno 7974 bound_to 7965
  155.5322  140.3482  155.4429 H   0  0  0  0  0  0  0  0  0  0  0  0  # atno 8008 bound_to 7997
  156.0710  140.1363  156.9855 H   0  0  0  0  0  0  0  0  0  0  0  0  # atno 8009 bound_to 7997
  154.4528  140.0965  156.6644 H   0  0  0  0  0  0  0  0  0  0  0  0  # atno 8010 bound_to 7997
  139.7096  143.9130  152.2463 H   0  0  0  0  0  0  0  0  0  0  0  0  # atno 10167 bound_to 10162
  156.0470  130.4307  150.2105 H   0  0  0  0  0  0  0  0  0  0  0  0  # atno 10718 bound_to 10713
  154.3640  135.2753  155.2304 H   0  0  0  0  0  0  0  0  0  0  0  0  # atno 10763 bound_to 10752
  154.4480  135.5938  153.6176 H   0  0  0  0  0  0  0  0  0  0  0  0  # atno 10764 bound_to 10752
  152.9842  135.6035  154.3863 H   0  0  0  0  0  0  0  0  0  0  0  0  # atno 10765 bound_to 10752
  140.7386  133.8689  155.8950 H   0  0  0  0  0  0  0  0  0  0  0  0  # atno 11005 bound_to 11000
  145.8031  140.9761  143.0988 LP  0  0  0  0  0  0  0  0  0  0  0  0  # atno 17320 bound_to 7965
  144.6816  139.9826  143.7483 LP  0  0  0  0  0  0  0  0  0  0  0  0  # atno 17321 bound_to 7965
  139.8995  144.6920  150.8681 LP  0  0  0  0  0  0  0  0  0  0  0  0  # atno 17342 bound_to 10162
  140.7730  143.3524  151.1987 LP  0  0  0  0  0  0  0  0  0  0  0  0  # atno 17343 bound_to 10162
  157.0193  130.9974  151.3344 LP  0  0  0  0  0  0  0  0  0  0  0  0  # atno 17370 bound_to 10713
  157.5355  130.8086  149.7967 LP  0  0  0  0  0  0  0  0  0  0  0  0  # atno 17371 bound_to 10713
  140.9857  134.1346  157.4454 LP  0  0  0  0  0  0  0  0  0  0  0  0  # atno 17394 bound_to 11000
  139.8811  135.0024  156.6128 LP  0  0  0  0  0  0  0  0  0  0  0  0  # atno 17395 bound_to 11000

$$$$
