#       Name:                AV-unprocessed.smi:2373
#       Creating user name   scv26
#       Creation time:       Fri Mar 27 13:06:53 2020


#       File generated by GOLD software.
#

@<TRIPOS>MOLECULE
AV-unprocessed.smi:2373
    53    54     1
SMALL
NO_CHARGES


@<TRIPOS>ATOM
      1 ****        -6.5704   0.2365  -0.7733 C.3            1 S1                 0.0000
      2 ****        -5.8450  -1.0281  -0.7250 N.pl3          1 S1                 0.0000
      3 ****        -6.5707  -2.2905  -0.6714 C.3            1 S1                 0.0000
      4 ****        -4.4361  -1.0248  -0.6369 C.ar           1 S1                 0.0000
      5 ****        -3.6604  -2.2076  -0.5653 C.ar           1 S1                 0.0000
      6 ****        -2.2558  -2.1213  -0.4793 C.ar           1 S1                 0.0000
      7 ****        -1.6285  -0.8583  -0.4567 C.ar           1 S1                 0.0000
      8 ****        -0.2090  -0.8266  -0.3827 N.am           1 S1                 0.0000
      9 ****         0.5953   0.2064  -0.0772 C.2            1 S1                 0.0000
     10 ****         0.2124   1.3334   0.2332 O.2            1 S1                 0.0000
     11 ****         1.8877  -0.1575  -0.1362 N.am           1 S1                 0.0000
     12 ****         3.0790   0.6658   0.1227 C.3            1 S1                 0.0000
     13 ****         3.0900   1.1843   1.5932 C.3            1 S1                 0.0000
     14 ****         2.9094   0.1125   2.6860 C.3            1 S1                 0.0000
     15 ****         2.9082   0.7279   3.9557 O.3            1 S1                 0.0000
     16 ****         4.3043  -0.2324  -0.1821 C.3            1 S1                 0.0000
     17 ****         5.6208   0.5576  -0.2869 C.3            1 S1                 0.0000
     18 ****         5.4990   1.5704  -1.2756 O.3            1 S1                 0.0000
     19 ****         4.4976   2.5264  -0.9564 C.3            1 S1                 0.0000
     20 ****         3.1184   1.8472  -0.8831 C.3            1 S1                 0.0000
     21 ****        -2.4459   0.2941  -0.5409 C.ar           1 S1                 0.0000
     22 ****        -3.7876   0.1653  -0.6241 N.pl3          1 S1                 1.0000
     23 ****        -6.2578   0.8254  -1.6363 H              1 S1                 0.0000
     24 ****        -6.3856   0.8188   0.1302 H              1 S1                 0.0000
     25 ****        -7.6456   0.0749  -0.8531 H              1 S1                 0.0000
     26 ****        -6.3464  -2.8240   0.2527 H              1 S1                 0.0000
     27 ****        -6.2986  -2.9245  -1.5157 H              1 S1                 0.0000
     28 ****        -7.6484  -2.1310  -0.7093 H              1 S1                 0.0000
     29 ****        -4.1197  -3.1847  -0.5775 H              1 S1                 0.0000
     30 ****        -1.6663  -3.0251  -0.4278 H              1 S1                 0.0000
     31 ****         0.2520  -1.7090  -0.5509 H              1 S1                 0.0000
     32 ****         2.0762  -1.1139  -0.3991 H              1 S1                 0.0000
     33 ****         4.0170   1.7220   1.7893 H              1 S1                 0.0000
     34 ****         2.3048   1.9311   1.7157 H              1 S1                 0.0000
     35 ****         1.9705  -0.4270   2.5640 H              1 S1                 0.0000
     36 ****         3.7154  -0.6199   2.6612 H              1 S1                 0.0000
     37 ****         2.7996   0.0595   4.6150 H              1 S1                 0.0000
     38 ****         4.4060  -1.0286   0.5544 H              1 S1                 0.0000
     39 ****         4.1501  -0.7377  -1.1371 H              1 S1                 0.0000
     40 ****         5.9042   0.9943   0.6714 H              1 S1                 0.0000
     41 ****         6.4314  -0.1116  -0.5756 H              1 S1                 0.0000
     42 ****         4.7423   3.0306  -0.0207 H              1 S1                 0.0000
     43 ****         4.4909   3.2937  -1.7306 H              1 S1                 0.0000
     44 ****         2.8698   1.4831  -1.8814 H              1 S1                 0.0000
     45 ****         2.3633   2.5947  -0.6387 H              1 S1                 0.0000
     46 ****        -2.0906   1.3132  -0.5568 H              1 S1                 0.0000
     47 ****        -4.3458   1.0173  -0.6831 H              1 S1                 0.0000
     48 ****        -0.7661   1.5358   0.2725 LP             1 S1                 0.0000
     49 ****         0.8796   2.0471   0.4463 LP             1 S1                 0.0000
     50 ****         2.1541   1.3822   4.0121 LP             1 S1                 0.0000
     51 ****         3.7751   1.2051   4.0995 LP             1 S1                 0.0000
     52 ****         5.2652   1.1404  -2.1476 LP             1 S1                 0.0000
     53 ****         6.3766   2.0420  -1.3611 LP             1 S1                 0.0000
@<TRIPOS>BOND
    1    1    2 1     
    2    1   23 1     
    3    1   24 1     
    4    1   25 1     
    5    2    3 1     
    6    2    4 1     
    7    3   26 1     
    8    3   27 1     
    9    3   28 1     
   10    4   22 ar    
   11    4    5 ar    
   12    5    6 ar    
   13    5   29 1     
   14    6    7 ar    
   15    6   30 1     
   16    7    8 1     
   17    7   21 ar    
   18    8    9 am    
   19    8   31 1     
   20    9   10 2     
   21    9   11 am    
   22   11   12 1     
   23   11   32 1     
   24   12   20 1     
   25   12   13 1     
   26   12   16 1     
   27   13   14 1     
   28   13   33 1     
   29   13   34 1     
   30   14   15 1     
   31   14   35 1     
   32   14   36 1     
   33   15   37 1     
   34   16   17 1     
   35   16   38 1     
   36   16   39 1     
   37   17   18 1     
   38   17   40 1     
   39   17   41 1     
   40   18   19 1     
   41   19   20 1     
   42   19   42 1     
   43   19   43 1     
   44   20   44 1     
   45   20   45 1     
   46   21   22 ar    
   47   21   46 1     
   48   22   47 1     
   49   10   48 1     
   50   10   49 1     
   51   15   50 1     
   52   15   51 1     
   53   18   52 1     
   54   18   53 1     
@<TRIPOS>SUBSTRUCTURE
      1 S1             1
@<TRIPOS>SET
LONE_PAIRS      STATIC     ATOMS    <user>   **** ""
6 48 49 50 51 52 53
DONOR_HYDROGENS      STATIC     ATOMS    <user>   **** ""
4 31 32 37 47
ATOM$BLUE        STATIC     ATOMS    COLORGROUP SYSTEM
6 48 49 50 51 52 53
ATOM$RED        STATIC     ATOMS    COLORGROUP SYSTEM
4 31 32 37 47
