AV-unprocessed.smi:2674|AV-procd|sdf|10359|dock3
  -GOLD-   2272014383D 1   1.00000     0.00000
 Structure written by MMmdl.
 45 46  0  0  0  0  0  0  0  0  2 V2000
  148.8568  136.0981  155.3193 C   0  0  0  0  0  0  0  0  0  0  0  0
  150.0246  135.8936  154.4213 N   0  3  1  0  0  0  0  0  0  0  0  0
  151.1567  136.8062  154.7586 C   0  0  0  0  0  0  0  0  0  0  0  0
  150.8971  138.2895  154.4160 C   0  0  0  0  0  0  0  0  0  0  0  0
  150.6330  139.0754  155.6166 N   0  0  0  0  0  0  0  0  0  0  0  0
  151.5763  139.6380  156.3866 C   0  0  0  0  0  0  0  0  0  0  0  0
  152.7820  139.5393  156.1562 O   0  0  0  0  0  0  0  0  0  0  0  0
  151.0320  140.3088  157.4172 N   0  0  0  0  0  0  0  0  0  0  0  0
  151.6959  141.0746  158.4126 C   0  0  0  0  0  0  0  0  0  0  0  0
  152.9098  140.5237  158.8818 C   0  0  0  0  0  0  0  0  0  0  0  0
  153.6407  141.2033  159.8755 C   0  0  0  0  0  0  0  0  0  0  0  0
  153.1377  142.4177  160.3752 C   0  0  0  0  0  0  0  0  0  0  0  0
  151.9221  142.8968  159.8536 C   0  0  0  0  0  0  0  0  0  0  0  0
  151.2199  142.2471  158.9014 N   0  0  0  0  0  0  0  0  0  0  0  0
  150.3799  134.4396  154.3081 C   0  0  0  0  0  0  0  0  0  0  0  0
  149.2496  133.5324  153.7496 C   0  0  0  0  0  0  0  0  0  0  0  0
  149.6691  132.0547  153.6830 C   0  0  0  0  0  0  0  0  0  0  0  0
  150.1219  131.5387  155.0542 C   0  0  0  0  0  0  0  0  0  0  0  0
  151.2470  132.4146  155.6190 C   0  0  0  0  0  0  0  0  0  0  0  0
  150.8241  133.8906  155.6873 C   0  0  0  0  0  0  0  0  0  0  0  0
  149.1539  136.0162  156.3658 H   0  0  0  0  0  0  0  0  0  0  0  0
  148.0660  135.3707  155.1455 H   0  0  0  0  0  0  0  0  0  0  0  0
  148.4039  137.0768  155.1655 H   0  0  0  0  0  0  0  0  0  0  0  0
  151.3961  136.6968  155.8174 H   0  0  0  0  0  0  0  0  0  0  0  0
  152.0431  136.5146  154.1964 H   0  0  0  0  0  0  0  0  0  0  0  0
  151.7656  138.7162  153.9135 H   0  0  0  0  0  0  0  0  0  0  0  0
  150.0499  138.4058  153.7394 H   0  0  0  0  0  0  0  0  0  0  0  0
  149.6657  139.2006  155.8783 H   0  0  0  0  0  0  0  0  0  0  0  0
  150.0256  140.2844  157.4899 H   0  0  0  0  0  0  0  0  0  0  0  0
  153.2815  139.5888  158.4877 H   0  0  0  0  0  0  0  0  0  0  0  0
  154.5703  140.7988  160.2478 H   0  0  0  0  0  0  0  0  0  0  0  0
  153.6689  142.9676  161.1380 H   0  0  0  0  0  0  0  0  0  0  0  0
  151.5010  143.8252  160.2103 H   0  0  0  0  0  0  0  0  0  0  0  0
  151.2178  134.3599  153.6128 H   0  0  0  0  0  0  0  0  0  0  0  0
  148.3572  133.6214  154.3711 H   0  0  0  0  0  0  0  0  0  0  0  0
  148.9683  133.8377  152.7413 H   0  0  0  0  0  0  0  0  0  0  0  0
  148.8392  131.4497  153.3160 H   0  0  0  0  0  0  0  0  0  0  0  0
  150.4789  131.9361  152.9618 H   0  0  0  0  0  0  0  0  0  0  0  0
  149.2765  131.5352  155.7435 H   0  0  0  0  0  0  0  0  0  0  0  0
  150.4590  130.5049  154.9718 H   0  0  0  0  0  0  0  0  0  0  0  0
  151.5259  132.0624  156.6128 H   0  0  0  0  0  0  0  0  0  0  0  0
  152.1368  132.3168  154.9956 H   0  0  0  0  0  0  0  0  0  0  0  0
  151.6559  134.4632  156.0948 H   0  0  0  0  0  0  0  0  0  0  0  0
  150.0066  133.9979  156.4018 H   0  0  0  0  0  0  0  0  0  0  0  0
  149.7263  136.1685  153.4963 H   0  0  0  0  0  0  0  0  0  0  0  0
  1  2  1  0  0  0  0
  1 21  1  0  0  0  0
  1 22  1  0  0  0  0
  1 23  1  0  0  0  0
  2  3  1  0  0  0  0
  2 15  1  0  0  0  0
  2 45  1  0  0  0  0
  3  4  1  0  0  0  0
  3 24  1  0  0  0  0
  3 25  1  0  0  0  0
  4  5  1  0  0  0  0
  4 26  1  0  0  0  0
  4 27  1  0  0  0  0
  5  6  1  0  0  0  0
  5 28  1  0  0  0  0
  6  7  2  0  0  0  0
  6  8  1  0  0  0  0
  8  9  1  0  0  0  0
  8 29  1  0  0  0  0
  9 14  1  0  0  0  0
  9 10  2  0  0  0  0
 10 11  1  0  0  0  0
 10 30  1  0  0  0  0
 11 12  2  0  0  0  0
 11 31  1  0  0  0  0
 12 13  1  0  0  0  0
 12 32  1  0  0  0  0
 13 14  2  0  0  0  0
 13 33  1  0  0  0  0
 15 20  1  0  0  0  0
 15 16  1  0  0  0  0
 15 34  1  0  0  0  0
 16 17  1  0  0  0  0
 16 35  1  0  0  0  0
 16 36  1  0  0  0  0
 17 18  1  0  0  0  0
 17 37  1  0  0  0  0
 17 38  1  0  0  0  0
 18 19  1  0  0  0  0
 18 39  1  0  0  0  0
 18 40  1  0  0  0  0
 19 20  1  0  0  0  0
 19 41  1  0  0  0  0
 19 42  1  0  0  0  0
 20 43  1  0  0  0  0
 20 44  1  0  0  0  0
M  CHG  1   2   1
M  END
> <s_m_source_file>
AV-unprocessed.smi

> <i_m_source_file_index>
2674

> <i_lp_mmshare_version>
43012

> <i_f3d_flags>
0

> <s_epik_input>
W0NIMl0xW0NIMl1bQ0gyXVtDSDJdW0NIMl1bQ0hdMU4oW0NIM10pW0NIMl1bQ0gyXVtOSF1DKD1PKVtOSF1jMltjSF1bY0hdW2NIXVtjSF1uMg==

> <s_epik_cmdline>
J2VwaWtfcHl0aG9uJywgJy1waCcsICc3LjAnLCAnLXRuJywgJzgnLCAnLW1hJywgJzIwMCcsICctbWV0YWxfYmluZGluZycsICctaW1hZScsICc8aW5maWxlLm1hZT4nLCAnLW9tYWUnLCAnPG91dGZpbGUubWFlPic=

> <r_epik_Ionization_Penalty>
0.00206741

> <r_epik_Ionization_Penalty_Charging>
0.00203269

> <r_epik_Ionization_Penalty_Neutral>
3.47205e-05

> <r_epik_State_Penalty>
0.00139005

> <r_epik_Charging_Adjusted_Penalty>
0.00342273

> <i_epik_Tot_Q>
1

> <i_epik_Tot_abs_Q>
1

> <r_epik_Metal_State_Penalty>
-0

> <b_epik_Metal_Only>
0

> <s_lp_Force_Field>
OPLS_2005

> <r_lp_Energy>
21.1862

> <b_lp_Chiralities_Consistent>
1

> <s_lp_Variant>
AV-unprocessed.smi:2674-2

> <Gold.Version>
5.8.1

> <Gold.Id.Protein>
6NUR|6NUR_protein|mol2

> <Gold.PLP.Fitness>
45.0918

> <Gold.PLP.PLP>
-37.8567

> <Gold.PLP.part.hbond>
-2.2404

> <Gold.PLP.part.metal>
0.0000

> <Gold.PLP.part.buried>
-3.3701

> <Gold.PLP.part.nonpolar>
-31.5164

> <Gold.PLP.part.repulsive>
0.1647

> <Gold.PLP.ligand.clash>
0.0000

> <Gold.PLP.ligand.torsion>
0.9516

> <Gold.PLP.Chemscore.Hbond>
3.0000

> <Gold.PLP.Chemscore.CHOScore>
0.0000

> <Gold.PLP.Chemscore.Metal>
0.0000

> <Gold.Chemscore.Hbonds>
donor molecule, donor type, donor heavy atom, donor atom, acceptor molecule, acceptor atom, score
      L1  H     2    45       P1  7948  1.90
      P1  H  7997  8008       L1     7  1.00

> <Gold.PLP.Chemscore.Internal.Correction>
0.1384

> <Gold.Rescore>
     Score         DG    S(hbond)    S(metal)    S(lipo)     H(rot)  DE(clash)    DE(int)     intcor
     15.65     -17.83       1.93        0.00      87.62       1.70       0.00       2.18       ----

> <Gold.Chemscore.Fitness>
15.6488

> <Gold.Chemscore.DG>
-17.8317

> <Gold.Chemscore.ZeroCoef>
-5.4800

> <Gold.Chemscore.Hbond>
1.9339

> <Gold.Chemscore.Metal>
0.0000

> <Gold.Chemscore.Lipo>
87.6236

> <Gold.Chemscore.Internal_Hbond>
0.0000

> <Gold.Chemscore.DEClash>
0.0000

> <Gold.Chemscore.DEInternal>
2.1829

> <Gold.Chemscore.Rot>
1.7030

> <Gold.Chemscore.Internal.Correction>
   9.000000E+99

> <Gold.Chemscore.Hbonds>
donor molecule, donor type, donor heavy atom, donor atom, acceptor molecule, acceptor atom, score
      L1  H     2    45       P1  7948  0.22
      P1  H  7997  8008       L1     7  1.00

> <Gold.Chemscore.Hbond.Weighted>
-6.4594

> <Gold.Chemscore.Metal.Weighted>
-0.0000

> <Gold.Chemscore.Lipo.Weighted>
-10.2520

> <Gold.Chemscore.Internal_Hbond.Weighted>
0.0000

> <Gold.Chemscore.DEClash.Weighted>
0.0000

> <Gold.Chemscore.DEInternal.Weighted>
2.1829

> <Gold.Chemscore.Rot.Weighted>
4.3597

> <Gold.Chemscore.Internal.Correction.Weighted>
   9.000000E+99

> <Gold.Protein.RotatedTorsions>
[ 6907 6896 6895 6894 ] final -166.28 input  -60.11 | X-H torsion
[ 7974 7965 7964 7962 ] final  -92.15 input  175.53 | X-H torsion
[ 8008 7997 7996 7995 ] final  -35.50 input   59.86 | X-H torsion
[ 10167 10162 10161 10158 ] final   22.84 input  -65.29 | X-H torsion
[ 10718 10713 10712 10709 ] final  173.83 input   66.30 | X-H torsion
[ 10763 10752 10751 10750 ] final   80.59 input  -60.55 | X-H torsion
[ 11005 11000 10999 10996 ] final   22.45 input  -57.11 | X-H torsion

> <Gold.Protein.ActiveResidues>
 VAL166  LYS551  ARG553  GLY616  TRP617  ASP618  TYR619  PRO620  LYS621  CYS622 
 ASP623  PHE694  ASN695  SER759  ASP760  ASP761  ALA762  ILE779  LEU786  VAL792 
 PHE793  MET794  SER795  GLU796  ALA797  LYS798  CYS799  TRP800  GLU811  SER814 

> <Gold.Protein.RotatedAtoms>
  151.4410  133.3643  159.2781 H   0  0  0  0  0  0  0  0  0  0  0  0  # atno 6907 bound_to 6896
  150.9157  134.8576  159.7466 H   0  0  0  0  0  0  0  0  0  0  0  0  # atno 6908 bound_to 6896
  152.4956  134.4344  159.9575 H   0  0  0  0  0  0  0  0  0  0  0  0  # atno 6909 bound_to 6896
  145.4037  140.9539  143.2273 H   0  0  0  0  0  0  0  0  0  0  0  0  # atno 7974 bound_to 7965
  154.4094  140.1655  156.2222 H   0  0  0  0  0  0  0  0  0  0  0  0  # atno 8008 bound_to 7997
  155.9354  140.3412  155.6260 H   0  0  0  0  0  0  0  0  0  0  0  0  # atno 8009 bound_to 7997
  155.7055  140.0750  157.2383 H   0  0  0  0  0  0  0  0  0  0  0  0  # atno 8010 bound_to 7997
  140.5316  143.9831  150.6469 H   0  0  0  0  0  0  0  0  0  0  0  0  # atno 10167 bound_to 10162
  156.9585  131.0053  151.2933 H   0  0  0  0  0  0  0  0  0  0  0  0  # atno 10718 bound_to 10713
  153.1046  135.4797  154.8928 H   0  0  0  0  0  0  0  0  0  0  0  0  # atno 10763 bound_to 10752
  154.7416  135.3084  154.8720 H   0  0  0  0  0  0  0  0  0  0  0  0  # atno 10764 bound_to 10752
  153.9326  135.6843  153.4798 H   0  0  0  0  0  0  0  0  0  0  0  0  # atno 10765 bound_to 10752
  140.3804  134.1926  155.7664 H   0  0  0  0  0  0  0  0  0  0  0  0  # atno 11005 bound_to 11000
  144.8356  139.5555  143.6923 LP  0  0  0  0  0  0  0  0  0  0  0  0  # atno 17320 bound_to 7965
  146.2739  139.6704  142.9276 LP  0  0  0  0  0  0  0  0  0  0  0  0  # atno 17321 bound_to 7965
  140.3207  143.3139  152.0787 LP  0  0  0  0  0  0  0  0  0  0  0  0  # atno 17342 bound_to 10162
  139.4956  144.6575  151.6539 LP  0  0  0  0  0  0  0  0  0  0  0  0  # atno 17343 bound_to 10162
  157.5674  130.8287  149.8346 LP  0  0  0  0  0  0  0  0  0  0  0  0  # atno 17370 bound_to 10713
  156.0332  130.3758  150.1630 LP  0  0  0  0  0  0  0  0  0  0  0  0  # atno 17371 bound_to 10713
  141.1925  133.8171  157.0836 LP  0  0  0  0  0  0  0  0  0  0  0  0  # atno 17394 bound_to 11000
  140.0482  134.9819  157.1089 LP  0  0  0  0  0  0  0  0  0  0  0  0  # atno 17395 bound_to 11000

$$$$
