AV-unprocessed.smi:1055|AV-procd|sdf|4629|dock7
  -GOLD-   22720 3133D 1   1.00000     0.00000
 Structure written by MMmdl.
 50 51  0  0  0  0  0  0  0  0  1 V2000
  149.8422  142.8192  158.2536 C   0  0  0  0  0  0  0  0  0  0  0  0
  151.1409  142.8284  158.5960 C   0  0  0  0  0  0  0  0  0  0  0  0
  151.7963  144.0406  159.2310 C   0  0  0  0  0  0  0  0  0  0  0  0
  152.0346  141.6139  158.3909 C   0  0  0  0  0  0  0  0  0  0  0  0
  151.3805  140.5211  157.6706 N   0  0  0  0  0  0  0  0  0  0  0  0
  151.9141  139.2150  158.0733 C   0  0  0  0  0  0  0  0  0  0  0  0
  151.1660  138.0822  157.3495 C   0  0  0  0  0  0  0  0  0  0  0  0
  151.2652  138.2381  155.8223 C   0  0  0  0  0  0  0  0  0  0  0  0
  150.4401  137.2449  155.1412 N   0  0  0  0  0  0  0  0  0  0  0  0
  150.5829  135.9165  155.2497 C   0  0  0  0  0  0  0  0  0  0  0  0
  151.4484  135.3811  155.9418 O   0  0  0  0  0  0  0  0  0  0  0  0
  149.6772  135.2688  154.4968 N   0  0  0  0  0  0  0  0  0  0  0  0
  149.4817  133.8683  154.3568 C   0  0  0  0  0  0  0  0  0  0  0  0
  150.2419  133.0088  155.1722 C   0  0  0  0  0  0  0  0  0  0  0  0
  150.0834  131.6159  155.0444 C   0  0  0  0  0  0  0  0  0  0  0  0
  149.1673  131.1085  154.0899 C   0  0  0  0  0  0  0  0  0  0  0  0
  148.9687  129.7187  153.9237 N   0  0  0  0  0  0  0  0  0  0  0  0
  149.9114  128.7683  154.5007 C   0  0  0  0  0  0  0  0  0  0  0  0
  147.7844  129.2334  153.2223 C   0  0  0  0  0  0  0  0  0  0  0  0
  148.4488  131.9392  153.2953 N   0  0  0  0  0  0  0  0  0  0  0  0
  148.6020  133.2740  153.4221 C   0  0  0  0  0  0  0  0  0  0  0  0
  150.8103  139.6521  155.4331 C   0  0  0  0  0  0  0  0  0  0  0  0
  151.5778  140.7187  156.2332 C   0  0  0  0  0  0  0  0  0  0  0  0
  149.2143  143.6837  158.4113 H   0  0  0  0  0  0  0  0  0  0  0  0
  149.3869  141.9463  157.8094 H   0  0  0  0  0  0  0  0  0  0  0  0
  152.2142  143.7774  160.2026 H   0  0  0  0  0  0  0  0  0  0  0  0
  151.0797  144.8493  159.3774 H   0  0  0  0  0  0  0  0  0  0  0  0
  152.6028  144.4154  158.6003 H   0  0  0  0  0  0  0  0  0  0  0  0
  152.9124  141.9394  157.8309 H   0  0  0  0  0  0  0  0  0  0  0  0
  152.3921  141.2546  159.3573 H   0  0  0  0  0  0  0  0  0  0  0  0
  152.9819  139.1641  157.8548 H   0  0  0  0  0  0  0  0  0  0  0  0
  151.8020  139.0730  159.1481 H   0  0  0  0  0  0  0  0  0  0  0  0
  151.5758  137.1197  157.6576 H   0  0  0  0  0  0  0  0  0  0  0  0
  150.1195  138.0854  157.6588 H   0  0  0  0  0  0  0  0  0  0  0  0
  152.3062  138.1154  155.5162 H   0  0  0  0  0  0  0  0  0  0  0  0
  149.7040  137.5974  154.5468 H   0  0  0  0  0  0  0  0  0  0  0  0
  149.0859  135.8476  153.9188 H   0  0  0  0  0  0  0  0  0  0  0  0
  150.9388  133.4091  155.8940 H   0  0  0  0  0  0  0  0  0  0  0  0
  150.6678  130.9672  155.6791 H   0  0  0  0  0  0  0  0  0  0  0  0
  150.9024  128.8997  154.0651 H   0  0  0  0  0  0  0  0  0  0  0  0
  149.6016  127.7393  154.3166 H   0  0  0  0  0  0  0  0  0  0  0  0
  149.9824  128.9051  155.5803 H   0  0  0  0  0  0  0  0  0  0  0  0
  147.7552  129.6236  152.2044 H   0  0  0  0  0  0  0  0  0  0  0  0
  146.8774  129.5471  153.7401 H   0  0  0  0  0  0  0  0  0  0  0  0
  147.7751  128.1452  153.1615 H   0  0  0  0  0  0  0  0  0  0  0  0
  148.0126  133.8607  152.7353 H   0  0  0  0  0  0  0  0  0  0  0  0
  150.9627  139.8132  154.3654 H   0  0  0  0  0  0  0  0  0  0  0  0
  149.7402  139.7653  155.6144 H   0  0  0  0  0  0  0  0  0  0  0  0
  151.2179  141.7079  155.9474 H   0  0  0  0  0  0  0  0  0  0  0  0
  152.6411  140.6827  155.9904 H   0  0  0  0  0  0  0  0  0  0  0  0
  1  2  2  0  0  0  0
  1 24  1  0  0  0  0
  1 25  1  0  0  0  0
  2  3  1  0  0  0  0
  2  4  1  0  0  0  0
  3 26  1  0  0  0  0
  3 27  1  0  0  0  0
  3 28  1  0  0  0  0
  4  5  1  0  0  0  0
  4 29  1  0  0  0  0
  4 30  1  0  0  0  0
  5 23  1  0  0  0  0
  5  6  1  0  0  0  0
  6  7  1  0  0  0  0
  6 31  1  0  0  0  0
  6 32  1  0  0  0  0
  7  8  1  0  0  0  0
  7 33  1  0  0  0  0
  7 34  1  0  0  0  0
  8  9  1  0  0  0  0
  8 22  1  0  0  0  0
  8 35  1  0  0  0  0
  9 10  1  0  0  0  0
  9 36  1  0  0  0  0
 10 11  2  0  0  0  0
 10 12  1  0  0  0  0
 12 13  1  0  0  0  0
 12 37  1  0  0  0  0
 13 21  1  0  0  0  0
 13 14  2  0  0  0  0
 14 15  1  0  0  0  0
 14 38  1  0  0  0  0
 15 16  2  0  0  0  0
 15 39  1  0  0  0  0
 16 17  1  0  0  0  0
 16 20  1  0  0  0  0
 17 18  1  0  0  0  0
 17 19  1  0  0  0  0
 18 40  1  0  0  0  0
 18 41  1  0  0  0  0
 18 42  1  0  0  0  0
 19 43  1  0  0  0  0
 19 44  1  0  0  0  0
 19 45  1  0  0  0  0
 20 21  2  0  0  0  0
 21 46  1  0  0  0  0
 22 23  1  0  0  0  0
 22 47  1  0  0  0  0
 22 48  1  0  0  0  0
 23 49  1  0  0  0  0
 23 50  1  0  0  0  0
M  END
> <s_m_source_file>
AV-unprocessed.smi

> <i_m_source_file_index>
1055

> <i_lp_mmshare_version>
43012

> <i_f3d_flags>
0

> <s_epik_input>
W0NIMl09QyhbQ0gzXSlbQ0gyXU4xW0NIMl1bQ0gyXVtDSF0oW0NIMl1bQ0gyXTEpW05IXUMoPU8pW05IXWMyW2NIXVtjSF1jKE4oW0NIM10pW0NIM10pbltjSF0y

> <s_epik_cmdline>
J2VwaWtfcHl0aG9uJywgJy1waCcsICc3LjAnLCAnLXRuJywgJzgnLCAnLW1hJywgJzIwMCcsICctbWV0YWxfYmluZGluZycsICctaW1hZScsICc8aW5maWxlLm1hZT4nLCAnLW9tYWUnLCAnPG91dGZpbGUubWFlPic=

> <r_epik_Ionization_Penalty>
2.66572

> <r_epik_Ionization_Penalty_Charging>
0

> <r_epik_Ionization_Penalty_Neutral>
2.66572

> <r_epik_State_Penalty>
2.75204

> <r_epik_Charging_Adjusted_Penalty>
2.75204

> <i_epik_Tot_Q>
0

> <i_epik_Tot_abs_Q>
0

> <r_epik_Metal_State_Penalty>
2.38689

> <b_epik_Metal_Only>
1

> <s_lp_Force_Field>
OPLS_2005

> <r_lp_Energy>
18.8719

> <b_lp_Chiralities_Consistent>
1

> <s_lp_Variant>
AV-unprocessed.smi:1055-6

> <Gold.Version>
5.8.1

> <Gold.Id.Protein>
6NUR|6NUR_protein|mol2

> <Gold.PLP.Fitness>
44.8827

> <Gold.PLP.PLP>
-38.8330

> <Gold.PLP.part.hbond>
-2.1008

> <Gold.PLP.part.metal>
0.0000

> <Gold.PLP.part.buried>
-4.7511

> <Gold.PLP.part.nonpolar>
-31.4965

> <Gold.PLP.part.repulsive>
0.2626

> <Gold.PLP.ligand.clash>
0.0000

> <Gold.PLP.ligand.torsion>
0.5103

> <Gold.PLP.Chemscore.Hbond>
1.7360

> <Gold.PLP.Chemscore.CHOScore>
0.6131

> <Gold.PLP.Chemscore.Metal>
0.0000

> <Gold.Chemscore.Hbonds>
donor molecule, donor type, donor heavy atom, donor atom, acceptor molecule, acceptor atom, score
      L1  H    12    37       P1  7948  0.60
      P1  H 10752 10763       L1    11  1.00
      L1  C    21    46       P1  7948  0.51

> <Gold.PLP.Chemscore.Internal.Correction>
0.0229

> <Gold.Rescore>
     Score         DG    S(hbond)    S(metal)    S(lipo)     H(rot)  DE(clash)    DE(int)     intcor
     16.28     -18.28       1.29        0.00     101.14       1.30       0.18       1.82       ----

> <Gold.Chemscore.Fitness>
16.2771

> <Gold.Chemscore.DG>
-18.2790

> <Gold.Chemscore.ZeroCoef>
-5.4800

> <Gold.Chemscore.Hbond>
1.2875

> <Gold.Chemscore.Metal>
0.0000

> <Gold.Chemscore.Lipo>
101.1398

> <Gold.Chemscore.Internal_Hbond>
0.0000

> <Gold.Chemscore.DEClash>
0.1815

> <Gold.Chemscore.DEInternal>
1.8204

> <Gold.Chemscore.Rot>
1.3027

> <Gold.Chemscore.Internal.Correction>
   9.000000E+99

> <Gold.Chemscore.Hbonds>
donor molecule, donor type, donor heavy atom, donor atom, acceptor molecule, acceptor atom, score
      L1  H    12    37       P1  7948  0.51
      P1  H 10752 10763       L1    11  0.34

> <Gold.Chemscore.Hbond.Weighted>
-4.3004

> <Gold.Chemscore.Metal.Weighted>
-0.0000

> <Gold.Chemscore.Lipo.Weighted>
-11.8334

> <Gold.Chemscore.Internal_Hbond.Weighted>
0.0000

> <Gold.Chemscore.DEClash.Weighted>
0.1815

> <Gold.Chemscore.DEInternal.Weighted>
1.8204

> <Gold.Chemscore.Rot.Weighted>
3.3348

> <Gold.Chemscore.Internal.Correction.Weighted>
   9.000000E+99

> <Gold.Protein.RotatedTorsions>
[ 6907 6896 6895 6894 ] final -107.49 input  -60.11 | X-H torsion
[ 7974 7965 7964 7962 ] final  -43.50 input  175.53 | X-H torsion
[ 8008 7997 7996 7995 ] final -123.79 input   59.86 | X-H torsion
[ 10167 10162 10161 10158 ] final  -50.99 input  -65.29 | X-H torsion
[ 10718 10713 10712 10709 ] final    6.12 input   66.30 | X-H torsion
[ 10763 10752 10751 10750 ] final   72.81 input  -60.55 | X-H torsion
[ 11005 11000 10999 10996 ] final -143.71 input  -57.11 | X-H torsion

> <Gold.Protein.ActiveResidues>
 VAL166  LYS551  ARG553  GLY616  TRP617  ASP618  TYR619  PRO620  LYS621  CYS622 
 ASP623  PHE694  ASN695  SER759  ASP760  ASP761  ALA762  ILE779  LEU786  VAL792 
 PHE793  MET794  SER795  GLU796  ALA797  LYS798  CYS799  TRP800  GLU811  SER814 

> <Gold.Protein.RotatedAtoms>
  150.7447  133.9818  159.3578 H   0  0  0  0  0  0  0  0  0  0  0  0  # atno 6907 bound_to 6896
  151.7760  135.0772  160.0376 H   0  0  0  0  0  0  0  0  0  0  0  0  # atno 6908 bound_to 6896
  152.3307  133.5918  159.5843 H   0  0  0  0  0  0  0  0  0  0  0  0  # atno 6909 bound_to 6896
  146.0013  140.7071  142.9269 H   0  0  0  0  0  0  0  0  0  0  0  0  # atno 7974 bound_to 7965
  155.1863  140.0412  157.2892 H   0  0  0  0  0  0  0  0  0  0  0  0  # atno 8008 bound_to 7997
  154.6169  140.2491  155.7570 H   0  0  0  0  0  0  0  0  0  0  0  0  # atno 8009 bound_to 7997
  156.2411  140.2903  156.0458 H   0  0  0  0  0  0  0  0  0  0  0  0  # atno 8010 bound_to 7997
  140.6610  143.2636  151.4439 H   0  0  0  0  0  0  0  0  0  0  0  0  # atno 10167 bound_to 10162
  156.9176  130.5779  149.5647 H   0  0  0  0  0  0  0  0  0  0  0  0  # atno 10718 bound_to 10713
  153.0482  135.5086  154.7800 H   0  0  0  0  0  0  0  0  0  0  0  0  # atno 10763 bound_to 10752
  154.6683  135.2949  154.9778 H   0  0  0  0  0  0  0  0  0  0  0  0  # atno 10764 bound_to 10752
  154.0605  135.6691  153.4864 H   0  0  0  0  0  0  0  0  0  0  0  0  # atno 10765 bound_to 10752
  140.8098  134.2758  157.4945 H   0  0  0  0  0  0  0  0  0  0  0  0  # atno 11005 bound_to 11000
  144.6920  140.3238  143.7228 LP  0  0  0  0  0  0  0  0  0  0  0  0  # atno 17320 bound_to 7965
  145.7483  139.1785  143.2336 LP  0  0  0  0  0  0  0  0  0  0  0  0  # atno 17321 bound_to 7965
  139.5844  144.1636  152.2010 LP  0  0  0  0  0  0  0  0  0  0  0  0  # atno 17342 bound_to 10162
  140.0972  144.5571  150.7014 LP  0  0  0  0  0  0  0  0  0  0  0  0  # atno 17343 bound_to 10162
  156.0506  130.5576  150.8981 LP  0  0  0  0  0  0  0  0  0  0  0  0  # atno 17370 bound_to 10713
  157.5928  131.0944  150.9090 LP  0  0  0  0  0  0  0  0  0  0  0  0  # atno 17371 bound_to 10713
  139.8715  134.9476  156.3973 LP  0  0  0  0  0  0  0  0  0  0  0  0  # atno 17394 bound_to 11000
  140.9209  133.7645  155.9906 LP  0  0  0  0  0  0  0  0  0  0  0  0  # atno 17395 bound_to 11000

$$$$
