#       Name:                AV-unprocessed.smi:36
#       Creating user name   scv26
#       Creation time:       Thu Mar 26 16:05:38 2020


#       File generated by GOLD software.
#

@<TRIPOS>MOLECULE
AV-unprocessed.smi:36
    73    76     1
SMALL
NO_CHARGES


@<TRIPOS>ATOM
      1 ****        -4.0000   4.4663  -2.6868 C.3            1 S1                 0.0000
      2 ****        -3.1618   3.1788  -2.7599 C.3            1 S1                 0.0000
      3 ****        -3.5546   2.2338  -1.6121 C.3            1 S1                 0.0000
      4 ****        -3.3950   2.4797  -4.1097 C.3            1 S1                 0.0000
      5 ****        -1.3091   3.6166  -2.5979 Si             1 S1                 0.0000
      6 ****        -0.7484   4.7432  -4.0221 C.3            1 S1                 0.0000
      7 ****        -0.9408   4.4527  -0.9314 C.3            1 S1                 0.0000
      8 ****        -0.4208   2.1793  -2.6783 O.3            1 S1                 0.0000
      9 ****         0.9693   2.1112  -2.4383 C.3            1 S1                 0.0000
     10 ****         1.5246   0.8117  -3.0360 C.3            1 S1                 0.0000
     11 ****         1.0638  -0.2733  -2.2302 O.3            1 S1                 0.0000
     12 ****         2.1173  -1.1457  -1.9985 C.3            1 S1                 0.0000
     13 ****         1.8682  -1.8686  -0.7175 N.pl3          1 S1                 0.0000
     14 ****         1.9621  -3.2215  -0.4789 C.2            1 S1                 0.0000
     15 ****         1.6746  -3.5961   0.7390 N.2            1 S1                 0.0000
     16 ****         1.3517  -2.4111   1.3880 C.ar           1 S1                 0.0000
     17 ****         0.9439  -2.0945   2.7101 C.ar           1 S1                 0.0000
     18 ****         0.8067  -3.0755   3.6330 N.am           1 S1                 0.0000
     19 ****         0.3188  -2.9616   4.9962 C.2            1 S1                 0.0000
     20 ****        -0.1095  -1.9011   5.4526 O.2            1 S1                 0.0000
     21 ****         0.2813  -4.2341   5.7916 C.ar           1 S1                 0.0000
     22 ****        -0.7013  -4.4135   6.7909 C.ar           1 S1                 0.0000
     23 ****        -0.7348  -5.5970   7.5540 C.ar           1 S1                 0.0000
     24 ****         0.2195  -6.6072   7.3304 C.ar           1 S1                 0.0000
     25 ****         1.2093  -6.4319   6.3449 C.ar           1 S1                 0.0000
     26 ****         1.2431  -5.2492   5.5803 C.ar           1 S1                 0.0000
     27 ****         0.7126  -0.7860   2.9964 N.ar           1 S1                 0.0000
     28 ****         0.8617   0.1467   2.0509 C.ar           1 S1                 0.0000
     29 ****         1.2310  -0.0077   0.7779 N.ar           1 S1                 0.0000
     30 ****         1.4705  -1.3189   0.4840 C.ar           1 S1                 0.0000
     31 ****         3.3648  -0.2786  -1.9196 C.3            1 S1                 0.0000
     32 ****         3.0671   0.7463  -2.9982 C.3            1 S1                 0.0000
     33 ****         3.5704   0.3032  -4.2439 O.3            1 S1                 0.0000
     34 ****        -5.0655   4.2508  -2.7740 H              1 S1                 0.0000
     35 ****        -3.7388   5.1570  -3.4888 H              1 S1                 0.0000
     36 ****        -3.8476   4.9869  -1.7410 H              1 S1                 0.0000
     37 ****        -3.4066   2.7045  -0.6400 H              1 S1                 0.0000
     38 ****        -2.9581   1.3210  -1.6292 H              1 S1                 0.0000
     39 ****        -4.6037   1.9433  -1.6788 H              1 S1                 0.0000
     40 ****        -4.4402   2.1935  -4.2329 H              1 S1                 0.0000
     41 ****        -2.7932   1.5744  -4.1959 H              1 S1                 0.0000
     42 ****        -3.1329   3.1291  -4.9453 H              1 S1                 0.0000
     43 ****        -1.3115   5.6761  -4.0416 H              1 S1                 0.0000
     44 ****        -0.8842   4.2618  -4.9902 H              1 S1                 0.0000
     45 ****         0.3061   5.0040  -3.9358 H              1 S1                 0.0000
     46 ****        -1.4959   5.3836  -0.8179 H              1 S1                 0.0000
     47 ****         0.1175   4.6920  -0.8306 H              1 S1                 0.0000
     48 ****        -1.2073   3.8096  -0.0929 H              1 S1                 0.0000
     49 ****         1.4491   2.9733  -2.9030 H              1 S1                 0.0000
     50 ****         1.1667   2.1660  -1.3670 H              1 S1                 0.0000
     51 ****         1.1573   0.6896  -4.0565 H              1 S1                 0.0000
     52 ****         2.1664  -1.9116  -2.7742 H              1 S1                 0.0000
     53 ****         2.2531  -3.9280  -1.2426 H              1 S1                 0.0000
     54 ****         1.0796  -4.0015   3.3373 H              1 S1                 0.0000
     55 ****        -1.4397  -3.6466   6.9760 H              1 S1                 0.0000
     56 ****        -1.4924  -5.7285   8.3125 H              1 S1                 0.0000
     57 ****         0.1943  -7.5138   7.9168 H              1 S1                 0.0000
     58 ****         1.9455  -7.2042   6.1769 H              1 S1                 0.0000
     59 ****         2.0169  -5.1308   4.8357 H              1 S1                 0.0000
     60 ****         0.6555   1.1613   2.3585 H              1 S1                 0.0000
     61 ****         3.4174   0.2071  -0.9446 H              1 S1                 0.0000
     62 ****         4.2725  -0.8621  -2.0787 H              1 S1                 0.0000
     63 ****         3.5240   1.7093  -2.7671 H              1 S1                 0.0000
     64 ****         3.3372   0.9369  -4.9052 H              1 S1                 0.0000
     65 ****         0.3284  -0.7553  -2.7064 LP             1 S1                 0.0000
     66 ****         0.7223   0.0783  -1.3586 LP             1 S1                 0.0000
     67 ****         1.6847  -4.5219   1.1168 LP             1 S1                 0.0000
     68 ****        -0.1291  -1.0818   4.8795 LP             1 S1                 0.0000
     69 ****        -0.4376  -1.8592   6.3963 LP             1 S1                 0.0000
     70 ****         0.4298  -0.5202   3.9180 LP             1 S1                 0.0000
     71 ****         1.3209   0.7421   0.1224 LP             1 S1                 0.0000
     72 ****         3.1711  -0.5847  -4.4722 LP             1 S1                 0.0000
     73 ****         4.5656   0.2183  -4.1944 LP             1 S1                 0.0000
@<TRIPOS>BOND
    1    1    2 1     
    2    1   34 1     
    3    1   35 1     
    4    1   36 1     
    5    2    3 1     
    6    2    4 1     
    7    2    5 1     
    8    3   37 1     
    9    3   38 1     
   10    3   39 1     
   11    4   40 1     
   12    4   41 1     
   13    4   42 1     
   14    5    6 1     
   15    5    7 1     
   16    5    8 1     
   17    6   43 1     
   18    6   44 1     
   19    6   45 1     
   20    7   46 1     
   21    7   47 1     
   22    7   48 1     
   23    8    9 1     
   24    9   10 1     
   25    9   49 1     
   26    9   50 1     
   27   10   32 1     
   28   10   11 1     
   29   10   51 1     
   30   11   12 1     
   31   12   13 1     
   32   12   31 1     
   33   12   52 1     
   34   13   30 1     
   35   13   14 1     
   36   14   15 2     
   37   14   53 1     
   38   15   16 1     
   39   16   30 ar    
   40   16   17 ar    
   41   17   18 1     
   42   17   27 ar    
   43   18   19 am    
   44   18   54 1     
   45   19   20 2     
   46   19   21 1     
   47   21   26 ar    
   48   21   22 ar    
   49   22   23 ar    
   50   22   55 1     
   51   23   24 ar    
   52   23   56 1     
   53   24   25 ar    
   54   24   57 1     
   55   25   26 ar    
   56   25   58 1     
   57   26   59 1     
   58   27   28 ar    
   59   28   29 ar    
   60   28   60 1     
   61   29   30 ar    
   62   31   32 1     
   63   31   61 1     
   64   31   62 1     
   65   32   33 1     
   66   32   63 1     
   67   33   64 1     
   68   11   65 1     
   69   11   66 1     
   70   15   67 1     
   71   20   68 1     
   72   20   69 1     
   73   27   70 1     
   74   29   71 1     
   75   33   72 1     
   76   33   73 1     
@<TRIPOS>SUBSTRUCTURE
      1 S1             1
@<TRIPOS>SET
LONE_PAIRS      STATIC     ATOMS    <user>   **** ""
9 65 66 67 68 69 70 71 72 73
DONOR_HYDROGENS      STATIC     ATOMS    <user>   **** ""
2 54 64
ATOM$BLUE        STATIC     ATOMS    COLORGROUP SYSTEM
9 65 66 67 68 69 70 71 72 73
ATOM$RED        STATIC     ATOMS    COLORGROUP SYSTEM
2 54 64
