#       Name:                AV-unprocessed.smi:2505
#       Creating user name   scv26
#       Creation time:       Fri Mar 27 13:49:00 2020


#       File generated by GOLD software.
#

@<TRIPOS>MOLECULE
AV-unprocessed.smi:2505
    54    58     1
SMALL
NO_CHARGES


@<TRIPOS>ATOM
      1 ****        -0.0504   2.9487   1.0341 O.2            1 S1                 0.0000
      2 ****        -0.3766   1.7642   1.0333 C.2            1 S1                 0.0000
      3 ****         0.4839   0.7291   1.0238 N.am           1 S1                 0.0000
      4 ****         1.8904   0.7374   0.8269 C.ar           1 S1                 0.0000
      5 ****         2.6578   1.8587   0.4250 C.ar           1 S1                 0.0000
      6 ****         3.9933   1.7750   0.2427 N.ar           1 S1                 0.0000
      7 ****         4.5602   0.5825   0.4439 C.ar           1 S1                 0.0000
      8 ****         6.0471   0.5099   0.2842 C.3            1 S1                 0.0000
      9 ****         6.7133   0.9643  -0.9986 C.3            1 S1                 0.0000
     10 ****         6.6783  -0.4985  -0.6538 C.3            1 S1                 0.0000
     11 ****         3.9418  -0.5385   0.8254 N.ar           1 S1                 0.0000
     12 ****         2.6064  -0.4640   1.0101 C.ar           1 S1                 0.0000
     13 ****        -1.6692   1.3990   1.0696 N.am           1 S1                 0.0000
     14 ****        -2.8506   2.2635   1.0891 C.3            1 S1                 0.0000
     15 ****        -4.1333   1.4563   1.2916 C.3            1 S1                 0.0000
     16 ****        -5.3023   1.1273   0.4338 C.3            1 S1                 0.0000
     17 ****        -6.4179   1.4426   1.4645 C.3            1 S1                 0.0000
     18 ****        -5.7615   2.1139   2.5677 O.3            1 S1                 0.0000
     19 ****        -4.6256   2.7125   1.9766 C.3            1 S1                 0.0000
     20 ****        -3.1854   2.8981   2.4969 C.3            1 S1                 0.0000
     21 ****        -2.7731   2.1704   3.7895 C.3            1 S1                 0.0000
     22 ****        -1.6027   2.9476   4.3837 C.3            1 S1                 0.0000
     23 ****        -1.8951   4.3983   4.0217 C.3            1 S1                 0.0000
     24 ****        -2.7349   4.3457   2.7402 C.3            1 S1                 0.0000
     25 ****         0.0687  -0.1861   1.1211 H              1 S1                 0.0000
     26 ****         2.2271   2.8274   0.2290 H              1 S1                 0.0000
     27 ****         6.5561   0.7181   1.2233 H              1 S1                 0.0000
     28 ****         6.0739   1.3018  -1.8121 H              1 S1                 0.0000
     29 ****         7.6672   1.4802  -0.9115 H              1 S1                 0.0000
     30 ****         7.6094  -0.9630  -0.3361 H              1 S1                 0.0000
     31 ****         6.0157  -1.1345  -1.2377 H              1 S1                 0.0000
     32 ****         2.1057  -1.3737   1.3081 H              1 S1                 0.0000
     33 ****        -1.8535   0.4071   1.1090 H              1 S1                 0.0000
     34 ****        -2.9105   2.9617   0.2490 H              1 S1                 0.0000
     35 ****        -3.9598   0.6378   1.9969 H              1 S1                 0.0000
     36 ****        -5.3601   1.7742  -0.4426 H              1 S1                 0.0000
     37 ****        -5.3118   0.0859   0.1109 H              1 S1                 0.0000
     38 ****        -7.1821   2.0855   1.0262 H              1 S1                 0.0000
     39 ****        -6.9041   0.5368   1.8276 H              1 S1                 0.0000
     40 ****        -4.9222   3.5096   1.2850 H              1 S1                 0.0000
     41 ****        -3.6042   2.1762   4.4959 H              1 S1                 0.0000
     42 ****        -2.5006   1.1260   3.6375 H              1 S1                 0.0000
     43 ****        -1.4969   2.7943   5.4580 H              1 S1                 0.0000
     44 ****        -0.6725   2.6319   3.9108 H              1 S1                 0.0000
     45 ****        -2.4760   4.8637   4.8189 H              1 S1                 0.0000
     46 ****        -0.9822   4.9816   3.8965 H              1 S1                 0.0000
     47 ****        -2.1533   4.7189   1.8978 H              1 S1                 0.0000
     48 ****        -3.5908   5.0153   2.8336 H              1 S1                 0.0000
     49 ****         0.9173   3.2009   1.0274 LP             1 S1                 0.0000
     50 ****        -0.7526   3.6607   1.0415 LP             1 S1                 0.0000
     51 ****         4.5338   2.5707  -0.0308 LP             1 S1                 0.0000
     52 ****         4.4437  -1.3916   0.9674 LP             1 S1                 0.0000
     53 ****        -5.4914   1.4581   3.2727 LP             1 S1                 0.0000
     54 ****        -6.3603   2.8070   2.9689 LP             1 S1                 0.0000
@<TRIPOS>BOND
    1    1    2 2     
    2    2    3 am    
    3    2   13 am    
    4    3    4 1     
    5    3   25 1     
    6    4   12 ar    
    7    4    5 ar    
    8    5    6 ar    
    9    5   26 1     
   10    6    7 ar    
   11    7    8 1     
   12    7   11 ar    
   13    8   10 1     
   14    8    9 1     
   15    8   27 1     
   16    9   10 1     
   17    9   28 1     
   18    9   29 1     
   19   10   30 1     
   20   10   31 1     
   21   11   12 ar    
   22   12   32 1     
   23   13   14 1     
   24   13   33 1     
   25   14   20 1     
   26   14   15 1     
   27   14   34 1     
   28   15   19 1     
   29   15   16 1     
   30   15   35 1     
   31   16   17 1     
   32   16   36 1     
   33   16   37 1     
   34   17   18 1     
   35   17   38 1     
   36   17   39 1     
   37   18   19 1     
   38   19   20 1     
   39   19   40 1     
   40   20   24 1     
   41   20   21 1     
   42   21   22 1     
   43   21   41 1     
   44   21   42 1     
   45   22   23 1     
   46   22   43 1     
   47   22   44 1     
   48   23   24 1     
   49   23   45 1     
   50   23   46 1     
   51   24   47 1     
   52   24   48 1     
   53    1   49 1     
   54    1   50 1     
   55    6   51 1     
   56   11   52 1     
   57   18   53 1     
   58   18   54 1     
@<TRIPOS>SUBSTRUCTURE
      1 S1             1
@<TRIPOS>SET
LONE_PAIRS      STATIC     ATOMS    <user>   **** ""
6 49 50 51 52 53 54
DONOR_HYDROGENS      STATIC     ATOMS    <user>   **** ""
2 25 33
ATOM$BLUE        STATIC     ATOMS    COLORGROUP SYSTEM
6 49 50 51 52 53 54
ATOM$RED        STATIC     ATOMS    COLORGROUP SYSTEM
2 25 33
