#       Name:                AV-unprocessed.smi:1215
#       Creating user name   scv26
#       Creation time:       Fri Mar 27 04:14:37 2020


#       File generated by GOLD software.
#

@<TRIPOS>MOLECULE
AV-unprocessed.smi:1215
    49    50     1
SMALL
NO_CHARGES


@<TRIPOS>ATOM
      1 ****        -5.8573   4.6499  -1.6352 C.3            1 S1                 0.0000
      2 ****        -5.5181   3.8691  -0.3600 C.3            1 S1                 0.0000
      3 ****        -5.0411   2.5334  -0.6593 N.pl3          1 S1                 0.0000
      4 ****        -3.7378   2.0785  -0.6796 C.2            1 S1                 0.0000
      5 ****        -3.8128   0.7567  -1.0173 C.2            1 S1                 0.0000
      6 ****        -2.7703  -0.1905  -1.1801 N.am           1 S1                 0.0000
      7 ****        -1.4533   0.0129  -1.0143 C.2            1 S1                 0.0000
      8 ****        -0.9366   1.0807  -0.6845 O.2            1 S1                 0.0000
      9 ****        -0.7507  -1.1046  -1.2488 N.am           1 S1                 0.0000
     10 ****         0.7020  -1.2063  -1.1625 C.3            1 S1                 0.0000
     11 ****         1.1730  -1.3615   0.2996 C.3            1 S1                 0.0000
     12 ****         2.6577  -1.3514   0.4478 N.4            1 S1                 1.0000
     13 ****         3.2852  -2.5538  -0.1750 C.3            1 S1                 0.0000
     14 ****         4.8187  -2.4926  -0.1391 C.3            1 S1                 0.0000
     15 ****         5.3170  -2.3363   1.2968 C.3            1 S1                 0.0000
     16 ****         4.6718  -1.0975   1.9210 C.3            1 S1                 0.0000
     17 ****         3.1289  -1.1540   1.8597 C.3            1 S1                 0.0000
     18 ****         2.5662   0.1219   2.5216 C.3            1 S1                 0.0000
     19 ****        -5.1940   0.4795  -1.1902 C.2            1 S1                 0.0000
     20 ****        -5.9303   1.5583  -0.9712 N.2            1 S1                 0.0000
     21 ****        -6.1981   5.6567  -1.3936 H              1 S1                 0.0000
     22 ****        -6.6484   4.1576  -2.2016 H              1 S1                 0.0000
     23 ****        -4.9858   4.7402  -2.2844 H              1 S1                 0.0000
     24 ****        -4.7497   4.3941   0.2087 H              1 S1                 0.0000
     25 ****        -6.3946   3.7941   0.2853 H              1 S1                 0.0000
     26 ****        -2.9022   2.7255  -0.4576 H              1 S1                 0.0000
     27 ****        -3.0596  -1.1194  -1.4500 H              1 S1                 0.0000
     28 ****        -1.2543  -1.9380  -1.5164 H              1 S1                 0.0000
     29 ****         0.9856  -2.0678  -1.7647 H              1 S1                 0.0000
     30 ****         1.1650  -0.3326  -1.6246 H              1 S1                 0.0000
     31 ****         0.7356  -0.5351   0.8535 H              1 S1                 0.0000
     32 ****         0.7668  -2.2740   0.7386 H              1 S1                 0.0000
     33 ****         2.9357  -3.4517   0.3374 H              1 S1                 0.0000
     34 ****         2.9873  -2.6513  -1.2171 H              1 S1                 0.0000
     35 ****         5.2382  -3.3967  -0.5814 H              1 S1                 0.0000
     36 ****         5.1704  -1.6579  -0.7470 H              1 S1                 0.0000
     37 ****         5.0650  -3.2234   1.8795 H              1 S1                 0.0000
     38 ****         6.4037  -2.2467   1.3132 H              1 S1                 0.0000
     39 ****         5.0037  -1.0061   2.9560 H              1 S1                 0.0000
     40 ****         5.0287  -0.2047   1.4050 H              1 S1                 0.0000
     41 ****         2.7969  -2.0122   2.4465 H              1 S1                 0.0000
     42 ****         3.0696   0.3240   3.4677 H              1 S1                 0.0000
     43 ****         1.5073   0.0348   2.7621 H              1 S1                 0.0000
     44 ****         2.7039   0.9965   1.8849 H              1 S1                 0.0000
     45 ****        -5.6775  -0.4474  -1.4612 H              1 S1                 0.0000
     46 ****         2.9882  -0.5494  -0.0699 H              1 S1                 0.0000
     47 ****        -1.5097   1.8831  -0.5179 LP             1 S1                 0.0000
     48 ****         0.0561   1.1455  -0.5832 LP             1 S1                 0.0000
     49 ****        -6.9258   1.6367  -1.0243 LP             1 S1                 0.0000
@<TRIPOS>BOND
    1    1    2 1     
    2    1   21 1     
    3    1   22 1     
    4    1   23 1     
    5    2    3 1     
    6    2   24 1     
    7    2   25 1     
    8    3   20 1     
    9    3    4 1     
   10    4    5 2     
   11    4   26 1     
   12    5    6 1     
   13    5   19 1     
   14    6    7 am    
   15    6   27 1     
   16    7    8 2     
   17    7    9 am    
   18    9   10 1     
   19    9   28 1     
   20   10   11 1     
   21   10   29 1     
   22   10   30 1     
   23   11   12 1     
   24   11   31 1     
   25   11   32 1     
   26   12   17 1     
   27   12   13 1     
   28   12   46 1     
   29   13   14 1     
   30   13   33 1     
   31   13   34 1     
   32   14   15 1     
   33   14   35 1     
   34   14   36 1     
   35   15   16 1     
   36   15   37 1     
   37   15   38 1     
   38   16   17 1     
   39   16   39 1     
   40   16   40 1     
   41   17   18 1     
   42   17   41 1     
   43   18   42 1     
   44   18   43 1     
   45   18   44 1     
   46   19   20 2     
   47   19   45 1     
   48    8   47 1     
   49    8   48 1     
   50   20   49 1     
@<TRIPOS>SUBSTRUCTURE
      1 S1             1
@<TRIPOS>SET
LONE_PAIRS      STATIC     ATOMS    <user>   **** ""
3 47 48 49
DONOR_HYDROGENS      STATIC     ATOMS    <user>   **** ""
3 27 28 46
ATOM$BLUE        STATIC     ATOMS    COLORGROUP SYSTEM
3 47 48 49
ATOM$RED        STATIC     ATOMS    COLORGROUP SYSTEM
3 27 28 46
