#       Name:                AV-unprocessed.smi:540
#       Creating user name   scv26
#       Creation time:       Thu Mar 26 23:36:20 2020


#       File generated by GOLD software.
#

@<TRIPOS>MOLECULE
AV-unprocessed.smi:540
    56    58     1
SMALL
NO_CHARGES


@<TRIPOS>ATOM
      1 ****        -3.9884   2.3042  -0.5602 C.3            1 S1                 0.0000
      2 ****        -2.8104   1.8335  -1.4158 C.3            1 S1                 0.0000
      3 ****        -1.6181   1.9970  -0.6700 O.3            1 S1                 0.0000
      4 ****        -0.4603   1.5839  -1.3762 C.3            1 S1                 0.0000
      5 ****         0.7757   1.7482  -0.4810 C.3            1 S1                 0.0000
      6 ****         0.6368   1.0129   0.7760 N.pl3          1 S1                 0.0000
      7 ****         0.8449  -0.3145   0.9968 C.2            1 S1                 0.0000
      8 ****         1.2768  -1.1845  -0.0070 N.pl3          1 S1                 0.0000
      9 ****         0.6835  -2.4991  -0.2430 C.3            1 S1                 0.0000
     10 ****         0.3262  -2.6950  -1.7271 C.3            1 S1                 0.0000
     11 ****         1.5665  -2.5261  -2.6220 C.3            1 S1                 0.0000
     12 ****         1.2156  -2.6316  -4.1125 C.3            1 S1                 0.0000
     13 ****         2.2574  -1.1924  -2.2889 C.3            1 S1                 0.0000
     14 ****         2.5163  -1.0752  -0.7760 C.3            1 S1                 0.0000
     15 ****         0.5540  -0.7251   2.2323 N.2            1 S1                 0.0000
     16 ****         0.1471   0.4403   2.8616 C.2            1 S1                 0.0000
     17 ****         0.1780   1.4990   2.0077 C.2            1 S1                 0.0000
     18 ****        -0.2469   2.8677   2.3860 C.2            1 S1                 0.0000
     19 ****        -0.2244   3.7920   1.5763 O.2            1 S1                 0.0000
     20 ****        -0.6488   2.9428   3.6942 N.pl3          1 S1                -1.0000
     21 ****        -0.6890   1.8980   4.5914 C.2            1 S1                 0.0000
     22 ****        -1.0707   2.0523   5.7523 O.2            1 S1                 0.0000
     23 ****        -0.2980   0.6463   4.1957 N.am           1 S1                 0.0000
     24 ****        -0.3367  -0.4856   5.1265 C.3            1 S1                 0.0000
     25 ****        -4.9300   2.1985  -1.0990 H              1 S1                 0.0000
     26 ****        -3.8752   3.3531  -0.2848 H              1 S1                 0.0000
     27 ****        -4.0602   1.7227   0.3593 H              1 S1                 0.0000
     28 ****        -2.9431   0.7859  -1.6898 H              1 S1                 0.0000
     29 ****        -2.7612   2.4149  -2.3374 H              1 S1                 0.0000
     30 ****        -0.5632   0.5404  -1.6772 H              1 S1                 0.0000
     31 ****        -0.3430   2.1757  -2.2849 H              1 S1                 0.0000
     32 ****         1.6637   1.4196  -1.0111 H              1 S1                 0.0000
     33 ****         0.9607   2.8001  -0.2786 H              1 S1                 0.0000
     34 ****         1.3756  -3.2744   0.0882 H              1 S1                 0.0000
     35 ****        -0.2165  -2.6073   0.3631 H              1 S1                 0.0000
     36 ****        -0.1093  -3.6838  -1.8733 H              1 S1                 0.0000
     37 ****        -0.4406  -1.9733  -2.0127 H              1 S1                 0.0000
     38 ****         2.2624  -3.3326  -2.3861 H              1 S1                 0.0000
     39 ****         0.5173  -1.8496  -4.4123 H              1 S1                 0.0000
     40 ****         0.7560  -3.5939  -4.3398 H              1 S1                 0.0000
     41 ****         2.1073  -2.5373  -4.7326 H              1 S1                 0.0000
     42 ****         3.2004  -1.1142  -2.8308 H              1 S1                 0.0000
     43 ****         1.6382  -0.3598  -2.6238 H              1 S1                 0.0000
     44 ****         3.0298  -0.1436  -0.5411 H              1 S1                 0.0000
     45 ****         3.1946  -1.8682  -0.4585 H              1 S1                 0.0000
     46 ****         0.2603  -0.2742   6.0147 H              1 S1                 0.0000
     47 ****         0.0502  -1.4051   4.6882 H              1 S1                 0.0000
     48 ****        -1.3618  -0.6805   5.4438 H              1 S1                 0.0000
     49 ****        -1.6899   1.4559   0.1679 LP             1 S1                 0.0000
     50 ****        -1.5196   2.9639  -0.4350 LP             1 S1                 0.0000
     51 ****         0.6148  -1.6484   2.6116 LP             1 S1                 0.0000
     52 ****         0.0853   3.6287   0.6396 LP             1 S1                 0.0000
     53 ****        -0.5158   4.7073   1.8542 LP             1 S1                 0.0000
     54 ****        -0.9399   3.8391   4.0285 LP             1 S1                 0.0000
     55 ****        -1.3626   2.9555   6.0667 LP             1 S1                 0.0000
     56 ****        -1.0886   1.2743   6.3803 LP             1 S1                 0.0000
@<TRIPOS>BOND
    1    1    2 1     
    2    1   25 1     
    3    1   26 1     
    4    1   27 1     
    5    2    3 1     
    6    2   28 1     
    7    2   29 1     
    8    3    4 1     
    9    4    5 1     
   10    4   30 1     
   11    4   31 1     
   12    5    6 1     
   13    5   32 1     
   14    5   33 1     
   15    6   17 1     
   16    6    7 1     
   17    7    8 1     
   18    7   15 2     
   19    8   14 1     
   20    8    9 1     
   21    9   10 1     
   22    9   34 1     
   23    9   35 1     
   24   10   11 1     
   25   10   36 1     
   26   10   37 1     
   27   11   12 1     
   28   11   13 1     
   29   11   38 1     
   30   12   39 1     
   31   12   40 1     
   32   12   41 1     
   33   13   14 1     
   34   13   42 1     
   35   13   43 1     
   36   14   44 1     
   37   14   45 1     
   38   15   16 1     
   39   16   23 1     
   40   16   17 2     
   41   17   18 1     
   42   18   19 2     
   43   18   20 1     
   44   20   21 1     
   45   21   22 2     
   46   21   23 am    
   47   23   24 1     
   48   24   46 1     
   49   24   47 1     
   50   24   48 1     
   51    3   49 1     
   52    3   50 1     
   53   15   51 1     
   54   19   52 1     
   55   19   53 1     
   56   20   54 1     
   57   22   55 1     
   58   22   56 1     
@<TRIPOS>SUBSTRUCTURE
      1 S1             1
@<TRIPOS>SET
LONE_PAIRS      STATIC     ATOMS    <user>   **** ""
8 49 50 51 52 53 54 55 56
ATOM$BLUE        STATIC     ATOMS    COLORGROUP SYSTEM
8 49 50 51 52 53 54 55 56
