AV-unprocessed.smi:958|AV-procd|sdf|4268|dock1
  -GOLD-   22720 2173D 1   1.00000     0.00000
 Structure written by MMmdl.
 31 33  0  0  0  0  0  0  0  0  2 V2000
  153.0515  142.6587  160.1948 C   0  0  0  0  0  0  0  0  0  0  0  0
  152.8186  141.3568  160.3499 N   0  0  0  0  0  0  0  0  0  0  0  0
  151.8753  141.0566  159.3893 N   0  0  0  0  0  0  0  0  0  0  0  0
  151.6235  142.2088  158.7540 C   0  0  0  0  0  0  0  0  0  0  0  0
  150.6313  142.3338  157.6317 C   0  0  1  0  0  0  0  0  0  0  0  0
  150.9313  141.3482  156.4860 C   0  0  0  0  0  0  0  0  0  0  0  0
  149.8971  141.5012  155.3603 C   0  0  0  0  0  0  0  0  0  0  0  0
  148.4663  141.3559  155.9051 C   0  0  0  0  0  0  0  0  0  0  0  0
  148.2226  142.3192  157.0010 N   0  3  0  0  0  0  0  0  0  0  0  0
  149.1774  142.1757  158.1224 C   0  0  0  0  0  0  0  0  0  0  0  0
  152.3613  143.2467  159.2046 N   0  0  0  0  0  0  0  0  0  0  0  0
  152.3651  144.6445  158.8058 C   0  0  0  0  0  0  0  0  0  0  0  0
  152.0162  145.6106  159.9150 C   0  0  0  0  0  0  0  0  0  0  0  0
  151.0104  145.3166  158.8243 C   0  0  0  0  0  0  0  0  0  0  0  0
  153.7483  143.1981  160.8198 H   0  0  0  0  0  0  0  0  0  0  0  0
  150.7115  143.3396  157.2193 H   0  0  0  0  0  0  0  0  0  0  0  0
  151.9348  141.5175  156.0942 H   0  0  0  0  0  0  0  0  0  0  0  0
  150.9123  140.3235  156.8600 H   0  0  0  0  0  0  0  0  0  0  0  0
  150.0128  142.4773  154.8872 H   0  0  0  0  0  0  0  0  0  0  0  0
  150.0786  140.7575  154.5837 H   0  0  0  0  0  0  0  0  0  0  0  0
  147.7398  141.5293  155.1109 H   0  0  0  0  0  0  0  0  0  0  0  0
  148.3013  140.3422  156.2731 H   0  0  0  0  0  0  0  0  0  0  0  0
  148.3032  143.2547  156.6292 H   0  0  0  0  0  0  0  0  0  0  0  0
  149.0307  141.2004  158.5888 H   0  0  0  0  0  0  0  0  0  0  0  0
  148.9479  142.9281  158.8775 H   0  0  0  0  0  0  0  0  0  0  0  0
  153.1112  144.8911  158.0531 H   0  0  0  0  0  0  0  0  0  0  0  0
  151.8124  145.2071  160.9053 H   0  0  0  0  0  0  0  0  0  0  0  0
  152.4997  146.5851  159.9010 H   0  0  0  0  0  0  0  0  0  0  0  0
  150.8290  146.0973  158.0883 H   0  0  0  0  0  0  0  0  0  0  0  0
  150.1373  144.7280  159.1004 H   0  0  0  0  0  0  0  0  0  0  0  0
  147.2841  142.1875  157.3508 H   0  0  0  0  0  0  0  0  0  0  0  0
  1 11  1  0  0  0  0
  1  2  2  0  0  0  0
  1 15  1  0  0  0  0
  2  3  1  0  0  0  0
  3  4  2  0  0  0  0
  4  5  1  0  0  0  0
  4 11  1  0  0  0  0
  5 10  1  0  0  0  0
  5  6  1  0  0  0  0
  5 16  1  0  0  0  0
  6  7  1  0  0  0  0
  6 17  1  0  0  0  0
  6 18  1  0  0  0  0
  7  8  1  0  0  0  0
  7 19  1  0  0  0  0
  7 20  1  0  0  0  0
  8  9  1  0  0  0  0
  8 21  1  0  0  0  0
  8 22  1  0  0  0  0
  9 10  1  0  0  0  0
  9 23  1  0  0  0  0
  9 31  1  0  0  0  0
 10 24  1  0  0  0  0
 10 25  1  0  0  0  0
 11 12  1  0  0  0  0
 12 14  1  0  0  0  0
 12 13  1  0  0  0  0
 12 26  1  0  0  0  0
 13 14  1  0  0  0  0
 13 27  1  0  0  0  0
 13 28  1  0  0  0  0
 14 29  1  0  0  0  0
 14 30  1  0  0  0  0
M  CHG  1   9   1
M  END
> <s_m_source_file>
AV-unprocessed.smi

> <i_m_source_file_index>
958

> <i_lp_mmshare_version>
43012

> <i_f3d_flags>
0

> <s_epik_input>
W0NIMl0xW0NIMl1bQ0hdMW4yW2NIXW5uYzJbQ0BASF0zW0NIMl1bQ0gyXVtDSDJdW05IXVtDSDJdMw==

> <s_epik_cmdline>
J2VwaWtfcHl0aG9uJywgJy1waCcsICc3LjAnLCAnLXRuJywgJzgnLCAnLW1hJywgJzIwMCcsICctbWV0YWxfYmluZGluZycsICctaW1hZScsICc8aW5maWxlLm1hZT4nLCAnLW9tYWUnLCAnPG91dGZpbGUubWFlPic=

> <r_lp_tautomer_probability>
1

> <r_epik_Ionization_Penalty>
0.000442722

> <r_epik_Ionization_Penalty_Charging>
0.000426856

> <r_epik_Ionization_Penalty_Neutral>
1.58656e-05

> <r_epik_State_Penalty>
-0

> <r_epik_Charging_Adjusted_Penalty>
0.000426856

> <i_epik_Tot_Q>
1

> <i_epik_Tot_abs_Q>
1

> <r_epik_Metal_State_Penalty>
-0

> <b_epik_Metal_Only>
0

> <s_lp_Force_Field>
OPLS_2005

> <r_lp_Energy>
27.2192

> <b_lp_Chiralities_Consistent>
1

> <s_lp_Variant>
AV-unprocessed.smi:958-2

> <Gold.Version>
5.8.1

> <Gold.Id.Protein>
6NUR|6NUR_protein|mol2

> <Gold.PLP.Fitness>
40.8680

> <Gold.PLP.PLP>
-35.0450

> <Gold.PLP.part.hbond>
-1.0000

> <Gold.PLP.part.metal>
0.0000

> <Gold.PLP.part.buried>
-4.3402

> <Gold.PLP.part.nonpolar>
-28.9299

> <Gold.PLP.part.repulsive>
0.0130

> <Gold.PLP.ligand.clash>
0.0000

> <Gold.PLP.ligand.torsion>
0.1357

> <Gold.PLP.Chemscore.Hbond>
2.0000

> <Gold.PLP.Chemscore.CHOScore>
0.0000

> <Gold.PLP.Chemscore.Metal>
0.0000

> <Gold.Chemscore.Hbonds>
donor molecule, donor type, donor heavy atom, donor atom, acceptor molecule, acceptor atom, score
      L1  H     9    23       P1  8028  2.00

> <Gold.PLP.Chemscore.Internal.Correction>
0.0943

> <Gold.Rescore>
     Score         DG    S(hbond)    S(metal)    S(lipo)     H(rot)  DE(clash)    DE(int)     intcor
     13.09     -13.24       0.85        0.00      69.28       1.25       0.07       0.07       ----

> <Gold.Chemscore.Fitness>
13.0937

> <Gold.Chemscore.DG>
-13.2372

> <Gold.Chemscore.ZeroCoef>
-5.4800

> <Gold.Chemscore.Hbond>
0.8529

> <Gold.Chemscore.Metal>
0.0000

> <Gold.Chemscore.Lipo>
69.2843

> <Gold.Chemscore.Internal_Hbond>
0.0000

> <Gold.Chemscore.DEClash>
0.0708

> <Gold.Chemscore.DEInternal>
0.0728

> <Gold.Chemscore.Rot>
1.2491

> <Gold.Chemscore.Internal.Correction>
   9.000000E+99

> <Gold.Chemscore.Hbonds>
donor molecule, donor type, donor heavy atom, donor atom, acceptor molecule, acceptor atom, score
      L1  H     9    23       P1  8028  0.35

> <Gold.Chemscore.Hbond.Weighted>
-2.8486

> <Gold.Chemscore.Metal.Weighted>
-0.0000

> <Gold.Chemscore.Lipo.Weighted>
-8.1063

> <Gold.Chemscore.Internal_Hbond.Weighted>
0.0000

> <Gold.Chemscore.DEClash.Weighted>
0.0708

> <Gold.Chemscore.DEInternal.Weighted>
0.0728

> <Gold.Chemscore.Rot.Weighted>
3.1977

> <Gold.Chemscore.Internal.Correction.Weighted>
   9.000000E+99

> <Gold.Protein.RotatedTorsions>
[ 6907 6896 6895 6894 ] final  -19.24 input  -60.11 | X-H torsion
[ 7974 7965 7964 7962 ] final   -7.67 input  175.53 | X-H torsion
[ 8008 7997 7996 7995 ] final   -9.69 input   59.86 | X-H torsion
[ 10167 10162 10161 10158 ] final  173.49 input  -65.29 | X-H torsion
[ 10718 10713 10712 10709 ] final   -1.33 input   66.30 | X-H torsion
[ 10763 10752 10751 10750 ] final   39.44 input  -60.55 | X-H torsion
[ 11005 11000 10999 10996 ] final  -53.69 input  -57.11 | X-H torsion

> <Gold.Protein.ActiveResidues>
 VAL166  LYS551  ARG553  GLY616  TRP617  ASP618  TYR619  PRO620  LYS621  CYS622 
 ASP623  PHE694  ASN695  SER759  ASP760  ASP761  ALA762  ILE779  LEU786  VAL792 
 PHE793  MET794  SER795  GLU796  ALA797  LYS798  CYS799  TRP800  GLU811  SER814 

> <Gold.Protein.RotatedAtoms>
  151.2660  135.0669  159.9116 H   0  0  0  0  0  0  0  0  0  0  0  0  # atno 6907 bound_to 6896
  152.5358  134.0180  159.7979 H   0  0  0  0  0  0  0  0  0  0  0  0  # atno 6908 bound_to 6896
  151.0411  133.5656  159.2682 H   0  0  0  0  0  0  0  0  0  0  0  0  # atno 6909 bound_to 6896
  146.2301  140.2353  142.8341 H   0  0  0  0  0  0  0  0  0  0  0  0  # atno 7974 bound_to 7965
  154.5623  140.2348  155.8316 H   0  0  0  0  0  0  0  0  0  0  0  0  # atno 8008 bound_to 7997
  156.2039  140.3045  155.9545 H   0  0  0  0  0  0  0  0  0  0  0  0  # atno 8009 bound_to 7997
  155.2866  140.0425  157.3010 H   0  0  0  0  0  0  0  0  0  0  0  0  # atno 8010 bound_to 7997
  139.5110  144.3255  152.0162 H   0  0  0  0  0  0  0  0  0  0  0  0  # atno 10167 bound_to 10162
  156.8071  130.5412  149.5713 H   0  0  0  0  0  0  0  0  0  0  0  0  # atno 10718 bound_to 10713
  152.9967  135.6220  154.2466 H   0  0  0  0  0  0  0  0  0  0  0  0  # atno 10763 bound_to 10752
  154.2205  135.2796  155.2928 H   0  0  0  0  0  0  0  0  0  0  0  0  # atno 10764 bound_to 10752
  154.5532  135.5727  153.6999 H   0  0  0  0  0  0  0  0  0  0  0  0  # atno 10765 bound_to 10752
  141.0988  133.6620  156.4209 H   0  0  0  0  0  0  0  0  0  0  0  0  # atno 11005 bound_to 11000
  144.9526  140.8194  143.5562 LP  0  0  0  0  0  0  0  0  0  0  0  0  # atno 17320 bound_to 7965
  145.2315  139.2112  143.5040 LP  0  0  0  0  0  0  0  0  0  0  0  0  # atno 17321 bound_to 7965
  140.2696  144.3979  150.6156 LP  0  0  0  0  0  0  0  0  0  0  0  0  # atno 17342 bound_to 10162
  140.6098  143.2169  151.6908 LP  0  0  0  0  0  0  0  0  0  0  0  0  # atno 17343 bound_to 10162
  156.1066  130.6009  150.9981 LP  0  0  0  0  0  0  0  0  0  0  0  0  # atno 17370 bound_to 10713
  157.6524  131.0895  150.8021 LP  0  0  0  0  0  0  0  0  0  0  0  0  # atno 17371 bound_to 10713
  140.5073  134.6429  157.5271 LP  0  0  0  0  0  0  0  0  0  0  0  0  # atno 17394 bound_to 11000
  139.9833  134.7102  155.9819 LP  0  0  0  0  0  0  0  0  0  0  0  0  # atno 17395 bound_to 11000

$$$$
