AV-unprocessed.smi:2124|AV-procd|sdf|8669|dock8
  -GOLD-   2272011423D 1   1.00000     0.00000
 Structure written by MMmdl.
 46 48  0  0  0  0  0  0  0  0  2 V2000
  149.2676  133.7958  155.9585 C   0  0  0  0  0  0  0  0  0  0  0  0
  150.0578  135.0698  156.1671 C   0  0  0  0  0  0  0  0  0  0  0  0
  150.4053  135.7620  155.1501 N   0  0  0  0  0  0  0  0  0  0  0  0
  151.1369  136.9470  155.3377 C   0  0  0  0  0  0  0  0  0  0  0  0
  151.5045  137.7065  154.0748 C   0  0  0  0  0  0  0  0  0  0  0  0
  151.4837  137.3722  156.5863 C   0  0  0  0  0  0  0  0  0  0  0  0
  152.2745  138.6547  156.8447 C   0  0  0  0  0  0  0  0  0  0  0  0
  151.5976  139.9667  156.4394 C   0  0  0  0  0  0  0  0  0  0  0  0
  151.2782  140.1740  155.2686 O   0  0  0  0  0  0  0  0  0  0  0  0
  151.3800  140.8400  157.4372 N   0  0  0  0  0  0  0  0  0  0  0  0
  150.7308  142.1518  157.3513 C   0  0  1  0  0  0  0  0  0  0  0  0
  149.2708  142.0039  156.8789 C   0  0  0  0  0  0  0  0  0  0  0  0
  150.8723  142.9650  158.6677 C   0  0  1  0  0  0  0  0  0  0  0  0
  152.1136  142.5856  159.5148 C   0  0  0  0  0  0  0  0  0  0  0  0
  152.8126  143.9365  159.7466 C   0  0  2  0  0  0  0  0  0  0  0  0
  151.9595  144.8066  160.6872 C   0  0  0  0  0  0  0  0  0  0  0  0
  150.7766  145.2149  159.7897 C   0  0  0  0  0  0  0  0  0  0  0  0
  151.0861  144.4871  158.4673 C   0  0  1  0  0  0  0  0  0  0  0  0
  152.6047  144.6185  158.4016 C   0  0  0  0  0  0  0  0  0  0  0  0
  151.0693  136.5423  157.7313 C   0  0  0  0  0  0  0  0  0  0  0  0
  151.3694  136.8723  158.8781 O   0  0  0  0  0  0  0  0  0  0  0  0
  150.3545  135.4113  157.4674 N   0  5  0  0  0  0  0  0  0  0  0  0
  149.2945  133.4847  154.9132 H   0  0  0  0  0  0  0  0  0  0  0  0
  148.2270  133.9487  156.2453 H   0  0  0  0  0  0  0  0  0  0  0  0
  149.6786  132.9869  156.5635 H   0  0  0  0  0  0  0  0  0  0  0  0
  151.0035  138.6741  154.0530 H   0  0  0  0  0  0  0  0  0  0  0  0
  151.2072  137.1549  153.1824 H   0  0  0  0  0  0  0  0  0  0  0  0
  152.5808  137.8703  154.0220 H   0  0  0  0  0  0  0  0  0  0  0  0
  152.4964  138.7119  157.9105 H   0  0  0  0  0  0  0  0  0  0  0  0
  153.2511  138.6044  156.3621 H   0  0  0  0  0  0  0  0  0  0  0  0
  151.6884  140.5627  158.3576 H   0  0  0  0  0  0  0  0  0  0  0  0
  151.2710  142.6815  156.5664 H   0  0  0  0  0  0  0  0  0  0  0  0
  148.8351  142.9658  156.6120 H   0  0  0  0  0  0  0  0  0  0  0  0
  148.6394  141.5608  157.6493 H   0  0  0  0  0  0  0  0  0  0  0  0
  149.2084  141.3696  155.9942 H   0  0  0  0  0  0  0  0  0  0  0  0
  149.9707  142.8105  159.2619 H   0  0  0  0  0  0  0  0  0  0  0  0
  151.8417  142.0904  160.4476 H   0  0  0  0  0  0  0  0  0  0  0  0
  152.7822  141.9171  158.9715 H   0  0  0  0  0  0  0  0  0  0  0  0
  153.8527  143.8420  160.0600 H   0  0  0  0  0  0  0  0  0  0  0  0
  151.6393  144.2611  161.5756 H   0  0  0  0  0  0  0  0  0  0  0  0
  152.5137  145.6868  161.0152 H   0  0  0  0  0  0  0  0  0  0  0  0
  149.8126  144.9284  160.2117 H   0  0  0  0  0  0  0  0  0  0  0  0
  150.7653  146.2956  159.6416 H   0  0  0  0  0  0  0  0  0  0  0  0
  150.5561  144.9158  157.6178 H   0  0  0  0  0  0  0  0  0  0  0  0
  152.9495  145.6540  158.3841 H   0  0  0  0  0  0  0  0  0  0  0  0
  153.0554  144.0790  157.5673 H   0  0  0  0  0  0  0  0  0  0  0  0
  1  2  1  0  0  0  0
  1 23  1  0  0  0  0
  1 24  1  0  0  0  0
  1 25  1  0  0  0  0
  2 22  1  0  0  0  0
  2  3  2  0  0  0  0
  3  4  1  0  0  0  0
  4  5  1  0  0  0  0
  4  6  2  0  0  0  0
  5 26  1  0  0  0  0
  5 27  1  0  0  0  0
  5 28  1  0  0  0  0
  6  7  1  0  0  0  0
  6 20  1  0  0  0  0
  7  8  1  0  0  0  0
  7 29  1  0  0  0  0
  7 30  1  0  0  0  0
  8  9  2  0  0  0  0
  8 10  1  0  0  0  0
 10 11  1  0  0  0  0
 10 31  1  0  0  0  0
 11 12  1  0  0  0  0
 11 13  1  0  0  0  0
 11 32  1  0  0  0  0
 12 33  1  0  0  0  0
 12 34  1  0  0  0  0
 12 35  1  0  0  0  0
 13 18  1  0  0  0  0
 13 14  1  0  0  0  0
 13 36  1  0  0  0  0
 14 15  1  0  0  0  0
 14 37  1  0  0  0  0
 14 38  1  0  0  0  0
 15 19  1  0  0  0  0
 15 16  1  0  0  0  0
 15 39  1  0  0  0  0
 16 17  1  0  0  0  0
 16 40  1  0  0  0  0
 16 41  1  0  0  0  0
 17 18  1  0  0  0  0
 17 42  1  0  0  0  0
 17 43  1  0  0  0  0
 18 19  1  0  0  0  0
 18 44  1  0  0  0  0
 19 45  1  0  0  0  0
 19 46  1  0  0  0  0
 20 21  2  0  0  0  0
 20 22  1  0  0  0  0
M  CHG  1  22  -1
M  END
> <s_m_source_file>
AV-unprocessed.smi

> <i_m_source_file_index>
2124

> <i_lp_mmshare_version>
43012

> <i_f3d_flags>
0

> <s_epik_input>
W0NIM11jMW5jKFtDSDNdKWMoYyg9TylbbkhdMSlbQ0gyXUMoPU8pW05IXVtDQEhdKFtDSDNdKVtDQEhdKFtDSDJdW0NASF0yMylbQ0BIXShbQ0gyXTMpW0NIMl1bQ0gyXTI=

> <s_epik_cmdline>
J2VwaWtfcHl0aG9uJywgJy1waCcsICc3LjAnLCAnLXRuJywgJzgnLCAnLW1hJywgJzIwMCcsICctbWV0YWxfYmluZGluZycsICctaW1hZScsICc8aW5maWxlLm1hZT4nLCAnLW9tYWUnLCAnPG91dGZpbGUubWFlPic=

> <r_lp_tautomer_probability>
0.839158

> <r_epik_Ionization_Penalty>
6.63797

> <r_epik_Ionization_Penalty_Charging>
7.48558e-08

> <r_epik_Ionization_Penalty_Neutral>
6.63797

> <r_epik_State_Penalty>
4.49496

> <r_epik_Charging_Adjusted_Penalty>
4.49496

> <i_epik_Tot_Q>
-1

> <i_epik_Tot_abs_Q>
1

> <r_epik_Metal_State_Penalty>
0.841241

> <b_epik_Metal_Only>
1

> <s_lp_Force_Field>
OPLS_2005

> <r_lp_Energy>
56.2785

> <b_lp_Chiralities_Consistent>
1

> <s_lp_Variant>
AV-unprocessed.smi:2124-20

> <Gold.Version>
5.8.1

> <Gold.Id.Protein>
6NUR|6NUR_protein|mol2

> <Gold.PLP.Fitness>
45.6358

> <Gold.PLP.PLP>
-41.4246

> <Gold.PLP.part.hbond>
-3.0000

> <Gold.PLP.part.metal>
0.0000

> <Gold.PLP.part.buried>
-4.3985

> <Gold.PLP.part.nonpolar>
-35.6551

> <Gold.PLP.part.repulsive>
0.2288

> <Gold.PLP.ligand.clash>
0.0000

> <Gold.PLP.ligand.torsion>
0.9127

> <Gold.PLP.Chemscore.Hbond>
1.9932

> <Gold.PLP.Chemscore.CHOScore>
0.0000

> <Gold.PLP.Chemscore.Metal>
0.0000

> <Gold.Chemscore.Hbonds>
donor molecule, donor type, donor heavy atom, donor atom, acceptor molecule, acceptor atom, score
      P1  H  6896  6907       L1    22  0.03
      P1  H  6896  6908       L1    21  0.86
      P1  H  7989  7998       L1     9  1.00

> <Gold.PLP.Chemscore.Internal.Correction>
0.0570

> <Gold.Rescore>
     Score         DG    S(hbond)    S(metal)    S(lipo)     H(rot)  DE(clash)    DE(int)     intcor
     18.81     -21.63       1.70        0.00     124.63       1.61       0.36       2.46       ----

> <Gold.Chemscore.Fitness>
18.8059

> <Gold.Chemscore.DG>
-21.6251

> <Gold.Chemscore.ZeroCoef>
-5.4800

> <Gold.Chemscore.Hbond>
1.6984

> <Gold.Chemscore.Metal>
0.0000

> <Gold.Chemscore.Lipo>
124.6276

> <Gold.Chemscore.Internal_Hbond>
0.0000

> <Gold.Chemscore.DEClash>
0.3641

> <Gold.Chemscore.DEInternal>
2.4551

> <Gold.Chemscore.Rot>
1.6051

> <Gold.Chemscore.Internal.Correction>
   9.000000E+99

> <Gold.Chemscore.Hbonds>
donor molecule, donor type, donor heavy atom, donor atom, acceptor molecule, acceptor atom, score
      P1  H  6896  6907       L1    22  0.02
      P1  H  6896  6908       L1    21  0.48
      P1  H  7989  7998       L1     9  0.97

> <Gold.Chemscore.Hbond.Weighted>
-5.6726

> <Gold.Chemscore.Metal.Weighted>
-0.0000

> <Gold.Chemscore.Lipo.Weighted>
-14.5814

> <Gold.Chemscore.Internal_Hbond.Weighted>
0.0000

> <Gold.Chemscore.DEClash.Weighted>
0.3641

> <Gold.Chemscore.DEInternal.Weighted>
2.4551

> <Gold.Chemscore.Rot.Weighted>
4.1090

> <Gold.Chemscore.Internal.Correction.Weighted>
   9.000000E+99

> <Gold.Protein.RotatedTorsions>
[ 6907 6896 6895 6894 ] final -118.89 input  -60.11 | X-H torsion
[ 7974 7965 7964 7962 ] final  -76.51 input  175.53 | X-H torsion
[ 8008 7997 7996 7995 ] final  145.99 input   59.86 | X-H torsion
[ 10167 10162 10161 10158 ] final -115.32 input  -65.29 | X-H torsion
[ 10718 10713 10712 10709 ] final   50.05 input   66.30 | X-H torsion
[ 10763 10752 10751 10750 ] final   80.79 input  -60.55 | X-H torsion
[ 11005 11000 10999 10996 ] final   11.73 input  -57.11 | X-H torsion

> <Gold.Protein.ActiveResidues>
 VAL166  LYS551  ARG553  GLY616  TRP617  ASP618  TYR619  PRO620  LYS621  CYS622 
 ASP623  PHE694  ASN695  SER759  ASP760  ASP761  ALA762  ILE779  LEU786  VAL792 
 PHE793  MET794  SER795  GLU796  ALA797  LYS798  CYS799  TRP800  GLU811  SER814 

> <Gold.Protein.RotatedAtoms>
  150.8258  133.8174  159.3119 H   0  0  0  0  0  0  0  0  0  0  0  0  # atno 6907 bound_to 6896
  151.5919  135.1051  160.0050 H   0  0  0  0  0  0  0  0  0  0  0  0  # atno 6908 bound_to 6896
  152.4343  133.7292  159.6634 H   0  0  0  0  0  0  0  0  0  0  0  0  # atno 6909 bound_to 6896
  145.6119  140.9384  143.1185 H   0  0  0  0  0  0  0  0  0  0  0  0  # atno 7974 bound_to 7965
  156.2868  140.2194  156.5304 H   0  0  0  0  0  0  0  0  0  0  0  0  # atno 8008 bound_to 7997
  154.7454  140.0484  157.0869 H   0  0  0  0  0  0  0  0  0  0  0  0  # atno 8009 bound_to 7997
  155.0178  140.3120  155.4808 H   0  0  0  0  0  0  0  0  0  0  0  0  # atno 8010 bound_to 7997
  140.0914  143.4696  152.1867 H   0  0  0  0  0  0  0  0  0  0  0  0  # atno 10167 bound_to 10162
  157.4847  130.8337  149.8133 H   0  0  0  0  0  0  0  0  0  0  0  0  # atno 10718 bound_to 10713
  153.1063  135.4789  154.8956 H   0  0  0  0  0  0  0  0  0  0  0  0  # atno 10763 bound_to 10752
  154.7433  135.3087  154.8691 H   0  0  0  0  0  0  0  0  0  0  0  0  # atno 10764 bound_to 10752
  153.9293  135.6846  153.4799 H   0  0  0  0  0  0  0  0  0  0  0  0  # atno 10765 bound_to 10752
  140.4999  134.0756  155.7791 H   0  0  0  0  0  0  0  0  0  0  0  0  # atno 11005 bound_to 11000
  144.7266  139.7855  143.7362 LP  0  0  0  0  0  0  0  0  0  0  0  0  # atno 17320 bound_to 7965
  146.1498  139.4577  143.0056 LP  0  0  0  0  0  0  0  0  0  0  0  0  # atno 17321 bound_to 7965
  139.5722  144.7469  151.3859 LP  0  0  0  0  0  0  0  0  0  0  0  0  # atno 17342 bound_to 10162
  140.7026  143.7593  150.7429 LP  0  0  0  0  0  0  0  0  0  0  0  0  # atno 17343 bound_to 10162
  156.0140  130.3821  150.2170 LP  0  0  0  0  0  0  0  0  0  0  0  0  # atno 17370 bound_to 10713
  157.0357  131.0020  151.3299 LP  0  0  0  0  0  0  0  0  0  0  0  0  # atno 17371 bound_to 10713
  141.1441  133.9087  157.2257 LP  0  0  0  0  0  0  0  0  0  0  0  0  # atno 17394 bound_to 11000
  139.9719  135.0125  156.9534 LP  0  0  0  0  0  0  0  0  0  0  0  0  # atno 17395 bound_to 11000

$$$$
