AV-unprocessed.smi:1222|AV-procd|sdf|5120|dock5
  -GOLD-   22720 4183D 1   1.00000     0.00000
 Structure written by MMmdl.
 37 39  0  0  0  0  0  0  0  0  2 V2000
  150.2004  134.3418  155.7306 O   0  0  0  0  0  0  0  0  0  0  0  0
  149.7960  134.8930  154.7065 C   0  0  0  0  0  0  0  0  0  0  0  0
  150.1352  136.1294  154.3017 N   0  0  0  0  0  0  0  0  0  0  0  0
  151.0181  137.0467  154.9297 C   0  0  0  0  0  0  0  0  0  0  0  0
  151.9858  136.6972  155.7851 N   0  0  0  0  0  0  0  0  0  0  0  0
  152.7034  137.8042  156.2451 C   0  0  0  0  0  0  0  0  0  0  0  0
  152.2659  138.9971  155.7256 C   0  0  0  0  0  0  0  0  0  0  0  0
  150.9268  138.7765  154.6313 S   0  0  0  0  0  0  0  0  0  0  0  0
  148.9461  134.3146  153.8451 N   0  0  0  0  0  0  0  0  0  0  0  0
  148.3792  132.9777  153.9970 C   0  0  2  0  0  0  0  0  0  0  0  0
  149.4879  131.9082  154.0310 C   0  0  0  0  0  0  0  0  0  0  0  0
  148.8916  130.4919  154.0855 C   0  0  0  0  0  0  0  0  0  0  0  0
  147.9696  130.2577  152.9467 N   0  3  1  0  0  0  0  0  0  0  0  0
  147.4703  128.8660  152.9106 C   0  0  0  0  0  0  0  0  0  0  0  0
  147.6215  128.2008  151.5622 C   0  0  0  0  0  0  0  0  0  0  0  0
  146.2618  128.6765  152.0236 C   0  0  0  0  0  0  0  0  0  0  0  0
  146.8656  131.2493  152.9209 C   0  0  0  0  0  0  0  0  0  0  0  0
  147.4140  132.6837  152.8367 C   0  0  0  0  0  0  0  0  0  0  0  0
  149.7166  136.4525  153.4421 H   0  0  0  0  0  0  0  0  0  0  0  0
  153.5131  137.6514  156.9432 H   0  0  0  0  0  0  0  0  0  0  0  0
  152.6491  139.9880  155.9192 H   0  0  0  0  0  0  0  0  0  0  0  0
  148.6678  134.8391  153.0287 H   0  0  0  0  0  0  0  0  0  0  0  0
  147.8142  132.9358  154.9306 H   0  0  0  0  0  0  0  0  0  0  0  0
  150.1208  132.0014  153.1472 H   0  0  0  0  0  0  0  0  0  0  0  0
  150.1375  132.0629  154.8933 H   0  0  0  0  0  0  0  0  0  0  0  0
  149.6976  129.7577  154.0612 H   0  0  0  0  0  0  0  0  0  0  0  0
  148.3574  130.3444  155.0256 H   0  0  0  0  0  0  0  0  0  0  0  0
  147.5787  128.2886  153.8273 H   0  0  0  0  0  0  0  0  0  0  0  0
  148.1035  128.7596  150.7619 H   0  0  0  0  0  0  0  0  0  0  0  0
  147.7946  127.1266  151.5482 H   0  0  0  0  0  0  0  0  0  0  0  0
  145.5405  127.9154  152.3140 H   0  0  0  0  0  0  0  0  0  0  0  0
  145.8418  129.5502  151.5285 H   0  0  0  0  0  0  0  0  0  0  0  0
  146.2196  131.0561  152.0637 H   0  0  0  0  0  0  0  0  0  0  0  0
  146.2492  131.1337  153.8139 H   0  0  0  0  0  0  0  0  0  0  0  0
  146.5874  133.3952  152.8474 H   0  0  0  0  0  0  0  0  0  0  0  0
  147.9262  132.8188  151.8825 H   0  0  0  0  0  0  0  0  0  0  0  0
  148.5064  130.3953  152.1024 H   0  0  0  0  0  0  0  0  0  0  0  0
  1  2  2  0  0  0  0
  2  3  1  0  0  0  0
  2  9  1  0  0  0  0
  3  4  1  0  0  0  0
  3 19  1  0  0  0  0
  4  8  1  0  0  0  0
  4  5  2  0  0  0  0
  5  6  1  0  0  0  0
  6  7  2  0  0  0  0
  6 20  1  0  0  0  0
  7  8  1  0  0  0  0
  7 21  1  0  0  0  0
  9 10  1  0  0  0  0
  9 22  1  0  0  0  0
 10 18  1  0  0  0  0
 10 11  1  0  0  0  0
 10 23  1  0  0  0  0
 11 12  1  0  0  0  0
 11 24  1  0  0  0  0
 11 25  1  0  0  0  0
 12 13  1  0  0  0  0
 12 26  1  0  0  0  0
 12 27  1  0  0  0  0
 13 14  1  0  0  0  0
 13 17  1  0  0  0  0
 13 37  1  0  0  0  0
 14 16  1  0  0  0  0
 14 15  1  0  0  0  0
 14 28  1  0  0  0  0
 15 16  1  0  0  0  0
 15 29  1  0  0  0  0
 15 30  1  0  0  0  0
 16 31  1  0  0  0  0
 16 32  1  0  0  0  0
 17 18  1  0  0  0  0
 17 33  1  0  0  0  0
 17 34  1  0  0  0  0
 18 35  1  0  0  0  0
 18 36  1  0  0  0  0
M  CHG  1  13   1
M  END
> <s_m_source_file>
AV-unprocessed.smi

> <i_m_source_file_index>
1222

> <i_lp_mmshare_version>
43012

> <i_f3d_flags>
0

> <s_epik_input>
czFbY0hdW2NIXW5jMVtOSF1DKD1PKVtOSF1bQ0hdMltDSDJdW0NIMl1OKFtDSDJdW0NIMl0yKVtDSF0zW0NIMl1bQ0gyXTM=

> <s_epik_cmdline>
J2VwaWtfcHl0aG9uJywgJy1waCcsICc3LjAnLCAnLXRuJywgJzgnLCAnLW1hJywgJzIwMCcsICctbWV0YWxfYmluZGluZycsICctaW1hZScsICc8aW5maWxlLm1hZT4nLCAnLW9tYWUnLCAnPG91dGZpbGUubWFlPic=

> <r_lp_tautomer_probability>
0.999

> <r_epik_Ionization_Penalty>
0.124652

> <r_epik_Ionization_Penalty_Charging>
0.124514

> <r_epik_Ionization_Penalty_Neutral>
0.000138693

> <r_epik_State_Penalty>
0.113992

> <r_epik_Charging_Adjusted_Penalty>
0.238505

> <i_epik_Tot_Q>
1

> <i_epik_Tot_abs_Q>
1

> <r_epik_Metal_State_Penalty>
0.160715

> <b_epik_Metal_Only>
0

> <s_lp_Force_Field>
OPLS_2005

> <r_lp_Energy>
23.5858

> <b_lp_Chiralities_Consistent>
1

> <s_lp_Variant>
AV-unprocessed.smi:1222-1

> <Gold.Version>
5.8.1

> <Gold.Id.Protein>
6NUR|6NUR_protein|mol2

> <Gold.PLP.Fitness>
46.5319

> <Gold.PLP.PLP>
-35.2004

> <Gold.PLP.part.hbond>
-5.0000

> <Gold.PLP.part.metal>
0.0000

> <Gold.PLP.part.buried>
-1.7311

> <Gold.PLP.part.nonpolar>
-28.3036

> <Gold.PLP.part.repulsive>
0.1446

> <Gold.PLP.ligand.clash>
0.0000

> <Gold.PLP.ligand.torsion>
0.9535

> <Gold.PLP.Chemscore.Hbond>
3.9920

> <Gold.PLP.Chemscore.CHOScore>
0.0000

> <Gold.PLP.Chemscore.Metal>
0.0000

> <Gold.Chemscore.Hbonds>
donor molecule, donor type, donor heavy atom, donor atom, acceptor molecule, acceptor atom, score
      L1  H     3    19       P1  7948  1.00
      L1  H     9    22       P1  7948  0.99
      L1  H    13    37       P1 10747  1.00
      P1  H 10752 10763       L1     5  1.00

> <Gold.PLP.Chemscore.Internal.Correction>
1.2626

> <Gold.Rescore>
     Score         DG    S(hbond)    S(metal)    S(lipo)     H(rot)  DE(clash)    DE(int)     intcor
     19.69     -21.79       3.28        0.00      73.33       1.26       0.03       2.08       ----

> <Gold.Chemscore.Fitness>
19.6854

> <Gold.Chemscore.DG>
-21.7923

> <Gold.Chemscore.ZeroCoef>
-5.4800

> <Gold.Chemscore.Hbond>
3.2814

> <Gold.Chemscore.Metal>
0.0000

> <Gold.Chemscore.Lipo>
73.3344

> <Gold.Chemscore.Internal_Hbond>
0.0000

> <Gold.Chemscore.DEClash>
0.0313

> <Gold.Chemscore.DEInternal>
2.0756

> <Gold.Chemscore.Rot>
1.2609

> <Gold.Chemscore.Internal.Correction>
   9.000000E+99

> <Gold.Chemscore.Hbonds>
donor molecule, donor type, donor heavy atom, donor atom, acceptor molecule, acceptor atom, score
      L1  H     3    19       P1  7948  0.34
      L1  H     9    22       P1  7948  0.33
      L1  H    13    37       P1 10747  0.78
      P1  H 10752 10763       L1     5  0.51

> <Gold.Chemscore.Hbond.Weighted>
-10.9600

> <Gold.Chemscore.Metal.Weighted>
-0.0000

> <Gold.Chemscore.Lipo.Weighted>
-8.5801

> <Gold.Chemscore.Internal_Hbond.Weighted>
0.0000

> <Gold.Chemscore.DEClash.Weighted>
0.0313

> <Gold.Chemscore.DEInternal.Weighted>
2.0756

> <Gold.Chemscore.Rot.Weighted>
3.2279

> <Gold.Chemscore.Internal.Correction.Weighted>
   9.000000E+99

> <Gold.Protein.RotatedTorsions>
[ 6907 6896 6895 6894 ] final -132.04 input  -60.11 | X-H torsion
[ 7974 7965 7964 7962 ] final   28.07 input  175.53 | X-H torsion
[ 8008 7997 7996 7995 ] final  -91.01 input   59.86 | X-H torsion
[ 10167 10162 10161 10158 ] final  -82.36 input  -65.29 | X-H torsion
[ 10718 10713 10712 10709 ] final   -1.42 input   66.30 | X-H torsion
[ 10763 10752 10751 10750 ] final   84.74 input  -60.55 | X-H torsion
[ 11005 11000 10999 10996 ] final  -92.29 input  -57.11 | X-H torsion

> <Gold.Protein.ActiveResidues>
 VAL166  LYS551  ARG553  GLY616  TRP617  ASP618  TYR619  PRO620  LYS621  CYS622 
 ASP623  PHE694  ASN695  SER759  ASP760  ASP761  ALA762  ILE779  LEU786  VAL792 
 PHE793  MET794  SER795  GLU796  ALA797  LYS798  CYS799  TRP800  GLU811  SER814 

> <Gold.Protein.RotatedAtoms>
  150.9578  133.6478  159.2759 H   0  0  0  0  0  0  0  0  0  0  0  0  # atno 6907 bound_to 6896
  151.3811  135.0939  159.9506 H   0  0  0  0  0  0  0  0  0  0  0  0  # atno 6908 bound_to 6896
  152.5136  133.9112  159.7543 H   0  0  0  0  0  0  0  0  0  0  0  0  # atno 6909 bound_to 6896
  146.1749  139.7106  142.8941 H   0  0  0  0  0  0  0  0  0  0  0  0  # atno 7974 bound_to 7965
  154.7055  140.0524  157.0500 H   0  0  0  0  0  0  0  0  0  0  0  0  # atno 8008 bound_to 7997
  155.0626  140.3191  155.4637 H   0  0  0  0  0  0  0  0  0  0  0  0  # atno 8009 bound_to 7997
  156.2773  140.2096  156.5753 H   0  0  0  0  0  0  0  0  0  0  0  0  # atno 8010 bound_to 7997
  140.4326  143.2543  151.8737 H   0  0  0  0  0  0  0  0  0  0  0  0  # atno 10167 bound_to 10162
  156.8059  130.5408  149.5715 H   0  0  0  0  0  0  0  0  0  0  0  0  # atno 10718 bound_to 10713
  153.1409  135.4643  154.9494 H   0  0  0  0  0  0  0  0  0  0  0  0  # atno 10763 bound_to 10752
  154.7746  135.3169  154.8121 H   0  0  0  0  0  0  0  0  0  0  0  0  # atno 10764 bound_to 10752
  153.8644  135.6909  153.4834 H   0  0  0  0  0  0  0  0  0  0  0  0  # atno 10765 bound_to 10752
  141.1525  133.7811  156.9999 H   0  0  0  0  0  0  0  0  0  0  0  0  # atno 11005 bound_to 11000
  145.4238  141.0409  143.2949 LP  0  0  0  0  0  0  0  0  0  0  0  0  # atno 17320 bound_to 7965
  144.8221  139.5774  143.6982 LP  0  0  0  0  0  0  0  0  0  0  0  0  # atno 17321 bound_to 7965
  139.4785  144.5317  151.8656 LP  0  0  0  0  0  0  0  0  0  0  0  0  # atno 17342 bound_to 10162
  140.4409  144.1987  150.5891 LP  0  0  0  0  0  0  0  0  0  0  0  0  # atno 17343 bound_to 10162
  156.1073  130.6014  150.9991 LP  0  0  0  0  0  0  0  0  0  0  0  0  # atno 17370 bound_to 10713
  157.6530  131.0894  150.8009 LP  0  0  0  0  0  0  0  0  0  0  0  0  # atno 17371 bound_to 10713
  140.0947  134.9571  157.1831 LP  0  0  0  0  0  0  0  0  0  0  0  0  # atno 17394 bound_to 11000
  140.3398  134.2716  155.7214 LP  0  0  0  0  0  0  0  0  0  0  0  0  # atno 17395 bound_to 11000

$$$$
