AV-unprocessed.smi:2496|AV-procd|sdf|9825|dock8
  -GOLD-   2272013453D 1   1.00000     0.00000
 Structure written by MMmdl.
 40 40  0  0  0  0  0  0  0  0  1 V2000
  150.8091  145.2739  160.2995 C   0  0  0  0  0  0  0  0  0  0  0  0
  151.7477  144.1345  160.5772 C   0  0  0  0  0  0  0  0  0  0  0  0
  152.1960  143.9537  161.8095 N   0  0  0  0  0  0  0  0  0  0  0  0
  153.0006  142.8834  161.7054 N   0  0  0  0  0  0  0  0  0  0  0  0
  153.0738  142.3820  160.4273 C   0  0  0  0  0  0  0  0  0  0  0  0
  153.9262  141.2001  160.1022 C   0  0  0  0  0  0  0  0  0  0  0  0
  152.2618  143.1722  159.6534 C   0  0  0  0  0  0  0  0  0  0  0  0
  151.9646  143.0953  158.1696 C   0  0  2  0  0  0  0  0  0  0  0  0
  152.2237  144.4346  157.4540 C   0  0  0  0  0  0  0  0  0  0  0  0
  150.5351  142.5704  157.9665 C   0  0  0  0  0  0  0  0  0  0  0  0
  149.7664  142.4507  158.9211 O   0  0  0  0  0  0  0  0  0  0  0  0
  150.2048  142.2480  156.7030 N   0  0  0  0  0  0  0  0  0  0  0  0
  148.9476  141.6611  156.2307 C   0  0  2  0  0  0  0  0  0  0  0  0
  148.5293  140.4761  157.1254 C   0  0  0  0  0  0  0  0  0  0  0  0
  148.9820  141.3283  154.7114 C   0  0  0  0  0  0  0  0  0  0  0  0
  147.5707  141.2359  154.0982 C   0  0  0  0  0  0  0  0  0  0  0  0
  149.7545  140.0297  154.4189 C   0  0  0  0  0  0  0  0  0  0  0  0
  153.4922  142.5109  162.5053 H   0  0  0  0  0  0  0  0  0  0  0  0
  151.2666  145.9968  159.6240 H   0  0  0  0  0  0  0  0  0  0  0  0
  150.5310  145.8031  161.2117 H   0  0  0  0  0  0  0  0  0  0  0  0
  149.8908  144.9171  159.8330 H   0  0  0  0  0  0  0  0  0  0  0  0
  154.4566  141.3474  159.1617 H   0  0  0  0  0  0  0  0  0  0  0  0
  153.3189  140.2995  160.0120 H   0  0  0  0  0  0  0  0  0  0  0  0
  154.6710  141.0257  160.8790 H   0  0  0  0  0  0  0  0  0  0  0  0
  152.6235  142.3647  157.6990 H   0  0  0  0  0  0  0  0  0  0  0  0
  151.5848  145.2334  157.8303 H   0  0  0  0  0  0  0  0  0  0  0  0
  152.0448  144.3485  156.3816 H   0  0  0  0  0  0  0  0  0  0  0  0
  153.2587  144.7505  157.5868 H   0  0  0  0  0  0  0  0  0  0  0  0
  150.9150  142.3872  155.9991 H   0  0  0  0  0  0  0  0  0  0  0  0
  148.2031  142.4446  156.3768 H   0  0  0  0  0  0  0  0  0  0  0  0
  147.4938  140.1873  156.9479 H   0  0  0  0  0  0  0  0  0  0  0  0
  148.6081  140.7354  158.1817 H   0  0  0  0  0  0  0  0  0  0  0  0
  149.1506  139.5974  156.9512 H   0  0  0  0  0  0  0  0  0  0  0  0
  149.5060  142.1324  154.1938 H   0  0  0  0  0  0  0  0  0  0  0  0
  146.9718  140.4747  154.5989 H   0  0  0  0  0  0  0  0  0  0  0  0
  147.6184  140.9769  153.0403 H   0  0  0  0  0  0  0  0  0  0  0  0
  147.0325  142.1811  154.1671 H   0  0  0  0  0  0  0  0  0  0  0  0
  149.3249  139.1833  154.9554 H   0  0  0  0  0  0  0  0  0  0  0  0
  150.8034  140.1104  154.7030 H   0  0  0  0  0  0  0  0  0  0  0  0
  149.7338  139.7918  153.3549 H   0  0  0  0  0  0  0  0  0  0  0  0
  1  2  1  0  0  0  0
  1 19  1  0  0  0  0
  1 20  1  0  0  0  0
  1 21  1  0  0  0  0
  2  7  1  0  0  0  0
  2  3  2  0  0  0  0
  3  4  1  0  0  0  0
  4 18  1  0  0  0  0
  4  5  1  0  0  0  0
  5  6  1  0  0  0  0
  5  7  2  0  0  0  0
  6 22  1  0  0  0  0
  6 23  1  0  0  0  0
  6 24  1  0  0  0  0
  7  8  1  0  0  0  0
  8  9  1  0  0  0  0
  8 10  1  0  0  0  0
  8 25  1  0  0  0  0
  9 26  1  0  0  0  0
  9 27  1  0  0  0  0
  9 28  1  0  0  0  0
 10 11  2  0  0  0  0
 10 12  1  0  0  0  0
 12 13  1  0  0  0  0
 12 29  1  0  0  0  0
 13 14  1  0  0  0  0
 13 15  1  0  0  0  0
 13 30  1  0  0  0  0
 14 31  1  0  0  0  0
 14 32  1  0  0  0  0
 14 33  1  0  0  0  0
 15 16  1  0  0  0  0
 15 17  1  0  0  0  0
 15 34  1  0  0  0  0
 16 35  1  0  0  0  0
 16 36  1  0  0  0  0
 16 37  1  0  0  0  0
 17 38  1  0  0  0  0
 17 39  1  0  0  0  0
 17 40  1  0  0  0  0
M  END
> <s_m_source_file>
AV-unprocessed.smi

> <i_m_source_file_index>
2496

> <i_lp_mmshare_version>
43012

> <i_f3d_flags>
0

> <s_epik_input>
W0NIM11jMW5bbkhdYyhbQ0gzXSljMVtDQEhdKFtDSDNdKUMoPU8pW05IXVtDQEhdKFtDSDNdKVtDSF0oW0NIM10pW0NIM10=

> <s_epik_cmdline>
J2VwaWtfcHl0aG9uJywgJy1waCcsICc3LjAnLCAnLXRuJywgJzgnLCAnLW1hJywgJzIwMCcsICctbWV0YWxfYmluZGluZycsICctaW1hZScsICc8aW5maWxlLm1hZT4nLCAnLW9tYWUnLCAnPG91dGZpbGUubWFlPic=

> <r_lp_tautomer_probability>
1

> <r_epik_Ionization_Penalty>
0.000456212

> <r_epik_Ionization_Penalty_Charging>
0

> <r_epik_Ionization_Penalty_Neutral>
0.000456212

> <r_epik_State_Penalty>
-0

> <r_epik_Charging_Adjusted_Penalty>
0

> <i_epik_Tot_Q>
0

> <i_epik_Tot_abs_Q>
0

> <r_epik_Metal_State_Penalty>
-0

> <b_epik_Metal_Only>
0

> <s_lp_Force_Field>
OPLS_2005

> <r_lp_Energy>
1.67244

> <b_lp_Chiralities_Consistent>
1

> <s_lp_Variant>
AV-unprocessed.smi:2496-1

> <Gold.Version>
5.8.1

> <Gold.Id.Protein>
6NUR|6NUR_protein|mol2

> <Gold.PLP.Fitness>
37.7075

> <Gold.PLP.PLP>
-38.8735

> <Gold.PLP.part.hbond>
-1.9247

> <Gold.PLP.part.metal>
0.0000

> <Gold.PLP.part.buried>
-3.7692

> <Gold.PLP.part.nonpolar>
-33.0763

> <Gold.PLP.part.repulsive>
0.3663

> <Gold.PLP.ligand.clash>
0.0000

> <Gold.PLP.ligand.torsion>
0.6626

> <Gold.PLP.Chemscore.Hbond>
0.0000

> <Gold.PLP.Chemscore.CHOScore>
0.0000

> <Gold.PLP.Chemscore.Metal>
0.0000

> <Gold.PLP.Chemscore.Internal.Correction>
0.1590

> <Gold.Rescore>
     Score         DG    S(hbond)    S(metal)    S(lipo)     H(rot)  DE(clash)    DE(int)     intcor
     12.18     -14.15       0.00        0.00     106.18       1.47       0.03       1.94       ----

> <Gold.Chemscore.Fitness>
12.1777

> <Gold.Chemscore.DG>
-14.1494

> <Gold.Chemscore.ZeroCoef>
-5.4800

> <Gold.Chemscore.Hbond>
0.0000

> <Gold.Chemscore.Metal>
0.0000

> <Gold.Chemscore.Lipo>
106.1775

> <Gold.Chemscore.Internal_Hbond>
0.0000

> <Gold.Chemscore.DEClash>
0.0288

> <Gold.Chemscore.DEInternal>
1.9429

> <Gold.Chemscore.Rot>
1.4662

> <Gold.Chemscore.Internal.Correction>
   9.000000E+99

> <Gold.Chemscore.Hbond.Weighted>
-0.0000

> <Gold.Chemscore.Metal.Weighted>
-0.0000

> <Gold.Chemscore.Lipo.Weighted>
-12.4228

> <Gold.Chemscore.Internal_Hbond.Weighted>
0.0000

> <Gold.Chemscore.DEClash.Weighted>
0.0288

> <Gold.Chemscore.DEInternal.Weighted>
1.9429

> <Gold.Chemscore.Rot.Weighted>
3.7534

> <Gold.Chemscore.Internal.Correction.Weighted>
   9.000000E+99

> <Gold.Protein.RotatedTorsions>
[ 6907 6896 6895 6894 ] final   30.06 input  -60.11 | X-H torsion
[ 7974 7965 7964 7962 ] final    9.35 input  175.53 | X-H torsion
[ 8008 7997 7996 7995 ] final  -81.95 input   59.86 | X-H torsion
[ 10167 10162 10161 10158 ] final  -81.04 input  -65.29 | X-H torsion
[ 10718 10713 10712 10709 ] final  -23.99 input   66.30 | X-H torsion
[ 10763 10752 10751 10750 ] final   90.97 input  -60.55 | X-H torsion
[ 11005 11000 10999 10996 ] final   79.92 input  -57.11 | X-H torsion

> <Gold.Protein.ActiveResidues>
 VAL166  LYS551  ARG553  GLY616  TRP617  ASP618  TYR619  PRO620  LYS621  CYS622 
 ASP623  PHE694  ASN695  SER759  ASP760  ASP761  ALA762  ILE779  LEU786  VAL792 
 PHE793  MET794  SER795  GLU796  ALA797  LYS798  CYS799  TRP800  GLU811  SER814 

> <Gold.Protein.RotatedAtoms>
  152.0405  134.9714  160.0573 H   0  0  0  0  0  0  0  0  0  0  0  0  # atno 6907 bound_to 6896
  152.1155  133.4319  159.4659 H   0  0  0  0  0  0  0  0  0  0  0  0  # atno 6908 bound_to 6896
  150.6846  134.2516  159.4556 H   0  0  0  0  0  0  0  0  0  0  0  0  # atno 6909 bound_to 6896
  146.2404  139.9797  142.8437 H   0  0  0  0  0  0  0  0  0  0  0  0  # atno 7974 bound_to 7965
  154.6036  140.0640  156.9401 H   0  0  0  0  0  0  0  0  0  0  0  0  # atno 8008 bound_to 7997
  155.2090  140.3321  155.4313 H   0  0  0  0  0  0  0  0  0  0  0  0  # atno 8009 bound_to 7997
  156.2334  140.1851  156.7168 H   0  0  0  0  0  0  0  0  0  0  0  0  # atno 8010 bound_to 7997
  140.4448  143.2502  151.8573 H   0  0  0  0  0  0  0  0  0  0  0  0  # atno 10167 bound_to 10162
  156.4836  130.4550  149.6797 H   0  0  0  0  0  0  0  0  0  0  0  0  # atno 10718 bound_to 10713
  153.2032  135.4414  155.0292 H   0  0  0  0  0  0  0  0  0  0  0  0  # atno 10763 bound_to 10752
  154.8159  135.3315  154.7180 H   0  0  0  0  0  0  0  0  0  0  0  0  # atno 10764 bound_to 10752
  153.7623  135.6990  153.4978 H   0  0  0  0  0  0  0  0  0  0  0  0  # atno 10765 bound_to 10752
  139.9154  134.7880  156.1842 H   0  0  0  0  0  0  0  0  0  0  0  0  # atno 11005 bound_to 11000
  145.1603  140.9669  143.4381 LP  0  0  0  0  0  0  0  0  0  0  0  0  # atno 17320 bound_to 7965
  145.0122  139.3499  143.6114 LP  0  0  0  0  0  0  0  0  0  0  0  0  # atno 17321 bound_to 7965
  139.4792  144.5187  151.8831 LP  0  0  0  0  0  0  0  0  0  0  0  0  # atno 17342 bound_to 10162
  140.4276  144.2159  150.5887 LP  0  0  0  0  0  0  0  0  0  0  0  0  # atno 17343 bound_to 10162
  156.3497  130.7425  151.2383 LP  0  0  0  0  0  0  0  0  0  0  0  0  # atno 17370 bound_to 10713
  157.7481  131.0380  150.4485 LP  0  0  0  0  0  0  0  0  0  0  0  0  # atno 17371 bound_to 10713
  141.0623  133.6835  156.1977 LP  0  0  0  0  0  0  0  0  0  0  0  0  # atno 17394 bound_to 11000
  140.6640  134.4937  157.5584 LP  0  0  0  0  0  0  0  0  0  0  0  0  # atno 17395 bound_to 11000

$$$$
