AV-unprocessed.smi:2110|AV-procd|sdf|8610|dock10
  -GOLD-   2272011353D 1   1.00000     0.00000
 Structure written by MMmdl.
 45 46  0  0  0  0  0  0  0  0  2 V2000
  146.2397  134.6850  162.7741 C   0  0  0  0  0  0  0  0  0  0  0  0
  147.3538  135.6706  162.3848 C   0  0  0  0  0  0  0  0  0  0  0  0
  147.7906  135.5253  160.9812 N   0  0  0  0  0  0  0  0  0  0  0  0
  148.1276  134.1620  160.5243 C   0  0  0  0  0  0  0  0  0  0  0  0
  146.8924  133.3332  160.1399 C   0  0  0  0  0  0  0  0  0  0  0  0
  147.4995  136.7941  159.8237 S   0  0  0  0  0  0  0  0  0  0  0  0
  147.1686  136.1254  158.5542 O   0  0  0  0  0  0  0  0  0  0  0  0
  146.4825  137.6748  160.4213 O   0  0  0  0  0  0  0  0  0  0  0  0
  148.9851  137.4393  159.8456 N   0  5  0  0  0  0  0  0  0  0  0  0
  149.9666  136.9878  158.8776 C   0  0  0  0  0  0  0  0  0  0  0  0
  150.4757  138.1365  158.0165 C   0  0  0  0  0  0  0  0  0  0  0  0
  150.4323  138.0547  156.6071 C   0  0  0  0  0  0  0  0  0  0  0  0
  150.9185  139.1415  155.8583 C   0  0  0  0  0  0  0  0  0  0  0  0
  151.4154  140.2642  156.4170 N   0  0  0  0  0  0  0  0  0  0  0  0
  151.4548  140.3611  157.7690 C   0  0  0  0  0  0  0  0  0  0  0  0
  151.9670  141.5475  158.3386 N   0  0  0  0  0  0  0  0  0  0  0  0
  152.2639  141.4837  159.7677 C   0  0  0  0  0  0  0  0  0  0  0  0
  153.0895  142.7082  160.1985 C   0  0  0  0  0  0  0  0  0  0  0  0
  152.4092  143.9034  159.8298 O   0  0  0  0  0  0  0  0  0  0  0  0
  152.2291  143.9956  158.4205 C   0  0  0  0  0  0  0  0  0  0  0  0
  151.3705  142.8178  157.9296 C   0  0  0  0  0  0  0  0  0  0  0  0
  151.0003  139.3113  158.6034 C   0  0  0  0  0  0  0  0  0  0  0  0
  146.0049  134.7723  163.8347 H   0  0  0  0  0  0  0  0  0  0  0  0
  146.5240  133.6509  162.5835 H   0  0  0  0  0  0  0  0  0  0  0  0
  145.3205  134.8837  162.2232 H   0  0  0  0  0  0  0  0  0  0  0  0
  147.0035  136.6916  162.5369 H   0  0  0  0  0  0  0  0  0  0  0  0
  148.2089  135.5435  163.0493 H   0  0  0  0  0  0  0  0  0  0  0  0
  148.8027  134.2216  159.6712 H   0  0  0  0  0  0  0  0  0  0  0  0
  148.6806  133.6525  161.3136 H   0  0  0  0  0  0  0  0  0  0  0  0
  147.1930  132.3597  159.7530 H   0  0  0  0  0  0  0  0  0  0  0  0
  146.3032  133.8237  159.3657 H   0  0  0  0  0  0  0  0  0  0  0  0
  146.2445  133.1537  160.9972 H   0  0  0  0  0  0  0  0  0  0  0  0
  150.8342  136.5391  159.3622 H   0  0  0  0  0  0  0  0  0  0  0  0
  149.5603  136.2111  158.2287 H   0  0  0  0  0  0  0  0  0  0  0  0
  150.0467  137.1816  156.0983 H   0  0  0  0  0  0  0  0  0  0  0  0
  150.9063  139.1096  154.7790 H   0  0  0  0  0  0  0  0  0  0  0  0
  151.3239  141.4553  160.3201 H   0  0  0  0  0  0  0  0  0  0  0  0
  152.8107  140.5788  160.0287 H   0  0  0  0  0  0  0  0  0  0  0  0
  153.2337  142.7014  161.2789 H   0  0  0  0  0  0  0  0  0  0  0  0
  154.0820  142.6863  159.7453 H   0  0  0  0  0  0  0  0  0  0  0  0
  151.7389  144.9406  158.1860 H   0  0  0  0  0  0  0  0  0  0  0  0
  153.1981  144.0059  157.9188 H   0  0  0  0  0  0  0  0  0  0  0  0
  151.2837  142.8620  156.8433 H   0  0  0  0  0  0  0  0  0  0  0  0
  150.3632  142.8939  158.3416 H   0  0  0  0  0  0  0  0  0  0  0  0
  151.0674  139.4051  159.6785 H   0  0  0  0  0  0  0  0  0  0  0  0
  1  2  1  0  0  0  0
  1 23  1  0  0  0  0
  1 24  1  0  0  0  0
  1 25  1  0  0  0  0
  2  3  1  0  0  0  0
  2 26  1  0  0  0  0
  2 27  1  0  0  0  0
  3  4  1  0  0  0  0
  3  6  1  0  0  0  0
  4  5  1  0  0  0  0
  4 28  1  0  0  0  0
  4 29  1  0  0  0  0
  5 30  1  0  0  0  0
  5 31  1  0  0  0  0
  5 32  1  0  0  0  0
  6  7  2  0  0  0  0
  6  8  2  0  0  0  0
  6  9  1  0  0  0  0
  9 10  1  0  0  0  0
 10 11  1  0  0  0  0
 10 33  1  0  0  0  0
 10 34  1  0  0  0  0
 11 22  1  0  0  0  0
 11 12  2  0  0  0  0
 12 13  1  0  0  0  0
 12 35  1  0  0  0  0
 13 14  2  0  0  0  0
 13 36  1  0  0  0  0
 14 15  1  0  0  0  0
 15 16  1  0  0  0  0
 15 22  2  0  0  0  0
 16 21  1  0  0  0  0
 16 17  1  0  0  0  0
 17 18  1  0  0  0  0
 17 37  1  0  0  0  0
 17 38  1  0  0  0  0
 18 19  1  0  0  0  0
 18 39  1  0  0  0  0
 18 40  1  0  0  0  0
 19 20  1  0  0  0  0
 20 21  1  0  0  0  0
 20 41  1  0  0  0  0
 20 42  1  0  0  0  0
 21 43  1  0  0  0  0
 21 44  1  0  0  0  0
 22 45  1  0  0  0  0
M  CHG  1   9  -1
M  END
> <s_m_source_file>
AV-unprocessed.smi

> <i_m_source_file_index>
2110

> <i_lp_mmshare_version>
43012

> <i_f3d_flags>
0

> <s_epik_input>
W0NIM11bQ0gyXU4oW0NIMl1bQ0gzXSlTKD1PKSg9TylbTkhdW0NIMl1jMVtjSF1bY0hdbmMoW2NIXTEpTjJbQ0gyXVtDSDJdT1tDSDJdW0NIMl0y

> <s_epik_cmdline>
J2VwaWtfcHl0aG9uJywgJy1waCcsICc3LjAnLCAnLXRuJywgJzgnLCAnLW1hJywgJzIwMCcsICctbWV0YWxfYmluZGluZycsICctaW1hZScsICc8aW5maWxlLm1hZT4nLCAnLW9tYWUnLCAnPG91dGZpbGUubWFlPic=

> <r_lp_tautomer_probability>
1

> <r_epik_Ionization_Penalty>
2.67693

> <r_epik_Ionization_Penalty_Charging>
2.41478

> <r_epik_Ionization_Penalty_Neutral>
0.262148

> <r_epik_State_Penalty>
2.66454

> <r_epik_Charging_Adjusted_Penalty>
5.07933

> <i_epik_Tot_Q>
-1

> <i_epik_Tot_abs_Q>
1

> <r_epik_Metal_State_Penalty>
0.588443

> <b_epik_Metal_Only>
0

> <s_lp_Force_Field>
OPLS_2005

> <r_lp_Energy>
11.2641

> <b_lp_Chiralities_Consistent>
1

> <s_lp_Variant>
AV-unprocessed.smi:2110-3

> <Gold.Version>
5.8.1

> <Gold.Id.Protein>
6NUR|6NUR_protein|mol2

> <Gold.PLP.Fitness>
41.2534

> <Gold.PLP.PLP>
-37.4669

> <Gold.PLP.part.hbond>
-2.8101

> <Gold.PLP.part.metal>
0.0000

> <Gold.PLP.part.buried>
-6.0267

> <Gold.PLP.part.nonpolar>
-29.6695

> <Gold.PLP.part.repulsive>
0.0117

> <Gold.PLP.ligand.clash>
0.0000

> <Gold.PLP.ligand.torsion>
2.1328

> <Gold.PLP.Chemscore.Hbond>
1.4477

> <Gold.PLP.Chemscore.CHOScore>
0.0000

> <Gold.PLP.Chemscore.Metal>
0.0000

> <Gold.Chemscore.Hbonds>
donor molecule, donor type, donor heavy atom, donor atom, acceptor molecule, acceptor atom, score
      P1  H  6931  6943       L1     9  0.41
      P1  H  6934  6947       L1     8  1.00

> <Gold.PLP.Chemscore.Internal.Correction>
3.7089

> <Gold.Rescore>
     Score         DG    S(hbond)    S(metal)    S(lipo)     H(rot)  DE(clash)    DE(int)     intcor
     12.61     -14.97       0.89        0.00      92.00       1.66       0.00       2.37       ----

> <Gold.Chemscore.Fitness>
12.6055

> <Gold.Chemscore.DG>
-14.9708

> <Gold.Chemscore.ZeroCoef>
-5.4800

> <Gold.Chemscore.Hbond>
0.8943

> <Gold.Chemscore.Metal>
0.0000

> <Gold.Chemscore.Lipo>
92.0013

> <Gold.Chemscore.Internal_Hbond>
0.0000

> <Gold.Chemscore.DEClash>
0.0000

> <Gold.Chemscore.DEInternal>
2.3653

> <Gold.Chemscore.Rot>
1.6642

> <Gold.Chemscore.Internal.Correction>
   9.000000E+99

> <Gold.Chemscore.Hbonds>
donor molecule, donor type, donor heavy atom, donor atom, acceptor molecule, acceptor atom, score
      P1  H  6931  6943       L1     9  0.07
      P1  H  6934  6947       L1     8  0.73

> <Gold.Chemscore.Hbond.Weighted>
-2.9870

> <Gold.Chemscore.Metal.Weighted>
-0.0000

> <Gold.Chemscore.Lipo.Weighted>
-10.7641

> <Gold.Chemscore.Internal_Hbond.Weighted>
0.0000

> <Gold.Chemscore.DEClash.Weighted>
0.0000

> <Gold.Chemscore.DEInternal.Weighted>
2.3653

> <Gold.Chemscore.Rot.Weighted>
4.2604

> <Gold.Chemscore.Internal.Correction.Weighted>
   9.000000E+99

> <Gold.Protein.RotatedTorsions>
[ 6907 6896 6895 6894 ] final   20.09 input  -60.11 | X-H torsion
[ 7974 7965 7964 7962 ] final  -13.48 input  175.53 | X-H torsion
[ 8008 7997 7996 7995 ] final   36.72 input   59.86 | X-H torsion
[ 10167 10162 10161 10158 ] final   64.78 input  -65.29 | X-H torsion
[ 10718 10713 10712 10709 ] final  127.54 input   66.30 | X-H torsion
[ 10763 10752 10751 10750 ] final -111.74 input  -60.55 | X-H torsion
[ 11005 11000 10999 10996 ] final  -62.20 input  -57.11 | X-H torsion

> <Gold.Protein.ActiveResidues>
 VAL166  LYS551  ARG553  GLY616  TRP617  ASP618  TYR619  PRO620  LYS621  CYS622 
 ASP623  PHE694  ASN695  SER759  ASP760  ASP761  ALA762  ILE779  LEU786  VAL792 
 PHE793  MET794  SER795  GLU796  ALA797  LYS798  CYS799  TRP800  GLU811  SER814 

> <Gold.Protein.RotatedAtoms>
  151.8910  135.0416  160.0497 H   0  0  0  0  0  0  0  0  0  0  0  0  # atno 6907 bound_to 6896
  152.2436  133.5151  159.5292 H   0  0  0  0  0  0  0  0  0  0  0  0  # atno 6908 bound_to 6896
  150.7061  134.0972  159.3995 H   0  0  0  0  0  0  0  0  0  0  0  0  # atno 6909 bound_to 6896
  146.2112  140.3209  142.8390 H   0  0  0  0  0  0  0  0  0  0  0  0  # atno 7974 bound_to 7965
  155.1920  140.3308  155.4357 H   0  0  0  0  0  0  0  0  0  0  0  0  # atno 8008 bound_to 7997
  156.2438  140.1908  156.6962 H   0  0  0  0  0  0  0  0  0  0  0  0  # atno 8009 bound_to 7997
  154.6199  140.0597  156.9588 H   0  0  0  0  0  0  0  0  0  0  0  0  # atno 8010 bound_to 7997
  140.1184  144.4754  150.6935 H   0  0  0  0  0  0  0  0  0  0  0  0  # atno 10167 bound_to 10162
  157.5324  131.1098  150.8989 H   0  0  0  0  0  0  0  0  0  0  0  0  # atno 10718 bound_to 10713
  154.8315  135.4516  154.1085 H   0  0  0  0  0  0  0  0  0  0  0  0  # atno 10763 bound_to 10752
  153.2354  135.6910  153.7849 H   0  0  0  0  0  0  0  0  0  0  0  0  # atno 10764 bound_to 10752
  153.7216  135.3341  155.3244 H   0  0  0  0  0  0  0  0  0  0  0  0  # atno 10765 bound_to 10752
  141.1351  133.6637  156.5492 H   0  0  0  0  0  0  0  0  0  0  0  0  # atno 11005 bound_to 11000
  144.8920  140.7536  143.5920 LP  0  0  0  0  0  0  0  0  0  0  0  0  # atno 17320 bound_to 7965
  145.3132  139.1812  143.4627 LP  0  0  0  0  0  0  0  0  0  0  0  0  # atno 17321 bound_to 7965
  140.6886  143.2363  151.5193 LP  0  0  0  0  0  0  0  0  0  0  0  0  # atno 17342 bound_to 10162
  139.5582  144.2223  152.1647 LP  0  0  0  0  0  0  0  0  0  0  0  0  # atno 17343 bound_to 10162
  156.9566  130.5439  149.5284 LP  0  0  0  0  0  0  0  0  0  0  0  0  # atno 17370 bound_to 10713
  156.0432  130.5512  150.8820 LP  0  0  0  0  0  0  0  0  0  0  0  0  # atno 17371 bound_to 10713
  140.4077  134.7300  157.4818 LP  0  0  0  0  0  0  0  0  0  0  0  0  # atno 17394 bound_to 11000
  140.0449  134.6213  155.8933 LP  0  0  0  0  0  0  0  0  0  0  0  0  # atno 17395 bound_to 11000

$$$$
