AV-unprocessed.smi:3056|AV-procd|sdf|11660|dock6
  -GOLD-   2272017 63D 1   1.00000     0.00000
 Structure written by MMmdl.
 47 48  0  0  0  0  0  0  0  0  1 V2000
  151.3605  144.6650  159.5799 C   0  0  0  0  0  0  0  0  0  0  0  0
  151.5359  143.3707  158.8399 C   0  0  0  0  0  0  0  0  0  0  0  0
  152.1070  142.1604  159.3235 C   0  0  0  0  0  0  0  0  0  0  0  0
  152.0970  141.1922  158.4229 N   0  0  0  0  0  0  0  0  0  0  0  0
  151.5352  141.7498  157.3257 N   0  0  0  0  0  0  0  0  0  0  0  0
  151.2963  140.9607  156.1203 C   0  0  1  0  0  0  0  0  0  0  0  0
  152.0845  139.6325  156.1227 C   0  0  0  0  0  0  0  0  0  0  0  0
  149.7766  140.8079  155.8468 C   0  0  1  0  0  0  0  0  0  0  0  0
  149.4756  140.0782  154.5246 C   0  0  0  0  0  0  0  0  0  0  0  0
  149.1282  140.1101  156.9594 N   0  0  0  0  0  0  0  0  0  0  0  0
  147.6942  139.8333  156.7593 C   0  0  0  0  0  0  0  0  0  0  0  0
  147.0629  138.8854  157.8000 C   0  0  0  0  0  0  0  0  0  0  0  0
  146.1375  139.2990  158.5009 O   0  0  0  0  0  0  0  0  0  0  0  0
  147.5439  137.6251  157.9211 N   0  0  0  0  0  0  0  0  0  0  0  0
  148.7302  137.1469  157.2078 C   0  0  0  0  0  0  0  0  0  0  0  0
  149.8283  136.8698  158.2508 C   0  0  0  0  0  0  0  0  0  0  0  0
  149.3571  135.9262  159.2123 O   0  0  0  0  0  0  0  0  0  0  0  0
  148.1724  136.3439  159.8914 C   0  0  2  0  0  0  0  0  0  0  0  0
  147.7850  135.2540  160.8964 C   0  0  0  0  0  0  0  0  0  0  0  0
  147.0649  136.5985  158.8500 C   0  0  0  0  0  0  0  0  0  0  0  0
  151.1778  143.0619  157.5584 C   0  0  0  0  0  0  0  0  0  0  0  0
  152.2286  144.8969  160.1969 H   0  0  0  0  0  0  0  0  0  0  0  0
  150.4944  144.6330  160.2411 H   0  0  0  0  0  0  0  0  0  0  0  0
  151.2160  145.5051  158.9004 H   0  0  0  0  0  0  0  0  0  0  0  0
  152.5187  141.9552  160.3005 H   0  0  0  0  0  0  0  0  0  0  0  0
  151.7057  141.5516  155.2996 H   0  0  0  0  0  0  0  0  0  0  0  0
  152.0263  139.1331  155.1562 H   0  0  0  0  0  0  0  0  0  0  0  0
  151.7143  138.9371  156.8764 H   0  0  0  0  0  0  0  0  0  0  0  0
  153.1408  139.8091  156.3274 H   0  0  0  0  0  0  0  0  0  0  0  0
  149.3754  141.8180  155.7567 H   0  0  0  0  0  0  0  0  0  0  0  0
  150.0064  140.5439  153.6942 H   0  0  0  0  0  0  0  0  0  0  0  0
  148.4138  140.1077  154.2818 H   0  0  0  0  0  0  0  0  0  0  0  0
  149.7730  139.0302  154.5629 H   0  0  0  0  0  0  0  0  0  0  0  0
  149.2780  140.6326  157.8120 H   0  0  0  0  0  0  0  0  0  0  0  0
  147.1566  140.7806  156.7398 H   0  0  0  0  0  0  0  0  0  0  0  0
  147.5697  139.3790  155.7763 H   0  0  0  0  0  0  0  0  0  0  0  0
  148.4870  136.2343  156.6618 H   0  0  0  0  0  0  0  0  0  0  0  0
  149.0970  137.8559  156.4645 H   0  0  0  0  0  0  0  0  0  0  0  0
  150.7173  136.4664  157.7662 H   0  0  0  0  0  0  0  0  0  0  0  0
  150.1274  137.7917  158.7521 H   0  0  0  0  0  0  0  0  0  0  0  0
  148.3811  137.2652  160.4387 H   0  0  0  0  0  0  0  0  0  0  0  0
  146.8846  135.5297  161.4458 H   0  0  0  0  0  0  0  0  0  0  0  0
  148.5812  135.0935  161.6235 H   0  0  0  0  0  0  0  0  0  0  0  0
  147.5944  134.3046  160.3953 H   0  0  0  0  0  0  0  0  0  0  0  0
  146.1281  136.8547  159.3417 H   0  0  0  0  0  0  0  0  0  0  0  0
  146.8570  135.6831  158.2938 H   0  0  0  0  0  0  0  0  0  0  0  0
  150.6936  143.6602  156.8008 H   0  0  0  0  0  0  0  0  0  0  0  0
  1  2  1  0  0  0  0
  1 22  1  0  0  0  0
  1 23  1  0  0  0  0
  1 24  1  0  0  0  0
  2 21  2  0  0  0  0
  2  3  1  0  0  0  0
  3  4  2  0  0  0  0
  3 25  1  0  0  0  0
  4  5  1  0  0  0  0
  5  6  1  0  0  0  0
  5 21  1  0  0  0  0
  6  7  1  0  0  0  0
  6  8  1  0  0  0  0
  6 26  1  0  0  0  0
  7 27  1  0  0  0  0
  7 28  1  0  0  0  0
  7 29  1  0  0  0  0
  8  9  1  0  0  0  0
  8 10  1  0  0  0  0
  8 30  1  0  0  0  0
  9 31  1  0  0  0  0
  9 32  1  0  0  0  0
  9 33  1  0  0  0  0
 10 11  1  0  0  0  0
 10 34  1  0  0  0  0
 11 12  1  0  0  0  0
 11 35  1  0  0  0  0
 11 36  1  0  0  0  0
 12 13  2  0  0  0  0
 12 14  1  0  0  0  0
 14 20  1  0  0  0  0
 14 15  1  0  0  0  0
 15 16  1  0  0  0  0
 15 37  1  0  0  0  0
 15 38  1  0  0  0  0
 16 17  1  0  0  0  0
 16 39  1  0  0  0  0
 16 40  1  0  0  0  0
 17 18  1  0  0  0  0
 18 19  1  0  0  0  0
 18 20  1  0  0  0  0
 18 41  1  0  0  0  0
 19 42  1  0  0  0  0
 19 43  1  0  0  0  0
 19 44  1  0  0  0  0
 20 45  1  0  0  0  0
 20 46  1  0  0  0  0
 21 47  1  0  0  0  0
M  END
> <s_m_source_file>
AV-unprocessed.smi

> <i_m_source_file_index>
3056

> <i_lp_mmshare_version>
43012

> <i_f3d_flags>
0

> <s_epik_input>
W0NIM11jMVtjSF1ubihbY0hdMSlbQ0BIXShbQ0gzXSlbQ0BIXShbQ0gzXSlbTkhdW0NIMl1DKD1PKU4yW0NIMl1bQ0gyXU9bQ0BASF0oW0NIM10pW0NIMl0y

> <s_epik_cmdline>
J2VwaWtfcHl0aG9uJywgJy1waCcsICc3LjAnLCAnLXRuJywgJzgnLCAnLW1hJywgJzIwMCcsICctbWV0YWxfYmluZGluZycsICctaW1hZScsICc8aW5maWxlLm1hZT4nLCAnLW9tYWUnLCAnPG91dGZpbGUubWFlPic=

> <r_lp_tautomer_probability>
1

> <r_epik_Ionization_Penalty>
0.667689

> <r_epik_Ionization_Penalty_Charging>
0

> <r_epik_Ionization_Penalty_Neutral>
0.667689

> <r_epik_State_Penalty>
0.684601

> <r_epik_Charging_Adjusted_Penalty>
0.684601

> <i_epik_Tot_Q>
0

> <i_epik_Tot_abs_Q>
0

> <r_epik_Metal_State_Penalty>
0.681448

> <b_epik_Metal_Only>
0

> <s_lp_Force_Field>
OPLS_2005

> <r_lp_Energy>
31.287

> <b_lp_Chiralities_Consistent>
1

> <s_lp_Variant>
AV-unprocessed.smi:3056-16

> <Gold.Version>
5.8.1

> <Gold.Id.Protein>
6NUR|6NUR_protein|mol2

> <Gold.PLP.Fitness>
38.7867

> <Gold.PLP.PLP>
-33.1124

> <Gold.PLP.part.hbond>
-2.0000

> <Gold.PLP.part.metal>
0.0000

> <Gold.PLP.part.buried>
-4.9712

> <Gold.PLP.part.nonpolar>
-26.9304

> <Gold.PLP.part.repulsive>
0.0000

> <Gold.PLP.ligand.clash>
0.0000

> <Gold.PLP.ligand.torsion>
0.2670

> <Gold.PLP.Chemscore.Hbond>
1.0000

> <Gold.PLP.Chemscore.CHOScore>
1.0000

> <Gold.PLP.Chemscore.Metal>
0.0000

> <Gold.Chemscore.Hbonds>
donor molecule, donor type, donor heavy atom, donor atom, acceptor molecule, acceptor atom, score
      P1  H  6896  6907       L1    17  1.00
      L1  C    21    47       P1  8028  1.00

> <Gold.PLP.Chemscore.Internal.Correction>
0.2083

> <Gold.Rescore>
     Score         DG    S(hbond)    S(metal)    S(lipo)     H(rot)  DE(clash)    DE(int)     intcor
     13.39     -14.75       0.99        0.00      87.61       1.68       0.03       1.34       ----

> <Gold.Chemscore.Fitness>
13.3860

> <Gold.Chemscore.DG>
-14.7480

> <Gold.Chemscore.ZeroCoef>
-5.4800

> <Gold.Chemscore.Hbond>
0.9929

> <Gold.Chemscore.Metal>
0.0000

> <Gold.Chemscore.Lipo>
87.6136

> <Gold.Chemscore.Internal_Hbond>
0.0000

> <Gold.Chemscore.DEClash>
0.0270

> <Gold.Chemscore.DEInternal>
1.3350

> <Gold.Chemscore.Rot>
1.6793

> <Gold.Chemscore.Internal.Correction>
   9.000000E+99

> <Gold.Chemscore.Hbonds>
donor molecule, donor type, donor heavy atom, donor atom, acceptor molecule, acceptor atom, score
      P1  H  6896  6907       L1    17  0.60

> <Gold.Chemscore.Hbond.Weighted>
-3.3163

> <Gold.Chemscore.Metal.Weighted>
-0.0000

> <Gold.Chemscore.Lipo.Weighted>
-10.2508

> <Gold.Chemscore.Internal_Hbond.Weighted>
0.0000

> <Gold.Chemscore.DEClash.Weighted>
0.0270

> <Gold.Chemscore.DEInternal.Weighted>
1.3350

> <Gold.Chemscore.Rot.Weighted>
4.2990

> <Gold.Chemscore.Internal.Correction.Weighted>
   9.000000E+99

> <Gold.Protein.RotatedTorsions>
[ 6907 6896 6895 6894 ] final  -50.56 input  -60.11 | X-H torsion
[ 7974 7965 7964 7962 ] final  -70.30 input  175.53 | X-H torsion
[ 8008 7997 7996 7995 ] final  138.39 input   59.86 | X-H torsion
[ 10167 10162 10161 10158 ] final -143.19 input  -65.29 | X-H torsion
[ 10718 10713 10712 10709 ] final  -66.54 input   66.30 | X-H torsion
[ 10763 10752 10751 10750 ] final  173.54 input  -60.55 | X-H torsion
[ 11005 11000 10999 10996 ] final   -3.55 input  -57.11 | X-H torsion

> <Gold.Protein.ActiveResidues>
 VAL166  LYS551  ARG553  GLY616  TRP617  ASP618  TYR619  PRO620  LYS621  CYS622 
 ASP623  PHE694  ASN695  SER759  ASP760  ASP761  ALA762  ILE779  LEU786  VAL792 
 PHE793  MET794  SER795  GLU796  ALA797  LYS798  CYS799  TRP800  GLU811  SER814 

> <Gold.Protein.RotatedAtoms>
  150.8695  134.8066  159.7143 H   0  0  0  0  0  0  0  0  0  0  0  0  # atno 6907 bound_to 6896
  152.4705  134.4969  159.9722 H   0  0  0  0  0  0  0  0  0  0  0  0  # atno 6908 bound_to 6896
  151.5060  133.3456  159.2912 H   0  0  0  0  0  0  0  0  0  0  0  0  # atno 6909 bound_to 6896
  145.6927  140.9147  143.0773 H   0  0  0  0  0  0  0  0  0  0  0  0  # atno 7974 bound_to 7965
  156.2997  140.2395  156.4065 H   0  0  0  0  0  0  0  0  0  0  0  0  # atno 8008 bound_to 7997
  154.8479  140.0425  157.1605 H   0  0  0  0  0  0  0  0  0  0  0  0  # atno 8009 bound_to 7997
  154.9030  140.2979  155.5311 H   0  0  0  0  0  0  0  0  0  0  0  0  # atno 8010 bound_to 7997
  139.8016  143.7825  152.2658 H   0  0  0  0  0  0  0  0  0  0  0  0  # atno 10167 bound_to 10162
  156.0607  130.4263  150.1724 H   0  0  0  0  0  0  0  0  0  0  0  0  # atno 10718 bound_to 10713
  154.4414  135.2762  155.1845 H   0  0  0  0  0  0  0  0  0  0  0  0  # atno 10763 bound_to 10752
  154.3709  135.6109  153.5743 H   0  0  0  0  0  0  0  0  0  0  0  0  # atno 10764 bound_to 10752
  152.9841  135.5857  154.4742 H   0  0  0  0  0  0  0  0  0  0  0  0  # atno 10765 bound_to 10752
  140.6706  133.9240  155.8492 H   0  0  0  0  0  0  0  0  0  0  0  0  # atno 11005 bound_to 11000
  144.6992  139.8843  143.7449 LP  0  0  0  0  0  0  0  0  0  0  0  0  # atno 17320 bound_to 7965
  146.0867  139.3856  143.0431 LP  0  0  0  0  0  0  0  0  0  0  0  0  # atno 17321 bound_to 7965
  139.7947  144.7397  150.9907 LP  0  0  0  0  0  0  0  0  0  0  0  0  # atno 17342 bound_to 10162
  140.7820  143.4406  151.0557 LP  0  0  0  0  0  0  0  0  0  0  0  0  # atno 17343 bound_to 10162
  156.9792  130.9859  151.3441 LP  0  0  0  0  0  0  0  0  0  0  0  0  # atno 17370 bound_to 10713
  157.5613  130.8247  149.8269 LP  0  0  0  0  0  0  0  0  0  0  0  0  # atno 17371 bound_to 10713
  141.0395  134.0642  157.3919 LP  0  0  0  0  0  0  0  0  0  0  0  0  # atno 17394 bound_to 11000
  139.8983  135.0154  156.7141 LP  0  0  0  0  0  0  0  0  0  0  0  0  # atno 17395 bound_to 11000

$$$$
