#       Name:                AV-unprocessed.smi:2091
#       Creating user name   scv26
#       Creation time:       Fri Mar 27 11:26:09 2020


#       File generated by GOLD software.
#

@<TRIPOS>MOLECULE
AV-unprocessed.smi:2091
    44    45     1
SMALL
NO_CHARGES


@<TRIPOS>ATOM
      1 ****         0.2391   1.3613   0.7913 O.2            1 S1                 0.0000
      2 ****         0.8064   0.7215  -0.0953 C.2            1 S1                 0.0000
      3 ****         2.3201   0.8560  -0.3114 C.3            1 S1                 0.0000
      4 ****         3.0428   1.1947   0.9230 N.am           1 S1                 0.0000
      5 ****         3.4187   2.5057   1.1786 C.2            1 S1                 0.0000
      6 ****         4.0746   2.8877   2.2999 C.2            1 S1                 0.0000
      7 ****         4.4257   1.9066   3.3210 C.2            1 S1                 0.0000
      8 ****         5.0199   2.1543   4.3678 O.2            1 S1                 0.0000
      9 ****         4.0282   0.5994   3.0284 N.am           1 S1                 0.0000
     10 ****         3.3507   0.1991   1.8758 C.2            1 S1                 0.0000
     11 ****         3.0431  -0.9817   1.7179 O.2            1 S1                 0.0000
     12 ****         0.1605  -0.1076  -0.9309 N.am           1 S1                 0.0000
     13 ****        -1.2722  -0.4086  -0.8898 C.3            1 S1                 0.0000
     14 ****        -1.6919  -0.8802  -2.3009 C.3            1 S1                 0.0000
     15 ****        -3.1963  -0.7253  -2.5853 C.3            1 S1                 0.0000
     16 ****        -4.1158  -1.5969  -1.7161 C.3            1 S1                 0.0000
     17 ****        -4.0327  -1.2769  -0.2138 C.3            1 S1                 0.0000
     18 ****        -2.8419  -1.8473   0.4022 N.am           1 S1                 0.0000
     19 ****        -1.5659  -1.5337   0.1308 C.2            1 S1                 0.0000
     20 ****        -0.6468  -2.1379   0.6834 O.2            1 S1                 0.0000
     21 ****         4.2465  -0.1145   3.7080 H              1 S1                 0.0000
     22 ****         2.7205  -0.0665  -0.7374 H              1 S1                 0.0000
     23 ****         2.4863   1.6201  -1.0719 H              1 S1                 0.0000
     24 ****         3.1752   3.2676   0.4518 H              1 S1                 0.0000
     25 ****         4.3399   3.9252   2.4428 H              1 S1                 0.0000
     26 ****         0.7057  -0.5939  -1.6275 H              1 S1                 0.0000
     27 ****        -1.8183   0.4967  -0.6182 H              1 S1                 0.0000
     28 ****        -1.1645  -0.2827  -3.0464 H              1 S1                 0.0000
     29 ****        -1.3775  -1.9103  -2.4792 H              1 S1                 0.0000
     30 ****        -3.4790   0.3221  -2.4734 H              1 S1                 0.0000
     31 ****        -3.3778  -0.9699  -3.6323 H              1 S1                 0.0000
     32 ****        -5.1428  -1.4379  -2.0461 H              1 S1                 0.0000
     33 ****        -3.9079  -2.6541  -1.8883 H              1 S1                 0.0000
     34 ****        -4.0805  -0.2020  -0.0342 H              1 S1                 0.0000
     35 ****        -4.8948  -1.7106   0.2934 H              1 S1                 0.0000
     36 ****        -2.9988  -2.5786   1.0806 H              1 S1                 0.0000
     37 ****         0.7652   1.9759   1.3791 LP             1 S1                 0.0000
     38 ****        -0.7475   1.2661   0.9234 LP             1 S1                 0.0000
     39 ****         5.3023   3.0914   4.5728 LP             1 S1                 0.0000
     40 ****         5.2211   1.4187   5.0147 LP             1 S1                 0.0000
     41 ****         2.5572  -1.2656   0.8913 LP             1 S1                 0.0000
     42 ****         3.2791  -1.6576   2.4162 LP             1 S1                 0.0000
     43 ****         0.3026  -1.9035   0.4745 LP             1 S1                 0.0000
     44 ****        -0.8495  -2.8632   1.3413 LP             1 S1                 0.0000
@<TRIPOS>BOND
    1    1    2 2     
    2    2    3 1     
    3    2   12 am    
    4    3    4 1     
    5    3   22 1     
    6    3   23 1     
    7    4   10 1     
    8    4    5 1     
    9    5    6 2     
   10    5   24 1     
   11    6    7 1     
   12    6   25 1     
   13    7    8 2     
   14    7    9 1     
   15    9   21 1     
   16    9   10 1     
   17   10   11 2     
   18   12   13 1     
   19   12   26 1     
   20   13   19 1     
   21   13   14 1     
   22   13   27 1     
   23   14   15 1     
   24   14   28 1     
   25   14   29 1     
   26   15   16 1     
   27   15   30 1     
   28   15   31 1     
   29   16   17 1     
   30   16   32 1     
   31   16   33 1     
   32   17   18 1     
   33   17   34 1     
   34   17   35 1     
   35   18   19 am    
   36   18   36 1     
   37   19   20 2     
   38    1   37 1     
   39    1   38 1     
   40    8   39 1     
   41    8   40 1     
   42   11   41 1     
   43   11   42 1     
   44   20   43 1     
   45   20   44 1     
@<TRIPOS>SUBSTRUCTURE
      1 S1             1
@<TRIPOS>SET
LONE_PAIRS      STATIC     ATOMS    <user>   **** ""
8 37 38 39 40 41 42 43 44
DONOR_HYDROGENS      STATIC     ATOMS    <user>   **** ""
3 21 26 36
ATOM$BLUE        STATIC     ATOMS    COLORGROUP SYSTEM
8 37 38 39 40 41 42 43 44
ATOM$RED        STATIC     ATOMS    COLORGROUP SYSTEM
3 21 26 36
