#       Name:                AV-unprocessed.smi:1669
#       Creating user name   scv26
#       Creation time:       Fri Mar 27 07:40:57 2020


#       File generated by GOLD software.
#

@<TRIPOS>MOLECULE
AV-unprocessed.smi:1669
    53    55     1
SMALL
NO_CHARGES


@<TRIPOS>ATOM
      1 ****        -3.3716   0.2929  -1.8141 C.3            1 S1                 0.0000
      2 ****        -2.0032   0.4006  -1.2558 N.4            1 S1                 1.0000
      3 ****        -1.1832   1.4309  -1.9438 C.3            1 S1                 0.0000
      4 ****        -1.6167   2.8380  -1.5746 C.ar           1 S1                 0.0000
      5 ****        -1.2362   3.3872  -0.3317 C.ar           1 S1                 0.0000
      6 ****        -1.6347   4.6922   0.0170 C.ar           1 S1                 0.0000
      7 ****        -2.4138   5.4533  -0.8760 C.ar           1 S1                 0.0000
      8 ****        -2.7939   4.9093  -2.1183 C.ar           1 S1                 0.0000
      9 ****        -2.3955   3.6044  -2.4679 C.ar           1 S1                 0.0000
     10 ****        -1.3287  -0.9199  -1.1746 C.3            1 S1                 0.0000
     11 ****        -0.3076  -0.9828  -0.0216 C.3            1 S1                 0.0000
     12 ****        -1.0044  -0.8789   1.2049 O.3            1 S1                 0.0000
     13 ****         0.4999  -2.2951  -0.0458 C.3            1 S1                 0.0000
     14 ****         1.4673  -2.3751   1.0411 N.pl3          1 S1                 0.0000
     15 ****         1.4005  -3.1035   2.1850 C.2            1 S1                 0.0000
     16 ****         0.2367  -3.9911   2.5051 C.3            1 S1                 0.0000
     17 ****         0.2807  -5.2174   1.8078 O.3            1 S1                 0.0000
     18 ****         2.4400  -2.9810   3.0108 N.2            1 S1                 0.0000
     19 ****         3.2612  -2.0963   2.3397 C.ar           1 S1                 0.0000
     20 ****         4.5210  -1.5623   2.6928 C.ar           1 S1                 0.0000
     21 ****         5.1800  -0.6595   1.8327 C.ar           1 S1                 0.0000
     22 ****         4.5908  -0.2792   0.6094 C.ar           1 S1                 0.0000
     23 ****         3.3362  -0.7997   0.2382 C.ar           1 S1                 0.0000
     24 ****         2.6820  -1.6992   1.1014 C.ar           1 S1                 0.0000
     25 ****        -3.3457  -0.0581  -2.8466 H              1 S1                 0.0000
     26 ****        -3.8865   1.2532  -1.7918 H              1 S1                 0.0000
     27 ****        -3.9719  -0.4062  -1.2309 H              1 S1                 0.0000
     28 ****        -0.1322   1.3322  -1.6725 H              1 S1                 0.0000
     29 ****        -1.2300   1.2871  -3.0245 H              1 S1                 0.0000
     30 ****        -0.6388   2.8086   0.3581 H              1 S1                 0.0000
     31 ****        -1.3429   5.1103   0.9693 H              1 S1                 0.0000
     32 ****        -2.7188   6.4545  -0.6086 H              1 S1                 0.0000
     33 ****        -3.3908   5.4939  -2.8031 H              1 S1                 0.0000
     34 ****        -2.6917   3.1943  -3.4225 H              1 S1                 0.0000
     35 ****        -2.0668  -1.7098  -1.0239 H              1 S1                 0.0000
     36 ****        -0.8471  -1.1357  -2.1297 H              1 S1                 0.0000
     37 ****         0.3865  -0.1452  -0.0828 H              1 S1                 0.0000
     38 ****        -0.3756  -0.9008   1.9110 H              1 S1                 0.0000
     39 ****        -0.1665  -3.1568  -0.0123 H              1 S1                 0.0000
     40 ****         1.0467  -2.3753  -0.9862 H              1 S1                 0.0000
     41 ****         0.2284  -4.2016   3.5753 H              1 S1                 0.0000
     42 ****        -0.6975  -3.4762   2.2817 H              1 S1                 0.0000
     43 ****         0.2386  -5.0386   0.8812 H              1 S1                 0.0000
     44 ****         4.9814  -1.8481   3.6270 H              1 S1                 0.0000
     45 ****         6.1429  -0.2577   2.1125 H              1 S1                 0.0000
     46 ****         5.1037   0.4117  -0.0436 H              1 S1                 0.0000
     47 ****         2.8836  -0.5106  -0.6984 H              1 S1                 0.0000
     48 ****        -2.1137   0.7078  -0.2994 H              1 S1                 0.0000
     49 ****        -1.6413  -1.6444   1.2967 LP             1 S1                 0.0000
     50 ****        -1.5122  -0.0178   1.2322 LP             1 S1                 0.0000
     51 ****        -0.4966  -5.7861   2.0769 LP             1 S1                 0.0000
     52 ****         1.1329  -5.6955   2.0203 LP             1 S1                 0.0000
     53 ****         2.5883  -3.4207   3.8966 LP             1 S1                 0.0000
@<TRIPOS>BOND
    1    1    2 1     
    2    1   25 1     
    3    1   26 1     
    4    1   27 1     
    5    2    3 1     
    6    2   10 1     
    7    2   48 1     
    8    3    4 1     
    9    3   28 1     
   10    3   29 1     
   11    4    9 ar    
   12    4    5 ar    
   13    5    6 ar    
   14    5   30 1     
   15    6    7 ar    
   16    6   31 1     
   17    7    8 ar    
   18    7   32 1     
   19    8    9 ar    
   20    8   33 1     
   21    9   34 1     
   22   10   11 1     
   23   10   35 1     
   24   10   36 1     
   25   11   12 1     
   26   11   13 1     
   27   11   37 1     
   28   12   38 1     
   29   13   14 1     
   30   13   39 1     
   31   13   40 1     
   32   14   24 1     
   33   14   15 1     
   34   15   16 1     
   35   15   18 2     
   36   16   17 1     
   37   16   41 1     
   38   16   42 1     
   39   17   43 1     
   40   18   19 1     
   41   19   24 ar    
   42   19   20 ar    
   43   20   21 ar    
   44   20   44 1     
   45   21   22 ar    
   46   21   45 1     
   47   22   23 ar    
   48   22   46 1     
   49   23   24 ar    
   50   23   47 1     
   51   12   49 1     
   52   12   50 1     
   53   17   51 1     
   54   17   52 1     
   55   18   53 1     
@<TRIPOS>SUBSTRUCTURE
      1 S1             1
@<TRIPOS>SET
LONE_PAIRS      STATIC     ATOMS    <user>   **** ""
5 49 50 51 52 53
DONOR_HYDROGENS      STATIC     ATOMS    <user>   **** ""
3 48 38 43
ATOM$BLUE        STATIC     ATOMS    COLORGROUP SYSTEM
5 49 50 51 52 53
ATOM$RED        STATIC     ATOMS    COLORGROUP SYSTEM
3 48 38 43
