AV-unprocessed.smi:2166|AV-procd|sdf|8815|dock6
  -GOLD-   2272012 03D 1   1.00000     0.00000
 Structure written by MMmdl.
 38 39  0  0  0  0  0  0  0  0  1 V2000
  155.6724  131.6016  161.7058 C   0  0  0  0  0  0  0  0  0  0  0  0
  154.9190  132.8945  160.6805 S   0  0  0  0  0  0  0  0  0  0  0  0
  155.3787  134.3893  161.6081 C   0  0  1  0  0  0  0  0  0  0  0  0
  156.9082  134.4962  161.7189 C   0  0  0  0  0  0  0  0  0  0  0  0
  154.7722  135.6554  160.9883 C   0  0  0  0  0  0  0  0  0  0  0  0
  154.1330  135.5778  159.9384 O   0  0  0  0  0  0  0  0  0  0  0  0
  154.9861  136.7977  161.6686 N   0  0  0  0  0  0  0  0  0  0  0  0
  154.5244  138.1050  161.3635 C   0  0  0  0  0  0  0  0  0  0  0  0
  154.9181  139.1062  162.2761 C   0  0  0  0  0  0  0  0  0  0  0  0
  154.5019  140.4348  162.0689 C   0  0  0  0  0  0  0  0  0  0  0  0
  153.6950  140.7489  160.9527 C   0  0  0  0  0  0  0  0  0  0  0  0
  153.2622  142.0742  160.7310 N   0  0  0  0  0  0  0  0  0  0  0  0
  152.8123  142.4373  159.3901 C   0  0  0  0  0  0  0  0  0  0  0  0
  152.6684  143.9641  159.2682 C   0  0  0  0  0  0  0  0  0  0  0  0
  151.8005  144.4468  160.2881 O   0  0  0  0  0  0  0  0  0  0  0  0
  152.3143  144.1805  161.5890 C   0  0  0  0  0  0  0  0  0  0  0  0
  152.4520  142.6618  161.7954 C   0  0  0  0  0  0  0  0  0  0  0  0
  153.3614  139.6770  160.0893 C   0  0  0  0  0  0  0  0  0  0  0  0
  153.7582  138.4023  160.2871 N   0  0  0  0  0  0  0  0  0  0  0  0
  155.5213  130.6254  161.2455 H   0  0  0  0  0  0  0  0  0  0  0  0
  155.2232  131.5829  162.6985 H   0  0  0  0  0  0  0  0  0  0  0  0
  156.7439  131.7723  161.8096 H   0  0  0  0  0  0  0  0  0  0  0  0
  154.9872  134.2739  162.6201 H   0  0  0  0  0  0  0  0  0  0  0  0
  157.2062  135.3953  162.2597 H   0  0  0  0  0  0  0  0  0  0  0  0
  157.3822  134.5234  160.7368 H   0  0  0  0  0  0  0  0  0  0  0  0
  157.3182  133.6410  162.2573 H   0  0  0  0  0  0  0  0  0  0  0  0
  155.5295  136.7160  162.5152 H   0  0  0  0  0  0  0  0  0  0  0  0
  155.5338  138.8639  163.1301 H   0  0  0  0  0  0  0  0  0  0  0  0
  154.8165  141.1995  162.7634 H   0  0  0  0  0  0  0  0  0  0  0  0
  153.5239  142.0818  158.6440 H   0  0  0  0  0  0  0  0  0  0  0  0
  151.8534  141.9578  159.1871 H   0  0  0  0  0  0  0  0  0  0  0  0
  153.6410  144.4540  159.3406 H   0  0  0  0  0  0  0  0  0  0  0  0
  152.2525  144.2250  158.2950 H   0  0  0  0  0  0  0  0  0  0  0  0
  153.2759  144.6792  161.7211 H   0  0  0  0  0  0  0  0  0  0  0  0
  151.6346  144.5995  162.3312 H   0  0  0  0  0  0  0  0  0  0  0  0
  151.4663  142.1944  161.7849 H   0  0  0  0  0  0  0  0  0  0  0  0
  152.8801  142.4753  162.7793 H   0  0  0  0  0  0  0  0  0  0  0  0
  152.7452  139.8222  159.2148 H   0  0  0  0  0  0  0  0  0  0  0  0
  1  2  1  0  0  0  0
  1 20  1  0  0  0  0
  1 21  1  0  0  0  0
  1 22  1  0  0  0  0
  2  3  1  0  0  0  0
  3  4  1  0  0  0  0
  3  5  1  0  0  0  0
  3 23  1  0  0  0  0
  4 24  1  0  0  0  0
  4 25  1  0  0  0  0
  4 26  1  0  0  0  0
  5  6  2  0  0  0  0
  5  7  1  0  0  0  0
  7  8  1  0  0  0  0
  7 27  1  0  0  0  0
  8 19  1  0  0  0  0
  8  9  2  0  0  0  0
  9 10  1  0  0  0  0
  9 28  1  0  0  0  0
 10 11  2  0  0  0  0
 10 29  1  0  0  0  0
 11 12  1  0  0  0  0
 11 18  1  0  0  0  0
 12 17  1  0  0  0  0
 12 13  1  0  0  0  0
 13 14  1  0  0  0  0
 13 30  1  0  0  0  0
 13 31  1  0  0  0  0
 14 15  1  0  0  0  0
 14 32  1  0  0  0  0
 14 33  1  0  0  0  0
 15 16  1  0  0  0  0
 16 17  1  0  0  0  0
 16 34  1  0  0  0  0
 16 35  1  0  0  0  0
 17 36  1  0  0  0  0
 17 37  1  0  0  0  0
 18 19  2  0  0  0  0
 18 38  1  0  0  0  0
M  END
> <s_m_source_file>
AV-unprocessed.smi

> <i_m_source_file_index>
2166

> <i_lp_mmshare_version>
43012

> <i_f3d_flags>
0

> <s_epik_input>
W0NIM11TW0NASF0oW0NIM10pQyg9TylbTkhdYzFbY0hdW2NIXWMoW2NIXW4xKU4yW0NIMl1bQ0gyXU9bQ0gyXVtDSDJdMg==

> <s_epik_cmdline>
J2VwaWtfcHl0aG9uJywgJy1waCcsICc3LjAnLCAnLXRuJywgJzgnLCAnLW1hJywgJzIwMCcsICctbWV0YWxfYmluZGluZycsICctaW1hZScsICc8aW5maWxlLm1hZT4nLCAnLW9tYWUnLCAnPG91dGZpbGUubWFlPic=

> <r_lp_tautomer_probability>
1

> <r_epik_Ionization_Penalty>
0.0038652

> <r_epik_Ionization_Penalty_Charging>
0

> <r_epik_Ionization_Penalty_Neutral>
0.0038652

> <r_epik_State_Penalty>
0.00681294

> <r_epik_Charging_Adjusted_Penalty>
0.00681294

> <i_epik_Tot_Q>
0

> <i_epik_Tot_abs_Q>
0

> <r_epik_Metal_State_Penalty>
-0

> <b_epik_Metal_Only>
0

> <s_lp_Force_Field>
OPLS_2005

> <r_lp_Energy>
24.7489

> <b_lp_Chiralities_Consistent>
1

> <s_lp_Variant>
AV-unprocessed.smi:2166-2

> <Gold.Version>
5.8.1

> <Gold.Id.Protein>
6NUR|6NUR_protein|mol2

> <Gold.PLP.Fitness>
34.7788

> <Gold.PLP.PLP>
-31.9796

> <Gold.PLP.part.hbond>
-1.0000

> <Gold.PLP.part.metal>
0.0000

> <Gold.PLP.part.buried>
-5.1161

> <Gold.PLP.part.nonpolar>
-26.0835

> <Gold.PLP.part.repulsive>
0.0985

> <Gold.PLP.ligand.clash>
0.0000

> <Gold.PLP.ligand.torsion>
0.2877

> <Gold.PLP.Chemscore.Hbond>
1.0000

> <Gold.PLP.Chemscore.CHOScore>
0.0000

> <Gold.PLP.Chemscore.Metal>
0.0000

> <Gold.Chemscore.Hbonds>
donor molecule, donor type, donor heavy atom, donor atom, acceptor molecule, acceptor atom, score
      P1  H  6896  6908       L1     6  1.00

> <Gold.PLP.Chemscore.Internal.Correction>
0.3746

> <Gold.Rescore>
     Score         DG    S(hbond)    S(metal)    S(lipo)     H(rot)  DE(clash)    DE(int)     intcor
     15.02     -16.62       1.00        0.00      95.44       1.31       0.02       1.58       ----

> <Gold.Chemscore.Fitness>
15.0217

> <Gold.Chemscore.DG>
-16.6169

> <Gold.Chemscore.ZeroCoef>
-5.4800

> <Gold.Chemscore.Hbond>
0.9955

> <Gold.Chemscore.Metal>
0.0000

> <Gold.Chemscore.Lipo>
95.4442

> <Gold.Chemscore.Internal_Hbond>
0.0000

> <Gold.Chemscore.DEClash>
0.0166

> <Gold.Chemscore.DEInternal>
1.5787

> <Gold.Chemscore.Rot>
1.3105

> <Gold.Chemscore.Internal.Correction>
   9.000000E+99

> <Gold.Chemscore.Hbonds>
donor molecule, donor type, donor heavy atom, donor atom, acceptor molecule, acceptor atom, score
      P1  H  6896  6908       L1     6  0.94

> <Gold.Chemscore.Hbond.Weighted>
-3.3249

> <Gold.Chemscore.Metal.Weighted>
-0.0000

> <Gold.Chemscore.Lipo.Weighted>
-11.1670

> <Gold.Chemscore.Internal_Hbond.Weighted>
0.0000

> <Gold.Chemscore.DEClash.Weighted>
0.0166

> <Gold.Chemscore.DEInternal.Weighted>
1.5787

> <Gold.Chemscore.Rot.Weighted>
3.3549

> <Gold.Chemscore.Internal.Correction.Weighted>
   9.000000E+99

> <Gold.Protein.RotatedTorsions>
[ 6907 6896 6895 6894 ] final  -56.47 input  -60.11 | X-H torsion
[ 7974 7965 7964 7962 ] final -126.30 input  175.53 | X-H torsion
[ 8008 7997 7996 7995 ] final  123.46 input   59.86 | X-H torsion
[ 10167 10162 10161 10158 ] final -173.26 input  -65.29 | X-H torsion
[ 10718 10713 10712 10709 ] final  106.00 input   66.30 | X-H torsion
[ 10763 10752 10751 10750 ] final  -71.88 input  -60.55 | X-H torsion
[ 11005 11000 10999 10996 ] final  -82.49 input  -57.11 | X-H torsion

> <Gold.Protein.ActiveResidues>
 VAL166  LYS551  ARG553  GLY616  TRP617  ASP618  TYR619  PRO620  LYS621  CYS622 
 ASP623  PHE694  ASN695  SER759  ASP760  ASP761  ALA762  ILE779  LEU786  VAL792 
 PHE793  MET794  SER795  GLU796  ALA797  LYS798  CYS799  TRP800  GLU811  SER814 

> <Gold.Protein.RotatedAtoms>
  150.8165  134.7350  159.6734 H   0  0  0  0  0  0  0  0  0  0  0  0  # atno 6907 bound_to 6896
  152.4283  134.5822  159.9961 H   0  0  0  0  0  0  0  0  0  0  0  0  # atno 6908 bound_to 6896
  151.6018  133.3318  159.3085 H   0  0  0  0  0  0  0  0  0  0  0  0  # atno 6909 bound_to 6896
  144.9887  140.7711  143.4567 H   0  0  0  0  0  0  0  0  0  0  0  0  # atno 7974 bound_to 7965
  156.2766  140.2762  156.1631 H   0  0  0  0  0  0  0  0  0  0  0  0  # atno 8008 bound_to 7997
  155.0733  140.0387  157.2633 H   0  0  0  0  0  0  0  0  0  0  0  0  # atno 8009 bound_to 7997
  154.7022  140.2651  155.6714 H   0  0  0  0  0  0  0  0  0  0  0  0  # atno 8010 bound_to 7997
  139.5698  144.1668  152.1367 H   0  0  0  0  0  0  0  0  0  0  0  0  # atno 10167 bound_to 10162
  157.6685  131.0841  150.5941 H   0  0  0  0  0  0  0  0  0  0  0  0  # atno 10718 bound_to 10713
  154.4380  135.5948  153.6111 H   0  0  0  0  0  0  0  0  0  0  0  0  # atno 10763 bound_to 10752
  152.9803  135.5991  154.3757 H   0  0  0  0  0  0  0  0  0  0  0  0  # atno 10764 bound_to 10752
  154.3604  135.2841  155.2302 H   0  0  0  0  0  0  0  0  0  0  0  0  # atno 10765 bound_to 10752
  141.1663  133.7247  156.8580 H   0  0  0  0  0  0  0  0  0  0  0  0  # atno 11005 bound_to 11000
  145.2316  139.2112  143.5039 LP  0  0  0  0  0  0  0  0  0  0  0  0  # atno 17320 bound_to 7965
  146.3426  140.2195  142.8591 LP  0  0  0  0  0  0  0  0  0  0  0  0  # atno 17321 bound_to 7965
  140.1199  144.5382  150.6870 LP  0  0  0  0  0  0  0  0  0  0  0  0  # atno 17342 bound_to 10162
  140.6982  143.2417  151.4939 LP  0  0  0  0  0  0  0  0  0  0  0  0  # atno 17343 bound_to 10162
  156.6241  130.4414  149.5811 LP  0  0  0  0  0  0  0  0  0  0  0  0  # atno 17370 bound_to 10713
  156.2332  130.6807  151.1484 LP  0  0  0  0  0  0  0  0  0  0  0  0  # atno 17371 bound_to 10713
  140.1869  134.8993  157.3014 LP  0  0  0  0  0  0  0  0  0  0  0  0  # atno 17394 bound_to 11000
  140.2333  134.3883  155.7512 LP  0  0  0  0  0  0  0  0  0  0  0  0  # atno 17395 bound_to 11000

$$$$
