AV-unprocessed.smi:408|AV-procd|sdf|2503|dock5
  -GOLD-   2262022453D 1   1.00000     0.00000
 Structure written by MMmdl.
 41 42  0  0  0  0  0  0  0  0  1 V2000
  143.9464  145.9476  153.9044 C   0  0  0  0  0  0  0  0  0  0  0  0
  144.2086  144.6698  154.7190 C   0  0  0  0  0  0  0  0  0  0  0  0
  144.4448  145.0168  156.1969 C   0  0  0  0  0  0  0  0  0  0  0  0
  145.3844  143.8428  154.1599 C   0  0  0  0  0  0  0  0  0  0  0  0
  145.6973  142.5677  154.9656 C   0  0  0  0  0  0  0  0  0  0  0  0
  146.6978  141.7449  154.2954 N   0  0  0  0  0  0  0  0  0  0  0  0
  147.1986  140.5953  154.7743 C   0  0  0  0  0  0  0  0  0  0  0  0
  146.8494  140.1063  155.8499 O   0  0  0  0  0  0  0  0  0  0  0  0
  148.2644  139.9090  153.9118 C   0  0  0  0  0  0  0  0  0  0  0  0
  149.5651  139.7755  154.6522 C   0  0  0  0  0  0  0  0  0  0  0  0
  150.6963  139.1223  154.2264 C   0  0  0  0  0  0  0  0  0  0  0  0
  151.9835  139.2119  155.3990 S   0  0  0  0  0  0  0  0  0  0  0  0
  150.9150  140.1308  156.4481 C   0  0  0  0  0  0  0  0  0  0  0  0
  151.3385  140.6003  157.7213 N   0  0  0  0  0  0  0  0  0  0  0  0
  152.4001  140.2496  158.4768 C   0  0  0  0  0  0  0  0  0  0  0  0
  153.1922  139.4014  158.0697 O   0  0  0  0  0  0  0  0  0  0  0  0
  152.6017  140.9215  159.7980 C   0  0  0  0  0  0  0  0  0  0  0  0
  152.6895  142.4362  159.8043 C   0  0  0  0  0  0  0  0  0  0  0  0
  153.9288  141.6135  160.0372 C   0  0  0  0  0  0  0  0  0  0  0  0
  149.7137  140.3659  155.9110 N   0  0  0  0  0  0  0  0  0  0  0  0
  144.8309  146.5842  153.8698 H   0  0  0  0  0  0  0  0  0  0  0  0
  143.1358  146.5310  154.3420 H   0  0  0  0  0  0  0  0  0  0  0  0
  143.6577  145.7191  152.8789 H   0  0  0  0  0  0  0  0  0  0  0  0
  143.3098  144.0532  154.6726 H   0  0  0  0  0  0  0  0  0  0  0  0
  145.3384  145.6292  156.3225 H   0  0  0  0  0  0  0  0  0  0  0  0
  144.5716  144.1160  156.7981 H   0  0  0  0  0  0  0  0  0  0  0  0
  143.6015  145.5698  156.6119 H   0  0  0  0  0  0  0  0  0  0  0  0
  145.1880  143.5810  153.1192 H   0  0  0  0  0  0  0  0  0  0  0  0
  146.2753  144.4722  154.1473 H   0  0  0  0  0  0  0  0  0  0  0  0
  146.0344  142.8215  155.9721 H   0  0  0  0  0  0  0  0  0  0  0  0
  144.8003  141.9604  155.0816 H   0  0  0  0  0  0  0  0  0  0  0  0
  147.0408  142.0790  153.4063 H   0  0  0  0  0  0  0  0  0  0  0  0
  147.9085  138.9268  153.5969 H   0  0  0  0  0  0  0  0  0  0  0  0
  148.3989  140.4936  153.0011 H   0  0  0  0  0  0  0  0  0  0  0  0
  150.8490  138.5942  153.2970 H   0  0  0  0  0  0  0  0  0  0  0  0
  150.7731  141.3439  158.1045 H   0  0  0  0  0  0  0  0  0  0  0  0
  152.0794  140.4826  160.6459 H   0  0  0  0  0  0  0  0  0  0  0  0
  152.6201  142.9707  158.8585 H   0  0  0  0  0  0  0  0  0  0  0  0
  152.2535  142.9525  160.6570 H   0  0  0  0  0  0  0  0  0  0  0  0
  154.3336  141.5628  161.0459 H   0  0  0  0  0  0  0  0  0  0  0  0
  154.6712  141.5878  159.2412 H   0  0  0  0  0  0  0  0  0  0  0  0
  1  2  1  0  0  0  0
  1 21  1  0  0  0  0
  1 22  1  0  0  0  0
  1 23  1  0  0  0  0
  2  3  1  0  0  0  0
  2  4  1  0  0  0  0
  2 24  1  0  0  0  0
  3 25  1  0  0  0  0
  3 26  1  0  0  0  0
  3 27  1  0  0  0  0
  4  5  1  0  0  0  0
  4 28  1  0  0  0  0
  4 29  1  0  0  0  0
  5  6  1  0  0  0  0
  5 30  1  0  0  0  0
  5 31  1  0  0  0  0
  6  7  1  0  0  0  0
  6 32  1  0  0  0  0
  7  8  2  0  0  0  0
  7  9  1  0  0  0  0
  9 10  1  0  0  0  0
  9 33  1  0  0  0  0
  9 34  1  0  0  0  0
 10 20  1  0  0  0  0
 10 11  2  0  0  0  0
 11 12  1  0  0  0  0
 11 35  1  0  0  0  0
 12 13  1  0  0  0  0
 13 14  1  0  0  0  0
 13 20  2  0  0  0  0
 14 15  1  0  0  0  0
 14 36  1  0  0  0  0
 15 16  2  0  0  0  0
 15 17  1  0  0  0  0
 17 19  1  0  0  0  0
 17 18  1  0  0  0  0
 17 37  1  0  0  0  0
 18 19  1  0  0  0  0
 18 38  1  0  0  0  0
 18 39  1  0  0  0  0
 19 40  1  0  0  0  0
 19 41  1  0  0  0  0
M  END
> <s_m_source_file>
AV-unprocessed.smi

> <i_m_source_file_index>
408

> <i_lp_mmshare_version>
43012

> <i_f3d_flags>
0

> <s_epik_input>
W0NIM11bQ0hdKFtDSDNdKVtDSDJdW0NIMl1bTkhdQyg9TylbQ0gyXWMxW2NIXXNjKG4xKVtOSF1DKD1PKVtDSF0yW0NIMl1bQ0gyXTI=

> <s_epik_cmdline>
J2VwaWtfcHl0aG9uJywgJy1waCcsICc3LjAnLCAnLXRuJywgJzgnLCAnLW1hJywgJzIwMCcsICctbWV0YWxfYmluZGluZycsICctaW1hZScsICc8aW5maWxlLm1hZT4nLCAnLW9tYWUnLCAnPG91dGZpbGUubWFlPic=

> <r_lp_tautomer_probability>
1

> <r_epik_Ionization_Penalty>
0.000153743

> <r_epik_Ionization_Penalty_Charging>
0

> <r_epik_Ionization_Penalty_Neutral>
0.000153743

> <r_epik_State_Penalty>
-0

> <r_epik_Charging_Adjusted_Penalty>
0

> <i_epik_Tot_Q>
0

> <i_epik_Tot_abs_Q>
0

> <r_epik_Metal_State_Penalty>
0.0946566

> <b_epik_Metal_Only>
0

> <s_lp_Force_Field>
OPLS_2005

> <r_lp_Energy>
15.0159

> <b_lp_Chiralities_Consistent>
1

> <s_lp_Variant>
AV-unprocessed.smi:408-1

> <Gold.Version>
5.8.1

> <Gold.Id.Protein>
6NUR|6NUR_protein|mol2

> <Gold.PLP.Fitness>
40.6967

> <Gold.PLP.PLP>
-37.1245

> <Gold.PLP.part.hbond>
-1.0000

> <Gold.PLP.part.metal>
0.0000

> <Gold.PLP.part.buried>
-1.5144

> <Gold.PLP.part.nonpolar>
-32.8263

> <Gold.PLP.part.repulsive>
0.1867

> <Gold.PLP.ligand.clash>
0.0000

> <Gold.PLP.ligand.torsion>
0.1385

> <Gold.PLP.Chemscore.Hbond>
1.0000

> <Gold.PLP.Chemscore.CHOScore>
0.2474

> <Gold.PLP.Chemscore.Metal>
0.0000

> <Gold.Chemscore.Hbonds>
donor molecule, donor type, donor heavy atom, donor atom, acceptor molecule, acceptor atom, score
      P1  H  7997  8009       L1    16  1.00
      L1  C    11    35       P1  7957  0.14

> <Gold.PLP.Chemscore.Internal.Correction>
0.1070

> <Gold.Rescore>
     Score         DG    S(hbond)    S(metal)    S(lipo)     H(rot)  DE(clash)    DE(int)     intcor
     11.10     -14.08       0.98        0.00      88.96       1.99       0.39       2.59       ----

> <Gold.Chemscore.Fitness>
11.0971

> <Gold.Chemscore.DG>
-14.0776

> <Gold.Chemscore.ZeroCoef>
-5.4800

> <Gold.Chemscore.Hbond>
0.9832

> <Gold.Chemscore.Metal>
0.0000

> <Gold.Chemscore.Lipo>
88.9562

> <Gold.Chemscore.Internal_Hbond>
0.0000

> <Gold.Chemscore.DEClash>
0.3879

> <Gold.Chemscore.DEInternal>
2.5926

> <Gold.Chemscore.Rot>
1.9899

> <Gold.Chemscore.Internal.Correction>
   9.000000E+99

> <Gold.Chemscore.Hbonds>
donor molecule, donor type, donor heavy atom, donor atom, acceptor molecule, acceptor atom, score
      P1  H  7997  8009       L1    16  0.82

> <Gold.Chemscore.Hbond.Weighted>
-3.2838

> <Gold.Chemscore.Metal.Weighted>
-0.0000

> <Gold.Chemscore.Lipo.Weighted>
-10.4079

> <Gold.Chemscore.Internal_Hbond.Weighted>
0.0000

> <Gold.Chemscore.DEClash.Weighted>
0.3879

> <Gold.Chemscore.DEInternal.Weighted>
2.5926

> <Gold.Chemscore.Rot.Weighted>
5.0941

> <Gold.Chemscore.Internal.Correction.Weighted>
   9.000000E+99

> <Gold.Protein.RotatedTorsions>
[ 6907 6896 6895 6894 ] final -109.71 input  -60.11 | X-H torsion
[ 7974 7965 7964 7962 ] final   68.45 input  175.53 | X-H torsion
[ 8008 7997 7996 7995 ] final  176.18 input   59.86 | X-H torsion
[ 10167 10162 10161 10158 ] final  -96.24 input  -65.29 | X-H torsion
[ 10718 10713 10712 10709 ] final  -35.42 input   66.30 | X-H torsion
[ 10763 10752 10751 10750 ] final  -86.53 input  -60.55 | X-H torsion
[ 11005 11000 10999 10996 ] final   -6.34 input  -57.11 | X-H torsion

> <Gold.Protein.ActiveResidues>
 VAL166  LYS551  ARG553  GLY616  TRP617  ASP618  TYR619  PRO620  LYS621  CYS622 
 ASP623  PHE694  ASN695  SER759  ASP760  ASP761  ALA762  ILE779  LEU786  VAL792 
 PHE793  MET794  SER795  GLU796  ALA797  LYS798  CYS799  TRP800  GLU811  SER814 

> <Gold.Protein.RotatedAtoms>
  150.7579  133.9489  159.3479 H   0  0  0  0  0  0  0  0  0  0  0  0  # atno 6907 bound_to 6896
  151.7404  135.0853  160.0324 H   0  0  0  0  0  0  0  0  0  0  0  0  # atno 6908 bound_to 6896
  152.3532  133.6167  159.5996 H   0  0  0  0  0  0  0  0  0  0  0  0  # atno 6909 bound_to 6896
  145.8025  139.2989  143.1146 H   0  0  0  0  0  0  0  0  0  0  0  0  # atno 7974 bound_to 7965
  156.0792  140.1390  156.9733 H   0  0  0  0  0  0  0  0  0  0  0  0  # atno 8008 bound_to 7997
  154.4575  140.0955  156.6849 H   0  0  0  0  0  0  0  0  0  0  0  0  # atno 8009 bound_to 7997
  155.5103  140.3453  155.4389 H   0  0  0  0  0  0  0  0  0  0  0  0  # atno 8010 bound_to 7997
  140.2958  143.3193  152.0299 H   0  0  0  0  0  0  0  0  0  0  0  0  # atno 10167 bound_to 10162
  156.3389  130.4290  149.7805 H   0  0  0  0  0  0  0  0  0  0  0  0  # atno 10718 bound_to 10713
  154.6235  135.5446  153.7602 H   0  0  0  0  0  0  0  0  0  0  0  0  # atno 10763 bound_to 10752
  153.0250  135.6418  154.1405 H   0  0  0  0  0  0  0  0  0  0  0  0  # atno 10764 bound_to 10752
  154.1338  135.2912  155.3158 H   0  0  0  0  0  0  0  0  0  0  0  0  # atno 10765 bound_to 10752
  140.7009  133.8990  155.8683 H   0  0  0  0  0  0  0  0  0  0  0  0  # atno 11005 bound_to 11000
  145.9863  140.8640  143.0089 LP  0  0  0  0  0  0  0  0  0  0  0  0  # atno 17320 bound_to 7965
  144.6767  140.2152  143.7372 LP  0  0  0  0  0  0  0  0  0  0  0  0  # atno 17321 bound_to 7965
  139.4927  144.6492  151.6713 LP  0  0  0  0  0  0  0  0  0  0  0  0  # atno 17342 bound_to 10162
  140.5693  144.0136  150.6208 LP  0  0  0  0  0  0  0  0  0  0  0  0  # atno 17343 bound_to 10162
  156.5049  130.8145  151.3147 LP  0  0  0  0  0  0  0  0  0  0  0  0  # atno 17370 bound_to 10713
  157.7443  130.9932  150.2665 LP  0  0  0  0  0  0  0  0  0  0  0  0  # atno 17371 bound_to 10713
  141.0164  134.0950  157.4167 LP  0  0  0  0  0  0  0  0  0  0  0  0  # atno 17394 bound_to 11000
  139.8897  135.0107  156.6693 LP  0  0  0  0  0  0  0  0  0  0  0  0  # atno 17395 bound_to 11000

$$$$
