AV-unprocessed.smi:186|AV-procd|sdf|1467|dock5
  -GOLD-   2262019283D 1   1.00000     0.00000
 Structure written by MMmdl.
 48 51  0  0  0  0  0  0  0  0  1 V2000
  151.5467  142.9724  158.7574 C   0  0  0  0  0  0  0  0  0  0  0  0
  150.9273  142.4695  157.5866 O   0  0  0  0  0  0  0  0  0  0  0  0
  151.1200  141.0722  157.4282 C   0  0  0  0  0  0  0  0  0  0  0  0
  150.8160  140.6701  155.9840 C   0  0  0  0  0  0  0  0  0  0  0  0
  151.7030  140.2319  155.2507 O   0  0  0  0  0  0  0  0  0  0  0  0
  149.5458  140.8289  155.5855 N   0  0  0  0  0  0  0  0  0  0  0  0
  149.0522  140.5032  154.2537 C   0  0  0  0  0  0  0  0  0  0  0  0
  147.5253  140.4814  154.1452 C   0  0  0  0  0  0  0  0  0  0  0  0
  147.7228  139.2912  153.3265 N   0  0  0  0  0  0  0  0  0  0  0  0
  146.7069  138.2989  153.4290 C   0  0  0  0  0  0  0  0  0  0  0  0
  146.1947  137.9895  154.6506 N   0  0  0  0  0  0  0  0  0  0  0  0
  145.2481  137.0566  154.7864 C   0  0  0  0  0  0  0  0  0  0  0  0
  144.6803  136.3038  153.8446 N   0  0  0  0  0  0  0  0  0  0  0  0
  145.2003  136.5821  152.6163 C   0  0  0  0  0  0  0  0  0  0  0  0
  146.2005  137.5535  152.3247 C   0  0  0  0  0  0  0  0  0  0  0  0
  146.4708  137.5522  150.9611 N   0  0  0  0  0  0  0  0  0  0  0  0
  145.6745  136.6395  150.4759 C   0  0  0  0  0  0  0  0  0  0  0  0
  144.8861  135.9955  151.4023 N   0  0  0  0  0  0  0  0  0  0  0  0
  143.9180  134.9397  151.1433 C   0  0  0  0  0  0  0  0  0  0  0  0
  144.3956  133.5230  151.5540 C   0  0  2  0  0  0  0  0  0  0  0  0
  144.4137  133.4249  152.9663 O   0  0  0  0  0  0  0  0  0  0  0  0
  145.7752  133.1424  151.0095 C   0  0  0  0  0  0  0  0  0  0  0  0
  145.4448  132.2531  149.8192 C   0  0  0  0  0  0  0  0  0  0  0  0
  144.3291  131.5197  150.2903 O   0  0  0  0  0  0  0  0  0  0  0  0
  143.4766  132.4272  150.9767 C   0  0  0  0  0  0  0  0  0  0  0  0
  148.9913  138.9992  153.9878 C   0  0  0  0  0  0  0  0  0  0  0  0
  151.3682  144.0448  158.8353 H   0  0  0  0  0  0  0  0  0  0  0  0
  152.6252  142.8117  158.7318 H   0  0  0  0  0  0  0  0  0  0  0  0
  151.1428  142.4976  159.6524 H   0  0  0  0  0  0  0  0  0  0  0  0
  152.1497  140.8039  157.6706 H   0  0  0  0  0  0  0  0  0  0  0  0
  150.4604  140.5192  158.0989 H   0  0  0  0  0  0  0  0  0  0  0  0
  148.8776  141.1960  156.2473 H   0  0  0  0  0  0  0  0  0  0  0  0
  149.5339  141.0586  153.4450 H   0  0  0  0  0  0  0  0  0  0  0  0
  147.0156  140.2761  155.0888 H   0  0  0  0  0  0  0  0  0  0  0  0
  147.0980  141.3285  153.6081 H   0  0  0  0  0  0  0  0  0  0  0  0
  144.8981  136.8874  155.7938 H   0  0  0  0  0  0  0  0  0  0  0  0
  145.6458  136.4053  149.4216 H   0  0  0  0  0  0  0  0  0  0  0  0
  142.9967  135.1904  151.6711 H   0  0  0  0  0  0  0  0  0  0  0  0
  143.6732  134.9585  150.0803 H   0  0  0  0  0  0  0  0  0  0  0  0
  143.8066  132.7498  153.2278 H   0  0  0  0  0  0  0  0  0  0  0  0
  146.4021  133.9886  150.7339 H   0  0  0  0  0  0  0  0  0  0  0  0
  146.3314  132.5530  151.7405 H   0  0  0  0  0  0  0  0  0  0  0  0
  145.1596  132.8479  148.9501 H   0  0  0  0  0  0  0  0  0  0  0  0
  146.2698  131.5982  149.5386 H   0  0  0  0  0  0  0  0  0  0  0  0
  142.8937  131.9045  151.7365 H   0  0  0  0  0  0  0  0  0  0  0  0
  142.7715  132.8437  150.2558 H   0  0  0  0  0  0  0  0  0  0  0  0
  149.7660  138.6234  153.3190 H   0  0  0  0  0  0  0  0  0  0  0  0
  148.8839  138.3978  154.8929 H   0  0  0  0  0  0  0  0  0  0  0  0
  1  2  1  0  0  0  0
  1 27  1  0  0  0  0
  1 28  1  0  0  0  0
  1 29  1  0  0  0  0
  2  3  1  0  0  0  0
  3  4  1  0  0  0  0
  3 30  1  0  0  0  0
  3 31  1  0  0  0  0
  4  5  2  0  0  0  0
  4  6  1  0  0  0  0
  6  7  1  0  0  0  0
  6 32  1  0  0  0  0
  7 26  1  0  0  0  0
  7  8  1  0  0  0  0
  7 33  1  0  0  0  0
  8  9  1  0  0  0  0
  8 34  1  0  0  0  0
  8 35  1  0  0  0  0
  9 10  1  0  0  0  0
  9 26  1  0  0  0  0
 10 15  1  0  0  0  0
 10 11  2  0  0  0  0
 11 12  1  0  0  0  0
 12 13  2  0  0  0  0
 12 36  1  0  0  0  0
 13 14  1  0  0  0  0
 14 18  1  0  0  0  0
 14 15  2  0  0  0  0
 15 16  1  0  0  0  0
 16 17  2  0  0  0  0
 17 18  1  0  0  0  0
 17 37  1  0  0  0  0
 18 19  1  0  0  0  0
 19 20  1  0  0  0  0
 19 38  1  0  0  0  0
 19 39  1  0  0  0  0
 20 25  1  0  0  0  0
 20 21  1  0  0  0  0
 20 22  1  0  0  0  0
 21 40  1  0  0  0  0
 22 23  1  0  0  0  0
 22 41  1  0  0  0  0
 22 42  1  0  0  0  0
 23 24  1  0  0  0  0
 23 43  1  0  0  0  0
 23 44  1  0  0  0  0
 24 25  1  0  0  0  0
 25 45  1  0  0  0  0
 25 46  1  0  0  0  0
 26 47  1  0  0  0  0
 26 48  1  0  0  0  0
M  END
> <s_m_source_file>
AV-unprocessed.smi

> <i_m_source_file_index>
186

> <i_lp_mmshare_version>
43012

> <i_f3d_flags>
0

> <s_epik_input>
W0NIM11PW0NIMl1DKD1PKVtOSF1bQ0hdMVtDSDJdTihbQ0gyXTEpYyhuW2NIXW4yKWMoYzIzKW5bY0hdbjNbQ0gyXVtDQEBdNChbT0hdKVtDSDJdW0NIMl1PW0NIMl00

> <s_epik_cmdline>
J2VwaWtfcHl0aG9uJywgJy1waCcsICc3LjAnLCAnLXRuJywgJzgnLCAnLW1hJywgJzIwMCcsICctbWV0YWxfYmluZGluZycsICctaW1hZScsICc8aW5maWxlLm1hZT4nLCAnLW9tYWUnLCAnPG91dGZpbGUubWFlPic=

> <r_lp_tautomer_probability>
1

> <r_epik_Ionization_Penalty>
0.00138671

> <r_epik_Ionization_Penalty_Charging>
0

> <r_epik_Ionization_Penalty_Neutral>
0.00138671

> <r_epik_State_Penalty>
0.000746021

> <r_epik_Charging_Adjusted_Penalty>
0.000746021

> <i_epik_Tot_Q>
0

> <i_epik_Tot_abs_Q>
0

> <r_epik_Metal_State_Penalty>
-0

> <b_epik_Metal_Only>
0

> <s_lp_Force_Field>
OPLS_2005

> <r_lp_Energy>
43.6542

> <b_lp_Chiralities_Consistent>
1

> <s_lp_Variant>
AV-unprocessed.smi:186-2

> <Gold.Version>
5.8.1

> <Gold.Id.Protein>
6NUR|6NUR_protein|mol2

> <Gold.PLP.Fitness>
46.0707

> <Gold.PLP.PLP>
-35.7932

> <Gold.PLP.part.hbond>
-3.6601

> <Gold.PLP.part.metal>
0.0000

> <Gold.PLP.part.buried>
-3.9959

> <Gold.PLP.part.nonpolar>
-33.7393

> <Gold.PLP.part.repulsive>
4.1738

> <Gold.PLP.ligand.clash>
0.0000

> <Gold.PLP.ligand.torsion>
0.8081

> <Gold.PLP.Chemscore.Hbond>
2.7937

> <Gold.PLP.Chemscore.CHOScore>
1.0000

> <Gold.PLP.Chemscore.Metal>
0.0000

> <Gold.Chemscore.Hbonds>
donor molecule, donor type, donor heavy atom, donor atom, acceptor molecule, acceptor atom, score
      L1  H    21    40       P1 10957  0.70
      P1  H  7954  7966       L1    16  1.00
      P1  H  7989  7998       L1     5  0.90
      P1  H 10785 10796       L1    24  0.12
      L1  C    17    37       P1  7921  1.00

> <Gold.PLP.Chemscore.Internal.Correction>
0.5127

> <Gold.Rescore>
     Score         DG    S(hbond)    S(metal)    S(lipo)     H(rot)  DE(clash)    DE(int)     intcor
     10.38     -14.30       2.56        0.00      75.95       3.36       3.25       0.67       ----

> <Gold.Chemscore.Fitness>
10.3821

> <Gold.Chemscore.DG>
-14.2986

> <Gold.Chemscore.ZeroCoef>
-5.4800

> <Gold.Chemscore.Hbond>
2.5566

> <Gold.Chemscore.Metal>
0.0000

> <Gold.Chemscore.Lipo>
75.9520

> <Gold.Chemscore.Internal_Hbond>
0.0000

> <Gold.Chemscore.DEClash>
3.2509

> <Gold.Chemscore.DEInternal>
0.6656

> <Gold.Chemscore.Rot>
3.3620

> <Gold.Chemscore.Internal.Correction>
   9.000000E+99

> <Gold.Chemscore.Hbonds>
donor molecule, donor type, donor heavy atom, donor atom, acceptor molecule, acceptor atom, score
      L1  H    21    40       P1 10957  0.26
      P1  H  7954  7966       L1    16  0.82
      P1  H  7989  7998       L1     5  0.80
      P1  H 10785 10796       L1    24  0.10

> <Gold.Chemscore.Hbond.Weighted>
-8.5390

> <Gold.Chemscore.Metal.Weighted>
-0.0000

> <Gold.Chemscore.Lipo.Weighted>
-8.8864

> <Gold.Chemscore.Internal_Hbond.Weighted>
0.0000

> <Gold.Chemscore.DEClash.Weighted>
3.2509

> <Gold.Chemscore.DEInternal.Weighted>
0.6656

> <Gold.Chemscore.Rot.Weighted>
8.6067

> <Gold.Chemscore.Internal.Correction.Weighted>
   9.000000E+99

> <Gold.Protein.RotatedTorsions>
[ 6907 6896 6895 6894 ] final -111.22 input  -60.11 | X-H torsion
[ 7974 7965 7964 7962 ] final   23.24 input  175.53 | X-H torsion
[ 8008 7997 7996 7995 ] final  -65.82 input   59.86 | X-H torsion
[ 10167 10162 10161 10158 ] final  122.25 input  -65.29 | X-H torsion
[ 10718 10713 10712 10709 ] final  -47.76 input   66.30 | X-H torsion
[ 10763 10752 10751 10750 ] final -155.80 input  -60.55 | X-H torsion
[ 11005 11000 10999 10996 ] final   -4.52 input  -57.11 | X-H torsion

> <Gold.Protein.ActiveResidues>
 VAL166  LYS551  ARG553  GLY616  TRP617  ASP618  TYR619  PRO620  LYS621  CYS622 
 ASP623  PHE694  ASN695  SER759  ASP760  ASP761  ALA762  ILE779  LEU786  VAL792 
 PHE793  MET794  SER795  GLU796  ALA797  LYS798  CYS799  TRP800  GLU811  SER814 

> <Gold.Protein.RotatedAtoms>
  150.7676  133.9267  159.3414 H   0  0  0  0  0  0  0  0  0  0  0  0  # atno 6907 bound_to 6896
  151.7161  135.0901  160.0285 H   0  0  0  0  0  0  0  0  0  0  0  0  # atno 6908 bound_to 6896
  152.3679  133.6342  159.6100 H   0  0  0  0  0  0  0  0  0  0  0  0  # atno 6909 bound_to 6896
  146.1993  139.7773  142.8773 H   0  0  0  0  0  0  0  0  0  0  0  0  # atno 7974 bound_to 7965
  154.4695  140.0925  156.7109 H   0  0  0  0  0  0  0  0  0  0  0  0  # atno 8008 bound_to 7997
  155.4762  140.3466  155.4314 H   0  0  0  0  0  0  0  0  0  0  0  0  # atno 8009 bound_to 7997
  156.1015  140.1423  156.9449 H   0  0  0  0  0  0  0  0  0  0  0  0  # atno 8010 bound_to 7997
  139.5870  144.7010  151.3385 H   0  0  0  0  0  0  0  0  0  0  0  0  # atno 10167 bound_to 10162
  156.2053  130.4158  149.9186 H   0  0  0  0  0  0  0  0  0  0  0  0  # atno 10718 bound_to 10713
  154.7760  135.3160  154.8090 H   0  0  0  0  0  0  0  0  0  0  0  0  # atno 10763 bound_to 10752
  153.8813  135.6834  153.4771 H   0  0  0  0  0  0  0  0  0  0  0  0  # atno 10764 bound_to 10752
  153.1384  135.4749  154.9394 H   0  0  0  0  0  0  0  0  0  0  0  0  # atno 10765 bound_to 10752
  140.6811  133.9153  155.8556 H   0  0  0  0  0  0  0  0  0  0  0  0  # atno 11005 bound_to 11000
  145.3537  141.0312  143.3324 LP  0  0  0  0  0  0  0  0  0  0  0  0  # atno 17320 bound_to 7965
  144.8648  139.5123  143.6795 LP  0  0  0  0  0  0  0  0  0  0  0  0  # atno 17321 bound_to 7965
  140.7140  143.7316  150.7619 LP  0  0  0  0  0  0  0  0  0  0  0  0  # atno 17342 bound_to 10162
  140.0863  143.4920  152.2503 LP  0  0  0  0  0  0  0  0  0  0  0  0  # atno 17343 bound_to 10162
  156.6882  130.8885  151.3585 LP  0  0  0  0  0  0  0  0  0  0  0  0  # atno 17370 bound_to 10713
  157.7009  130.9331  150.0781 LP  0  0  0  0  0  0  0  0  0  0  0  0  # atno 17371 bound_to 10713
  141.0317  134.0747  157.4007 LP  0  0  0  0  0  0  0  0  0  0  0  0  # atno 17394 bound_to 11000
  139.8951  135.0139  156.6987 LP  0  0  0  0  0  0  0  0  0  0  0  0  # atno 17395 bound_to 11000

$$$$
