AV-unprocessed.smi:2439|AV-procd|sdf|9604|dock10
  -GOLD-   2272013233D 1   1.00000     0.00000
 Structure written by MMmdl.
 41 43  0  0  0  0  0  0  0  0  2 V2000
  151.9892  136.9401  154.3665 N   0  0  0  0  0  0  0  0  0  0  0  0
  151.6542  137.9452  154.8313 C   0  0  0  0  0  0  0  0  0  0  0  0
  151.2330  139.2126  155.4158 C   0  0  0  0  0  0  0  0  0  0  0  0
  151.9081  139.6981  156.5554 C   0  0  0  0  0  0  0  0  0  0  0  0
  151.5067  140.9225  157.1201 C   0  0  0  0  0  0  0  0  0  0  0  0
  150.4400  141.6156  156.5199 C   0  0  0  0  0  0  0  0  0  0  0  0
  149.7855  141.1630  155.4298 N   0  0  0  0  0  0  0  0  0  0  0  0
  150.1673  139.9843  154.8794 C   0  0  0  0  0  0  0  0  0  0  0  0
  149.4670  139.5410  153.7435 N   0  0  0  0  0  0  0  0  0  0  0  0
  148.3818  138.5770  153.8575 C   0  0  0  0  0  0  0  0  0  0  0  0
  147.0315  139.1923  153.4409 C   0  0  1  0  0  0  0  0  0  0  0  0
  146.6146  138.8136  152.0073 C   0  0  0  0  0  0  0  0  0  0  0  0
  146.2123  137.3899  151.9208 N   0  3  2  0  0  0  0  0  0  0  0  0
  145.8464  136.9945  150.5367 C   0  0  0  0  0  0  0  0  0  0  0  0
  145.5176  135.4957  150.4550 C   0  0  0  0  0  0  0  0  0  0  0  0
  144.4031  135.1287  151.4425 C   0  0  0  0  0  0  0  0  0  0  0  0
  144.7943  135.5673  152.8597 C   0  0  0  0  0  0  0  0  0  0  0  0
  145.1463  137.0682  152.9080 C   0  0  1  0  0  0  0  0  0  0  0  0
  145.5928  137.4852  154.3224 C   0  0  0  0  0  0  0  0  0  0  0  0
  145.9752  138.8565  154.3413 O   0  0  0  0  0  0  0  0  0  0  0  0
  152.7251  139.1439  156.9951 H   0  0  0  0  0  0  0  0  0  0  0  0
  152.0049  141.3204  157.9920 H   0  0  0  0  0  0  0  0  0  0  0  0
  150.1035  142.5587  156.9243 H   0  0  0  0  0  0  0  0  0  0  0  0
  149.6326  139.9842  152.8508 H   0  0  0  0  0  0  0  0  0  0  0  0
  148.6089  137.7308  153.2080 H   0  0  0  0  0  0  0  0  0  0  0  0
  148.3364  138.1843  154.8731 H   0  0  0  0  0  0  0  0  0  0  0  0
  147.1403  140.2771  153.4767 H   0  0  0  0  0  0  0  0  0  0  0  0
  145.7775  139.4398  151.6940 H   0  0  0  0  0  0  0  0  0  0  0  0
  147.4330  139.0120  151.3140 H   0  0  0  0  0  0  0  0  0  0  0  0
  144.9906  137.5832  150.2023 H   0  0  0  0  0  0  0  0  0  0  0  0
  146.6719  137.2235  149.8615 H   0  0  0  0  0  0  0  0  0  0  0  0
  145.2166  135.2346  149.4399 H   0  0  0  0  0  0  0  0  0  0  0  0
  146.4115  134.9101  150.6739 H   0  0  0  0  0  0  0  0  0  0  0  0
  143.4726  135.6157  151.1481 H   0  0  0  0  0  0  0  0  0  0  0  0
  144.2163  134.0546  151.4182 H   0  0  0  0  0  0  0  0  0  0  0  0
  143.9772  135.3519  153.5492 H   0  0  0  0  0  0  0  0  0  0  0  0
  145.6468  134.9761  153.1979 H   0  0  0  0  0  0  0  0  0  0  0  0
  144.2575  137.6445  152.6442 H   0  0  0  0  0  0  0  0  0  0  0  0
  144.7708  137.3512  155.0259 H   0  0  0  0  0  0  0  0  0  0  0  0
  146.4069  136.8555  154.6824 H   0  0  0  0  0  0  0  0  0  0  0  0
  147.0212  136.8414  152.1762 H   0  0  0  0  0  0  0  0  0  0  0  0
  1  2  3  0  0  0  0
  2  3  1  0  0  0  0
  3  8  1  0  0  0  0
  3  4  2  0  0  0  0
  4  5  1  0  0  0  0
  4 21  1  0  0  0  0
  5  6  2  0  0  0  0
  5 22  1  0  0  0  0
  6  7  1  0  0  0  0
  6 23  1  0  0  0  0
  7  8  2  0  0  0  0
  8  9  1  0  0  0  0
  9 10  1  0  0  0  0
  9 24  1  0  0  0  0
 10 11  1  0  0  0  0
 10 25  1  0  0  0  0
 10 26  1  0  0  0  0
 11 20  1  0  0  0  0
 11 12  1  0  0  0  0
 11 27  1  0  0  0  0
 12 13  1  0  0  0  0
 12 28  1  0  0  0  0
 12 29  1  0  0  0  0
 13 18  1  0  0  0  0
 13 14  1  0  0  0  0
 13 41  1  0  0  0  0
 14 15  1  0  0  0  0
 14 30  1  0  0  0  0
 14 31  1  0  0  0  0
 15 16  1  0  0  0  0
 15 32  1  0  0  0  0
 15 33  1  0  0  0  0
 16 17  1  0  0  0  0
 16 34  1  0  0  0  0
 16 35  1  0  0  0  0
 17 18  1  0  0  0  0
 17 36  1  0  0  0  0
 17 37  1  0  0  0  0
 18 19  1  0  0  0  0
 18 38  1  0  0  0  0
 19 20  1  0  0  0  0
 19 39  1  0  0  0  0
 19 40  1  0  0  0  0
M  CHG  1  13   1
M  END
> <s_m_source_file>
AV-unprocessed.smi

> <i_m_source_file_index>
2439

> <i_lp_mmshare_version>
43012

> <i_f3d_flags>
0

> <s_epik_input>
TiNDYzFbY0hdW2NIXVtjSF1uYzFbTkhdW0NIMl1bQ0BIXShbQ0gyXTIpT1tDSDJdW0NAQEhdKE4yMylbQ0gyXVtDSDJdW0NIMl1bQ0gyXTM=

> <s_epik_cmdline>
J2VwaWtfcHl0aG9uJywgJy1waCcsICc3LjAnLCAnLXRuJywgJzgnLCAnLW1hJywgJzIwMCcsICctbWV0YWxfYmluZGluZycsICctaW1hZScsICc8aW5maWxlLm1hZT4nLCAnLW9tYWUnLCAnPG91dGZpbGUubWFlPic=

> <r_epik_Ionization_Penalty>
0.0803594

> <r_epik_Ionization_Penalty_Charging>
0.0803403

> <r_epik_Ionization_Penalty_Neutral>
1.90988e-05

> <r_epik_State_Penalty>
0.0711481

> <r_epik_Charging_Adjusted_Penalty>
0.151488

> <i_epik_Tot_Q>
1

> <i_epik_Tot_abs_Q>
1

> <r_epik_Metal_State_Penalty>
0.0711482

> <b_epik_Metal_Only>
0

> <s_lp_Force_Field>
OPLS_2005

> <r_lp_Energy>
31.556

> <b_lp_Chiralities_Consistent>
1

> <s_lp_Variant>
AV-unprocessed.smi:2439-2

> <Gold.Version>
5.8.1

> <Gold.Id.Protein>
6NUR|6NUR_protein|mol2

> <Gold.PLP.Fitness>
45.3059

> <Gold.PLP.PLP>
-33.2588

> <Gold.PLP.part.hbond>
-3.2456

> <Gold.PLP.part.metal>
0.0000

> <Gold.PLP.part.buried>
1.8851

> <Gold.PLP.part.nonpolar>
-32.9629

> <Gold.PLP.part.repulsive>
0.5912

> <Gold.PLP.ligand.clash>
0.0000

> <Gold.PLP.ligand.torsion>
1.3465

> <Gold.PLP.Chemscore.Hbond>
3.9113

> <Gold.PLP.Chemscore.CHOScore>
1.0000

> <Gold.PLP.Chemscore.Metal>
0.0000

> <Gold.Chemscore.Hbonds>
donor molecule, donor type, donor heavy atom, donor atom, acceptor molecule, acceptor atom, score
      L1  H     9    24       P1  7957  1.00
      L1  H    13    41       P1  7948  1.98
      P1  H 10752 10763       L1     1  1.00
      L1  C     6    23       P1  8028  0.37

> <Gold.PLP.Chemscore.Internal.Correction>
0.0063

> <Gold.Rescore>
     Score         DG    S(hbond)    S(metal)    S(lipo)     H(rot)  DE(clash)    DE(int)     intcor
     18.12     -20.33       2.76        0.00      75.89       1.27       0.85       1.36       ----

> <Gold.Chemscore.Fitness>
18.1188

> <Gold.Chemscore.DG>
-20.3279

> <Gold.Chemscore.ZeroCoef>
-5.4800

> <Gold.Chemscore.Hbond>
2.7574

> <Gold.Chemscore.Metal>
0.0000

> <Gold.Chemscore.Lipo>
75.8892

> <Gold.Chemscore.Internal_Hbond>
0.0000

> <Gold.Chemscore.DEClash>
0.8514

> <Gold.Chemscore.DEInternal>
1.3578

> <Gold.Chemscore.Rot>
1.2659

> <Gold.Chemscore.Internal.Correction>
   9.000000E+99

> <Gold.Chemscore.Hbonds>
donor molecule, donor type, donor heavy atom, donor atom, acceptor molecule, acceptor atom, score
      L1  H     9    24       P1  7957  0.98
      L1  H    13    41       P1  7948  0.87
      P1  H 10752 10763       L1     1  0.94

> <Gold.Chemscore.Hbond.Weighted>
-9.2096

> <Gold.Chemscore.Metal.Weighted>
-0.0000

> <Gold.Chemscore.Lipo.Weighted>
-8.8790

> <Gold.Chemscore.Internal_Hbond.Weighted>
0.0000

> <Gold.Chemscore.DEClash.Weighted>
0.8514

> <Gold.Chemscore.DEInternal.Weighted>
1.3578

> <Gold.Chemscore.Rot.Weighted>
3.2408

> <Gold.Chemscore.Internal.Correction.Weighted>
   9.000000E+99

> <Gold.Protein.RotatedTorsions>
[ 6907 6896 6895 6894 ] final  132.13 input  -60.11 | X-H torsion
[ 7974 7965 7964 7962 ] final  168.23 input  175.53 | X-H torsion
[ 8008 7997 7996 7995 ] final  -41.98 input   59.86 | X-H torsion
[ 10167 10162 10161 10158 ] final -131.51 input  -65.29 | X-H torsion
[ 10718 10713 10712 10709 ] final  -79.43 input   66.30 | X-H torsion
[ 10763 10752 10751 10750 ] final   35.05 input  -60.55 | X-H torsion
[ 11005 11000 10999 10996 ] final    2.12 input  -57.11 | X-H torsion

> <Gold.Protein.ActiveResidues>
 VAL166  LYS551  ARG553  GLY616  TRP617  ASP618  TYR619  PRO620  LYS621  CYS622 
 ASP623  PHE694  ASN695  SER759  ASP760  ASP761  ALA762  ILE779  LEU786  VAL792 
 PHE793  MET794  SER795  GLU796  ALA797  LYS798  CYS799  TRP800  GLU811  SER814 

> <Gold.Protein.RotatedAtoms>
  152.3355  133.6007  159.5839 H   0  0  0  0  0  0  0  0  0  0  0  0  # atno 6907 bound_to 6896
  150.7448  133.9802  159.3583 H   0  0  0  0  0  0  0  0  0  0  0  0  # atno 6908 bound_to 6896
  151.7672  135.0796  160.0405 H   0  0  0  0  0  0  0  0  0  0  0  0  # atno 6909 bound_to 6896
  144.7396  139.8877  143.6401 H   0  0  0  0  0  0  0  0  0  0  0  0  # atno 7974 bound_to 7965
  154.4001  140.1485  156.3280 H   0  0  0  0  0  0  0  0  0  0  0  0  # atno 8008 bound_to 7997
  155.8469  140.3459  155.5647 H   0  0  0  0  0  0  0  0  0  0  0  0  # atno 8009 bound_to 7997
  155.8026  140.0872  157.1939 H   0  0  0  0  0  0  0  0  0  0  0  0  # atno 8010 bound_to 7997
  139.9181  143.6414  152.2560 H   0  0  0  0  0  0  0  0  0  0  0  0  # atno 10167 bound_to 10162
  156.0093  130.4545  150.3647 H   0  0  0  0  0  0  0  0  0  0  0  0  # atno 10718 bound_to 10713
  153.0136  135.6344  154.1765 H   0  0  0  0  0  0  0  0  0  0  0  0  # atno 10763 bound_to 10752
  154.1506  135.2829  155.3138 H   0  0  0  0  0  0  0  0  0  0  0  0  # atno 10764 bound_to 10752
  154.6056  135.5573  153.7480 H   0  0  0  0  0  0  0  0  0  0  0  0  # atno 10765 bound_to 10752
  140.6079  133.9776  155.8163 H   0  0  0  0  0  0  0  0  0  0  0  0  # atno 11005 bound_to 11000
  146.1165  139.4177  143.0255 LP  0  0  0  0  0  0  0  0  0  0  0  0  # atno 17320 bound_to 7965
  145.7367  141.0023  143.1323 LP  0  0  0  0  0  0  0  0  0  0  0  0  # atno 17321 bound_to 7965
  139.6885  144.7649  151.1482 LP  0  0  0  0  0  0  0  0  0  0  0  0  # atno 17342 bound_to 10162
  140.7669  143.5623  150.9085 LP  0  0  0  0  0  0  0  0  0  0  0  0  # atno 17343 bound_to 10162
  157.1734  131.0374  151.2784 LP  0  0  0  0  0  0  0  0  0  0  0  0  # atno 17370 bound_to 10713
  157.4209  130.7437  149.6913 LP  0  0  0  0  0  0  0  0  0  0  0  0  # atno 17371 bound_to 10713
  141.0828  134.0036  157.3359 LP  0  0  0  0  0  0  0  0  0  0  0  0  # atno 17394 bound_to 11000
  139.9205  135.0200  156.8044 LP  0  0  0  0  0  0  0  0  0  0  0  0  # atno 17395 bound_to 11000

$$$$
