AV-unprocessed.smi:1056|AV-procd|sdf|4630|dock1
  -GOLD-   22720 3133D 1   1.00000     0.00000
 Structure written by MMmdl.
 45 47  0  0  0  0  0  0  0  0  2 V2000
  152.9625  142.8727  161.4475 C   0  0  0  0  0  0  0  0  0  0  0  0
  152.3450  142.6488  160.0784 C   0  0  0  0  0  0  0  0  0  0  0  0
  152.7133  141.5036  159.3372 C   0  0  0  0  0  0  0  0  0  0  0  0
  152.1603  141.2579  158.0616 C   0  0  0  0  0  0  0  0  0  0  0  0
  152.3739  140.2167  157.1744 N   0  0  0  0  0  0  0  0  0  0  0  0
  151.5710  140.5513  156.1694 C   0  0  0  0  0  0  0  0  0  0  0  0
  150.8639  141.6905  156.2979 N   0  0  0  0  0  0  0  0  0  0  0  0
  149.9302  142.2500  155.3379 C   0  0  0  0  0  0  0  0  0  0  0  0
  149.0877  141.1662  154.6346 C   0  0  2  0  0  0  0  0  0  0  0  0
  149.7607  140.7308  153.4704 O   0  0  0  0  0  0  0  0  0  0  0  0
  147.6960  141.6762  154.2102 C   0  0  0  0  0  0  0  0  0  0  0  0
  147.0272  142.4688  155.2726 N   0  3  2  0  0  0  0  0  0  0  0  0
  146.9424  141.7697  156.5769 C   0  0  0  0  0  0  0  0  0  0  0  0
  146.4444  142.7378  157.6648 C   0  0  0  0  0  0  0  0  0  0  0  0
  145.3341  143.5769  157.2196 N   0  0  0  0  0  0  0  0  0  0  0  0
  144.9478  143.7453  155.9443 C   0  0  0  0  0  0  0  0  0  0  0  0
  144.0096  144.4787  155.6443 O   0  0  0  0  0  0  0  0  0  0  0  0
  145.7067  142.9934  154.8404 C   0  0  0  0  0  0  0  0  0  0  0  0
  151.2213  142.1972  157.5431 C   0  0  0  0  0  0  0  0  0  0  0  0
  150.8484  143.3415  158.2700 C   0  0  0  0  0  0  0  0  0  0  0  0
  151.4094  143.5708  159.5438 C   0  0  0  0  0  0  0  0  0  0  0  0
  150.9967  144.8066  160.3238 C   0  0  0  0  0  0  0  0  0  0  0  0
  153.6744  142.0854  161.6974 H   0  0  0  0  0  0  0  0  0  0  0  0
  152.1901  142.8823  162.2168 H   0  0  0  0  0  0  0  0  0  0  0  0
  153.4937  143.8243  161.4769 H   0  0  0  0  0  0  0  0  0  0  0  0
  153.4255  140.8011  159.7447 H   0  0  0  0  0  0  0  0  0  0  0  0
  151.4930  139.9337  155.2866 H   0  0  0  0  0  0  0  0  0  0  0  0
  149.2849  142.9504  155.8694 H   0  0  0  0  0  0  0  0  0  0  0  0
  150.4875  142.8368  154.6067 H   0  0  0  0  0  0  0  0  0  0  0  0
  148.9901  140.2991  155.2878 H   0  0  0  0  0  0  0  0  0  0  0  0
  149.1673  140.2029  152.9571 H   0  0  0  0  0  0  0  0  0  0  0  0
  147.8143  142.2935  153.3178 H   0  0  0  0  0  0  0  0  0  0  0  0
  147.0501  140.8450  153.9215 H   0  0  0  0  0  0  0  0  0  0  0  0
  146.2590  140.9238  156.4852 H   0  0  0  0  0  0  0  0  0  0  0  0
  147.9092  141.3638  156.8725 H   0  0  0  0  0  0  0  0  0  0  0  0
  146.1469  142.1865  158.5572 H   0  0  0  0  0  0  0  0  0  0  0  0
  147.2574  143.4011  157.9627 H   0  0  0  0  0  0  0  0  0  0  0  0
  144.8220  144.0737  157.9352 H   0  0  0  0  0  0  0  0  0  0  0  0
  145.8438  143.6620  153.9894 H   0  0  0  0  0  0  0  0  0  0  0  0
  145.0804  142.1668  154.5016 H   0  0  0  0  0  0  0  0  0  0  0  0
  150.1363  144.0372  157.8515 H   0  0  0  0  0  0  0  0  0  0  0  0
  150.2781  145.4080  159.7661 H   0  0  0  0  0  0  0  0  0  0  0  0
  151.8636  145.4327  160.5359 H   0  0  0  0  0  0  0  0  0  0  0  0
  150.5336  144.5237  161.2692 H   0  0  0  0  0  0  0  0  0  0  0  0
  147.6058  143.2827  155.4239 H   0  0  0  0  0  0  0  0  0  0  0  0
  1  2  1  0  0  0  0
  1 23  1  0  0  0  0
  1 24  1  0  0  0  0
  1 25  1  0  0  0  0
  2 21  1  0  0  0  0
  2  3  2  0  0  0  0
  3  4  1  0  0  0  0
  3 26  1  0  0  0  0
  4 19  2  0  0  0  0
  4  5  1  0  0  0  0
  5  6  2  0  0  0  0
  6  7  1  0  0  0  0
  6 27  1  0  0  0  0
  7  8  1  0  0  0  0
  7 19  1  0  0  0  0
  8  9  1  0  0  0  0
  8 28  1  0  0  0  0
  8 29  1  0  0  0  0
  9 10  1  0  0  0  0
  9 11  1  0  0  0  0
  9 30  1  0  0  0  0
 10 31  1  0  0  0  0
 11 12  1  0  0  0  0
 11 32  1  0  0  0  0
 11 33  1  0  0  0  0
 12 18  1  0  0  0  0
 12 13  1  0  0  0  0
 12 45  1  0  0  0  0
 13 14  1  0  0  0  0
 13 34  1  0  0  0  0
 13 35  1  0  0  0  0
 14 15  1  0  0  0  0
 14 36  1  0  0  0  0
 14 37  1  0  0  0  0
 15 16  1  0  0  0  0
 15 38  1  0  0  0  0
 16 17  2  0  0  0  0
 16 18  1  0  0  0  0
 18 39  1  0  0  0  0
 18 40  1  0  0  0  0
 19 20  1  0  0  0  0
 20 21  2  0  0  0  0
 20 41  1  0  0  0  0
 21 22  1  0  0  0  0
 22 42  1  0  0  0  0
 22 43  1  0  0  0  0
 22 44  1  0  0  0  0
M  CHG  1  12   1
M  END
> <s_m_source_file>
AV-unprocessed.smi

> <i_m_source_file_index>
1056

> <i_lp_mmshare_version>
43012

> <i_f3d_flags>
0

> <s_epik_input>
W0NIM11jKFtjSF0xKWMoW0NIM10pW2NIXWMoYzEyKW4oW2NIXW4yKVtDSDJdW0NASF0oW09IXSlbQ0gyXU4zW0NIMl1bQ0gyXVtOSF1DKD1PKVtDSDJdMw==

> <s_epik_cmdline>
J2VwaWtfcHl0aG9uJywgJy1waCcsICc3LjAnLCAnLXRuJywgJzgnLCAnLW1hJywgJzIwMCcsICctbWV0YWxfYmluZGluZycsICctaW1hZScsICc8aW5maWxlLm1hZT4nLCAnLW9tYWUnLCAnPG91dGZpbGUubWFlPic=

> <r_epik_Ionization_Penalty>
0.153633

> <r_epik_Ionization_Penalty_Charging>
0.0674887

> <r_epik_Ionization_Penalty_Neutral>
0.0861443

> <r_epik_State_Penalty>
0.135155

> <r_epik_Charging_Adjusted_Penalty>
0.202644

> <i_epik_Tot_Q>
1

> <i_epik_Tot_abs_Q>
1

> <r_epik_Metal_State_Penalty>
0.190685

> <b_epik_Metal_Only>
0

> <s_lp_Force_Field>
OPLS_2005

> <r_lp_Energy>
23.9975

> <b_lp_Chiralities_Consistent>
1

> <s_lp_Variant>
AV-unprocessed.smi:1056-1

> <Gold.Version>
5.8.1

> <Gold.Id.Protein>
6NUR|6NUR_protein|mol2

> <Gold.PLP.Fitness>
57.6521

> <Gold.PLP.PLP>
-45.1881

> <Gold.PLP.part.hbond>
-4.6590

> <Gold.PLP.part.metal>
0.0000

> <Gold.PLP.part.buried>
-2.7718

> <Gold.PLP.part.nonpolar>
-34.9140

> <Gold.PLP.part.repulsive>
0.1660

> <Gold.PLP.ligand.clash>
0.0000

> <Gold.PLP.ligand.torsion>
0.7877

> <Gold.PLP.Chemscore.Hbond>
4.6312

> <Gold.PLP.Chemscore.CHOScore>
0.0000

> <Gold.PLP.Chemscore.Metal>
0.0000

> <Gold.Chemscore.Hbonds>
donor molecule, donor type, donor heavy atom, donor atom, acceptor molecule, acceptor atom, score
      L1  H    10    31       P1  7957  0.30
      L1  H    12    45       P1  8028  1.90
      P1  H  7989  7998       L1    10  0.37
      P1  H  7997  8010       L1     5  0.89
      P1  H  8011  8017       L1    10  1.00

> <Gold.PLP.Chemscore.Internal.Correction>
0.1456

> <Gold.Rescore>
     Score         DG    S(hbond)    S(metal)    S(lipo)     H(rot)  DE(clash)    DE(int)     intcor
     16.49     -19.39       2.09        0.00     111.17       2.38       2.12       0.78       ----

> <Gold.Chemscore.Fitness>
16.4852

> <Gold.Chemscore.DG>
-19.3875

> <Gold.Chemscore.ZeroCoef>
-5.4800

> <Gold.Chemscore.Hbond>
2.0925

> <Gold.Chemscore.Metal>
0.0000

> <Gold.Chemscore.Lipo>
111.1697

> <Gold.Chemscore.Internal_Hbond>
0.0000

> <Gold.Chemscore.DEClash>
2.1196

> <Gold.Chemscore.DEInternal>
0.7827

> <Gold.Chemscore.Rot>
2.3783

> <Gold.Chemscore.Internal.Correction>
   9.000000E+99

> <Gold.Chemscore.Hbonds>
donor molecule, donor type, donor heavy atom, donor atom, acceptor molecule, acceptor atom, score
      L1  H    10    31       P1  7957  0.30
      L1  H    12    45       P1  8028  0.22
      P1  H  7989  7998       L1    10  0.34
      P1  H  7997  8010       L1     5  0.58
      P1  H  8011  8017       L1    10  0.09

> <Gold.Chemscore.Hbond.Weighted>
-6.9890

> <Gold.Chemscore.Metal.Weighted>
-0.0000

> <Gold.Chemscore.Lipo.Weighted>
-13.0068

> <Gold.Chemscore.Internal_Hbond.Weighted>
0.0000

> <Gold.Chemscore.DEClash.Weighted>
2.1196

> <Gold.Chemscore.DEInternal.Weighted>
0.7827

> <Gold.Chemscore.Rot.Weighted>
6.0884

> <Gold.Chemscore.Internal.Correction.Weighted>
   9.000000E+99

> <Gold.Protein.RotatedTorsions>
[ 6907 6896 6895 6894 ] final   53.53 input  -60.11 | X-H torsion
[ 7974 7965 7964 7962 ] final -160.98 input  175.53 | X-H torsion
[ 8008 7997 7996 7995 ] final   59.36 input   59.86 | X-H torsion
[ 10167 10162 10161 10158 ] final -155.65 input  -65.29 | X-H torsion
[ 10718 10713 10712 10709 ] final    3.18 input   66.30 | X-H torsion
[ 10763 10752 10751 10750 ] final  129.42 input  -60.55 | X-H torsion
[ 11005 11000 10999 10996 ] final  159.57 input  -57.11 | X-H torsion

> <Gold.Protein.ActiveResidues>
 VAL166  LYS551  ARG553  GLY616  TRP617  ASP618  TYR619  PRO620  LYS621  CYS622 
 ASP623  PHE694  ASN695  SER759  ASP760  ASP761  ALA762  ILE779  LEU786  VAL792 
 PHE793  MET794  SER795  GLU796  ALA797  LYS798  CYS799  TRP800  GLU811  SER814 

> <Gold.Protein.RotatedAtoms>
  152.3346  134.7214  160.0280 H   0  0  0  0  0  0  0  0  0  0  0  0  # atno 6907 bound_to 6896
  151.7619  133.3329  159.3428 H   0  0  0  0  0  0  0  0  0  0  0  0  # atno 6908 bound_to 6896
  150.7443  134.6029  159.6091 H   0  0  0  0  0  0  0  0  0  0  0  0  # atno 6909 bound_to 6896
  144.7407  140.3464  143.6124 H   0  0  0  0  0  0  0  0  0  0  0  0  # atno 7974 bound_to 7965
  155.5650  140.3489  155.4500 H   0  0  0  0  0  0  0  0  0  0  0  0  # atno 8008 bound_to 7997
  156.0487  140.1312  157.0101 H   0  0  0  0  0  0  0  0  0  0  0  0  # atno 8009 bound_to 7997
  154.4424  140.1009  156.6328 H   0  0  0  0  0  0  0  0  0  0  0  0  # atno 8010 bound_to 7997
  139.6914  143.9415  152.2386 H   0  0  0  0  0  0  0  0  0  0  0  0  # atno 10167 bound_to 10162
  156.8740  130.5630  149.5656 H   0  0  0  0  0  0  0  0  0  0  0  0  # atno 10718 bound_to 10713
  153.7415  135.3223  155.3305 H   0  0  0  0  0  0  0  0  0  0  0  0  # atno 10763 bound_to 10752
  154.8293  135.4546  154.1022 H   0  0  0  0  0  0  0  0  0  0  0  0  # atno 10764 bound_to 10752
  153.2198  135.6946  153.8095 H   0  0  0  0  0  0  0  0  0  0  0  0  # atno 10765 bound_to 10752
  140.1974  134.8363  157.2980 H   0  0  0  0  0  0  0  0  0  0  0  0  # atno 11005 bound_to 11000
  145.7321  139.1739  143.2424 LP  0  0  0  0  0  0  0  0  0  0  0  0  # atno 17320 bound_to 7965
  146.1198  140.7323  142.9463 LP  0  0  0  0  0  0  0  0  0  0  0  0  # atno 17321 bound_to 7965
  139.9232  144.6787  150.8440 LP  0  0  0  0  0  0  0  0  0  0  0  0  # atno 17342 bound_to 10162
  140.7683  143.3360  151.2308 LP  0  0  0  0  0  0  0  0  0  0  0  0  # atno 17343 bound_to 10162
  156.0711  130.5744  150.9386 LP  0  0  0  0  0  0  0  0  0  0  0  0  # atno 17370 bound_to 10713
  157.6179  131.0932  150.8676 LP  0  0  0  0  0  0  0  0  0  0  0  0  # atno 17371 bound_to 10713
  140.2092  134.4160  155.7622 LP  0  0  0  0  0  0  0  0  0  0  0  0  # atno 17394 bound_to 11000
  141.2227  133.7110  156.8310 LP  0  0  0  0  0  0  0  0  0  0  0  0  # atno 17395 bound_to 11000

$$$$
