AV-unprocessed.smi:2653|AV-procd|sdf|10296|dock9
  -GOLD-   2272014313D 1   1.00000     0.00000
 Structure written by MMmdl.
 31 32  0  0  0  0  0  0  0  0  1 V2000
  153.7684  141.6035  160.6653 C   0  0  0  0  0  0  0  0  0  0  0  0
  153.4539  142.6713  159.6115 C   0  0  0  0  0  0  0  0  0  0  0  0
  152.2209  143.4593  159.9594 C   0  0  0  0  0  0  0  0  0  0  0  0
  152.2042  144.1698  161.0841 N   0  0  0  0  0  0  0  0  0  0  0  0
  150.9876  144.7436  161.1012 N   0  0  0  0  0  0  0  0  0  0  0  0
  150.2571  144.4090  159.9840 C   0  0  0  0  0  0  0  0  0  0  0  0
  148.9823  144.7892  159.6924 N   0  0  0  0  0  0  0  0  0  0  0  0
  147.8377  144.6516  160.3952 C   0  0  0  0  0  0  0  0  0  0  0  0
  147.8283  144.0885  161.4885 O   0  0  0  0  0  0  0  0  0  0  0  0
  146.7290  145.1435  159.8170 N   0  0  0  0  0  0  0  0  0  0  0  0
  145.4132  145.1017  160.3665 C   0  0  0  0  0  0  0  0  0  0  0  0
  145.0597  143.9214  161.2453 C   0  0  0  0  0  0  0  0  0  0  0  0
  144.4762  144.0251  159.8632 C   0  0  0  0  0  0  0  0  0  0  0  0
  151.0044  143.5638  159.2143 C   0  0  0  0  0  0  0  0  0  0  0  0
  150.6618  142.9010  157.9075 C   0  0  0  0  0  0  0  0  0  0  0  0
  150.6827  145.3346  161.8613 H   0  0  0  0  0  0  0  0  0  0  0  0
  154.6662  141.0461  160.3978 H   0  0  0  0  0  0  0  0  0  0  0  0
  152.9494  140.8898  160.7605 H   0  0  0  0  0  0  0  0  0  0  0  0
  153.9355  142.0551  161.6437 H   0  0  0  0  0  0  0  0  0  0  0  0
  154.3087  143.3406  159.5098 H   0  0  0  0  0  0  0  0  0  0  0  0
  153.3309  142.1941  158.6384 H   0  0  0  0  0  0  0  0  0  0  0  0
  148.8672  145.1938  158.7745 H   0  0  0  0  0  0  0  0  0  0  0  0
  146.8236  145.5669  158.9057 H   0  0  0  0  0  0  0  0  0  0  0  0
  144.9517  146.0511  160.6348 H   0  0  0  0  0  0  0  0  0  0  0  0
  145.8226  143.1631  161.4120 H   0  0  0  0  0  0  0  0  0  0  0  0
  144.3945  144.1043  162.0868 H   0  0  0  0  0  0  0  0  0  0  0  0
  143.4209  144.2774  159.7809 H   0  0  0  0  0  0  0  0  0  0  0  0
  144.8500  143.3366  159.1074 H   0  0  0  0  0  0  0  0  0  0  0  0
  149.8117  143.3735  157.4153 H   0  0  0  0  0  0  0  0  0  0  0  0
  150.4093  141.8500  158.0467 H   0  0  0  0  0  0  0  0  0  0  0  0
  151.4956  142.9412  157.2064 H   0  0  0  0  0  0  0  0  0  0  0  0
  1  2  1  0  0  0  0
  1 17  1  0  0  0  0
  1 18  1  0  0  0  0
  1 19  1  0  0  0  0
  2 20  1  0  0  0  0
  2 21  1  0  0  0  0
  2  3  1  0  0  0  0
  3  4  2  0  0  0  0
  3 14  1  0  0  0  0
  4  5  1  0  0  0  0
  5 16  1  0  0  0  0
  5  6  1  0  0  0  0
  6  7  1  0  0  0  0
  6 14  2  0  0  0  0
  7  8  1  0  0  0  0
  7 22  1  0  0  0  0
  8  9  2  0  0  0  0
  8 10  1  0  0  0  0
 10 11  1  0  0  0  0
 10 23  1  0  0  0  0
 11 13  1  0  0  0  0
 11 12  1  0  0  0  0
 11 24  1  0  0  0  0
 12 13  1  0  0  0  0
 12 25  1  0  0  0  0
 12 26  1  0  0  0  0
 13 27  1  0  0  0  0
 13 28  1  0  0  0  0
 14 15  1  0  0  0  0
 15 29  1  0  0  0  0
 15 30  1  0  0  0  0
 15 31  1  0  0  0  0
M  END
> <s_m_source_file>
AV-unprocessed.smi

> <i_m_source_file_index>
2653

> <i_lp_mmshare_version>
43012

> <i_f3d_flags>
0

> <s_epik_input>
W0NIM11bQ0gyXWMxW25IXW5jKGMxW0NIM10pW05IXUMoPU8pW05IXVtDSF0yW0NIMl1bQ0gyXTI=

> <s_epik_cmdline>
J2VwaWtfcHl0aG9uJywgJy1waCcsICc3LjAnLCAnLXRuJywgJzgnLCAnLW1hJywgJzIwMCcsICctbWV0YWxfYmluZGluZycsICctaW1hZScsICc8aW5maWxlLm1hZT4nLCAnLW9tYWUnLCAnPG91dGZpbGUubWFlPic=

> <r_lp_tautomer_probability>
0.5

> <r_epik_Ionization_Penalty>
6.45879e-05

> <r_epik_Ionization_Penalty_Charging>
0

> <r_epik_Ionization_Penalty_Neutral>
6.45879e-05

> <r_epik_State_Penalty>
0.41068

> <r_epik_Charging_Adjusted_Penalty>
0.41068

> <i_epik_Tot_Q>
0

> <i_epik_Tot_abs_Q>
0

> <r_epik_Metal_State_Penalty>
0.410665

> <b_epik_Metal_Only>
0

> <s_lp_Force_Field>
OPLS_2005

> <r_lp_Energy>
17.9348

> <b_lp_Chiralities_Consistent>
1

> <s_lp_Variant>
AV-unprocessed.smi:2653-2

> <Gold.Version>
5.8.1

> <Gold.Id.Protein>
6NUR|6NUR_protein|mol2

> <Gold.PLP.Fitness>
37.0227

> <Gold.PLP.PLP>
-29.7023

> <Gold.PLP.part.hbond>
-4.0000

> <Gold.PLP.part.metal>
0.0000

> <Gold.PLP.part.buried>
-6.3252

> <Gold.PLP.part.nonpolar>
-20.8107

> <Gold.PLP.part.repulsive>
0.7078

> <Gold.PLP.ligand.clash>
0.0000

> <Gold.PLP.ligand.torsion>
0.8577

> <Gold.PLP.Chemscore.Hbond>
3.0000

> <Gold.PLP.Chemscore.CHOScore>
0.0000

> <Gold.PLP.Chemscore.Metal>
0.0000

> <Gold.Chemscore.Hbonds>
donor molecule, donor type, donor heavy atom, donor atom, acceptor molecule, acceptor atom, score
      L1  H     7    22       P1  8029  1.00
      L1  H    10    23       P1  8029  1.00
      P1  H  6933  6944       L1     9  1.00

> <Gold.PLP.Chemscore.Internal.Correction>
0.0359

> <Gold.Rescore>
     Score         DG    S(hbond)    S(metal)    S(lipo)     H(rot)  DE(clash)    DE(int)     intcor
     17.21     -19.67       2.86        0.00      66.09       1.21       0.34       2.12       ----

> <Gold.Chemscore.Fitness>
17.2058

> <Gold.Chemscore.DG>
-19.6719

> <Gold.Chemscore.ZeroCoef>
-5.4800

> <Gold.Chemscore.Hbond>
2.8635

> <Gold.Chemscore.Metal>
0.0000

> <Gold.Chemscore.Lipo>
66.0922

> <Gold.Chemscore.Internal_Hbond>
0.0000

> <Gold.Chemscore.DEClash>
0.3427

> <Gold.Chemscore.DEInternal>
2.1234

> <Gold.Chemscore.Rot>
1.2129

> <Gold.Chemscore.Internal.Correction>
   9.000000E+99

> <Gold.Chemscore.Hbonds>
donor molecule, donor type, donor heavy atom, donor atom, acceptor molecule, acceptor atom, score
      L1  H     7    22       P1  8029  0.98
      L1  H    10    23       P1  8029  0.95
      P1  H  6933  6944       L1     9  0.89

> <Gold.Chemscore.Hbond.Weighted>
-9.5640

> <Gold.Chemscore.Metal.Weighted>
-0.0000

> <Gold.Chemscore.Lipo.Weighted>
-7.7328

> <Gold.Chemscore.Internal_Hbond.Weighted>
0.0000

> <Gold.Chemscore.DEClash.Weighted>
0.3427

> <Gold.Chemscore.DEInternal.Weighted>
2.1234

> <Gold.Chemscore.Rot.Weighted>
3.1049

> <Gold.Chemscore.Internal.Correction.Weighted>
   9.000000E+99

> <Gold.Protein.RotatedTorsions>
[ 6907 6896 6895 6894 ] final   58.09 input  -60.11 | X-H torsion
[ 7974 7965 7964 7962 ] final   -3.04 input  175.53 | X-H torsion
[ 8008 7997 7996 7995 ] final   59.03 input   59.86 | X-H torsion
[ 10167 10162 10161 10158 ] final -173.48 input  -65.29 | X-H torsion
[ 10718 10713 10712 10709 ] final  -81.46 input   66.30 | X-H torsion
[ 10763 10752 10751 10750 ] final  100.80 input  -60.55 | X-H torsion
[ 11005 11000 10999 10996 ] final   39.06 input  -57.11 | X-H torsion

> <Gold.Protein.ActiveResidues>
 VAL166  LYS551  ARG553  GLY616  TRP617  ASP618  TYR619  PRO620  LYS621  CYS622 
 ASP623  PHE694  ASN695  SER759  ASP760  ASP761  ALA762  ILE779  LEU786  VAL792 
 PHE793  MET794  SER795  GLU796  ALA797  LYS798  CYS799  TRP800  GLU811  SER814 

> <Gold.Protein.RotatedAtoms>
  152.3792  134.6616  160.0148 H   0  0  0  0  0  0  0  0  0  0  0  0  # atno 6907 bound_to 6896
  151.6885  133.3306  159.3245 H   0  0  0  0  0  0  0  0  0  0  0  0  # atno 6908 bound_to 6896
  150.7734  134.6655  159.6407 H   0  0  0  0  0  0  0  0  0  0  0  0  # atno 6909 bound_to 6896
  146.2395  140.1661  142.8332 H   0  0  0  0  0  0  0  0  0  0  0  0  # atno 7974 bound_to 7965
  155.5595  140.3488  155.4488 H   0  0  0  0  0  0  0  0  0  0  0  0  # atno 8008 bound_to 7997
  156.0524  140.1321  157.0060 H   0  0  0  0  0  0  0  0  0  0  0  0  # atno 8009 bound_to 7997
  154.4440  140.1002  156.6381 H   0  0  0  0  0  0  0  0  0  0  0  0  # atno 8010 bound_to 7997
  139.5686  144.1695  152.1350 H   0  0  0  0  0  0  0  0  0  0  0  0  # atno 10167 bound_to 10162
  156.0050  130.4604  150.3955 H   0  0  0  0  0  0  0  0  0  0  0  0  # atno 10718 bound_to 10713
  153.3185  135.4066  155.1396 H   0  0  0  0  0  0  0  0  0  0  0  0  # atno 10763 bound_to 10752
  154.8594  135.3581  154.5628 H   0  0  0  0  0  0  0  0  0  0  0  0  # atno 10764 bound_to 10752
  153.6060  135.7069  153.5424 H   0  0  0  0  0  0  0  0  0  0  0  0  # atno 10765 bound_to 10752
  140.2065  134.3807  155.8070 H   0  0  0  0  0  0  0  0  0  0  0  0  # atno 11005 bound_to 11000
  145.0049  140.8664  143.5259 LP  0  0  0  0  0  0  0  0  0  0  0  0  # atno 17320 bound_to 7965
  145.1686  139.2417  143.5354 LP  0  0  0  0  0  0  0  0  0  0  0  0  # atno 17321 bound_to 7965
  140.1224  144.5362  150.6854 LP  0  0  0  0  0  0  0  0  0  0  0  0  # atno 17342 bound_to 10162
  140.6970  143.2410  151.4972 LP  0  0  0  0  0  0  0  0  0  0  0  0  # atno 17343 bound_to 10162
  157.2027  131.0442  151.2641 LP  0  0  0  0  0  0  0  0  0  0  0  0  # atno 17370 bound_to 10713
  157.3960  130.7308  149.6732 LP  0  0  0  0  0  0  0  0  0  0  0  0  # atno 17371 bound_to 10713
  141.2227  133.7121  156.8346 LP  0  0  0  0  0  0  0  0  0  0  0  0  # atno 17394 bound_to 11000
  140.1997  134.8906  157.3155 LP  0  0  0  0  0  0  0  0  0  0  0  0  # atno 17395 bound_to 11000

$$$$
