#       Name:                AV-unprocessed.smi:243
#       Creating user name   scv26
#       Creation time:       Thu Mar 26 20:47:10 2020


#       File generated by GOLD software.
#

@<TRIPOS>MOLECULE
AV-unprocessed.smi:243
    65    68     1
SMALL
NO_CHARGES


@<TRIPOS>ATOM
      1 ****        -4.3842  -5.1599   2.0434 C.3            1 S1                 0.0000
      2 ****        -3.2273  -4.5081   2.8149 C.3            1 S1                 0.0000
      3 ****        -3.0380  -3.0775   2.4635 N.4            1 S1                 1.0000
      4 ****        -2.3091  -2.3368   3.5245 C.3            1 S1                 0.0000
      5 ****        -2.2047  -0.8309   3.2123 C.3            1 S1                 0.0000
      6 ****        -1.6997  -0.5046   1.7910 C.3            1 S1                 0.0000
      7 ****        -0.2300  -0.4594   1.6775 N.pl3          1 S1                 0.0000
      8 ****         0.6381  -1.6293   1.7785 C.3            1 S1                 0.0000
      9 ****         0.3409   0.6926   1.2406 C.ar           1 S1                 0.0000
     10 ****        -0.0186   1.8590   1.8378 N.ar           1 S1                 0.0000
     11 ****         0.5258   3.0144   1.4454 C.ar           1 S1                 0.0000
     12 ****         1.4316   3.2274   0.4897 N.ar           1 S1                 0.0000
     13 ****         1.7923   2.0621  -0.1199 C.ar           1 S1                 0.0000
     14 ****         1.3050   0.7611   0.1928 C.ar           1 S1                 0.0000
     15 ****         1.9007  -0.1772  -0.6431 N.2            1 S1                 0.0000
     16 ****         2.7019   0.5259  -1.3951 C.2            1 S1                 0.0000
     17 ****         2.6905   1.8814  -1.1575 N.pl3          1 S1                 0.0000
     18 ****         3.4764   2.8921  -1.8475 C.3            1 S1                 0.0000
     19 ****         2.7534   3.5316  -3.0604 C.3            1 S1                 0.0000
     20 ****         1.5719   4.1784  -2.6275 O.3            1 S1                 0.0000
     21 ****         3.6384   4.5267  -3.7935 C.3            1 S1                 0.0000
     22 ****         4.4293   3.6408  -4.7548 C.3            1 S1                 0.0000
     23 ****         3.6243   2.4874  -4.9845 O.3            1 S1                 0.0000
     24 ****         2.4396   2.5527  -4.1984 C.3            1 S1                 0.0000
     25 ****        -2.4080  -1.3884   0.7356 C.3            1 S1                 0.0000
     26 ****        -1.9036  -1.1546  -0.6989 C.3            1 S1                 0.0000
     27 ****        -2.4196  -2.8792   1.1263 C.3            1 S1                 0.0000
     28 ****        -4.5584  -6.1745   2.4025 H              1 S1                 0.0000
     29 ****        -4.1799  -5.2288   0.9754 H              1 S1                 0.0000
     30 ****        -5.3110  -4.6007   2.1753 H              1 S1                 0.0000
     31 ****        -3.4550  -4.5887   3.8788 H              1 S1                 0.0000
     32 ****        -2.2992  -5.0596   2.6567 H              1 S1                 0.0000
     33 ****        -2.8387  -2.4541   4.4705 H              1 S1                 0.0000
     34 ****        -1.3295  -2.7839   3.6775 H              1 S1                 0.0000
     35 ****        -3.2027  -0.4035   3.3178 H              1 S1                 0.0000
     36 ****        -1.5897  -0.3282   3.9598 H              1 S1                 0.0000
     37 ****        -2.0614   0.5035   1.5858 H              1 S1                 0.0000
     38 ****         1.6758  -1.3337   1.9390 H              1 S1                 0.0000
     39 ****         0.5977  -2.2226   0.8655 H              1 S1                 0.0000
     40 ****         0.3675  -2.2653   2.6151 H              1 S1                 0.0000
     41 ****         0.1875   3.8946   1.9722 H              1 S1                 0.0000
     42 ****         3.3217   0.0730  -2.1554 H              1 S1                 0.0000
     43 ****         3.7484   3.6623  -1.1246 H              1 S1                 0.0000
     44 ****         4.4126   2.4304  -2.1632 H              1 S1                 0.0000
     45 ****         1.1499   4.5678  -3.3779 H              1 S1                 0.0000
     46 ****         3.0293   5.2224  -4.3733 H              1 S1                 0.0000
     47 ****         4.2746   5.1162  -3.1325 H              1 S1                 0.0000
     48 ****         4.6602   4.1539  -5.6887 H              1 S1                 0.0000
     49 ****         5.3700   3.3242  -4.3037 H              1 S1                 0.0000
     50 ****         2.1169   1.5672  -3.8669 H              1 S1                 0.0000
     51 ****         1.6493   2.9523  -4.8361 H              1 S1                 0.0000
     52 ****        -3.4533  -1.0741   0.7353 H              1 S1                 0.0000
     53 ****        -0.8809  -1.5060  -0.8325 H              1 S1                 0.0000
     54 ****        -1.9268  -0.0949  -0.9546 H              1 S1                 0.0000
     55 ****        -2.5264  -1.6803  -1.4231 H              1 S1                 0.0000
     56 ****        -1.4153  -3.3010   1.1170 H              1 S1                 0.0000
     57 ****        -2.9878  -3.4266   0.3753 H              1 S1                 0.0000
     58 ****        -3.9611  -2.6695   2.4217 H              1 S1                 0.0000
     59 ****        -0.6943   1.8526   2.5750 LP             1 S1                 0.0000
     60 ****         1.7990   4.1263   0.2509 LP             1 S1                 0.0000
     61 ****         1.7494  -1.1655  -0.6632 LP             1 S1                 0.0000
     62 ****         1.8011   4.8896  -1.9630 LP             1 S1                 0.0000
     63 ****         0.9585   3.5118  -2.2041 LP             1 S1                 0.0000
     64 ****         4.1414   1.6684  -4.7359 LP             1 S1                 0.0000
     65 ****         3.3769   2.4443  -5.9525 LP             1 S1                 0.0000
@<TRIPOS>BOND
    1    1    2 1     
    2    1   28 1     
    3    1   29 1     
    4    1   30 1     
    5    2    3 1     
    6    2   31 1     
    7    2   32 1     
    8    3   27 1     
    9    3    4 1     
   10    3   58 1     
   11    4    5 1     
   12    4   33 1     
   13    4   34 1     
   14    5    6 1     
   15    5   35 1     
   16    5   36 1     
   17    6    7 1     
   18    6   25 1     
   19    6   37 1     
   20    7    8 1     
   21    7    9 1     
   22    8   38 1     
   23    8   39 1     
   24    8   40 1     
   25    9   14 ar    
   26    9   10 ar    
   27   10   11 ar    
   28   11   12 ar    
   29   11   41 1     
   30   12   13 ar    
   31   13   17 1     
   32   13   14 ar    
   33   14   15 1     
   34   15   16 2     
   35   16   17 1     
   36   16   42 1     
   37   17   18 1     
   38   18   19 1     
   39   18   43 1     
   40   18   44 1     
   41   19   24 1     
   42   19   20 1     
   43   19   21 1     
   44   20   45 1     
   45   21   22 1     
   46   21   46 1     
   47   21   47 1     
   48   22   23 1     
   49   22   48 1     
   50   22   49 1     
   51   23   24 1     
   52   24   50 1     
   53   24   51 1     
   54   25   26 1     
   55   25   27 1     
   56   25   52 1     
   57   26   53 1     
   58   26   54 1     
   59   26   55 1     
   60   27   56 1     
   61   27   57 1     
   62   10   59 1     
   63   12   60 1     
   64   15   61 1     
   65   20   62 1     
   66   20   63 1     
   67   23   64 1     
   68   23   65 1     
@<TRIPOS>SUBSTRUCTURE
      1 S1             1
@<TRIPOS>SET
LONE_PAIRS      STATIC     ATOMS    <user>   **** ""
7 59 60 61 62 63 64 65
DONOR_HYDROGENS      STATIC     ATOMS    <user>   **** ""
2 58 45
ATOM$BLUE        STATIC     ATOMS    COLORGROUP SYSTEM
7 59 60 61 62 63 64 65
ATOM$RED        STATIC     ATOMS    COLORGROUP SYSTEM
2 58 45
