AV-unprocessed.smi:136|AV-procd|sdf|1172|dock10
  -GOLD-   2262018323D 1   1.00000     0.00000
 Structure written by MMmdl.
 54 58  0  0  0  0  0  0  0  0  1 V2000
  154.6289  135.6761  156.9777 O   0  0  0  0  0  0  0  0  0  0  0  0
  154.7681  136.8711  157.2450 C   0  0  0  0  0  0  0  0  0  0  0  0
  156.1656  137.5214  157.1556 C   0  0  0  0  0  0  0  0  0  0  0  0
  156.8251  137.3276  155.8459 N   0  0  0  0  0  0  0  0  0  0  0  0
  156.2953  137.9929  154.7127 C   0  0  0  0  0  0  0  0  0  0  0  0
  155.3091  138.7251  154.8047 O   0  0  0  0  0  0  0  0  0  0  0  0
  156.9905  137.7442  153.4549 C   0  0  0  0  0  0  0  0  0  0  0  0
  156.5703  138.3502  152.3314 F   0  0  0  0  0  0  0  0  0  0  0  0
  158.0539  136.9160  153.3998 C   0  0  0  0  0  0  0  0  0  0  0  0
  158.5462  136.2535  154.5106 N   0  0  0  0  0  0  0  0  0  0  0  0
  159.7421  135.3261  154.4327 C   0  0  1  0  0  0  0  0  0  0  0  0
  159.3080  133.8586  154.6214 C   0  0  0  0  0  0  0  0  0  0  0  0
  159.8964  133.1718  153.4044 C   0  0  0  0  0  0  0  0  0  0  0  0
  159.9223  134.3002  152.3850 C   0  0  0  0  0  0  0  0  0  0  0  0
  160.3317  135.4142  153.1667 O   0  0  0  0  0  0  0  0  0  0  0  0
  157.9396  136.4589  155.7689 C   0  0  0  0  0  0  0  0  0  0  0  0
  158.3698  135.8868  156.7730 O   0  0  0  0  0  0  0  0  0  0  0  0
  153.7266  137.6439  157.6263 N   0  0  0  0  0  0  0  0  0  0  0  0
  153.8656  138.9325  158.0272 N   0  0  0  0  0  0  0  0  0  0  0  0
  152.7419  139.3776  158.4525 C   0  0  0  0  0  0  0  0  0  0  0  0
  152.5246  140.7481  158.9658 C   0  0  0  0  0  0  0  0  0  0  0  0
  153.4433  141.2973  159.8889 C   0  0  0  0  0  0  0  0  0  0  0  0
  153.2370  142.6017  160.3789 C   0  0  0  0  0  0  0  0  0  0  0  0
  152.1225  143.3510  159.9511 C   0  0  0  0  0  0  0  0  0  0  0  0
  151.8751  144.9479  160.5558 Cl  0  0  0  0  0  0  0  0  0  0  0  0
  151.2094  142.7981  159.0309 C   0  0  0  0  0  0  0  0  0  0  0  0
  151.4049  141.4944  158.5341 C   0  0  0  0  0  0  0  0  0  0  0  0
  151.6341  138.3812  158.3819 C   0  0  0  0  0  0  0  0  0  0  0  0
  152.3407  137.1761  157.7554 C   0  0  1  0  0  0  0  0  0  0  0  0
  151.7335  136.7555  156.4495 C   0  0  0  0  0  0  0  0  0  0  0  0
  151.0432  135.6443  156.0510 C   0  0  0  0  0  0  0  0  0  0  0  0
  150.7165  135.8439  154.6812 C   0  0  0  0  0  0  0  0  0  0  0  0
  151.2265  137.0658  154.3465 C   0  0  0  0  0  0  0  0  0  0  0  0
  151.8457  137.6372  155.4144 O   0  0  0  0  0  0  0  0  0  0  0  0
  156.0704  138.5836  157.3870 H   0  0  0  0  0  0  0  0  0  0  0  0
  156.7905  137.1294  157.9598 H   0  0  0  0  0  0  0  0  0  0  0  0
  158.5246  136.7801  152.4383 H   0  0  0  0  0  0  0  0  0  0  0  0
  160.4411  135.6876  155.1888 H   0  0  0  0  0  0  0  0  0  0  0  0
  159.6857  133.4581  155.5625 H   0  0  0  0  0  0  0  0  0  0  0  0
  158.2196  133.7800  154.6141 H   0  0  0  0  0  0  0  0  0  0  0  0
  160.9128  132.8373  153.6163 H   0  0  0  0  0  0  0  0  0  0  0  0
  159.3134  132.3112  153.0752 H   0  0  0  0  0  0  0  0  0  0  0  0
  160.6114  134.1115  151.5620 H   0  0  0  0  0  0  0  0  0  0  0  0
  158.9280  134.4734  151.9713 H   0  0  0  0  0  0  0  0  0  0  0  0
  154.3045  140.7398  160.2279 H   0  0  0  0  0  0  0  0  0  0  0  0
  153.9361  143.0268  161.0839 H   0  0  0  0  0  0  0  0  0  0  0  0
  150.3559  143.3743  158.7046 H   0  0  0  0  0  0  0  0  0  0  0  0
  150.6900  141.0928  157.8315 H   0  0  0  0  0  0  0  0  0  0  0  0
  151.2490  138.1469  159.3750 H   0  0  0  0  0  0  0  0  0  0  0  0
  150.8130  138.7485  157.7644 H   0  0  0  0  0  0  0  0  0  0  0  0
  152.3176  136.3378  158.4540 H   0  0  0  0  0  0  0  0  0  0  0  0
  150.8055  134.7914  156.6693 H   0  0  0  0  0  0  0  0  0  0  0  0
  150.1758  135.1789  154.0240 H   0  0  0  0  0  0  0  0  0  0  0  0
  151.2373  137.6520  153.4395 H   0  0  0  0  0  0  0  0  0  0  0  0
  1  2  2  0  0  0  0
  2  3  1  0  0  0  0
  2 18  1  0  0  0  0
  3  4  1  0  0  0  0
  3 35  1  0  0  0  0
  3 36  1  0  0  0  0
  4 16  1  0  0  0  0
  4  5  1  0  0  0  0
  5  6  2  0  0  0  0
  5  7  1  0  0  0  0
  7  8  1  0  0  0  0
  7  9  2  0  0  0  0
  9 10  1  0  0  0  0
  9 37  1  0  0  0  0
 10 11  1  0  0  0  0
 10 16  1  0  0  0  0
 11 15  1  0  0  0  0
 11 12  1  0  0  0  0
 11 38  1  0  0  0  0
 12 13  1  0  0  0  0
 12 39  1  0  0  0  0
 12 40  1  0  0  0  0
 13 14  1  0  0  0  0
 13 41  1  0  0  0  0
 13 42  1  0  0  0  0
 14 15  1  0  0  0  0
 14 43  1  0  0  0  0
 14 44  1  0  0  0  0
 16 17  2  0  0  0  0
 18 29  1  0  0  0  0
 18 19  1  0  0  0  0
 19 20  2  0  0  0  0
 20 21  1  0  0  0  0
 20 28  1  0  0  0  0
 21 27  1  0  0  0  0
 21 22  2  0  0  0  0
 22 23  1  0  0  0  0
 22 45  1  0  0  0  0
 23 24  2  0  0  0  0
 23 46  1  0  0  0  0
 24 25  1  0  0  0  0
 24 26  1  0  0  0  0
 26 27  2  0  0  0  0
 26 47  1  0  0  0  0
 27 48  1  0  0  0  0
 28 29  1  0  0  0  0
 28 49  1  0  0  0  0
 28 50  1  0  0  0  0
 29 30  1  0  0  0  0
 29 51  1  0  0  0  0
 30 34  1  0  0  0  0
 30 31  2  0  0  0  0
 31 32  1  0  0  0  0
 31 52  1  0  0  0  0
 32 33  2  0  0  0  0
 32 53  1  0  0  0  0
 33 34  1  0  0  0  0
 33 54  1  0  0  0  0
M  END
> <s_m_source_file>
AV-unprocessed.smi

> <i_m_source_file_index>
136

> <i_lp_mmshare_version>
43012

> <i_f3d_flags>
0

> <s_epik_input>
bzFbY0hdW2NIXVtjSF1jMVtDQEBIXTJbQ0gyXUMoYzNbY0hdW2NIXWMoQ2wpW2NIXVtjSF0zKT1OTjJDKD1PKVtDSDJdbjRjKD1PKWMoRilbY0hdbihjND1PKVtDQEBIXTVbQ0gyXVtDSDJdW0NIMl1PNQ==

> <s_epik_cmdline>
J2VwaWtfcHl0aG9uJywgJy1waCcsICc3LjAnLCAnLXRuJywgJzgnLCAnLW1hJywgJzIwMCcsICctbWV0YWxfYmluZGluZycsICctaW1hZScsICc8aW5maWxlLm1hZT4nLCAnLW9tYWUnLCAnPG91dGZpbGUubWFlPic=

> <r_lp_tautomer_probability>
1

> <r_epik_Ionization_Penalty>
2.55467e-08

> <r_epik_Ionization_Penalty_Charging>
4.85705e-09

> <r_epik_Ionization_Penalty_Neutral>
2.06897e-08

> <r_epik_State_Penalty>
-0

> <r_epik_Charging_Adjusted_Penalty>
4.85705e-09

> <i_epik_Tot_Q>
0

> <i_epik_Tot_abs_Q>
0

> <r_epik_Metal_State_Penalty>
-0

> <b_epik_Metal_Only>
0

> <s_epik_Chemistry_Notes>
This compound has an imine and may undergo hydrolysis. This compound contains an acetal/aminal-like group ( X-CH(R)-Y where X, Y are N, S, or O) that may be acid/base labile, releasing an aldehyde.

> <s_lp_Force_Field>
OPLS_2005

> <r_lp_Energy>
41.711

> <b_lp_Chiralities_Consistent>
1

> <s_lp_Variant>
AV-unprocessed.smi:136-2

> <Gold.Version>
5.8.1

> <Gold.Id.Protein>
6NUR|6NUR_protein|mol2

> <Gold.PLP.Fitness>
58.0520

> <Gold.PLP.PLP>
-51.2647

> <Gold.PLP.part.hbond>
-2.7125

> <Gold.PLP.part.metal>
0.0000

> <Gold.PLP.part.buried>
-4.9982

> <Gold.PLP.part.nonpolar>
-44.7189

> <Gold.PLP.part.repulsive>
0.2773

> <Gold.PLP.ligand.clash>
0.0000

> <Gold.PLP.ligand.torsion>
1.2449

> <Gold.PLP.Chemscore.Hbond>
2.4800

> <Gold.PLP.Chemscore.CHOScore>
0.5921

> <Gold.PLP.Chemscore.Metal>
0.0000

> <Gold.Chemscore.Hbonds>
donor molecule, donor type, donor heavy atom, donor atom, acceptor molecule, acceptor atom, score
      P1  H  7997  8008       L1     6  0.43
      P1  H  7997  8010       L1    19  1.00
      P1  H 10752 10763       L1     1  1.00
      L1  C    33    54       P1  7949  0.50

> <Gold.PLP.Chemscore.Internal.Correction>
0.0606

> <Gold.Rescore>
     Score         DG    S(hbond)    S(metal)    S(lipo)     H(rot)  DE(clash)    DE(int)     intcor
     23.65     -25.98       2.34        0.00     147.91       1.81       0.90       1.43       ----

> <Gold.Chemscore.Fitness>
23.6459

> <Gold.Chemscore.DG>
-25.9761

> <Gold.Chemscore.ZeroCoef>
-5.4800

> <Gold.Chemscore.Hbond>
2.3391

> <Gold.Chemscore.Metal>
0.0000

> <Gold.Chemscore.Lipo>
147.9134

> <Gold.Chemscore.Internal_Hbond>
0.0000

> <Gold.Chemscore.DEClash>
0.9027

> <Gold.Chemscore.DEInternal>
1.4276

> <Gold.Chemscore.Rot>
1.8056

> <Gold.Chemscore.Internal.Correction>
   9.000000E+99

> <Gold.Chemscore.Hbonds>
donor molecule, donor type, donor heavy atom, donor atom, acceptor molecule, acceptor atom, score
      P1  H  7997  8008       L1     6  0.44
      P1  H  7997  8010       L1    19  0.75
      P1  H 10752 10763       L1     1  0.94

> <Gold.Chemscore.Hbond.Weighted>
-7.8126

> <Gold.Chemscore.Metal.Weighted>
-0.0000

> <Gold.Chemscore.Lipo.Weighted>
-17.3059

> <Gold.Chemscore.Internal_Hbond.Weighted>
0.0000

> <Gold.Chemscore.DEClash.Weighted>
0.9027

> <Gold.Chemscore.DEInternal.Weighted>
1.4276

> <Gold.Chemscore.Rot.Weighted>
4.6223

> <Gold.Chemscore.Internal.Correction.Weighted>
   9.000000E+99

> <Gold.Protein.RotatedTorsions>
[ 6907 6896 6895 6894 ] final   74.27 input  -60.11 | X-H torsion
[ 7974 7965 7964 7962 ] final -126.84 input  175.53 | X-H torsion
[ 8008 7997 7996 7995 ] final   37.70 input   59.86 | X-H torsion
[ 10167 10162 10161 10158 ] final  128.96 input  -65.29 | X-H torsion
[ 10718 10713 10712 10709 ] final  155.91 input   66.30 | X-H torsion
[ 10763 10752 10751 10750 ] final  154.28 input  -60.55 | X-H torsion
[ 11005 11000 10999 10996 ] final   76.72 input  -57.11 | X-H torsion

> <Gold.Protein.ActiveResidues>
 VAL166  LYS551  ARG553  GLY616  TRP617  ASP618  TYR619  PRO620  LYS621  CYS622 
 ASP623  PHE694  ASN695  SER759  ASP760  ASP761  ALA762  ILE779  LEU786  VAL792 
 PHE793  MET794  SER795  GLU796  ALA797  LYS798  CYS799  TRP800  GLU811  SER814 

> <Gold.Protein.RotatedAtoms>
  152.4967  134.4296  159.9507 H   0  0  0  0  0  0  0  0  0  0  0  0  # atno 6907 bound_to 6896
  151.4273  133.3674  159.2772 H   0  0  0  0  0  0  0  0  0  0  0  0  # atno 6908 bound_to 6896
  150.9179  134.8620  159.7529 H   0  0  0  0  0  0  0  0  0  0  0  0  # atno 6909 bound_to 6896
  144.9832  140.7660  143.4600 H   0  0  0  0  0  0  0  0  0  0  0  0  # atno 7974 bound_to 7965
  155.2081  140.3321  155.4333 H   0  0  0  0  0  0  0  0  0  0  0  0  # atno 8008 bound_to 7997
  156.2381  140.1882  156.7113 H   0  0  0  0  0  0  0  0  0  0  0  0  # atno 8009 bound_to 7997
  154.6096  140.0611  156.9462 H   0  0  0  0  0  0  0  0  0  0  0  0  # atno 8010 bound_to 7997
  139.5501  144.6806  151.4350 H   0  0  0  0  0  0  0  0  0  0  0  0  # atno 10167 bound_to 10162
  157.2121  131.0700  151.1963 H   0  0  0  0  0  0  0  0  0  0  0  0  # atno 10718 bound_to 10713
  154.1497  135.2816  155.3138 H   0  0  0  0  0  0  0  0  0  0  0  0  # atno 10763 bound_to 10752
  154.6226  135.5462  153.7595 H   0  0  0  0  0  0  0  0  0  0  0  0  # atno 10764 bound_to 10752
  153.0225  135.6443  154.1642 H   0  0  0  0  0  0  0  0  0  0  0  0  # atno 10765 bound_to 10752
  139.9286  134.7624  156.1431 H   0  0  0  0  0  0  0  0  0  0  0  0  # atno 11005 bound_to 11000
  145.2391  139.2080  143.5002 LP  0  0  0  0  0  0  0  0  0  0  0  0  # atno 17320 bound_to 7965
  146.3413  140.2283  142.8593 LP  0  0  0  0  0  0  0  0  0  0  0  0  # atno 17321 bound_to 7965
  140.6761  143.8186  150.7060 LP  0  0  0  0  0  0  0  0  0  0  0  0  # atno 17342 bound_to 10162
  140.1625  143.4263  152.2057 LP  0  0  0  0  0  0  0  0  0  0  0  0  # atno 17343 bound_to 10162
  157.3662  130.7157  149.6534 LP  0  0  0  0  0  0  0  0  0  0  0  0  # atno 17370 bound_to 10713
  155.9690  130.4212  150.4457 LP  0  0  0  0  0  0  0  0  0  0  0  0  # atno 17371 bound_to 10713
  141.0860  133.6734  156.2437 LP  0  0  0  0  0  0  0  0  0  0  0  0  # atno 17394 bound_to 11000
  140.6266  134.5307  157.5554 LP  0  0  0  0  0  0  0  0  0  0  0  0  # atno 17395 bound_to 11000

$$$$
