AV-unprocessed.smi:280|AV-procd|sdf|2100|dock10
  -GOLD-   2262021393D 1   1.00000     0.00000
 Structure written by MMmdl.
 59 62  0  0  0  0  0  0  0  0  2 V2000
  149.3738  133.8313  154.3627 C   0  0  0  0  0  0  0  0  0  0  0  0
  148.7164  135.0324  155.0737 C   0  0  1  0  0  0  0  0  0  0  0  0
  149.8003  136.1158  155.2789 C   0  0  0  0  0  0  0  0  0  0  0  0
  149.2521  137.3514  155.8240 N   0  0  0  0  0  0  0  0  0  0  0  0
  150.1767  138.2207  156.3067 C   0  0  0  0  0  0  0  0  0  0  0  0
  151.2464  137.7548  157.0055 N   0  0  0  0  0  0  0  0  0  0  0  0
  152.1606  138.6027  157.4861 C   0  0  0  0  0  0  0  0  0  0  0  0
  152.1998  139.9322  157.3832 N   0  0  0  0  0  0  0  0  0  0  0  0
  151.1328  140.4072  156.6794 C   0  0  0  0  0  0  0  0  0  0  0  0
  150.0847  139.6281  156.1123 C   0  0  0  0  0  0  0  0  0  0  0  0
  149.1820  140.4570  155.4571 N   0  0  0  0  0  0  0  0  0  0  0  0
  149.6656  141.6566  155.6310 C   0  0  0  0  0  0  0  0  0  0  0  0
  150.8309  141.7206  156.3616 N   0  0  0  0  0  0  0  0  0  0  0  0
  151.5859  142.9190  156.6967 C   0  0  0  0  0  0  0  0  0  0  0  0
  151.4862  143.3250  158.1810 C   0  0  0  0  0  0  0  0  0  0  0  0
  151.8391  142.1340  159.0891 C   0  0  0  0  0  0  0  0  0  0  0  0
  151.5681  142.4244  160.4453 O   0  0  0  0  0  0  0  0  0  0  0  0
  152.1595  144.6509  158.5610 C   0  0  0  0  0  0  0  0  0  0  0  0
  150.9645  145.1401  159.2061 O   0  0  0  0  0  0  0  0  0  0  0  0
  150.2103  144.0765  158.5875 C   0  0  0  0  0  0  0  0  0  0  0  0
  148.1449  137.8963  155.0489 C   0  0  0  0  0  0  0  0  0  0  0  0
  147.0347  136.8500  154.9093 C   0  0  0  0  0  0  0  0  0  0  0  0
  147.5357  135.5742  154.3281 N   0  3  2  0  0  0  0  0  0  0  0  0
  146.4195  134.6022  154.1330 C   0  0  0  0  0  0  0  0  0  0  0  0
  146.1189  134.3174  152.6407 C   0  0  0  0  0  0  0  0  0  0  0  0
  147.1800  133.4210  151.9779 C   0  0  0  0  0  0  0  0  0  0  0  0
  144.7255  133.6822  152.4959 C   0  0  0  0  0  0  0  0  0  0  0  0
  146.0766  135.5426  151.9362 O   0  0  0  0  0  0  0  0  0  0  0  0
  150.2624  133.5050  154.9039 H   0  0  0  0  0  0  0  0  0  0  0  0
  149.6897  134.0938  153.3529 H   0  0  0  0  0  0  0  0  0  0  0  0
  148.7223  132.9620  154.2930 H   0  0  0  0  0  0  0  0  0  0  0  0
  148.3677  134.7099  156.0565 H   0  0  0  0  0  0  0  0  0  0  0  0
  150.5869  135.7197  155.9205 H   0  0  0  0  0  0  0  0  0  0  0  0
  150.2725  136.3511  154.3237 H   0  0  0  0  0  0  0  0  0  0  0  0
  152.9778  138.1515  158.0293 H   0  0  0  0  0  0  0  0  0  0  0  0
  149.1819  142.5323  155.2237 H   0  0  0  0  0  0  0  0  0  0  0  0
  152.6259  142.7680  156.4060 H   0  0  0  0  0  0  0  0  0  0  0  0
  151.2214  143.7243  156.0576 H   0  0  0  0  0  0  0  0  0  0  0  0
  151.2546  141.2555  158.8141 H   0  0  0  0  0  0  0  0  0  0  0  0
  152.8848  141.8441  158.9873 H   0  0  0  0  0  0  0  0  0  0  0  0
  151.6199  141.6219  160.9418 H   0  0  0  0  0  0  0  0  0  0  0  0
  152.9961  144.5453  159.2528 H   0  0  0  0  0  0  0  0  0  0  0  0
  152.4390  145.2676  157.7052 H   0  0  0  0  0  0  0  0  0  0  0  0
  149.6202  144.4445  157.7471 H   0  0  0  0  0  0  0  0  0  0  0  0
  149.5825  143.5370  159.2979 H   0  0  0  0  0  0  0  0  0  0  0  0
  147.7449  138.7868  155.5363 H   0  0  0  0  0  0  0  0  0  0  0  0
  148.5025  138.1979  154.0632 H   0  0  0  0  0  0  0  0  0  0  0  0
  146.6028  136.6519  155.8918 H   0  0  0  0  0  0  0  0  0  0  0  0
  146.2349  137.2564  154.2902 H   0  0  0  0  0  0  0  0  0  0  0  0
  146.6255  133.6608  154.6386 H   0  0  0  0  0  0  0  0  0  0  0  0
  145.5159  134.9690  154.6235 H   0  0  0  0  0  0  0  0  0  0  0  0
  147.2538  132.4580  152.4840 H   0  0  0  0  0  0  0  0  0  0  0  0
  148.1679  133.8820  151.9931 H   0  0  0  0  0  0  0  0  0  0  0  0
  146.9337  133.2228  150.9340 H   0  0  0  0  0  0  0  0  0  0  0  0
  144.6760  132.7212  153.0090 H   0  0  0  0  0  0  0  0  0  0  0  0
  144.4718  133.5076  151.4494 H   0  0  0  0  0  0  0  0  0  0  0  0
  143.9492  134.3208  152.9194 H   0  0  0  0  0  0  0  0  0  0  0  0
  146.9625  135.8466  151.8062 H   0  0  0  0  0  0  0  0  0  0  0  0
  147.8748  135.7997  153.4037 H   0  0  0  0  0  0  0  0  0  0  0  0
  1  2  1  0  0  0  0
  1 29  1  0  0  0  0
  1 30  1  0  0  0  0
  1 31  1  0  0  0  0
  2 23  1  0  0  0  0
  2  3  1  0  0  0  0
  2 32  1  0  0  0  0
  3  4  1  0  0  0  0
  3 33  1  0  0  0  0
  3 34  1  0  0  0  0
  4  5  1  0  0  0  0
  4 21  1  0  0  0  0
  5 10  1  0  0  0  0
  5  6  2  0  0  0  0
  6  7  1  0  0  0  0
  7  8  2  0  0  0  0
  7 35  1  0  0  0  0
  8  9  1  0  0  0  0
  9 13  1  0  0  0  0
  9 10  2  0  0  0  0
 10 11  1  0  0  0  0
 11 12  2  0  0  0  0
 12 13  1  0  0  0  0
 12 36  1  0  0  0  0
 13 14  1  0  0  0  0
 14 15  1  0  0  0  0
 14 37  1  0  0  0  0
 14 38  1  0  0  0  0
 15 20  1  0  0  0  0
 15 16  1  0  0  0  0
 15 18  1  0  0  0  0
 16 17  1  0  0  0  0
 16 39  1  0  0  0  0
 16 40  1  0  0  0  0
 17 41  1  0  0  0  0
 18 19  1  0  0  0  0
 18 42  1  0  0  0  0
 18 43  1  0  0  0  0
 19 20  1  0  0  0  0
 20 44  1  0  0  0  0
 20 45  1  0  0  0  0
 21 22  1  0  0  0  0
 21 46  1  0  0  0  0
 21 47  1  0  0  0  0
 22 23  1  0  0  0  0
 22 48  1  0  0  0  0
 22 49  1  0  0  0  0
 23 24  1  0  0  0  0
 23 59  1  0  0  0  0
 24 25  1  0  0  0  0
 24 50  1  0  0  0  0
 24 51  1  0  0  0  0
 25 26  1  0  0  0  0
 25 27  1  0  0  0  0
 25 28  1  0  0  0  0
 26 52  1  0  0  0  0
 26 53  1  0  0  0  0
 26 54  1  0  0  0  0
 27 55  1  0  0  0  0
 27 56  1  0  0  0  0
 27 57  1  0  0  0  0
 28 58  1  0  0  0  0
M  CHG  1  23   1
M  END
> <s_m_source_file>
AV-unprocessed.smi

> <i_m_source_file_index>
280

> <i_lp_mmshare_version>
43012

> <i_f3d_flags>
0

> <s_epik_input>
W0NIM11DKFtDSDNdKShbT0hdKVtDSDJdTjFbQ0gyXVtDSDJdTihbQ0gyXVtDQEhdMVtDSDNdKWMobltjSF1uMiljKGMyMyluW2NIXW4zW0NIMl1DNChbQ0gyXVtPSF0pW0NIMl1PW0NIMl00

> <s_epik_cmdline>
J2VwaWtfcHl0aG9uJywgJy1waCcsICc3LjAnLCAnLXRuJywgJzgnLCAnLW1hJywgJzIwMCcsICctbWV0YWxfYmluZGluZycsICctaW1hZScsICc8aW5maWxlLm1hZT4nLCAnLW9tYWUnLCAnPG91dGZpbGUubWFlPic=

> <r_lp_tautomer_probability>
1

> <r_epik_Ionization_Penalty>
0.00179402

> <r_epik_Ionization_Penalty_Charging>
0.00173996

> <r_epik_Ionization_Penalty_Neutral>
5.40607e-05

> <r_epik_State_Penalty>
-0

> <r_epik_Charging_Adjusted_Penalty>
0.00173996

> <i_epik_Tot_Q>
1

> <i_epik_Tot_abs_Q>
1

> <r_epik_Metal_State_Penalty>
-0

> <b_epik_Metal_Only>
0

> <s_lp_Force_Field>
OPLS_2005

> <r_lp_Energy>
52.0143

> <b_lp_Chiralities_Consistent>
1

> <s_lp_Variant>
AV-unprocessed.smi:280-4

> <Gold.Version>
5.8.1

> <Gold.Id.Protein>
6NUR|6NUR_protein|mol2

> <Gold.PLP.Fitness>
50.4760

> <Gold.PLP.PLP>
-37.3460

> <Gold.PLP.part.hbond>
-3.5514

> <Gold.PLP.part.metal>
0.0000

> <Gold.PLP.part.buried>
-7.6385

> <Gold.PLP.part.nonpolar>
-27.2109

> <Gold.PLP.part.repulsive>
0.2557

> <Gold.PLP.ligand.clash>
0.0000

> <Gold.PLP.ligand.torsion>
1.5797

> <Gold.PLP.Chemscore.Hbond>
3.9500

> <Gold.PLP.Chemscore.CHOScore>
1.0000

> <Gold.PLP.Chemscore.Metal>
0.0000

> <Gold.Chemscore.Hbonds>
donor molecule, donor type, donor heavy atom, donor atom, acceptor molecule, acceptor atom, score
      L1  H    23    59       P1  7948  2.00
      L1  H    28    58       P1  7948  1.00
      P1  H  7997  8008       L1     8  0.22
      L1  C    12    36       P1  8028  1.00

> <Gold.PLP.Chemscore.Internal.Correction>
1.4394

> <Gold.Rescore>
     Score         DG    S(hbond)    S(metal)    S(lipo)     H(rot)  DE(clash)    DE(int)     intcor
      9.89     -16.02       2.75        0.00      91.05       3.63       1.86       4.27       ----

> <Gold.Chemscore.Fitness>
9.8929

> <Gold.Chemscore.DG>
-16.0200

> <Gold.Chemscore.ZeroCoef>
-5.4800

> <Gold.Chemscore.Hbond>
2.7454

> <Gold.Chemscore.Metal>
0.0000

> <Gold.Chemscore.Lipo>
91.0497

> <Gold.Chemscore.Internal_Hbond>
0.0000

> <Gold.Chemscore.DEClash>
1.8617

> <Gold.Chemscore.DEInternal>
4.2655

> <Gold.Chemscore.Rot>
3.6260

> <Gold.Chemscore.Internal.Correction>
   9.000000E+99

> <Gold.Chemscore.Hbonds>
donor molecule, donor type, donor heavy atom, donor atom, acceptor molecule, acceptor atom, score
      L1  H    23    59       P1  7948  0.99
      L1  H    28    58       P1  7948  0.96
      P1  H  7997  8008       L1     8  0.04

> <Gold.Chemscore.Hbond.Weighted>
-9.1697

> <Gold.Chemscore.Metal.Weighted>
-0.0000

> <Gold.Chemscore.Lipo.Weighted>
-10.6528

> <Gold.Chemscore.Internal_Hbond.Weighted>
0.0000

> <Gold.Chemscore.DEClash.Weighted>
1.8617

> <Gold.Chemscore.DEInternal.Weighted>
4.2655

> <Gold.Chemscore.Rot.Weighted>
9.2825

> <Gold.Chemscore.Internal.Correction.Weighted>
   9.000000E+99

> <Gold.Protein.RotatedTorsions>
[ 6907 6896 6895 6894 ] final  -79.05 input  -60.11 | X-H torsion
[ 7974 7965 7964 7962 ] final -129.56 input  175.53 | X-H torsion
[ 8008 7997 7996 7995 ] final  -48.89 input   59.86 | X-H torsion
[ 10167 10162 10161 10158 ] final   21.47 input  -65.29 | X-H torsion
[ 10718 10713 10712 10709 ] final  -93.57 input   66.30 | X-H torsion
[ 10763 10752 10751 10750 ] final   28.27 input  -60.55 | X-H torsion
[ 11005 11000 10999 10996 ] final -143.34 input  -57.11 | X-H torsion

> <Gold.Protein.ActiveResidues>
 VAL166  LYS551  ARG553  GLY616  TRP617  ASP618  TYR619  PRO620  LYS621  CYS622 
 ASP623  PHE694  ASN695  SER759  ASP760  ASP761  ALA762  ILE779  LEU786  VAL792 
 PHE793  MET794  SER795  GLU796  ALA797  LYS798  CYS799  TRP800  GLU811  SER814 

> <Gold.Protein.RotatedAtoms>
  150.6958  134.4179  159.5191 H   0  0  0  0  0  0  0  0  0  0  0  0  # atno 6907 bound_to 6896
  152.1927  134.8655  160.0525 H   0  0  0  0  0  0  0  0  0  0  0  0  # atno 6908 bound_to 6896
  151.9604  133.3659  159.4070 H   0  0  0  0  0  0  0  0  0  0  0  0  # atno 6909 bound_to 6896
  144.9560  140.7396  143.4758 H   0  0  0  0  0  0  0  0  0  0  0  0  # atno 7974 bound_to 7965
  154.4035  140.1310  156.4413 H   0  0  0  0  0  0  0  0  0  0  0  0  # atno 8008 bound_to 7997
  155.7456  140.3489  155.5105 H   0  0  0  0  0  0  0  0  0  0  0  0  # atno 8009 bound_to 7997
  155.8998  140.1017  157.1348 H   0  0  0  0  0  0  0  0  0  0  0  0  # atno 8010 bound_to 7997
  140.5424  143.9654  150.6527 H   0  0  0  0  0  0  0  0  0  0  0  0  # atno 10167 bound_to 10162
  156.0015  130.5032  150.5797 H   0  0  0  0  0  0  0  0  0  0  0  0  # atno 10718 bound_to 10713
  153.0502  135.6517  154.0713 H   0  0  0  0  0  0  0  0  0  0  0  0  # atno 10763 bound_to 10752
  154.0403  135.2904  155.3357 H   0  0  0  0  0  0  0  0  0  0  0  0  # atno 10764 bound_to 10752
  154.6786  135.5329  153.8299 H   0  0  0  0  0  0  0  0  0  0  0  0  # atno 10765 bound_to 10752
  140.8135  134.2716  157.4931 H   0  0  0  0  0  0  0  0  0  0  0  0  # atno 11005 bound_to 11000
  145.2772  139.1932  143.4810 LP  0  0  0  0  0  0  0  0  0  0  0  0  # atno 17320 bound_to 7965
  146.3337  140.2728  142.8606 LP  0  0  0  0  0  0  0  0  0  0  0  0  # atno 17321 bound_to 7965
  140.3058  143.3230  152.0927 LP  0  0  0  0  0  0  0  0  0  0  0  0  # atno 17342 bound_to 10162
  139.4994  144.6668  151.6338 LP  0  0  0  0  0  0  0  0  0  0  0  0  # atno 17343 bound_to 10162
  157.3679  131.0760  151.1582 LP  0  0  0  0  0  0  0  0  0  0  0  0  # atno 17370 bound_to 10713
  157.2346  130.6541  149.5864 LP  0  0  0  0  0  0  0  0  0  0  0  0  # atno 17371 bound_to 10713
  139.8712  134.9496  156.4031 LP  0  0  0  0  0  0  0  0  0  0  0  0  # atno 17394 bound_to 11000
  140.9173  133.7670  155.9863 LP  0  0  0  0  0  0  0  0  0  0  0  0  # atno 17395 bound_to 11000

$$$$
