AV-unprocessed.smi:1965|AV-procd|sdf|7947|dock9
  -GOLD-   2272010113D 1   1.00000     0.00000
 Structure written by MMmdl.
 36 38  0  0  0  0  0  0  0  0  3 V2000
  148.0174  133.5226  158.4951 O   0  0  0  0  0  0  0  0  0  0  0  0
  148.2506  134.7303  158.4679 C   0  0  0  0  0  0  0  0  0  0  0  0
  148.7885  135.4128  159.5118 N   0  5  0  0  0  0  0  0  0  0  0  0
  148.2003  135.4694  160.7211 C   0  0  0  0  0  0  0  0  0  0  0  0
  148.1450  136.5851  161.4576 N   0  0  0  0  0  0  0  0  0  0  0  0
  147.4883  136.4130  162.6776 C   0  0  0  0  0  0  0  0  0  0  0  0
  147.0330  135.1362  162.8743 C   0  0  0  0  0  0  0  0  0  0  0  0
  147.4115  134.1076  161.5222 S   0  0  0  0  0  0  0  0  0  0  0  0
  147.9610  135.4227  157.3505 N   0  0  0  0  0  0  0  0  0  0  0  0
  147.4100  134.8700  156.1195 C   0  0  1  0  0  0  0  0  0  0  0  0
  146.0427  135.4494  155.7248 C   0  0  0  0  0  0  0  0  0  0  0  0
  146.0805  135.5718  154.1887 C   0  0  0  0  0  0  0  0  0  0  0  0
  147.3876  135.0305  153.7483 N   0  3  2  0  0  0  0  0  0  0  0  0
  147.2783  133.6259  153.2669 C   0  0  0  0  0  0  0  0  0  0  0  0
  148.6531  132.9840  153.0376 C   0  0  0  0  0  0  0  0  0  0  0  0
  149.4734  133.0181  154.3296 C   0  0  0  0  0  0  0  0  0  0  0  0
  149.6312  134.4693  154.7958 C   0  0  0  0  0  0  0  0  0  0  0  0
  148.2847  135.2182  154.9137 C   0  0  2  0  0  0  0  0  0  0  0  0
  147.3911  137.2551  163.3465 H   0  0  0  0  0  0  0  0  0  0  0  0
  146.4974  134.7407  163.7241 H   0  0  0  0  0  0  0  0  0  0  0  0
  148.1550  136.4134  157.3597 H   0  0  0  0  0  0  0  0  0  0  0  0
  147.3304  133.7855  156.2135 H   0  0  0  0  0  0  0  0  0  0  0  0
  145.2316  134.8031  156.0617 H   0  0  0  0  0  0  0  0  0  0  0  0
  145.8842  136.4326  156.1706 H   0  0  0  0  0  0  0  0  0  0  0  0
  145.2377  135.0694  153.7118 H   0  0  0  0  0  0  0  0  0  0  0  0
  146.0302  136.6236  153.9046 H   0  0  0  0  0  0  0  0  0  0  0  0
  146.7174  133.0285  153.9876 H   0  0  0  0  0  0  0  0  0  0  0  0
  146.7050  133.6132  152.3393 H   0  0  0  0  0  0  0  0  0  0  0  0
  148.5308  131.9535  152.7029 H   0  0  0  0  0  0  0  0  0  0  0  0
  149.1837  133.5098  152.2428 H   0  0  0  0  0  0  0  0  0  0  0  0
  148.9826  132.4248  155.1018 H   0  0  0  0  0  0  0  0  0  0  0  0
  150.4532  132.5685  154.1668 H   0  0  0  0  0  0  0  0  0  0  0  0
  150.1666  134.5036  155.7454 H   0  0  0  0  0  0  0  0  0  0  0  0
  150.2614  134.9965  154.0782 H   0  0  0  0  0  0  0  0  0  0  0  0
  148.5089  136.2860  154.9635 H   0  0  0  0  0  0  0  0  0  0  0  0
  147.7377  135.5845  152.9799 H   0  0  0  0  0  0  0  0  0  0  0  0
  1  2  2  0  0  0  0
  2  3  1  0  0  0  0
  2  9  1  0  0  0  0
  3  4  1  0  0  0  0
  4  8  1  0  0  0  0
  4  5  2  0  0  0  0
  5  6  1  0  0  0  0
  6  7  2  0  0  0  0
  6 19  1  0  0  0  0
  7  8  1  0  0  0  0
  7 20  1  0  0  0  0
  9 10  1  0  0  0  0
  9 21  1  0  0  0  0
 10 18  1  0  0  0  0
 10 11  1  0  0  0  0
 10 22  1  0  0  0  0
 11 12  1  0  0  0  0
 11 23  1  0  0  0  0
 11 24  1  0  0  0  0
 12 13  1  0  0  0  0
 12 25  1  0  0  0  0
 12 26  1  0  0  0  0
 13 18  1  0  0  0  0
 13 14  1  0  0  0  0
 13 36  1  0  0  0  0
 14 15  1  0  0  0  0
 14 27  1  0  0  0  0
 14 28  1  0  0  0  0
 15 16  1  0  0  0  0
 15 29  1  0  0  0  0
 15 30  1  0  0  0  0
 16 17  1  0  0  0  0
 16 31  1  0  0  0  0
 16 32  1  0  0  0  0
 17 18  1  0  0  0  0
 17 33  1  0  0  0  0
 17 34  1  0  0  0  0
 18 35  1  0  0  0  0
M  CHG  1   3  -1
M  CHG  1  13   1
M  END
> <s_m_source_file>
AV-unprocessed.smi

> <i_m_source_file_index>
1965

> <i_lp_mmshare_version>
43012

> <i_f3d_flags>
0

> <s_epik_input>
czFbY0hdW2NIXW5jMVtOSF1DKD1PKVtOSF1bQ0BIXShbQ0gyXVtDSDJdMilbQ0BASF0oTjIzKVtDSDJdW0NIMl1bQ0gyXVtDSDJdMw==

> <s_epik_cmdline>
J2VwaWtfcHl0aG9uJywgJy1waCcsICc3LjAnLCAnLXRuJywgJzgnLCAnLW1hJywgJzIwMCcsICctbWV0YWxfYmluZGluZycsICctaW1hZScsICc8aW5maWxlLm1hZT4nLCAnLW9tYWUnLCAnPG91dGZpbGUubWFlPic=

> <r_lp_tautomer_probability>
1

> <r_epik_Ionization_Penalty>
7.4116

> <r_epik_Ionization_Penalty_Charging>
6.13869

> <r_epik_Ionization_Penalty_Neutral>
1.27291

> <r_epik_State_Penalty>
6.13761

> <r_epik_Charging_Adjusted_Penalty>
12.2763

> <i_epik_Tot_Q>
0

> <i_epik_Tot_abs_Q>
2

> <r_epik_Metal_State_Penalty>
2.08142

> <b_epik_Metal_Only>
1

> <s_lp_Force_Field>
OPLS_2005

> <r_lp_Energy>
29.0908

> <b_lp_Chiralities_Consistent>
1

> <s_lp_Variant>
AV-unprocessed.smi:1965-16

> <Gold.Version>
5.8.1

> <Gold.Id.Protein>
6NUR|6NUR_protein|mol2

> <Gold.PLP.Fitness>
41.5326

> <Gold.PLP.PLP>
-28.4572

> <Gold.PLP.part.hbond>
-3.0000

> <Gold.PLP.part.metal>
0.0000

> <Gold.PLP.part.buried>
-4.0755

> <Gold.PLP.part.nonpolar>
-22.4710

> <Gold.PLP.part.repulsive>
0.0230

> <Gold.PLP.ligand.clash>
0.0000

> <Gold.PLP.ligand.torsion>
0.8926

> <Gold.PLP.Chemscore.Hbond>
4.9500

> <Gold.PLP.Chemscore.CHOScore>
0.0000

> <Gold.PLP.Chemscore.Metal>
0.0000

> <Gold.Chemscore.Hbonds>
donor molecule, donor type, donor heavy atom, donor atom, acceptor molecule, acceptor atom, score
      L1  H    13    36       P1  7948  2.00
      P1  H  6896  6909       L1     3  1.92
      P1  H  6931  6943       L1     5  0.85

> <Gold.PLP.Chemscore.Internal.Correction>
0.0106

> <Gold.Rescore>
     Score         DG    S(hbond)    S(metal)    S(lipo)     H(rot)  DE(clash)    DE(int)     intcor
     14.53     -15.45       1.80        0.00      55.70       1.00       0.05       0.87       ----

> <Gold.Chemscore.Fitness>
14.5270

> <Gold.Chemscore.DG>
-15.4507

> <Gold.Chemscore.ZeroCoef>
-5.4800

> <Gold.Chemscore.Hbond>
1.8005

> <Gold.Chemscore.Metal>
0.0000

> <Gold.Chemscore.Lipo>
55.7020

> <Gold.Chemscore.Internal_Hbond>
0.0000

> <Gold.Chemscore.DEClash>
0.0500

> <Gold.Chemscore.DEInternal>
0.8736

> <Gold.Chemscore.Rot>
1.0000

> <Gold.Chemscore.Internal.Correction>
   9.000000E+99

> <Gold.Chemscore.Hbonds>
donor molecule, donor type, donor heavy atom, donor atom, acceptor molecule, acceptor atom, score
      L1  H    13    36       P1  7948  0.99
      P1  H  6896  6909       L1     3  0.25
      P1  H  6931  6943       L1     5  0.15

> <Gold.Chemscore.Hbond.Weighted>
-6.0135

> <Gold.Chemscore.Metal.Weighted>
-0.0000

> <Gold.Chemscore.Lipo.Weighted>
-6.5171

> <Gold.Chemscore.Internal_Hbond.Weighted>
0.0000

> <Gold.Chemscore.DEClash.Weighted>
0.0500

> <Gold.Chemscore.DEInternal.Weighted>
0.8736

> <Gold.Chemscore.Rot.Weighted>
2.5600

> <Gold.Chemscore.Internal.Correction.Weighted>
   9.000000E+99

> <Gold.Protein.RotatedTorsions>
[ 6907 6896 6895 6894 ] final   54.15 input  -60.11 | X-H torsion
[ 7974 7965 7964 7962 ] final -103.56 input  175.53 | X-H torsion
[ 8008 7997 7996 7995 ] final  122.31 input   59.86 | X-H torsion
[ 10167 10162 10161 10158 ] final  -38.56 input  -65.29 | X-H torsion
[ 10718 10713 10712 10709 ] final -111.78 input   66.30 | X-H torsion
[ 10763 10752 10751 10750 ] final -166.97 input  -60.55 | X-H torsion
[ 11005 11000 10999 10996 ] final  -72.36 input  -57.11 | X-H torsion

> <Gold.Protein.ActiveResidues>
 VAL166  LYS551  ARG553  GLY616  TRP617  ASP618  TYR619  PRO620  LYS621  CYS622 
 ASP623  PHE694  ASN695  SER759  ASP760  ASP761  ALA762  ILE779  LEU786  VAL792 
 PHE793  MET794  SER795  GLU796  ALA797  LYS798  CYS799  TRP800  GLU811  SER814 

> <Gold.Protein.RotatedAtoms>
  152.3410  134.7135  160.0263 H   0  0  0  0  0  0  0  0  0  0  0  0  # atno 6907 bound_to 6896
  151.7520  133.3322  159.3402 H   0  0  0  0  0  0  0  0  0  0  0  0  # atno 6908 bound_to 6896
  150.7479  134.6116  159.6133 H   0  0  0  0  0  0  0  0  0  0  0  0  # atno 6909 bound_to 6896
  145.2543  140.9248  143.3077 H   0  0  0  0  0  0  0  0  0  0  0  0  # atno 7974 bound_to 7965
  156.2722  140.2789  156.1447 H   0  0  0  0  0  0  0  0  0  0  0  0  # atno 8008 bound_to 7997
  155.0917  140.0388  157.2688 H   0  0  0  0  0  0  0  0  0  0  0  0  # atno 8009 bound_to 7997
  154.6884  140.2624  155.6843 H   0  0  0  0  0  0  0  0  0  0  0  0  # atno 8010 bound_to 7997
  140.7088  143.3269  151.2659 H   0  0  0  0  0  0  0  0  0  0  0  0  # atno 10167 bound_to 10162
  156.0667  130.5885  150.8420 H   0  0  0  0  0  0  0  0  0  0  0  0  # atno 10718 bound_to 10713
  154.6779  135.2950  154.9653 H   0  0  0  0  0  0  0  0  0  0  0  0  # atno 10763 bound_to 10752
  154.0658  135.6625  153.4821 H   0  0  0  0  0  0  0  0  0  0  0  0  # atno 10764 bound_to 10752
  153.0528  135.5163  154.7808 H   0  0  0  0  0  0  0  0  0  0  0  0  # atno 10765 bound_to 10752
  141.1607  133.6845  156.7047 H   0  0  0  0  0  0  0  0  0  0  0  0  # atno 11005 bound_to 11000
  144.9475  139.4120  143.6419 LP  0  0  0  0  0  0  0  0  0  0  0  0  # atno 17320 bound_to 7965
  146.3293  139.8466  142.8881 LP  0  0  0  0  0  0  0  0  0  0  0  0  # atno 17321 bound_to 7965
  139.6740  143.9970  152.2770 LP  0  0  0  0  0  0  0  0  0  0  0  0  # atno 17342 bound_to 10162
  139.9578  144.6578  150.8109 LP  0  0  0  0  0  0  0  0  0  0  0  0  # atno 17343 bound_to 10162
  157.5713  131.0946  150.9413 LP  0  0  0  0  0  0  0  0  0  0  0  0  # atno 17370 bound_to 10713
  156.9629  130.5462  149.5286 LP  0  0  0  0  0  0  0  0  0  0  0  0  # atno 17371 bound_to 10713
  140.2932  134.8224  157.4034 LP  0  0  0  0  0  0  0  0  0  0  0  0  # atno 17394 bound_to 11000
  140.1328  134.5073  155.8092 LP  0  0  0  0  0  0  0  0  0  0  0  0  # atno 17395 bound_to 11000

$$$$
