#       Name:                AV-unprocessed.smi:2412
#       Creating user name   scv26
#       Creation time:       Fri Mar 27 13:16:38 2020


#       File generated by GOLD software.
#

@<TRIPOS>MOLECULE
AV-unprocessed.smi:2412
    42    43     1
SMALL
NO_CHARGES


@<TRIPOS>ATOM
      1 ****        -2.9541  -4.0790  -0.0787 C.3            1 S1                 0.0000
      2 ****        -3.7146  -2.7677   0.0156 C.ar           1 S1                 0.0000
      3 ****        -5.1243  -2.7862   0.0951 C.ar           1 S1                 0.0000
      4 ****        -5.8139  -1.6296   0.1837 N.pl3          1 S1                 1.0000
      5 ****        -5.2130  -0.4220   0.2065 C.ar           1 S1                 0.0000
      6 ****        -3.8089  -0.3343   0.1320 C.ar           1 S1                 0.0000
      7 ****        -3.0385  -1.5203   0.0214 C.ar           1 S1                 0.0000
      8 ****        -1.6158  -1.5152  -0.0359 N.am           1 S1                 0.0000
      9 ****        -0.7978  -0.5332  -0.4519 C.2            1 S1                 0.0000
     10 ****        -1.1625   0.5481  -0.9132 O.2            1 S1                 0.0000
     11 ****         0.4902  -0.8823  -0.3160 N.am           1 S1                 0.0000
     12 ****         1.6312  -0.0259  -0.6360 C.3            1 S1                 0.0000
     13 ****         2.0032   0.9449   0.5008 C.2            1 S1                 0.0000
     14 ****         1.3801   0.9154   1.5640 O.2            1 S1                 0.0000
     15 ****         3.0229   1.8040   0.2949 N.am           1 S1                 0.0000
     16 ****         3.8242   1.9052  -0.9248 C.3            1 S1                 0.0000
     17 ****         4.6982   3.1472  -0.7448 C.3            1 S1                 0.0000
     18 ****         4.8085   3.3124   0.7643 C.3            1 S1                 0.0000
     19 ****         3.4865   2.7608   1.2980 C.3            1 S1                 0.0000
     20 ****        -3.6348  -4.9306  -0.1042 H              1 S1                 0.0000
     21 ****        -2.2951  -4.1997   0.7817 H              1 S1                 0.0000
     22 ****        -2.3489  -4.1056  -0.9853 H              1 S1                 0.0000
     23 ****        -5.7199  -3.6875   0.0931 H              1 S1                 0.0000
     24 ****        -5.8681   0.4330   0.2908 H              1 S1                 0.0000
     25 ****        -3.3499   0.6417   0.1762 H              1 S1                 0.0000
     26 ****        -1.1693  -2.3818   0.2267 H              1 S1                 0.0000
     27 ****         0.7016  -1.7913   0.0685 H              1 S1                 0.0000
     28 ****         2.4865  -0.6689  -0.8446 H              1 S1                 0.0000
     29 ****         1.4248   0.5326  -1.5504 H              1 S1                 0.0000
     30 ****         4.4445   1.0127  -1.0193 H              1 S1                 0.0000
     31 ****         3.2097   1.9917  -1.8217 H              1 S1                 0.0000
     32 ****         5.6690   3.0563  -1.2327 H              1 S1                 0.0000
     33 ****         4.1914   4.0151  -1.1694 H              1 S1                 0.0000
     34 ****         5.6351   2.7060   1.1372 H              1 S1                 0.0000
     35 ****         4.9887   4.3446   1.0659 H              1 S1                 0.0000
     36 ****         2.7482   3.5584   1.3937 H              1 S1                 0.0000
     37 ****         3.6172   2.3001   2.2786 H              1 S1                 0.0000
     38 ****        -6.8319  -1.6701   0.2414 H              1 S1                 0.0000
     39 ****        -2.1378   0.7505  -1.0019 LP             1 S1                 0.0000
     40 ****        -0.4835   1.2242  -1.1993 LP             1 S1                 0.0000
     41 ****         0.6337   0.2616   1.6881 LP             1 S1                 0.0000
     42 ****         1.6210   1.5453   2.3023 LP             1 S1                 0.0000
@<TRIPOS>BOND
    1    1    2 1     
    2    1   20 1     
    3    1   21 1     
    4    1   22 1     
    5    2    7 ar    
    6    2    3 ar    
    7    3    4 ar    
    8    3   23 1     
    9    4    5 ar    
   10    4   38 1     
   11    5    6 ar    
   12    5   24 1     
   13    6    7 ar    
   14    6   25 1     
   15    7    8 1     
   16    8    9 am    
   17    8   26 1     
   18    9   10 2     
   19    9   11 am    
   20   11   12 1     
   21   11   27 1     
   22   12   13 1     
   23   12   28 1     
   24   12   29 1     
   25   13   14 2     
   26   13   15 am    
   27   15   19 1     
   28   15   16 1     
   29   16   17 1     
   30   16   30 1     
   31   16   31 1     
   32   17   18 1     
   33   17   32 1     
   34   17   33 1     
   35   18   19 1     
   36   18   34 1     
   37   18   35 1     
   38   19   36 1     
   39   19   37 1     
   40   10   39 1     
   41   10   40 1     
   42   14   41 1     
   43   14   42 1     
@<TRIPOS>SUBSTRUCTURE
      1 S1             1
@<TRIPOS>SET
LONE_PAIRS      STATIC     ATOMS    <user>   **** ""
4 39 40 41 42
DONOR_HYDROGENS      STATIC     ATOMS    <user>   **** ""
3 38 26 27
ATOM$BLUE        STATIC     ATOMS    COLORGROUP SYSTEM
4 39 40 41 42
ATOM$RED        STATIC     ATOMS    COLORGROUP SYSTEM
3 38 26 27
