AV-unprocessed.smi:1956|AV-procd|sdf|7903|dock8
  -GOLD-   2272010 63D 1   1.00000     0.00000
 Structure written by MMmdl.
 46 47  0  0  0  0  0  0  0  0  2 V2000
  153.6557  142.2218  161.7158 C   0  0  0  0  0  0  0  0  0  0  0  0
  152.8474  143.2479  161.1503 O   0  0  0  0  0  0  0  0  0  0  0  0
  152.1250  142.9597  160.0105 C   0  0  0  0  0  0  0  0  0  0  0  0
  152.1607  141.6455  159.5040 C   0  0  0  0  0  0  0  0  0  0  0  0
  151.4283  141.3434  158.3402 C   0  0  0  0  0  0  0  0  0  0  0  0
  150.6863  142.3721  157.7116 C   0  0  0  0  0  0  0  0  0  0  0  0
  149.8951  142.1900  156.5446 N   0  0  0  0  0  0  0  0  0  0  0  0
  149.6731  141.0583  155.8543 C   0  0  0  0  0  0  0  0  0  0  0  0
  150.1661  139.9594  156.1086 O   0  0  0  0  0  0  0  0  0  0  0  0
  148.8511  141.2710  154.8164 N   0  0  0  0  0  0  0  0  0  0  0  0
  148.4164  140.2427  153.8775 C   0  0  0  0  0  0  0  0  0  0  0  0
  147.2309  140.7262  153.0191 C   0  0  0  0  0  0  0  0  0  0  0  0
  146.1212  141.2801  153.8359 N   0  3  2  0  0  0  0  0  0  0  0  0
  146.2602  142.7452  154.0425 C   0  0  0  0  0  0  0  0  0  0  0  0
  145.0336  143.3235  154.7649 C   0  0  0  0  0  0  0  0  0  0  0  0
  144.7954  142.6074  156.0996 C   0  0  0  0  0  0  0  0  0  0  0  0
  144.6801  141.0903  155.8763 C   0  0  2  0  0  0  0  0  0  0  0  0
  144.4662  140.3442  157.2009 C   0  0  0  0  0  0  0  0  0  0  0  0
  145.9196  140.5635  155.1244 C   0  0  0  0  0  0  0  0  0  0  0  0
  150.7044  143.6503  158.3074 C   0  0  0  0  0  0  0  0  0  0  0  0
  151.4050  143.9469  159.4223 N   0  0  0  0  0  0  0  0  0  0  0  0
  154.1530  142.6049  162.6068 H   0  0  0  0  0  0  0  0  0  0  0  0
  154.4301  141.8942  161.0207 H   0  0  0  0  0  0  0  0  0  0  0  0
  153.0561  141.3614  162.0164 H   0  0  0  0  0  0  0  0  0  0  0  0
  152.7369  140.8796  160.0022 H   0  0  0  0  0  0  0  0  0  0  0  0
  151.4406  140.3319  157.9653 H   0  0  0  0  0  0  0  0  0  0  0  0
  149.4897  143.0320  156.1628 H   0  0  0  0  0  0  0  0  0  0  0  0
  148.4933  142.2045  154.6734 H   0  0  0  0  0  0  0  0  0  0  0  0
  149.2513  139.9411  153.2425 H   0  0  0  0  0  0  0  0  0  0  0  0
  148.1409  139.3676  154.4645 H   0  0  0  0  0  0  0  0  0  0  0  0
  147.5587  141.4671  152.2883 H   0  0  0  0  0  0  0  0  0  0  0  0
  146.8535  139.8773  152.4471 H   0  0  0  0  0  0  0  0  0  0  0  0
  147.1661  142.9487  154.6156 H   0  0  0  0  0  0  0  0  0  0  0  0
  146.3735  143.2462  153.0802 H   0  0  0  0  0  0  0  0  0  0  0  0
  145.1717  144.3917  154.9358 H   0  0  0  0  0  0  0  0  0  0  0  0
  144.1519  143.2226  154.1306 H   0  0  0  0  0  0  0  0  0  0  0  0
  145.6177  142.8231  156.7832 H   0  0  0  0  0  0  0  0  0  0  0  0
  143.8895  142.9920  156.5696 H   0  0  0  0  0  0  0  0  0  0  0  0
  143.8046  140.9064  155.2513 H   0  0  0  0  0  0  0  0  0  0  0  0
  145.3090  140.4879  157.8778 H   0  0  0  0  0  0  0  0  0  0  0  0
  144.3515  139.2727  157.0346 H   0  0  0  0  0  0  0  0  0  0  0  0
  143.5677  140.6960  157.7089 H   0  0  0  0  0  0  0  0  0  0  0  0
  145.7912  139.4973  154.9430 H   0  0  0  0  0  0  0  0  0  0  0  0
  146.8116  140.6718  155.7441 H   0  0  0  0  0  0  0  0  0  0  0  0
  150.1437  144.4653  157.8729 H   0  0  0  0  0  0  0  0  0  0  0  0
  145.2788  141.1533  153.2931 H   0  0  0  0  0  0  0  0  0  0  0  0
  1  2  1  0  0  0  0
  1 22  1  0  0  0  0
  1 23  1  0  0  0  0
  1 24  1  0  0  0  0
  2  3  1  0  0  0  0
  3 21  1  0  0  0  0
  3  4  2  0  0  0  0
  4  5  1  0  0  0  0
  4 25  1  0  0  0  0
  5  6  2  0  0  0  0
  5 26  1  0  0  0  0
  6  7  1  0  0  0  0
  6 20  1  0  0  0  0
  7  8  1  0  0  0  0
  7 27  1  0  0  0  0
  8  9  2  0  0  0  0
  8 10  1  0  0  0  0
 10 11  1  0  0  0  0
 10 28  1  0  0  0  0
 11 12  1  0  0  0  0
 11 29  1  0  0  0  0
 11 30  1  0  0  0  0
 12 13  1  0  0  0  0
 12 31  1  0  0  0  0
 12 32  1  0  0  0  0
 13 19  1  0  0  0  0
 13 14  1  0  0  0  0
 13 46  1  0  0  0  0
 14 15  1  0  0  0  0
 14 33  1  0  0  0  0
 14 34  1  0  0  0  0
 15 16  1  0  0  0  0
 15 35  1  0  0  0  0
 15 36  1  0  0  0  0
 16 17  1  0  0  0  0
 16 37  1  0  0  0  0
 16 38  1  0  0  0  0
 17 18  1  0  0  0  0
 17 19  1  0  0  0  0
 17 39  1  0  0  0  0
 18 40  1  0  0  0  0
 18 41  1  0  0  0  0
 18 42  1  0  0  0  0
 19 43  1  0  0  0  0
 19 44  1  0  0  0  0
 20 21  2  0  0  0  0
 20 45  1  0  0  0  0
M  CHG  1  13   1
M  END
> <s_m_source_file>
AV-unprocessed.smi

> <i_m_source_file_index>
1956

> <i_lp_mmshare_version>
43012

> <i_f3d_flags>
0

> <s_epik_input>
W0NIM11PYzFbY0hdW2NIXWMoW2NIXW4xKVtOSF1DKD1PKVtOSF1bQ0gyXVtDSDJdTjJbQ0gyXVtDSDJdW0NIMl1bQ0BASF0oW0NIM10pW0NIMl0y

> <s_epik_cmdline>
J2VwaWtfcHl0aG9uJywgJy1waCcsICc3LjAnLCAnLXRuJywgJzgnLCAnLW1hJywgJzIwMCcsICctbWV0YWxfYmluZGluZycsICctaW1hZScsICc8aW5maWxlLm1hZT4nLCAnLW9tYWUnLCAnPG91dGZpbGUubWFlPic=

> <r_lp_tautomer_probability>
1

> <r_epik_Ionization_Penalty>
0.00179545

> <r_epik_Ionization_Penalty_Charging>
0.00171832

> <r_epik_Ionization_Penalty_Neutral>
7.7124e-05

> <r_epik_State_Penalty>
0.0011618

> <r_epik_Charging_Adjusted_Penalty>
0.00288012

> <i_epik_Tot_Q>
1

> <i_epik_Tot_abs_Q>
1

> <r_epik_Metal_State_Penalty>
-0

> <b_epik_Metal_Only>
0

> <s_lp_Force_Field>
OPLS_2005

> <r_lp_Energy>
19.732

> <b_lp_Chiralities_Consistent>
1

> <s_lp_Variant>
AV-unprocessed.smi:1956-4

> <Gold.Version>
5.8.1

> <Gold.Id.Protein>
6NUR|6NUR_protein|mol2

> <Gold.PLP.Fitness>
44.1455

> <Gold.PLP.PLP>
-33.4485

> <Gold.PLP.part.hbond>
-2.0000

> <Gold.PLP.part.metal>
0.0000

> <Gold.PLP.part.buried>
-4.3265

> <Gold.PLP.part.nonpolar>
-27.4096

> <Gold.PLP.part.repulsive>
0.3432

> <Gold.PLP.ligand.clash>
0.6825

> <Gold.PLP.ligand.torsion>
0.4371

> <Gold.PLP.Chemscore.Hbond>
3.0000

> <Gold.PLP.Chemscore.CHOScore>
1.0754

> <Gold.PLP.Chemscore.Metal>
0.0000

> <Gold.Chemscore.Hbonds>
donor molecule, donor type, donor heavy atom, donor atom, acceptor molecule, acceptor atom, score
      L1  H     7    27       P1  8028  1.00
      L1  H    13    46       P1 10175  2.00
      L1  C    20    45       P1  8028  0.89
      L1  C    20    45       P1  8029  0.18

> <Gold.PLP.Chemscore.Internal.Correction>
0.0277

> <Gold.Rescore>
     Score         DG    S(hbond)    S(metal)    S(lipo)     H(rot)  DE(clash)    DE(int)     intcor
     13.13     -16.07       1.95        0.00      72.26       1.71       0.05       2.89       ----

> <Gold.Chemscore.Fitness>
13.1255

> <Gold.Chemscore.DG>
-16.0744

> <Gold.Chemscore.ZeroCoef>
-5.4800

> <Gold.Chemscore.Hbond>
1.9519

> <Gold.Chemscore.Metal>
0.0000

> <Gold.Chemscore.Lipo>
72.2609

> <Gold.Chemscore.Internal_Hbond>
0.0000

> <Gold.Chemscore.DEClash>
0.0540

> <Gold.Chemscore.DEInternal>
2.8950

> <Gold.Chemscore.Rot>
1.7107

> <Gold.Chemscore.Internal.Correction>
   9.000000E+99

> <Gold.Chemscore.Hbonds>
donor molecule, donor type, donor heavy atom, donor atom, acceptor molecule, acceptor atom, score
      L1  H     7    27       P1  8028  1.00
      L1  H    13    46       P1 10175  0.30

> <Gold.Chemscore.Hbond.Weighted>
-6.5193

> <Gold.Chemscore.Metal.Weighted>
-0.0000

> <Gold.Chemscore.Lipo.Weighted>
-8.4545

> <Gold.Chemscore.Internal_Hbond.Weighted>
0.0000

> <Gold.Chemscore.DEClash.Weighted>
0.0540

> <Gold.Chemscore.DEInternal.Weighted>
2.8950

> <Gold.Chemscore.Rot.Weighted>
4.3794

> <Gold.Chemscore.Internal.Correction.Weighted>
   9.000000E+99

> <Gold.Protein.RotatedTorsions>
[ 6907 6896 6895 6894 ] final  -68.84 input  -60.11 | X-H torsion
[ 7974 7965 7964 7962 ] final  -81.16 input  175.53 | X-H torsion
[ 8008 7997 7996 7995 ] final  153.35 input   59.86 | X-H torsion
[ 10167 10162 10161 10158 ] final  177.49 input  -65.29 | X-H torsion
[ 10718 10713 10712 10709 ] final   80.65 input   66.30 | X-H torsion
[ 10763 10752 10751 10750 ] final  150.45 input  -60.55 | X-H torsion
[ 11005 11000 10999 10996 ] final  114.69 input  -57.11 | X-H torsion

> <Gold.Protein.ActiveResidues>
 VAL166  LYS551  ARG553  GLY616  TRP617  ASP618  TYR619  PRO620  LYS621  CYS622 
 ASP623  PHE694  ASN695  SER759  ASP760  ASP761  ALA762  ILE779  LEU786  VAL792 
 PHE793  MET794  SER795  GLU796  ALA797  LYS798  CYS799  TRP800  GLU811  SER814 

> <Gold.Protein.RotatedAtoms>
  150.7336  134.5682  159.5876 H   0  0  0  0  0  0  0  0  0  0  0  0  # atno 6907 bound_to 6896
  152.3128  134.7474  160.0341 H   0  0  0  0  0  0  0  0  0  0  0  0  # atno 6908 bound_to 6896
  151.8016  133.3335  159.3565 H   0  0  0  0  0  0  0  0  0  0  0  0  # atno 6909 bound_to 6896
  145.5504  140.9497  143.1502 H   0  0  0  0  0  0  0  0  0  0  0  0  # atno 7974 bound_to 7965
  156.2586  140.1996  156.6476 H   0  0  0  0  0  0  0  0  0  0  0  0  # atno 8008 bound_to 7997
  154.6562  140.0566  157.0036 H   0  0  0  0  0  0  0  0  0  0  0  0  # atno 8009 bound_to 7997
  155.1345  140.3237  155.4469 H   0  0  0  0  0  0  0  0  0  0  0  0  # atno 8010 bound_to 7997
  139.5255  144.2791  152.0562 H   0  0  0  0  0  0  0  0  0  0  0  0  # atno 10167 bound_to 10162
  157.6812  130.9969  150.2111 H   0  0  0  0  0  0  0  0  0  0  0  0  # atno 10718 bound_to 10713
  154.0876  135.2855  155.3278 H   0  0  0  0  0  0  0  0  0  0  0  0  # atno 10763 bound_to 10752
  154.6641  135.5323  153.8058 H   0  0  0  0  0  0  0  0  0  0  0  0  # atno 10764 bound_to 10752
  153.0425  135.6541  154.1047 H   0  0  0  0  0  0  0  0  0  0  0  0  # atno 10765 bound_to 10752
  139.8988  134.9572  156.6931 H   0  0  0  0  0  0  0  0  0  0  0  0  # atno 11005 bound_to 11000
  144.7532  139.7140  143.7264 LP  0  0  0  0  0  0  0  0  0  0  0  0  # atno 17320 bound_to 7965
  146.1921  139.5167  142.9798 LP  0  0  0  0  0  0  0  0  0  0  0  0  # atno 17321 bound_to 7965
  140.2247  144.4430  150.6326 LP  0  0  0  0  0  0  0  0  0  0  0  0  # atno 17342 bound_to 10162
  140.6395  143.2201  151.6322 LP  0  0  0  0  0  0  0  0  0  0  0  0  # atno 17343 bound_to 10162
  156.2781  130.3730  149.7963 LP  0  0  0  0  0  0  0  0  0  0  0  0  # atno 17370 bound_to 10713
  156.5659  130.8404  151.3342 LP  0  0  0  0  0  0  0  0  0  0  0  0  # atno 17371 bound_to 10713
  140.7209  133.9141  155.8146 LP  0  0  0  0  0  0  0  0  0  0  0  0  # atno 17394 bound_to 11000
  141.0228  134.0865  157.4102 LP  0  0  0  0  0  0  0  0  0  0  0  0  # atno 17395 bound_to 11000

$$$$
