AV-unprocessed.smi:3313|AV-procd|sdf|12729|dock2
  -GOLD-   2272019 73D 1   1.00000     0.00000
 Structure written by MMmdl.
 43 43  0  0  0  0  0  0  0  0  2 V2000
  148.6612  140.5261  154.3904 C   0  0  0  0  0  0  0  0  0  0  0  0
  148.8570  139.0273  154.1060 C   0  0  2  0  0  0  0  0  0  0  0  0
  150.3433  138.6045  154.1741 C   0  0  0  0  0  0  0  0  0  0  0  0
  151.0304  139.1432  155.3340 N   0  0  0  0  0  0  0  0  0  0  0  0
  151.5219  138.4707  156.4335 C   0  0  0  0  0  0  0  0  0  0  0  0
  152.0776  139.4019  157.2633 C   0  0  0  0  0  0  0  0  0  0  0  0
  151.8692  140.6323  156.5793 C   0  0  0  0  0  0  0  0  0  0  0  0
  151.2402  140.4740  155.4258 N   0  0  0  0  0  0  0  0  0  0  0  0
  148.2622  138.6976  152.7908 N   0  3  0  0  0  0  0  0  0  0  0  0
  146.8091  138.9439  152.6719 C   0  0  0  0  0  0  0  0  0  0  0  0
  146.1925  138.0736  151.5636 C   0  0  0  0  0  0  0  0  0  0  0  0
  145.5951  136.7697  152.1012 C   0  0  0  0  0  0  0  0  0  0  0  0
  144.5088  136.7829  152.6794 O   0  0  0  0  0  0  0  0  0  0  0  0
  146.3260  135.6577  151.9027 N   0  0  0  0  0  0  0  0  0  0  0  0
  146.0164  134.2788  152.3010 C   0  0  0  0  0  0  0  0  0  0  0  0
  144.6754  133.9130  151.6403 C   0  0  0  0  0  0  0  0  0  0  0  0
  145.8642  134.1738  153.8335 C   0  0  0  0  0  0  0  0  0  0  0  0
  147.1054  133.3097  151.7950 C   0  0  0  0  0  0  0  0  0  0  0  0
  148.9951  140.7920  155.3937 H   0  0  0  0  0  0  0  0  0  0  0  0
  147.6094  140.8046  154.3189 H   0  0  0  0  0  0  0  0  0  0  0  0
  149.2172  141.1406  153.6813 H   0  0  0  0  0  0  0  0  0  0  0  0
  148.2990  138.4795  154.8669 H   0  0  0  0  0  0  0  0  0  0  0  0
  150.4413  137.5193  154.2091 H   0  0  0  0  0  0  0  0  0  0  0  0
  150.8704  138.9351  153.2779 H   0  0  0  0  0  0  0  0  0  0  0  0
  151.4391  137.3983  156.5323 H   0  0  0  0  0  0  0  0  0  0  0  0
  152.5581  139.2311  158.2153 H   0  0  0  0  0  0  0  0  0  0  0  0
  152.1532  141.6288  156.8845 H   0  0  0  0  0  0  0  0  0  0  0  0
  148.7186  139.2772  152.1010 H   0  0  0  0  0  0  0  0  0  0  0  0
  146.3266  138.7319  153.6263 H   0  0  0  0  0  0  0  0  0  0  0  0
  146.6400  139.9987  152.4501 H   0  0  0  0  0  0  0  0  0  0  0  0
  145.4178  138.6389  151.0430 H   0  0  0  0  0  0  0  0  0  0  0  0
  146.9497  137.8211  150.8204 H   0  0  0  0  0  0  0  0  0  0  0  0
  147.2038  135.7768  151.4181 H   0  0  0  0  0  0  0  0  0  0  0  0
  144.3729  132.8956  151.8918 H   0  0  0  0  0  0  0  0  0  0  0  0
  144.7354  133.9761  150.5529 H   0  0  0  0  0  0  0  0  0  0  0  0
  143.8762  134.5809  151.9647 H   0  0  0  0  0  0  0  0  0  0  0  0
  145.1240  134.8813  154.2094 H   0  0  0  0  0  0  0  0  0  0  0  0
  146.8016  134.3689  154.3543 H   0  0  0  0  0  0  0  0  0  0  0  0
  145.5400  133.1748  154.1276 H   0  0  0  0  0  0  0  0  0  0  0  0
  146.8361  132.2737  152.0035 H   0  0  0  0  0  0  0  0  0  0  0  0
  148.0691  133.4902  152.2712 H   0  0  0  0  0  0  0  0  0  0  0  0
  147.2481  133.3996  150.7176 H   0  0  0  0  0  0  0  0  0  0  0  0
  148.4561  137.7303  152.5741 H   0  0  0  0  0  0  0  0  0  0  0  0
  1  2  1  0  0  0  0
  1 19  1  0  0  0  0
  1 20  1  0  0  0  0
  1 21  1  0  0  0  0
  2  3  1  0  0  0  0
  2  9  1  0  0  0  0
  2 22  1  0  0  0  0
  3  4  1  0  0  0  0
  3 23  1  0  0  0  0
  3 24  1  0  0  0  0
  4  8  1  0  0  0  0
  4  5  1  0  0  0  0
  5  6  2  0  0  0  0
  5 25  1  0  0  0  0
  6  7  1  0  0  0  0
  6 26  1  0  0  0  0
  7  8  2  0  0  0  0
  7 27  1  0  0  0  0
  9 10  1  0  0  0  0
  9 28  1  0  0  0  0
  9 43  1  0  0  0  0
 10 11  1  0  0  0  0
 10 29  1  0  0  0  0
 10 30  1  0  0  0  0
 11 12  1  0  0  0  0
 11 31  1  0  0  0  0
 11 32  1  0  0  0  0
 12 13  2  0  0  0  0
 12 14  1  0  0  0  0
 14 15  1  0  0  0  0
 14 33  1  0  0  0  0
 15 16  1  0  0  0  0
 15 17  1  0  0  0  0
 15 18  1  0  0  0  0
 16 34  1  0  0  0  0
 16 35  1  0  0  0  0
 16 36  1  0  0  0  0
 17 37  1  0  0  0  0
 17 38  1  0  0  0  0
 17 39  1  0  0  0  0
 18 40  1  0  0  0  0
 18 41  1  0  0  0  0
 18 42  1  0  0  0  0
M  CHG  1   9   1
M  END
> <s_m_source_file>
AV-unprocessed.smi

> <i_m_source_file_index>
3313

> <i_lp_mmshare_version>
43012

> <i_f3d_flags>
0

> <s_epik_input>
bjFbY0hdW2NIXVtjSF1uMVtDSDJdW0NAQEhdKFtDSDNdKVtOSF1bQ0gyXVtDSDJdQyg9TylbTkhdQyhbQ0gzXSkoW0NIM10pW0NIM10=

> <s_epik_cmdline>
J2VwaWtfcHl0aG9uJywgJy1waCcsICc3LjAnLCAnLXRuJywgJzgnLCAnLW1hJywgJzIwMCcsICctbWV0YWxfYmluZGluZycsICctaW1hZScsICc8aW5maWxlLm1hZT4nLCAnLW9tYWUnLCAnPG91dGZpbGUubWFlPic=

> <r_lp_tautomer_probability>
1

> <r_epik_Ionization_Penalty>
0.0056766

> <r_epik_Ionization_Penalty_Charging>
0.00567288

> <r_epik_Ionization_Penalty_Neutral>
3.71277e-06

> <r_epik_State_Penalty>
0.0041598

> <r_epik_Charging_Adjusted_Penalty>
0.00983268

> <i_epik_Tot_Q>
1

> <i_epik_Tot_abs_Q>
1

> <r_epik_Metal_State_Penalty>
-0

> <b_epik_Metal_Only>
0

> <s_lp_Force_Field>
OPLS_2005

> <r_lp_Energy>
7.49453

> <b_lp_Chiralities_Consistent>
1

> <s_lp_Variant>
AV-unprocessed.smi:3313-1

> <Gold.Version>
5.8.1

> <Gold.Id.Protein>
6NUR|6NUR_protein|mol2

> <Gold.PLP.Fitness>
44.5097

> <Gold.PLP.PLP>
-32.2002

> <Gold.PLP.part.hbond>
-3.8347

> <Gold.PLP.part.metal>
0.0000

> <Gold.PLP.part.buried>
-3.5052

> <Gold.PLP.part.nonpolar>
-25.9334

> <Gold.PLP.part.repulsive>
0.3172

> <Gold.PLP.ligand.clash>
0.0000

> <Gold.PLP.ligand.torsion>
0.7431

> <Gold.PLP.Chemscore.Hbond>
4.5735

> <Gold.PLP.Chemscore.CHOScore>
0.0000

> <Gold.PLP.Chemscore.Metal>
0.0000

> <Gold.Chemscore.Hbonds>
donor molecule, donor type, donor heavy atom, donor atom, acceptor molecule, acceptor atom, score
      L1  H     9    28       P1  7957  0.89
      L1  H     9    43       P1  7948  2.00
      L1  H    14    33       P1  7948  0.78
      P1  H  7989  7998       L1     8  0.91

> <Gold.PLP.Chemscore.Internal.Correction>
0.0753

> <Gold.Rescore>
     Score         DG    S(hbond)    S(metal)    S(lipo)     H(rot)  DE(clash)    DE(int)     intcor
     17.58     -20.31       3.72        0.00      68.71       2.20       0.44       2.29       ----

> <Gold.Chemscore.Fitness>
17.5774

> <Gold.Chemscore.DG>
-20.3091

> <Gold.Chemscore.ZeroCoef>
-5.4800

> <Gold.Chemscore.Hbond>
3.7212

> <Gold.Chemscore.Metal>
0.0000

> <Gold.Chemscore.Lipo>
68.7113

> <Gold.Chemscore.Internal_Hbond>
0.0000

> <Gold.Chemscore.DEClash>
0.4405

> <Gold.Chemscore.DEInternal>
2.2911

> <Gold.Chemscore.Rot>
2.2027

> <Gold.Chemscore.Internal.Correction>
   9.000000E+99

> <Gold.Chemscore.Hbonds>
donor molecule, donor type, donor heavy atom, donor atom, acceptor molecule, acceptor atom, score
      L1  H     9    28       P1  7957  0.85
      L1  H     9    43       P1  7948  1.00
      L1  H    14    33       P1  7948  0.77
      P1  H  7989  7998       L1     8  0.22

> <Gold.Chemscore.Hbond.Weighted>
-12.4289

> <Gold.Chemscore.Metal.Weighted>
-0.0000

> <Gold.Chemscore.Lipo.Weighted>
-8.0392

> <Gold.Chemscore.Internal_Hbond.Weighted>
0.0000

> <Gold.Chemscore.DEClash.Weighted>
0.4405

> <Gold.Chemscore.DEInternal.Weighted>
2.2911

> <Gold.Chemscore.Rot.Weighted>
5.6390

> <Gold.Chemscore.Internal.Correction.Weighted>
   9.000000E+99

> <Gold.Protein.RotatedTorsions>
[ 6907 6896 6895 6894 ] final  -47.04 input  -60.11 | X-H torsion
[ 7974 7965 7964 7962 ] final -103.81 input  175.53 | X-H torsion
[ 8008 7997 7996 7995 ] final   30.19 input   59.86 | X-H torsion
[ 10167 10162 10161 10158 ] final  113.43 input  -65.29 | X-H torsion
[ 10718 10713 10712 10709 ] final -121.43 input   66.30 | X-H torsion
[ 10763 10752 10751 10750 ] final  -16.22 input  -60.55 | X-H torsion
[ 11005 11000 10999 10996 ] final  106.54 input  -57.11 | X-H torsion

> <Gold.Protein.ActiveResidues>
 VAL166  LYS551  ARG553  GLY616  TRP617  ASP618  TYR619  PRO620  LYS621  CYS622 
 ASP623  PHE694  ASN695  SER759  ASP760  ASP761  ALA762  ILE779  LEU786  VAL792 
 PHE793  MET794  SER795  GLU796  ALA797  LYS798  CYS799  TRP800  GLU811  SER814 

> <Gold.Protein.RotatedAtoms>
  150.9049  134.8464  159.7385 H   0  0  0  0  0  0  0  0  0  0  0  0  # atno 6907 bound_to 6896
  152.4913  134.4446  159.9564 H   0  0  0  0  0  0  0  0  0  0  0  0  # atno 6908 bound_to 6896
  151.4494  133.3582  159.2828 H   0  0  0  0  0  0  0  0  0  0  0  0  # atno 6909 bound_to 6896
  145.2511  140.9238  143.3095 H   0  0  0  0  0  0  0  0  0  0  0  0  # atno 7974 bound_to 7965
  155.0864  140.3215  155.4586 H   0  0  0  0  0  0  0  0  0  0  0  0  # atno 8008 bound_to 7997
  156.2754  140.2085  156.5937 H   0  0  0  0  0  0  0  0  0  0  0  0  # atno 8009 bound_to 7997
  154.6938  140.0514  157.0377 H   0  0  0  0  0  0  0  0  0  0  0  0  # atno 8010 bound_to 7997
  139.6462  144.7126  151.2139 H   0  0  0  0  0  0  0  0  0  0  0  0  # atno 10167 bound_to 10162
  156.1337  130.6414  150.9662 H   0  0  0  0  0  0  0  0  0  0  0  0  # atno 10718 bound_to 10713
  153.5553  135.7011  153.5572 H   0  0  0  0  0  0  0  0  0  0  0  0  # atno 10763 bound_to 10752
  153.3478  135.4003  155.1622 H   0  0  0  0  0  0  0  0  0  0  0  0  # atno 10764 bound_to 10752
  154.8655  135.3758  154.5067 H   0  0  0  0  0  0  0  0  0  0  0  0  # atno 10765 bound_to 10752
  139.8815  134.9372  156.5682 H   0  0  0  0  0  0  0  0  0  0  0  0  # atno 11005 bound_to 11000
  144.9502  139.4091  143.6406 LP  0  0  0  0  0  0  0  0  0  0  0  0  # atno 17320 bound_to 7965
  146.3302  139.8505  142.8874 LP  0  0  0  0  0  0  0  0  0  0  0  0  # atno 17321 bound_to 7965
  140.7515  143.6228  150.8497 LP  0  0  0  0  0  0  0  0  0  0  0  0  # atno 17342 bound_to 10162
  139.9871  143.5888  152.2923 LP  0  0  0  0  0  0  0  0  0  0  0  0  # atno 17343 bound_to 10162
  157.6512  131.0896  150.8047 LP  0  0  0  0  0  0  0  0  0  0  0  0  # atno 17370 bound_to 10713
  156.8129  130.4958  149.5353 LP  0  0  0  0  0  0  0  0  0  0  0  0  # atno 17371 bound_to 10713
  140.8118  133.8423  155.8816 LP  0  0  0  0  0  0  0  0  0  0  0  0  # atno 17394 bound_to 11000
  140.9499  134.1792  157.4735 LP  0  0  0  0  0  0  0  0  0  0  0  0  # atno 17395 bound_to 11000

$$$$
