AV-unprocessed.smi:313|AV-procd|sdf|2309|dock10
  -GOLD-   2262022213D 1   1.00000     0.00000
 Structure written by MMmdl.
 50 51  0  0  0  0  0  0  0  0  1 V2000
  144.8734  135.2077  162.7921 C   0  0  0  0  0  0  0  0  0  0  0  0
  145.9413  135.2133  161.6883 C   0  0  0  0  0  0  0  0  0  0  0  0
  147.2518  135.9108  162.0986 C   0  0  2  0  0  0  0  0  0  0  0  0
  146.9933  137.3216  162.6508 C   0  0  0  0  0  0  0  0  0  0  0  0
  148.1638  135.9791  160.9594 N   0  0  0  0  0  0  0  0  0  0  0  0
  148.0019  136.7527  159.8749 C   0  0  0  0  0  0  0  0  0  0  0  0
  147.0420  137.5098  159.7211 O   0  0  0  0  0  0  0  0  0  0  0  0
  149.1101  136.6649  158.8131 C   0  0  2  0  0  0  0  0  0  0  0  0
  149.5737  138.0947  158.4897 C   0  0  0  0  0  0  0  0  0  0  0  0
  148.6028  136.0648  157.5802 N   0  0  0  0  0  0  0  0  0  0  0  0
  149.1071  134.9708  156.9848 C   0  0  0  0  0  0  0  0  0  0  0  0
  150.0615  134.3333  157.4307 O   0  0  0  0  0  0  0  0  0  0  0  0
  148.3877  134.5158  155.7482 C   0  0  0  0  0  0  0  0  0  0  0  0
  148.8643  133.4436  154.9629 C   0  0  0  0  0  0  0  0  0  0  0  0
  148.1307  133.0444  153.8295 C   0  0  0  0  0  0  0  0  0  0  0  0
  146.9297  133.7206  153.5094 C   0  0  0  0  0  0  0  0  0  0  0  0
  146.1757  133.3328  152.3804 N   0  0  0  0  0  0  0  0  0  0  0  0
  144.8394  133.9157  152.2846 C   0  0  0  0  0  0  0  0  0  0  0  0
  144.0172  133.1985  151.1999 C   0  0  0  0  0  0  0  0  0  0  0  0
  144.7222  133.2256  149.9634 O   0  0  0  0  0  0  0  0  0  0  0  0
  145.9727  132.5513  150.0525 C   0  0  0  0  0  0  0  0  0  0  0  0
  146.8638  133.2497  151.0934 C   0  0  0  0  0  0  0  0  0  0  0  0
  146.4730  134.7485  154.2664 N   0  0  0  0  0  0  0  0  0  0  0  0
  147.1781  135.1263  155.3537 C   0  0  0  0  0  0  0  0  0  0  0  0
  143.9521  134.7468  162.4359 H   0  0  0  0  0  0  0  0  0  0  0  0
  144.6344  136.2222  163.1121 H   0  0  0  0  0  0  0  0  0  0  0  0
  145.2030  134.6486  163.6681 H   0  0  0  0  0  0  0  0  0  0  0  0
  146.1481  134.1869  161.3822 H   0  0  0  0  0  0  0  0  0  0  0  0
  145.5302  135.7133  160.8104 H   0  0  0  0  0  0  0  0  0  0  0  0
  147.7115  135.3153  162.8897 H   0  0  0  0  0  0  0  0  0  0  0  0
  146.3273  137.2892  163.5133 H   0  0  0  0  0  0  0  0  0  0  0  0
  146.5331  137.9641  161.8995 H   0  0  0  0  0  0  0  0  0  0  0  0
  147.9207  137.7967  162.9722 H   0  0  0  0  0  0  0  0  0  0  0  0
  148.9847  135.3927  161.0008 H   0  0  0  0  0  0  0  0  0  0  0  0
  149.9528  136.0829  159.1918 H   0  0  0  0  0  0  0  0  0  0  0  0
  149.9725  138.5919  159.3751 H   0  0  0  0  0  0  0  0  0  0  0  0
  148.7594  138.7086  158.1014 H   0  0  0  0  0  0  0  0  0  0  0  0
  150.3653  138.0858  157.7397 H   0  0  0  0  0  0  0  0  0  0  0  0
  147.7960  136.5034  157.1610 H   0  0  0  0  0  0  0  0  0  0  0  0
  149.7776  132.9251  155.2164 H   0  0  0  0  0  0  0  0  0  0  0  0
  148.5015  132.2362  153.2172 H   0  0  0  0  0  0  0  0  0  0  0  0
  144.3034  133.8562  153.2305 H   0  0  0  0  0  0  0  0  0  0  0  0
  144.9351  134.9745  152.0405 H   0  0  0  0  0  0  0  0  0  0  0  0
  143.8077  132.1674  151.4892 H   0  0  0  0  0  0  0  0  0  0  0  0
  143.0551  133.6939  151.0702 H   0  0  0  0  0  0  0  0  0  0  0  0
  145.8159  131.5037  150.3144 H   0  0  0  0  0  0  0  0  0  0  0  0
  146.4548  132.5665  149.0751 H   0  0  0  0  0  0  0  0  0  0  0  0
  147.1164  134.2549  150.7530 H   0  0  0  0  0  0  0  0  0  0  0  0
  147.7975  132.6958  151.1991 H   0  0  0  0  0  0  0  0  0  0  0  0
  146.7595  135.9455  155.9199 H   0  0  0  0  0  0  0  0  0  0  0  0
  1  2  1  0  0  0  0
  1 25  1  0  0  0  0
  1 26  1  0  0  0  0
  1 27  1  0  0  0  0
  2  3  1  0  0  0  0
  2 28  1  0  0  0  0
  2 29  1  0  0  0  0
  3  4  1  0  0  0  0
  3  5  1  0  0  0  0
  3 30  1  0  0  0  0
  4 31  1  0  0  0  0
  4 32  1  0  0  0  0
  4 33  1  0  0  0  0
  5  6  1  0  0  0  0
  5 34  1  0  0  0  0
  6  7  2  0  0  0  0
  6  8  1  0  0  0  0
  8  9  1  0  0  0  0
  8 10  1  0  0  0  0
  8 35  1  0  0  0  0
  9 36  1  0  0  0  0
  9 37  1  0  0  0  0
  9 38  1  0  0  0  0
 10 11  1  0  0  0  0
 10 39  1  0  0  0  0
 11 12  2  0  0  0  0
 11 13  1  0  0  0  0
 13 24  1  0  0  0  0
 13 14  2  0  0  0  0
 14 15  1  0  0  0  0
 14 40  1  0  0  0  0
 15 16  2  0  0  0  0
 15 41  1  0  0  0  0
 16 17  1  0  0  0  0
 16 23  1  0  0  0  0
 17 22  1  0  0  0  0
 17 18  1  0  0  0  0
 18 19  1  0  0  0  0
 18 42  1  0  0  0  0
 18 43  1  0  0  0  0
 19 20  1  0  0  0  0
 19 44  1  0  0  0  0
 19 45  1  0  0  0  0
 20 21  1  0  0  0  0
 21 22  1  0  0  0  0
 21 46  1  0  0  0  0
 21 47  1  0  0  0  0
 22 48  1  0  0  0  0
 22 49  1  0  0  0  0
 23 24  2  0  0  0  0
 24 50  1  0  0  0  0
M  END
> <s_m_source_file>
AV-unprocessed.smi

> <i_m_source_file_index>
313

> <i_lp_mmshare_version>
43012

> <i_f3d_flags>
0

> <s_epik_input>
W0NIM11bQ0gyXVtDQEhdKFtDSDNdKVtOSF1DKD1PKVtDQEhdKFtDSDNdKVtOSF1DKD1PKWMxW2NIXVtjSF1jKG5bY0hdMSlOMltDSDJdW0NIMl1PW0NIMl1bQ0gyXTI=

> <s_epik_cmdline>
J2VwaWtfcHl0aG9uJywgJy1waCcsICc3LjAnLCAnLXRuJywgJzgnLCAnLW1hJywgJzIwMCcsICctbWV0YWxfYmluZGluZycsICctaW1hZScsICc8aW5maWxlLm1hZT4nLCAnLW9tYWUnLCAnPG91dGZpbGUubWFlPic=

> <r_lp_tautomer_probability>
1

> <r_epik_Ionization_Penalty>
9.96442e-06

> <r_epik_Ionization_Penalty_Charging>
0

> <r_epik_Ionization_Penalty_Neutral>
9.96442e-06

> <r_epik_State_Penalty>
-0

> <r_epik_Charging_Adjusted_Penalty>
0

> <i_epik_Tot_Q>
0

> <i_epik_Tot_abs_Q>
0

> <r_epik_Metal_State_Penalty>
-0

> <b_epik_Metal_Only>
0

> <s_lp_Force_Field>
OPLS_2005

> <r_lp_Energy>
19.8546

> <b_lp_Chiralities_Consistent>
1

> <s_lp_Variant>
AV-unprocessed.smi:313-1

> <Gold.Version>
5.8.1

> <Gold.Id.Protein>
6NUR|6NUR_protein|mol2

> <Gold.PLP.Fitness>
38.8867

> <Gold.PLP.PLP>
-33.8826

> <Gold.PLP.part.hbond>
-2.0000

> <Gold.PLP.part.metal>
0.0000

> <Gold.PLP.part.buried>
-4.9228

> <Gold.PLP.part.nonpolar>
-27.8185

> <Gold.PLP.part.repulsive>
0.5578

> <Gold.PLP.ligand.clash>
0.0000

> <Gold.PLP.ligand.torsion>
0.4242

> <Gold.PLP.Chemscore.Hbond>
1.8160

> <Gold.PLP.Chemscore.CHOScore>
0.0000

> <Gold.PLP.Chemscore.Metal>
0.0000

> <Gold.Chemscore.Hbonds>
donor molecule, donor type, donor heavy atom, donor atom, acceptor molecule, acceptor atom, score
      P1  H  6896  6909       L1    12  0.85
      P1  H  6934  6947       L1     7  0.96

> <Gold.PLP.Chemscore.Internal.Correction>
0.4046

> <Gold.Rescore>
     Score         DG    S(hbond)    S(metal)    S(lipo)     H(rot)  DE(clash)    DE(int)     intcor
     15.33     -16.65       1.88        0.00      80.85       1.79       0.02       1.31       ----

> <Gold.Chemscore.Fitness>
15.3297

> <Gold.Chemscore.DG>
-16.6542

> <Gold.Chemscore.ZeroCoef>
-5.4800

> <Gold.Chemscore.Hbond>
1.8846

> <Gold.Chemscore.Metal>
0.0000

> <Gold.Chemscore.Lipo>
80.8458

> <Gold.Chemscore.Internal_Hbond>
0.0000

> <Gold.Chemscore.DEClash>
0.0174

> <Gold.Chemscore.DEInternal>
1.3071

> <Gold.Chemscore.Rot>
1.7888

> <Gold.Chemscore.Internal.Correction>
   9.000000E+99

> <Gold.Chemscore.Hbonds>
donor molecule, donor type, donor heavy atom, donor atom, acceptor molecule, acceptor atom, score
      P1  H  6896  6909       L1    12  0.81
      P1  H  6934  6947       L1     7  0.72

> <Gold.Chemscore.Hbond.Weighted>
-6.2945

> <Gold.Chemscore.Metal.Weighted>
-0.0000

> <Gold.Chemscore.Lipo.Weighted>
-9.4590

> <Gold.Chemscore.Internal_Hbond.Weighted>
0.0000

> <Gold.Chemscore.DEClash.Weighted>
0.0174

> <Gold.Chemscore.DEInternal.Weighted>
1.3071

> <Gold.Chemscore.Rot.Weighted>
4.5793

> <Gold.Chemscore.Internal.Correction.Weighted>
   9.000000E+99

> <Gold.Protein.RotatedTorsions>
[ 6907 6896 6895 6894 ] final    9.28 input  -60.11 | X-H torsion
[ 7974 7965 7964 7962 ] final  156.66 input  175.53 | X-H torsion
[ 8008 7997 7996 7995 ] final -173.51 input   59.86 | X-H torsion
[ 10167 10162 10161 10158 ] final  -25.85 input  -65.29 | X-H torsion
[ 10718 10713 10712 10709 ] final   31.38 input   66.30 | X-H torsion
[ 10763 10752 10751 10750 ] final  -36.75 input  -60.55 | X-H torsion
[ 11005 11000 10999 10996 ] final   15.33 input  -57.11 | X-H torsion

> <Gold.Protein.ActiveResidues>
 VAL166  LYS551  ARG553  GLY616  TRP617  ASP618  TYR619  PRO620  LYS621  CYS622 
 ASP623  PHE694  ASN695  SER759  ASP760  ASP761  ALA762  ILE779  LEU786  VAL792 
 PHE793  MET794  SER795  GLU796  ALA797  LYS798  CYS799  TRP800  GLU811  SER814 

> <Gold.Protein.RotatedAtoms>
  151.7196  135.0897  160.0281 H   0  0  0  0  0  0  0  0  0  0  0  0  # atno 6907 bound_to 6896
  152.3610  133.6293  159.6023 H   0  0  0  0  0  0  0  0  0  0  0  0  # atno 6908 bound_to 6896
  150.7604  133.9340  159.3477 H   0  0  0  0  0  0  0  0  0  0  0  0  # atno 6909 bound_to 6896
  144.7950  139.7234  143.6206 H   0  0  0  0  0  0  0  0  0  0  0  0  # atno 7974 bound_to 7965
  155.9584  140.1140  157.0917 H   0  0  0  0  0  0  0  0  0  0  0  0  # atno 8008 bound_to 7997
  154.4126  140.1187  156.5213 H   0  0  0  0  0  0  0  0  0  0  0  0  # atno 8009 bound_to 7997
  155.6752  140.3473  155.4836 H   0  0  0  0  0  0  0  0  0  0  0  0  # atno 8010 bound_to 7997
  140.7285  143.4229  151.0923 H   0  0  0  0  0  0  0  0  0  0  0  0  # atno 10167 bound_to 10162
  157.2717  130.7211  149.6508 H   0  0  0  0  0  0  0  0  0  0  0  0  # atno 10718 bound_to 10713
  153.8849  135.6818  153.4764 H   0  0  0  0  0  0  0  0  0  0  0  0  # atno 10763 bound_to 10752
  153.1213  135.4738  154.9197 H   0  0  0  0  0  0  0  0  0  0  0  0  # atno 10764 bound_to 10752
  154.7651  135.3222  154.8255 H   0  0  0  0  0  0  0  0  0  0  0  0  # atno 10765 bound_to 10752
  140.4595  134.1142  155.7714 H   0  0  0  0  0  0  0  0  0  0  0  0  # atno 11005 bound_to 11000
  146.2215  139.5644  142.9615 LP  0  0  0  0  0  0  0  0  0  0  0  0  # atno 17320 bound_to 7965
  145.5698  141.0395  143.2180 LP  0  0  0  0  0  0  0  0  0  0  0  0  # atno 17321 bound_to 7965
  139.7876  143.8264  152.3147 LP  0  0  0  0  0  0  0  0  0  0  0  0  # atno 17342 bound_to 10162
  139.8237  144.7284  150.9539 LP  0  0  0  0  0  0  0  0  0  0  0  0  # atno 17343 bound_to 10162
  155.9663  130.4365  150.5138 LP  0  0  0  0  0  0  0  0  0  0  0  0  # atno 17370 bound_to 10713
  157.3064  131.0655  151.2032 LP  0  0  0  0  0  0  0  0  0  0  0  0  # atno 17371 bound_to 10713
  141.1628  133.8761  157.1800 LP  0  0  0  0  0  0  0  0  0  0  0  0  # atno 17394 bound_to 11000
  139.9955  135.0048  157.0072 LP  0  0  0  0  0  0  0  0  0  0  0  0  # atno 17395 bound_to 11000

$$$$
