AV-unprocessed.smi:2413|AV-procd|sdf|9534|dock7
  -GOLD-   2272013163D 1   1.00000     0.00000
 Structure written by MMmdl.
 45 46  0  0  0  0  0  0  0  0  1 V2000
  145.6968  142.7044  156.0471 C   0  0  0  0  0  0  0  0  0  0  0  0
  146.5353  141.7848  155.1644 C   0  0  0  0  0  0  0  0  0  0  0  0
  146.0361  140.7594  154.7029 O   0  0  0  0  0  0  0  0  0  0  0  0
  147.8040  142.1599  154.9399 N   0  0  0  0  0  0  0  0  0  0  0  0
  148.7746  141.4184  154.1407 C   0  0  0  0  0  0  0  0  0  0  0  0
  149.6222  140.4738  155.0094 C   0  0  2  0  0  0  0  0  0  0  0  0
  150.2964  141.2216  156.1768 C   0  0  0  0  0  0  0  0  0  0  0  0
  151.1460  140.3090  156.9316 N   0  0  0  0  0  0  0  0  0  0  0  0
  151.7112  140.8713  158.0832 C   0  0  0  0  0  0  0  0  0  0  0  0
  152.6330  140.1703  158.8919 C   0  0  0  0  0  0  0  0  0  0  0  0
  153.1207  140.8570  160.0199 C   0  0  0  0  0  0  0  0  0  0  0  0
  152.7244  142.1135  160.3129 N   0  0  0  0  0  0  0  0  0  0  0  0
  151.8160  142.6814  159.5082 C   0  0  0  0  0  0  0  0  0  0  0  0
  151.4823  144.1623  159.7578 C   0  0  0  0  0  0  0  0  0  0  0  0
  152.0683  144.6450  161.1057 C   0  0  0  0  0  0  0  0  0  0  0  0
  149.9539  144.3483  159.7640 C   0  0  0  0  0  0  0  0  0  0  0  0
  152.1102  145.0653  158.6702 C   0  0  0  0  0  0  0  0  0  0  0  0
  151.3222  142.1264  158.3929 N   0  0  0  0  0  0  0  0  0  0  0  0
  152.1279  139.6336  156.0948 C   0  0  0  0  0  0  0  0  0  0  0  0
  151.4246  138.9371  154.9187 C   0  0  0  0  0  0  0  0  0  0  0  0
  150.6432  139.8882  154.2022 O   0  0  0  0  0  0  0  0  0  0  0  0
  146.2550  143.5912  156.3500 H   0  0  0  0  0  0  0  0  0  0  0  0
  145.3817  142.1757  156.9470 H   0  0  0  0  0  0  0  0  0  0  0  0
  144.8050  143.0300  155.5113 H   0  0  0  0  0  0  0  0  0  0  0  0
  148.1244  143.0189  155.3628 H   0  0  0  0  0  0  0  0  0  0  0  0
  148.2832  140.8669  153.3374 H   0  0  0  0  0  0  0  0  0  0  0  0
  149.4235  142.1496  153.6581 H   0  0  0  0  0  0  0  0  0  0  0  0
  148.9788  139.6862  155.4072 H   0  0  0  0  0  0  0  0  0  0  0  0
  150.8905  142.0509  155.7909 H   0  0  0  0  0  0  0  0  0  0  0  0
  149.5398  141.6460  156.8381 H   0  0  0  0  0  0  0  0  0  0  0  0
  152.9527  139.1641  158.6648 H   0  0  0  0  0  0  0  0  0  0  0  0
  153.8352  140.3983  160.6874 H   0  0  0  0  0  0  0  0  0  0  0  0
  151.8785  145.7072  161.2638 H   0  0  0  0  0  0  0  0  0  0  0  0
  153.1480  144.4955  161.1457 H   0  0  0  0  0  0  0  0  0  0  0  0
  151.6297  144.1183  161.9541 H   0  0  0  0  0  0  0  0  0  0  0  0
  149.4852  143.7461  160.5432 H   0  0  0  0  0  0  0  0  0  0  0  0
  149.5153  144.0507  158.8108 H   0  0  0  0  0  0  0  0  0  0  0  0
  149.6797  145.3885  159.9421 H   0  0  0  0  0  0  0  0  0  0  0  0
  151.9168  146.1200  158.8697 H   0  0  0  0  0  0  0  0  0  0  0  0
  151.7055  144.8544  157.6798 H   0  0  0  0  0  0  0  0  0  0  0  0
  153.1918  144.9343  158.6207 H   0  0  0  0  0  0  0  0  0  0  0  0
  152.8509  140.3586  155.7183 H   0  0  0  0  0  0  0  0  0  0  0  0
  152.6802  138.9028  156.6870 H   0  0  0  0  0  0  0  0  0  0  0  0
  152.1614  138.5013  154.2439 H   0  0  0  0  0  0  0  0  0  0  0  0
  150.7918  138.1206  155.2706 H   0  0  0  0  0  0  0  0  0  0  0  0
  1  2  1  0  0  0  0
  1 22  1  0  0  0  0
  1 23  1  0  0  0  0
  1 24  1  0  0  0  0
  2  3  2  0  0  0  0
  2  4  1  0  0  0  0
  4  5  1  0  0  0  0
  4 25  1  0  0  0  0
  5  6  1  0  0  0  0
  5 26  1  0  0  0  0
  5 27  1  0  0  0  0
  6 21  1  0  0  0  0
  6  7  1  0  0  0  0
  6 28  1  0  0  0  0
  7  8  1  0  0  0  0
  7 29  1  0  0  0  0
  7 30  1  0  0  0  0
  8  9  1  0  0  0  0
  8 19  1  0  0  0  0
  9 18  1  0  0  0  0
  9 10  2  0  0  0  0
 10 11  1  0  0  0  0
 10 31  1  0  0  0  0
 11 12  2  0  0  0  0
 11 32  1  0  0  0  0
 12 13  1  0  0  0  0
 13 14  1  0  0  0  0
 13 18  2  0  0  0  0
 14 15  1  0  0  0  0
 14 16  1  0  0  0  0
 14 17  1  0  0  0  0
 15 33  1  0  0  0  0
 15 34  1  0  0  0  0
 15 35  1  0  0  0  0
 16 36  1  0  0  0  0
 16 37  1  0  0  0  0
 16 38  1  0  0  0  0
 17 39  1  0  0  0  0
 17 40  1  0  0  0  0
 17 41  1  0  0  0  0
 19 20  1  0  0  0  0
 19 42  1  0  0  0  0
 19 43  1  0  0  0  0
 20 21  1  0  0  0  0
 20 44  1  0  0  0  0
 20 45  1  0  0  0  0
M  END
> <s_m_source_file>
AV-unprocessed.smi

> <i_m_source_file_index>
2413

> <i_lp_mmshare_version>
43012

> <i_f3d_flags>
0

> <s_epik_input>
W0NIM11DKD1PKVtOSF1bQ0gyXVtDQEBIXTFbQ0gyXU4oW0NIMl1bQ0gyXU8xKWMyW2NIXVtjSF1uYyhuMilDKFtDSDNdKShbQ0gzXSlbQ0gzXQ==

> <s_epik_cmdline>
J2VwaWtfcHl0aG9uJywgJy1waCcsICc3LjAnLCAnLXRuJywgJzgnLCAnLW1hJywgJzIwMCcsICctbWV0YWxfYmluZGluZycsICctaW1hZScsICc8aW5maWxlLm1hZT4nLCAnLW9tYWUnLCAnPG91dGZpbGUubWFlPic=

> <r_lp_tautomer_probability>
1

> <r_epik_Ionization_Penalty>
0.0132021

> <r_epik_Ionization_Penalty_Charging>
0

> <r_epik_Ionization_Penalty_Neutral>
0.0132021

> <r_epik_State_Penalty>
0.0102452

> <r_epik_Charging_Adjusted_Penalty>
0.0102452

> <i_epik_Tot_Q>
0

> <i_epik_Tot_abs_Q>
0

> <r_epik_Metal_State_Penalty>
0.0100219

> <b_epik_Metal_Only>
0

> <s_lp_Force_Field>
OPLS_2005

> <r_lp_Energy>
13.0347

> <b_lp_Chiralities_Consistent>
1

> <s_lp_Variant>
AV-unprocessed.smi:2413-1

> <Gold.Version>
5.8.1

> <Gold.Id.Protein>
6NUR|6NUR_protein|mol2

> <Gold.PLP.Fitness>
48.6728

> <Gold.PLP.PLP>
-43.7210

> <Gold.PLP.part.hbond>
-2.0000

> <Gold.PLP.part.metal>
0.0000

> <Gold.PLP.part.buried>
-6.7592

> <Gold.PLP.part.nonpolar>
-36.0338

> <Gold.PLP.part.repulsive>
0.4436

> <Gold.PLP.ligand.clash>
0.0000

> <Gold.PLP.ligand.torsion>
0.6467

> <Gold.PLP.Chemscore.Hbond>
2.0000

> <Gold.PLP.Chemscore.CHOScore>
0.0000

> <Gold.PLP.Chemscore.Metal>
0.0000

> <Gold.Chemscore.Hbonds>
donor molecule, donor type, donor heavy atom, donor atom, acceptor molecule, acceptor atom, score
      L1  H     4    25       P1  8028  1.00
      P1  H  7989  7998       L1    21  1.00

> <Gold.PLP.Chemscore.Internal.Correction>
0.2451

> <Gold.Rescore>
     Score         DG    S(hbond)    S(metal)    S(lipo)     H(rot)  DE(clash)    DE(int)     intcor
     17.76     -18.62       1.78        0.00      99.54       1.73       0.08       0.78       ----

> <Gold.Chemscore.Fitness>
17.7590

> <Gold.Chemscore.DG>
-18.6238

> <Gold.Chemscore.ZeroCoef>
-5.4800

> <Gold.Chemscore.Hbond>
1.7768

> <Gold.Chemscore.Metal>
0.0000

> <Gold.Chemscore.Lipo>
99.5408

> <Gold.Chemscore.Internal_Hbond>
0.0000

> <Gold.Chemscore.DEClash>
0.0849

> <Gold.Chemscore.DEInternal>
0.7799

> <Gold.Chemscore.Rot>
1.7332

> <Gold.Chemscore.Internal.Correction>
   9.000000E+99

> <Gold.Chemscore.Hbonds>
donor molecule, donor type, donor heavy atom, donor atom, acceptor molecule, acceptor atom, score
      L1  H     4    25       P1  8028  0.93
      P1  H  7989  7998       L1    21  0.59

> <Gold.Chemscore.Hbond.Weighted>
-5.9346

> <Gold.Chemscore.Metal.Weighted>
-0.0000

> <Gold.Chemscore.Lipo.Weighted>
-11.6463

> <Gold.Chemscore.Internal_Hbond.Weighted>
0.0000

> <Gold.Chemscore.DEClash.Weighted>
0.0849

> <Gold.Chemscore.DEInternal.Weighted>
0.7799

> <Gold.Chemscore.Rot.Weighted>
4.4370

> <Gold.Chemscore.Internal.Correction.Weighted>
   9.000000E+99

> <Gold.Protein.RotatedTorsions>
[ 6907 6896 6895 6894 ] final  -82.00 input  -60.11 | X-H torsion
[ 7974 7965 7964 7962 ] final  -93.55 input  175.53 | X-H torsion
[ 8008 7997 7996 7995 ] final  152.08 input   59.86 | X-H torsion
[ 10167 10162 10161 10158 ] final   90.32 input  -65.29 | X-H torsion
[ 10718 10713 10712 10709 ] final -138.93 input   66.30 | X-H torsion
[ 10763 10752 10751 10750 ] final   25.20 input  -60.55 | X-H torsion
[ 11005 11000 10999 10996 ] final  -48.89 input  -57.11 | X-H torsion

> <Gold.Protein.ActiveResidues>
 VAL166  LYS551  ARG553  GLY616  TRP617  ASP618  TYR619  PRO620  LYS621  CYS622 
 ASP623  PHE694  ASN695  SER759  ASP760  ASP761  ALA762  ILE779  LEU786  VAL792 
 PHE793  MET794  SER795  GLU796  ALA797  LYS798  CYS799  TRP800  GLU811  SER814 

> <Gold.Protein.RotatedAtoms>
  150.6903  134.3732  159.5000 H   0  0  0  0  0  0  0  0  0  0  0  0  # atno 6907 bound_to 6896
  152.1545  134.8959  160.0555 H   0  0  0  0  0  0  0  0  0  0  0  0  # atno 6908 bound_to 6896
  152.0044  133.3803  159.4231 H   0  0  0  0  0  0  0  0  0  0  0  0  # atno 6909 bound_to 6896
  145.3850  140.9522  143.2372 H   0  0  0  0  0  0  0  0  0  0  0  0  # atno 7974 bound_to 7965
  156.2645  140.2030  156.6277 H   0  0  0  0  0  0  0  0  0  0  0  0  # atno 8008 bound_to 7997
  154.6707  140.0550  157.0186 H   0  0  0  0  0  0  0  0  0  0  0  0  # atno 8009 bound_to 7997
  155.1141  140.3218  155.4517 H   0  0  0  0  0  0  0  0  0  0  0  0  # atno 8010 bound_to 7997
  139.8484  144.6606  150.9198 H   0  0  0  0  0  0  0  0  0  0  0  0  # atno 10167 bound_to 10162
  156.3050  130.7450  151.1511 H   0  0  0  0  0  0  0  0  0  0  0  0  # atno 10718 bound_to 10713
  153.0709  135.6588  154.0250 H   0  0  0  0  0  0  0  0  0  0  0  0  # atno 10763 bound_to 10752
  153.9896  135.2947  155.3414 H   0  0  0  0  0  0  0  0  0  0  0  0  # atno 10764 bound_to 10752
  154.7083  135.5216  153.8698 H   0  0  0  0  0  0  0  0  0  0  0  0  # atno 10765 bound_to 10752
  141.0727  133.6674  156.3506 H   0  0  0  0  0  0  0  0  0  0  0  0  # atno 11005 bound_to 11000
  144.8480  139.5366  143.6869 LP  0  0  0  0  0  0  0  0  0  0  0  0  # atno 17320 bound_to 7965
  146.2824  139.6913  142.9219 LP  0  0  0  0  0  0  0  0  0  0  0  0  # atno 17321 bound_to 7965
  140.7790  143.3849  151.1412 LP  0  0  0  0  0  0  0  0  0  0  0  0  # atno 17342 bound_to 10162
  139.7489  143.8809  152.3071 LP  0  0  0  0  0  0  0  0  0  0  0  0  # atno 17343 bound_to 10162
  157.7377  131.0549  150.5338 LP  0  0  0  0  0  0  0  0  0  0  0  0  # atno 17370 bound_to 10713
  156.5470  130.4222  149.6126 LP  0  0  0  0  0  0  0  0  0  0  0  0  # atno 17371 bound_to 10713
  140.5639  134.5907  157.5441 LP  0  0  0  0  0  0  0  0  0  0  0  0  # atno 17394 bound_to 11000
  139.9540  134.7568  156.0384 LP  0  0  0  0  0  0  0  0  0  0  0  0  # atno 17395 bound_to 11000

$$$$
