AV-unprocessed.smi:115|AV-procd|sdf|1126|dock3
  -GOLD-   2262018253D 1   1.00000     0.00000
 Structure written by MMmdl.
 55 57  0  0  0  0  0  0  0  0  1 V2000
  151.8135  145.6265  159.9147 C   0  0  0  0  0  0  0  0  0  0  0  0
  151.7749  144.4235  159.1670 O   0  0  0  0  0  0  0  0  0  0  0  0
  153.0182  143.7399  159.1670 C   0  0  0  0  0  0  0  0  0  0  0  0
  153.0156  142.6929  160.2996 C   0  0  1  0  0  0  0  0  0  0  0  0
  152.2430  143.1348  161.5545 C   0  0  0  0  0  0  0  0  0  0  0  0
  152.6176  141.3462  159.8567 N   0  0  0  0  0  0  0  0  0  0  0  0
  153.3030  140.1818  160.2018 C   0  0  0  0  0  0  0  0  0  0  0  0
  154.5250  140.1653  161.0650 C   0  0  0  0  0  0  0  0  0  0  0  0
  152.6668  139.1302  159.6154 C   0  0  0  0  0  0  0  0  0  0  0  0
  151.5455  139.6221  158.8968 C   0  0  0  0  0  0  0  0  0  0  0  0
  150.5799  138.8454  158.0775 C   0  0  0  0  0  0  0  0  0  0  0  0
  149.6759  139.3657  157.4223 O   0  0  0  0  0  0  0  0  0  0  0  0
  150.7812  137.3183  158.0763 C   0  0  0  0  0  0  0  0  0  0  0  0
  149.5733  136.5844  158.4328 N   0  0  0  0  0  0  0  0  0  0  0  0
  148.9031  135.8682  157.4096 C   0  0  0  0  0  0  0  0  0  0  0  0
  149.3147  135.8447  156.2484 O   0  0  0  0  0  0  0  0  0  0  0  0
  147.6895  135.1851  157.8442 C   0  0  0  0  0  0  0  0  0  0  0  0
  146.9717  134.4767  156.9561 F   0  0  0  0  0  0  0  0  0  0  0  0
  147.2685  135.2571  159.1253 C   0  0  0  0  0  0  0  0  0  0  0  0
  147.9433  135.9677  160.1041 N   0  0  0  0  0  0  0  0  0  0  0  0
  147.4270  136.0417  161.5243 C   0  0  1  0  0  0  0  0  0  0  0  0
  146.0101  136.6259  161.5427 C   0  0  0  0  0  0  0  0  0  0  0  0
  145.1592  135.3760  161.4908 C   0  0  0  0  0  0  0  0  0  0  0  0
  145.9950  134.4018  162.3134 C   0  0  0  0  0  0  0  0  0  0  0  0
  147.3534  134.7492  162.0543 O   0  0  0  0  0  0  0  0  0  0  0  0
  149.1227  136.6686  159.7723 C   0  0  0  0  0  0  0  0  0  0  0  0
  149.7196  137.3379  160.6189 O   0  0  0  0  0  0  0  0  0  0  0  0
  151.5046  140.9867  159.0800 C   0  0  0  0  0  0  0  0  0  0  0  0
  150.5051  141.9938  158.5805 C   0  0  0  0  0  0  0  0  0  0  0  0
  150.8360  146.1075  159.8841 H   0  0  0  0  0  0  0  0  0  0  0  0
  152.5444  146.3237  159.5031 H   0  0  0  0  0  0  0  0  0  0  0  0
  152.0614  145.4344  160.9593 H   0  0  0  0  0  0  0  0  0  0  0  0
  153.1741  143.2836  158.1909 H   0  0  0  0  0  0  0  0  0  0  0  0
  153.8214  144.4608  159.3286 H   0  0  0  0  0  0  0  0  0  0  0  0
  154.0588  142.6318  160.6035 H   0  0  0  0  0  0  0  0  0  0  0  0
  152.6258  144.0835  161.9312 H   0  0  0  0  0  0  0  0  0  0  0  0
  152.3511  142.4007  162.3534 H   0  0  0  0  0  0  0  0  0  0  0  0
  151.1783  143.2640  161.3716 H   0  0  0  0  0  0  0  0  0  0  0  0
  154.8320  139.1420  161.2819 H   0  0  0  0  0  0  0  0  0  0  0  0
  154.3403  140.6623  162.0176 H   0  0  0  0  0  0  0  0  0  0  0  0
  155.3595  140.6629  160.5704 H   0  0  0  0  0  0  0  0  0  0  0  0
  152.9856  138.1011  159.6933 H   0  0  0  0  0  0  0  0  0  0  0  0
  151.1161  136.9707  157.0979 H   0  0  0  0  0  0  0  0  0  0  0  0
  151.5684  137.0247  158.7725 H   0  0  0  0  0  0  0  0  0  0  0  0
  146.3578  134.7368  159.3810 H   0  0  0  0  0  0  0  0  0  0  0  0
  148.1582  136.6285  162.0827 H   0  0  0  0  0  0  0  0  0  0  0  0
  145.8623  137.1499  162.4877 H   0  0  0  0  0  0  0  0  0  0  0  0
  145.8327  137.3206  160.7209 H   0  0  0  0  0  0  0  0  0  0  0  0
  144.1563  135.5229  161.8921 H   0  0  0  0  0  0  0  0  0  0  0  0
  145.0675  135.0238  160.4627 H   0  0  0  0  0  0  0  0  0  0  0  0
  145.7976  134.5390  163.3771 H   0  0  0  0  0  0  0  0  0  0  0  0
  145.7939  133.3603  162.0618 H   0  0  0  0  0  0  0  0  0  0  0  0
  149.5125  141.5583  158.4814 H   0  0  0  0  0  0  0  0  0  0  0  0
  150.8006  142.3818  157.6058 H   0  0  0  0  0  0  0  0  0  0  0  0
  150.3802  142.8315  159.2598 H   0  0  0  0  0  0  0  0  0  0  0  0
  1  2  1  0  0  0  0
  1 30  1  0  0  0  0
  1 31  1  0  0  0  0
  1 32  1  0  0  0  0
  2  3  1  0  0  0  0
  3  4  1  0  0  0  0
  3 33  1  0  0  0  0
  3 34  1  0  0  0  0
  4  5  1  0  0  0  0
  4  6  1  0  0  0  0
  4 35  1  0  0  0  0
  5 36  1  0  0  0  0
  5 37  1  0  0  0  0
  5 38  1  0  0  0  0
  6 28  1  0  0  0  0
  6  7  1  0  0  0  0
  7  8  1  0  0  0  0
  7  9  2  0  0  0  0
  8 39  1  0  0  0  0
  8 40  1  0  0  0  0
  8 41  1  0  0  0  0
  9 10  1  0  0  0  0
  9 42  1  0  0  0  0
 10 11  1  0  0  0  0
 10 28  2  0  0  0  0
 11 12  2  0  0  0  0
 11 13  1  0  0  0  0
 13 14  1  0  0  0  0
 13 43  1  0  0  0  0
 13 44  1  0  0  0  0
 14 26  1  0  0  0  0
 14 15  1  0  0  0  0
 15 16  2  0  0  0  0
 15 17  1  0  0  0  0
 17 18  1  0  0  0  0
 17 19  2  0  0  0  0
 19 20  1  0  0  0  0
 19 45  1  0  0  0  0
 20 21  1  0  0  0  0
 20 26  1  0  0  0  0
 21 25  1  0  0  0  0
 21 22  1  0  0  0  0
 21 46  1  0  0  0  0
 22 23  1  0  0  0  0
 22 47  1  0  0  0  0
 22 48  1  0  0  0  0
 23 24  1  0  0  0  0
 23 49  1  0  0  0  0
 23 50  1  0  0  0  0
 24 25  1  0  0  0  0
 24 51  1  0  0  0  0
 24 52  1  0  0  0  0
 26 27  2  0  0  0  0
 28 29  1  0  0  0  0
 29 53  1  0  0  0  0
 29 54  1  0  0  0  0
 29 55  1  0  0  0  0
M  END
> <s_m_source_file>
AV-unprocessed.smi

> <i_m_source_file_index>
115

> <i_lp_mmshare_version>
43012

> <i_f3d_flags>
0

> <s_epik_input>
W0NIM11PW0NIMl1bQ0BIXShbQ0gzXSluMWMoW0NIM10pW2NIXWMoYzFbQ0gzXSlDKD1PKVtDSDJdbjJjKD1PKWMoRilbY0hdbihjMj1PKVtDQEBIXTNbQ0gyXVtDSDJdW0NIMl1PMw==

> <s_epik_cmdline>
J2VwaWtfcHl0aG9uJywgJy1waCcsICc3LjAnLCAnLXRuJywgJzgnLCAnLW1hJywgJzIwMCcsICctbWV0YWxfYmluZGluZycsICctaW1hZScsICc8aW5maWxlLm1hZT4nLCAnLW9tYWUnLCAnPG91dGZpbGUubWFlPic=

> <r_lp_tautomer_probability>
1

> <r_epik_Ionization_Penalty>
5.02611e-09

> <r_epik_Ionization_Penalty_Charging>
5.01743e-09

> <r_epik_Ionization_Penalty_Neutral>
8.68114e-12

> <r_epik_State_Penalty>
-0

> <r_epik_Charging_Adjusted_Penalty>
5.01743e-09

> <i_epik_Tot_Q>
0

> <i_epik_Tot_abs_Q>
0

> <r_epik_Metal_State_Penalty>
-0

> <b_epik_Metal_Only>
0

> <s_epik_Chemistry_Notes>
This compound contains an acetal/aminal-like group ( X-CH(R)-Y where X, Y are N, S, or O) that may be acid/base labile, releasing an aldehyde.

> <s_lp_Force_Field>
OPLS_2005

> <r_lp_Energy>
46.6669

> <b_lp_Chiralities_Consistent>
1

> <s_lp_Variant>
AV-unprocessed.smi:115-4

> <Gold.Version>
5.8.1

> <Gold.Id.Protein>
6NUR|6NUR_protein|mol2

> <Gold.PLP.Fitness>
47.5698

> <Gold.PLP.PLP>
-48.5675

> <Gold.PLP.part.hbond>
-0.9047

> <Gold.PLP.part.metal>
0.0000

> <Gold.PLP.part.buried>
-6.1767

> <Gold.PLP.part.nonpolar>
-42.0395

> <Gold.PLP.part.repulsive>
0.0852

> <Gold.PLP.ligand.clash>
0.0000

> <Gold.PLP.ligand.torsion>
1.2341

> <Gold.PLP.Chemscore.Hbond>
0.3040

> <Gold.PLP.Chemscore.CHOScore>
0.0000

> <Gold.PLP.Chemscore.Metal>
0.0000

> <Gold.Chemscore.Hbonds>
donor molecule, donor type, donor heavy atom, donor atom, acceptor molecule, acceptor atom, score
      P1  H  6931  6943       L1    27  0.32

> <Gold.PLP.Chemscore.Internal.Correction>
0.5586

> <Gold.Rescore>
     Score         DG    S(hbond)    S(metal)    S(lipo)     H(rot)  DE(clash)    DE(int)     intcor
     10.80     -14.34       0.34        0.00     114.04       2.19       0.02       3.52       ----

> <Gold.Chemscore.Fitness>
10.8033

> <Gold.Chemscore.DG>
-14.3442

> <Gold.Chemscore.ZeroCoef>
-5.4800

> <Gold.Chemscore.Hbond>
0.3405

> <Gold.Chemscore.Metal>
0.0000

> <Gold.Chemscore.Lipo>
114.0422

> <Gold.Chemscore.Internal_Hbond>
0.0000

> <Gold.Chemscore.DEClash>
0.0245

> <Gold.Chemscore.DEInternal>
3.5164

> <Gold.Chemscore.Rot>
2.1938

> <Gold.Chemscore.Internal.Correction>
   9.000000E+99

> <Gold.Chemscore.Hbonds>
donor molecule, donor type, donor heavy atom, donor atom, acceptor molecule, acceptor atom, score
      P1  H  6931  6943       L1    27  0.32

> <Gold.Chemscore.Hbond.Weighted>
-1.1373

> <Gold.Chemscore.Metal.Weighted>
-0.0000

> <Gold.Chemscore.Lipo.Weighted>
-13.3429

> <Gold.Chemscore.Internal_Hbond.Weighted>
0.0000

> <Gold.Chemscore.DEClash.Weighted>
0.0245

> <Gold.Chemscore.DEInternal.Weighted>
3.5164

> <Gold.Chemscore.Rot.Weighted>
5.6160

> <Gold.Chemscore.Internal.Correction.Weighted>
   9.000000E+99

> <Gold.Protein.RotatedTorsions>
[ 6907 6896 6895 6894 ] final  -16.43 input  -60.11 | X-H torsion
[ 7974 7965 7964 7962 ] final   59.08 input  175.53 | X-H torsion
[ 8008 7997 7996 7995 ] final  159.21 input   59.86 | X-H torsion
[ 10167 10162 10161 10158 ] final  152.75 input  -65.29 | X-H torsion
[ 10718 10713 10712 10709 ] final   81.65 input   66.30 | X-H torsion
[ 10763 10752 10751 10750 ] final -115.56 input  -60.55 | X-H torsion
[ 11005 11000 10999 10996 ] final   21.62 input  -57.11 | X-H torsion

> <Gold.Protein.ActiveResidues>
 VAL166  LYS551  ARG553  GLY616  TRP617  ASP618  TYR619  PRO620  LYS621  CYS622 
 ASP623  PHE694  ASN695  SER759  ASP760  ASP761  ALA762  ILE779  LEU786  VAL792 
 PHE793  MET794  SER795  GLU796  ALA797  LYS798  CYS799  TRP800  GLU811  SER814 

> <Gold.Protein.RotatedAtoms>
  151.3087  135.0788  159.9264 H   0  0  0  0  0  0  0  0  0  0  0  0  # atno 6907 bound_to 6896
  152.5282  133.9758  159.7793 H   0  0  0  0  0  0  0  0  0  0  0  0  # atno 6908 bound_to 6896
  151.0058  133.5961  159.2719 H   0  0  0  0  0  0  0  0  0  0  0  0  # atno 6909 bound_to 6896
  145.9111  139.3655  143.0535 H   0  0  0  0  0  0  0  0  0  0  0  0  # atno 7974 bound_to 7965
  156.2253  140.1837  156.7378 H   0  0  0  0  0  0  0  0  0  0  0  0  # atno 8008 bound_to 7997
  154.5931  140.0647  156.9294 H   0  0  0  0  0  0  0  0  0  0  0  0  # atno 8009 bound_to 7997
  155.2302  140.3314  155.4307 H   0  0  0  0  0  0  0  0  0  0  0  0  # atno 8010 bound_to 7997
  139.4831  144.5331  151.7690 H   0  0  0  0  0  0  0  0  0  0  0  0  # atno 10167 bound_to 10162
  157.6838  131.0013  150.2257 H   0  0  0  0  0  0  0  0  0  0  0  0  # atno 10718 bound_to 10713
  154.8486  135.4377  154.1682 H   0  0  0  0  0  0  0  0  0  0  0  0  # atno 10763 bound_to 10752
  153.2802  135.6953  153.7399 H   0  0  0  0  0  0  0  0  0  0  0  0  # atno 10764 bound_to 10752
  153.6606  135.3435  155.3101 H   0  0  0  0  0  0  0  0  0  0  0  0  # atno 10765 bound_to 10752
  140.3896  134.1834  155.7662 H   0  0  0  0  0  0  0  0  0  0  0  0  # atno 11005 bound_to 11000
  145.8670  140.9442  143.0670 LP  0  0  0  0  0  0  0  0  0  0  0  0  # atno 17320 bound_to 7965
  144.6743  140.0605  143.7476 LP  0  0  0  0  0  0  0  0  0  0  0  0  # atno 17321 bound_to 7965
  140.4860  144.1380  150.5941 LP  0  0  0  0  0  0  0  0  0  0  0  0  # atno 17342 bound_to 10162
  140.4225  143.2605  151.9698 LP  0  0  0  0  0  0  0  0  0  0  0  0  # atno 17343 bound_to 10162
  156.2900  130.3744  149.7851 LP  0  0  0  0  0  0  0  0  0  0  0  0  # atno 17370 bound_to 10713
  156.5513  130.8343  151.3300 LP  0  0  0  0  0  0  0  0  0  0  0  0  # atno 17371 bound_to 10713
  141.1895  133.8236  157.0952 LP  0  0  0  0  0  0  0  0  0  0  0  0  # atno 17394 bound_to 11000
  140.0417  134.9851  157.0974 LP  0  0  0  0  0  0  0  0  0  0  0  0  # atno 17395 bound_to 11000

$$$$
