AV-unprocessed.smi:2574|AV-procd|sdf|10115|dock1
  -GOLD-   2272014133D 1   1.00000     0.00000
 Structure written by MMmdl.
 38 40  0  0  0  0  0  0  0  0  1 V2000
  152.8572  138.6240  159.1431 O   0  0  0  0  0  0  0  0  0  0  0  0
  152.8399  139.8552  159.1788 C   0  0  0  0  0  0  0  0  0  0  0  0
  153.6799  140.6534  160.0848 C   0  0  0  0  0  0  0  0  0  0  0  0
  154.6088  139.9096  161.0408 C   0  0  0  0  0  0  0  0  0  0  0  0
  155.8224  139.7368  160.5150 F   0  0  0  0  0  0  0  0  0  0  0  0
  154.7513  140.5872  162.1806 F   0  0  0  0  0  0  0  0  0  0  0  0
  154.1141  138.7058  161.3304 F   0  0  0  0  0  0  0  0  0  0  0  0
  153.6089  142.0066  160.0609 C   0  0  0  0  0  0  0  0  0  0  0  0
  152.7122  142.6763  159.1401 C   0  0  0  0  0  0  0  0  0  0  0  0
  152.5963  144.1712  159.0498 C   0  0  0  0  0  0  0  0  0  0  0  0
  151.9697  144.9871  160.1562 C   0  0  0  0  0  0  0  0  0  0  0  0
  151.2723  144.8646  158.8211 C   0  0  0  0  0  0  0  0  0  0  0  0
  151.9711  141.9735  158.3512 N   0  0  0  0  0  0  0  0  0  0  0  0
  152.0239  140.5939  158.3699 N   0  0  0  0  0  0  0  0  0  0  0  0
  151.1121  139.9521  157.4142 C   0  0  0  0  0  0  0  0  0  0  0  0
  151.2546  140.5254  155.9870 C   0  0  1  0  0  0  0  0  0  0  0  0
  152.3286  139.8724  155.3381 O   0  0  0  0  0  0  0  0  0  0  0  0
  149.9563  140.3723  155.2084 C   0  0  0  0  0  0  0  0  0  0  0  0
  149.2354  141.5064  154.7717 C   0  0  0  0  0  0  0  0  0  0  0  0
  148.0386  141.3508  154.0458 C   0  0  0  0  0  0  0  0  0  0  0  0
  147.5571  140.0614  153.7485 C   0  0  0  0  0  0  0  0  0  0  0  0
  148.2745  138.9276  154.1755 C   0  0  0  0  0  0  0  0  0  0  0  0
  149.4711  139.0826  154.9020 C   0  0  0  0  0  0  0  0  0  0  0  0
  154.2135  142.6095  160.7215 H   0  0  0  0  0  0  0  0  0  0  0  0
  153.4670  144.5956  158.5533 H   0  0  0  0  0  0  0  0  0  0  0  0
  151.5325  144.4548  160.9989 H   0  0  0  0  0  0  0  0  0  0  0  0
  152.4315  145.9422  160.3972 H   0  0  0  0  0  0  0  0  0  0  0  0
  151.2690  145.7398  158.1746 H   0  0  0  0  0  0  0  0  0  0  0  0
  150.3693  144.2582  158.7872 H   0  0  0  0  0  0  0  0  0  0  0  0
  151.2467  138.8684  157.4045 H   0  0  0  0  0  0  0  0  0  0  0  0
  150.0901  140.1043  157.7667 H   0  0  0  0  0  0  0  0  0  0  0  0
  151.4984  141.5876  156.0291 H   0  0  0  0  0  0  0  0  0  0  0  0
  152.0780  139.7050  154.4424 H   0  0  0  0  0  0  0  0  0  0  0  0
  149.5983  142.5001  154.9906 H   0  0  0  0  0  0  0  0  0  0  0  0
  147.4900  142.2210  153.7166 H   0  0  0  0  0  0  0  0  0  0  0  0
  146.6391  139.9419  153.1921 H   0  0  0  0  0  0  0  0  0  0  0  0
  147.9078  137.9381  153.9456 H   0  0  0  0  0  0  0  0  0  0  0  0
  150.0166  138.2065  155.2218 H   0  0  0  0  0  0  0  0  0  0  0  0
  1  2  2  0  0  0  0
  2 14  1  0  0  0  0
  2  3  1  0  0  0  0
  3  4  1  0  0  0  0
  3  8  2  0  0  0  0
  4  5  1  0  0  0  0
  4  6  1  0  0  0  0
  4  7  1  0  0  0  0
  8  9  1  0  0  0  0
  8 24  1  0  0  0  0
  9 10  1  0  0  0  0
  9 13  2  0  0  0  0
 10 12  1  0  0  0  0
 10 11  1  0  0  0  0
 10 25  1  0  0  0  0
 11 12  1  0  0  0  0
 11 26  1  0  0  0  0
 11 27  1  0  0  0  0
 12 28  1  0  0  0  0
 12 29  1  0  0  0  0
 13 14  1  0  0  0  0
 14 15  1  0  0  0  0
 15 16  1  0  0  0  0
 15 30  1  0  0  0  0
 15 31  1  0  0  0  0
 16 17  1  0  0  0  0
 16 18  1  0  0  0  0
 16 32  1  0  0  0  0
 17 33  1  0  0  0  0
 18 23  1  0  0  0  0
 18 19  2  0  0  0  0
 19 20  1  0  0  0  0
 19 34  1  0  0  0  0
 20 21  2  0  0  0  0
 20 35  1  0  0  0  0
 21 22  1  0  0  0  0
 21 36  1  0  0  0  0
 22 23  2  0  0  0  0
 22 37  1  0  0  0  0
 23 38  1  0  0  0  0
M  END
> <s_m_source_file>
AV-unprocessed.smi

> <i_m_source_file_index>
2574

> <i_lp_mmshare_version>
43012

> <i_f3d_flags>
0

> <s_epik_input>
Tz1jMWMoQyhGKShGKUYpW2NIXWMoW0NIXTJbQ0gyXVtDSDJdMilubjFbQ0gyXVtDQEhdKFtPSF0pYzNbY0hdW2NIXVtjSF1bY0hdW2NIXTM=

> <s_epik_cmdline>
J2VwaWtfcHl0aG9uJywgJy1waCcsICc3LjAnLCAnLXRuJywgJzgnLCAnLW1hJywgJzIwMCcsICctbWV0YWxfYmluZGluZycsICctaW1hZScsICc8aW5maWxlLm1hZT4nLCAnLW9tYWUnLCAnPG91dGZpbGUubWFlPic=

> <r_lp_tautomer_probability>
1

> <r_epik_Ionization_Penalty>
7.26807e-08

> <r_epik_Ionization_Penalty_Charging>
9.677e-10

> <r_epik_Ionization_Penalty_Neutral>
7.1713e-08

> <r_epik_State_Penalty>
-0

> <r_epik_Charging_Adjusted_Penalty>
9.677e-10

> <i_epik_Tot_Q>
0

> <i_epik_Tot_abs_Q>
0

> <r_epik_Metal_State_Penalty>
-0

> <b_epik_Metal_Only>
0

> <s_lp_Force_Field>
OPLS_2005

> <r_lp_Energy>
33.5512

> <b_lp_Chiralities_Consistent>
1

> <s_lp_Variant>
AV-unprocessed.smi:2574-2

> <Gold.Version>
5.8.1

> <Gold.Id.Protein>
6NUR|6NUR_protein|mol2

> <Gold.PLP.Fitness>
53.9925

> <Gold.PLP.PLP>
-54.0494

> <Gold.PLP.part.hbond>
-1.9682

> <Gold.PLP.part.metal>
0.0000

> <Gold.PLP.part.buried>
-1.9088

> <Gold.PLP.part.nonpolar>
-50.0129

> <Gold.PLP.part.repulsive>
0.0000

> <Gold.PLP.ligand.clash>
0.0000

> <Gold.PLP.ligand.torsion>
1.9034

> <Gold.PLP.Chemscore.Hbond>
0.9750

> <Gold.PLP.Chemscore.CHOScore>
0.0000

> <Gold.PLP.Chemscore.Metal>
0.0000

> <Gold.Chemscore.Hbonds>
donor molecule, donor type, donor heavy atom, donor atom, acceptor molecule, acceptor atom, score
      P1  H  7997  8009       L1    17  0.60

> <Gold.PLP.Chemscore.Internal.Correction>
0.8249

> <Gold.Rescore>
     Score         DG    S(hbond)    S(metal)    S(lipo)     H(rot)  DE(clash)    DE(int)     intcor
     14.88     -18.36       0.98        0.00     127.94       2.09       0.02       3.46       ----

> <Gold.Chemscore.Fitness>
14.8758

> <Gold.Chemscore.DG>
-18.3552

> <Gold.Chemscore.ZeroCoef>
-5.4800

> <Gold.Chemscore.Hbond>
0.9754

> <Gold.Chemscore.Metal>
0.0000

> <Gold.Chemscore.Lipo>
127.9447

> <Gold.Chemscore.Internal_Hbond>
0.0000

> <Gold.Chemscore.DEClash>
0.0212

> <Gold.Chemscore.DEInternal>
3.4582

> <Gold.Chemscore.Rot>
2.0906

> <Gold.Chemscore.Internal.Correction>
   9.000000E+99

> <Gold.Chemscore.Hbonds>
donor molecule, donor type, donor heavy atom, donor atom, acceptor molecule, acceptor atom, score
      P1  H  7997  8009       L1    17  0.57

> <Gold.Chemscore.Hbond.Weighted>
-3.2577

> <Gold.Chemscore.Metal.Weighted>
-0.0000

> <Gold.Chemscore.Lipo.Weighted>
-14.9695

> <Gold.Chemscore.Internal_Hbond.Weighted>
0.0000

> <Gold.Chemscore.DEClash.Weighted>
0.0212

> <Gold.Chemscore.DEInternal.Weighted>
3.4582

> <Gold.Chemscore.Rot.Weighted>
5.3520

> <Gold.Chemscore.Internal.Correction.Weighted>
   9.000000E+99

> <Gold.Protein.RotatedTorsions>
[ 6907 6896 6895 6894 ] final  -89.70 input  -60.11 | X-H torsion
[ 7974 7965 7964 7962 ] final -101.31 input  175.53 | X-H torsion
[ 8008 7997 7996 7995 ] final -142.29 input   59.86 | X-H torsion
[ 10167 10162 10161 10158 ] final -162.92 input  -65.29 | X-H torsion
[ 10718 10713 10712 10709 ] final  -64.75 input   66.30 | X-H torsion
[ 10763 10752 10751 10750 ] final  160.87 input  -60.55 | X-H torsion
[ 11005 11000 10999 10996 ] final  176.07 input  -57.11 | X-H torsion

> <Gold.Protein.ActiveResidues>
 VAL166  LYS551  ARG553  GLY616  TRP617  ASP618  TYR619  PRO620  LYS621  CYS622 
 ASP623  PHE694  ASN695  SER759  ASP760  ASP761  ALA762  ILE779  LEU786  VAL792 
 PHE793  MET794  SER795  GLU796  ALA797  LYS798  CYS799  TRP800  GLU811  SER814 

> <Gold.Protein.RotatedAtoms>
  150.6876  134.2545  159.4524 H   0  0  0  0  0  0  0  0  0  0  0  0  # atno 6907 bound_to 6896
  152.0480  134.9668  160.0584 H   0  0  0  0  0  0  0  0  0  0  0  0  # atno 6908 bound_to 6896
  152.1144  133.4283  159.4683 H   0  0  0  0  0  0  0  0  0  0  0  0  # atno 6909 bound_to 6896
  145.2833  140.9332  143.2919 H   0  0  0  0  0  0  0  0  0  0  0  0  # atno 7974 bound_to 7965
  155.4918  140.0568  157.2952 H   0  0  0  0  0  0  0  0  0  0  0  0  # atno 8008 bound_to 7997
  154.4620  140.2001  156.0170 H   0  0  0  0  0  0  0  0  0  0  0  0  # atno 8009 bound_to 7997
  156.0907  140.3234  155.7817 H   0  0  0  0  0  0  0  0  0  0  0  0  # atno 8010 bound_to 7997
  139.6357  144.0354  152.2052 H   0  0  0  0  0  0  0  0  0  0  0  0  # atno 10167 bound_to 10162
  156.0710  130.4238  150.1466 H   0  0  0  0  0  0  0  0  0  0  0  0  # atno 10718 bound_to 10713
  154.2541  135.2770  155.2805 H   0  0  0  0  0  0  0  0  0  0  0  0  # atno 10763 bound_to 10752
  154.5440  135.5694  153.6867 H   0  0  0  0  0  0  0  0  0  0  0  0  # atno 10764 bound_to 10752
  152.9975  135.6258  154.2689 H   0  0  0  0  0  0  0  0  0  0  0  0  # atno 10765 bound_to 10752
  140.3691  134.7046  157.4381 H   0  0  0  0  0  0  0  0  0  0  0  0  # atno 11005 bound_to 11000
  144.9235  139.4384  143.6530 LP  0  0  0  0  0  0  0  0  0  0  0  0  # atno 17320 bound_to 7965
  146.3209  139.8107  142.8946 LP  0  0  0  0  0  0  0  0  0  0  0  0  # atno 17321 bound_to 7965
  140.0031  144.6279  150.7712 LP  0  0  0  0  0  0  0  0  0  0  0  0  # atno 17342 bound_to 10162
  140.7464  143.2890  151.3383 LP  0  0  0  0  0  0  0  0  0  0  0  0  # atno 17343 bound_to 10162
  156.9516  130.9776  151.3497 LP  0  0  0  0  0  0  0  0  0  0  0  0  # atno 17370 bound_to 10713
  157.5780  130.8357  149.8483 LP  0  0  0  0  0  0  0  0  0  0  0  0  # atno 17371 bound_to 10713
  140.0566  134.6055  155.8798 LP  0  0  0  0  0  0  0  0  0  0  0  0  # atno 17394 bound_to 11000
  141.1960  133.6589  156.5671 LP  0  0  0  0  0  0  0  0  0  0  0  0  # atno 17395 bound_to 11000

$$$$
