AV-unprocessed.smi:1900|AV-procd|sdf|7713|dock5
  -GOLD-   22720 9453D 1   1.00000     0.00000
 Structure written by MMmdl.
 43 44  0  0  0  0  0  0  0  0  1 V2000
  152.1418  138.2229  154.4752 C   0  0  0  0  0  0  0  0  0  0  0  0
  151.0613  139.0909  155.1281 C   0  0  2  0  0  0  0  0  0  0  0  0
  149.7796  139.1567  154.2779 C   0  0  0  0  0  0  0  0  0  0  0  0
  148.7879  140.0513  154.8591 N   0  0  0  0  0  0  0  0  0  0  0  0
  147.5531  140.0558  154.0743 C   0  0  0  0  0  0  0  0  0  0  0  0
  146.7720  138.7290  154.0689 C   0  0  0  0  0  0  0  0  0  0  0  0
  146.0712  138.4488  152.7273 C   0  0  0  0  0  0  0  0  0  0  0  0
  146.4893  137.1724  152.1598 N   0  0  0  0  0  0  0  0  0  0  0  0
  145.6531  136.2327  151.6953 C   0  0  0  0  0  0  0  0  0  0  0  0
  144.4277  136.3532  151.6936 O   0  0  0  0  0  0  0  0  0  0  0  0
  146.3244  135.1630  151.2386 N   0  0  0  0  0  0  0  0  0  0  0  0
  145.7763  133.9831  150.6764 C   0  0  0  0  0  0  0  0  0  0  0  0
  144.4737  133.7588  150.1412 C   0  0  0  0  0  0  0  0  0  0  0  0
  144.3413  132.5132  149.7075 N   0  0  0  0  0  0  0  0  0  0  0  0
  145.5408  131.9427  149.9594 N   0  0  0  0  0  0  0  0  0  0  0  0
  146.4426  132.8011  150.5488 C   0  0  0  0  0  0  0  0  0  0  0  0
  149.3739  141.3820  155.0040 C   0  0  0  0  0  0  0  0  0  0  0  0
  150.6779  141.3680  155.8254 C   0  0  1  0  0  0  0  0  0  0  0  0
  150.4412  141.1608  157.3314 C   0  0  0  0  0  0  0  0  0  0  0  0
  151.5900  140.4057  155.2927 O   0  0  0  0  0  0  0  0  0  0  0  0
  145.7260  130.9776  149.7258 H   0  0  0  0  0  0  0  0  0  0  0  0
  151.7915  137.2004  154.3327 H   0  0  0  0  0  0  0  0  0  0  0  0
  153.0372  138.1843  155.0957 H   0  0  0  0  0  0  0  0  0  0  0  0
  152.4287  138.6179  153.5003 H   0  0  0  0  0  0  0  0  0  0  0  0
  150.8278  138.6698  156.1064 H   0  0  0  0  0  0  0  0  0  0  0  0
  150.0266  139.4869  153.2675 H   0  0  0  0  0  0  0  0  0  0  0  0
  149.3610  138.1540  154.1842 H   0  0  0  0  0  0  0  0  0  0  0  0
  146.8996  140.8537  154.4297 H   0  0  0  0  0  0  0  0  0  0  0  0
  147.7906  140.3054  153.0392 H   0  0  0  0  0  0  0  0  0  0  0  0
  147.4286  137.9015  154.3363 H   0  0  0  0  0  0  0  0  0  0  0  0
  146.0194  138.7670  154.8570 H   0  0  0  0  0  0  0  0  0  0  0  0
  144.9909  138.4239  152.8707 H   0  0  0  0  0  0  0  0  0  0  0  0
  146.2691  139.2491  152.0119 H   0  0  0  0  0  0  0  0  0  0  0  0
  147.4818  136.9919  152.1226 H   0  0  0  0  0  0  0  0  0  0  0  0
  147.3315  135.1962  151.2985 H   0  0  0  0  0  0  0  0  0  0  0  0
  143.6354  134.4331  150.0504 H   0  0  0  0  0  0  0  0  0  0  0  0
  147.4459  132.5035  150.8154 H   0  0  0  0  0  0  0  0  0  0  0  0
  149.5817  141.7957  154.0162 H   0  0  0  0  0  0  0  0  0  0  0  0
  148.6700  142.0625  155.4818 H   0  0  0  0  0  0  0  0  0  0  0  0
  151.1568  142.3407  155.7101 H   0  0  0  0  0  0  0  0  0  0  0  0
  149.8316  141.9664  157.7414 H   0  0  0  0  0  0  0  0  0  0  0  0
  151.3851  141.1500  157.8763 H   0  0  0  0  0  0  0  0  0  0  0  0
  149.9232  140.2251  157.5397 H   0  0  0  0  0  0  0  0  0  0  0  0
  1  2  1  0  0  0  0
  1 22  1  0  0  0  0
  1 23  1  0  0  0  0
  1 24  1  0  0  0  0
  2 20  1  0  0  0  0
  2  3  1  0  0  0  0
  2 25  1  0  0  0  0
  3  4  1  0  0  0  0
  3 26  1  0  0  0  0
  3 27  1  0  0  0  0
  4  5  1  0  0  0  0
  4 17  1  0  0  0  0
  5  6  1  0  0  0  0
  5 28  1  0  0  0  0
  5 29  1  0  0  0  0
  6  7  1  0  0  0  0
  6 30  1  0  0  0  0
  6 31  1  0  0  0  0
  7  8  1  0  0  0  0
  7 32  1  0  0  0  0
  7 33  1  0  0  0  0
  8  9  1  0  0  0  0
  8 34  1  0  0  0  0
  9 10  2  0  0  0  0
  9 11  1  0  0  0  0
 11 12  1  0  0  0  0
 11 35  1  0  0  0  0
 12 16  2  0  0  0  0
 12 13  1  0  0  0  0
 13 14  2  0  0  0  0
 13 36  1  0  0  0  0
 14 15  1  0  0  0  0
 15 21  1  0  0  0  0
 15 16  1  0  0  0  0
 16 37  1  0  0  0  0
 17 18  1  0  0  0  0
 17 38  1  0  0  0  0
 17 39  1  0  0  0  0
 18 19  1  0  0  0  0
 18 20  1  0  0  0  0
 18 40  1  0  0  0  0
 19 41  1  0  0  0  0
 19 42  1  0  0  0  0
 19 43  1  0  0  0  0
M  END
> <s_m_source_file>
AV-unprocessed.smi

> <i_m_source_file_index>
1900

> <i_lp_mmshare_version>
43012

> <i_f3d_flags>
0

> <s_epik_input>
W0NIM11bQ0BASF0xW0NIMl1OKFtDSDJdW0NASF0oTzEpW0NIM10pW0NIMl1bQ0gyXVtDSDJdW05IXUMoPU8pW05IXWMyW2NIXW5bbkhdW2NIXTI=

> <s_epik_cmdline>
J2VwaWtfcHl0aG9uJywgJy1waCcsICc3LjAnLCAnLXRuJywgJzgnLCAnLW1hJywgJzIwMCcsICctbWV0YWxfYmluZGluZycsICctaW1hZScsICc8aW5maWxlLm1hZT4nLCAnLW9tYWUnLCAnPG91dGZpbGUubWFlPic=

> <r_lp_tautomer_probability>
0.5

> <r_epik_Ionization_Penalty>
0.594715

> <r_epik_Ionization_Penalty_Charging>
0

> <r_epik_Ionization_Penalty_Neutral>
0.594715

> <r_epik_State_Penalty>
0.608529

> <r_epik_Charging_Adjusted_Penalty>
0.608529

> <i_epik_Tot_Q>
0

> <i_epik_Tot_abs_Q>
0

> <r_epik_Metal_State_Penalty>
0.608528

> <b_epik_Metal_Only>
0

> <s_lp_Force_Field>
OPLS_2005

> <r_lp_Energy>
27.7437

> <b_lp_Chiralities_Consistent>
1

> <s_lp_Variant>
AV-unprocessed.smi:1900-5

> <Gold.Version>
5.8.1

> <Gold.Id.Protein>
6NUR|6NUR_protein|mol2

> <Gold.PLP.Fitness>
46.0202

> <Gold.PLP.PLP>
-33.4334

> <Gold.PLP.part.hbond>
-3.0000

> <Gold.PLP.part.metal>
0.0000

> <Gold.PLP.part.buried>
-6.2431

> <Gold.PLP.part.nonpolar>
-26.5690

> <Gold.PLP.part.repulsive>
1.6171

> <Gold.PLP.ligand.clash>
0.0000

> <Gold.PLP.ligand.torsion>
0.7652

> <Gold.PLP.Chemscore.Hbond>
2.8560

> <Gold.PLP.Chemscore.CHOScore>
1.8363

> <Gold.PLP.Chemscore.Metal>
0.0000

> <Gold.Chemscore.Hbonds>
donor molecule, donor type, donor heavy atom, donor atom, acceptor molecule, acceptor atom, score
      L1  H     8    34       P1  7948  1.00
      L1  H    11    35       P1  7948  0.98
      P1  H  7989  7998       L1    20  0.78
      L1  C    13    36       P1 10186  0.65
      L1  C    16    37       P1 10747  1.00

> <Gold.PLP.Chemscore.Internal.Correction>
0.0402

> <Gold.Rescore>
     Score         DG    S(hbond)    S(metal)    S(lipo)     H(rot)  DE(clash)    DE(int)     intcor
     14.61     -16.48       1.97        0.00      79.03       1.88       0.19       1.67       ----

> <Gold.Chemscore.Fitness>
14.6146

> <Gold.Chemscore.DG>
-16.4775

> <Gold.Chemscore.ZeroCoef>
-5.4800

> <Gold.Chemscore.Hbond>
1.9651

> <Gold.Chemscore.Metal>
0.0000

> <Gold.Chemscore.Lipo>
79.0310

> <Gold.Chemscore.Internal_Hbond>
0.0000

> <Gold.Chemscore.DEClash>
0.1896

> <Gold.Chemscore.DEInternal>
1.6733

> <Gold.Chemscore.Rot>
1.8799

> <Gold.Chemscore.Internal.Correction>
   9.000000E+99

> <Gold.Chemscore.Hbonds>
donor molecule, donor type, donor heavy atom, donor atom, acceptor molecule, acceptor atom, score
      L1  H     8    34       P1  7948  1.00
      L1  H    11    35       P1  7948  0.65
      P1  H  7989  7998       L1    20  0.05

> <Gold.Chemscore.Hbond.Weighted>
-6.5634

> <Gold.Chemscore.Metal.Weighted>
-0.0000

> <Gold.Chemscore.Lipo.Weighted>
-9.2466

> <Gold.Chemscore.Internal_Hbond.Weighted>
0.0000

> <Gold.Chemscore.DEClash.Weighted>
0.1896

> <Gold.Chemscore.DEInternal.Weighted>
1.6733

> <Gold.Chemscore.Rot.Weighted>
4.8126

> <Gold.Chemscore.Internal.Correction.Weighted>
   9.000000E+99

> <Gold.Protein.RotatedTorsions>
[ 6907 6896 6895 6894 ] final  174.70 input  -60.11 | X-H torsion
[ 7974 7965 7964 7962 ] final  138.97 input  175.53 | X-H torsion
[ 8008 7997 7996 7995 ] final  131.27 input   59.86 | X-H torsion
[ 10167 10162 10161 10158 ] final  -73.30 input  -65.29 | X-H torsion
[ 10718 10713 10712 10709 ] final  -20.15 input   66.30 | X-H torsion
[ 10763 10752 10751 10750 ] final   67.87 input  -60.55 | X-H torsion
[ 11005 11000 10999 10996 ] final  -21.63 input  -57.11 | X-H torsion

> <Gold.Protein.ActiveResidues>
 VAL166  LYS551  ARG553  GLY616  TRP617  ASP618  TYR619  PRO620  LYS621  CYS622 
 ASP623  PHE694  ASN695  SER759  ASP760  ASP761  ALA762  ILE779  LEU786  VAL792 
 PHE793  MET794  SER795  GLU796  ALA797  LYS798  CYS799  TRP800  GLU811  SER814 

> <Gold.Protein.RotatedAtoms>
  151.7481  133.3325  159.3383 H   0  0  0  0  0  0  0  0  0  0  0  0  # atno 6907 bound_to 6896
  150.7546  134.6217  159.6149 H   0  0  0  0  0  0  0  0  0  0  0  0  # atno 6908 bound_to 6896
  152.3487  134.7038  160.0294 H   0  0  0  0  0  0  0  0  0  0  0  0  # atno 6909 bound_to 6896
  144.9322  139.5033  143.5612 H   0  0  0  0  0  0  0  0  0  0  0  0  # atno 7974 bound_to 7965
  156.2967  140.2575  156.2898 H   0  0  0  0  0  0  0  0  0  0  0  0  # atno 8008 bound_to 7997
  154.9520  140.0394  157.2167 H   0  0  0  0  0  0  0  0  0  0  0  0  # atno 8009 bound_to 7997
  154.8027  140.2831  155.5914 H   0  0  0  0  0  0  0  0  0  0  0  0  # atno 8010 bound_to 7997
  140.5121  143.2343  151.7575 H   0  0  0  0  0  0  0  0  0  0  0  0  # atno 10167 bound_to 10162
  156.5358  130.4666  149.6524 H   0  0  0  0  0  0  0  0  0  0  0  0  # atno 10718 bound_to 10713
  153.0207  135.5268  154.7047 H   0  0  0  0  0  0  0  0  0  0  0  0  # atno 10763 bound_to 10752
  154.6146  135.2882  155.0396 H   0  0  0  0  0  0  0  0  0  0  0  0  # atno 10764 bound_to 10752
  154.1405  135.6579  153.4993 H   0  0  0  0  0  0  0  0  0  0  0  0  # atno 10765 bound_to 10752
  140.8580  133.7809  156.0041 H   0  0  0  0  0  0  0  0  0  0  0  0  # atno 11005 bound_to 11000
  146.3252  139.8281  142.8913 LP  0  0  0  0  0  0  0  0  0  0  0  0  # atno 17320 bound_to 7965
  145.3123  141.0223  143.3547 LP  0  0  0  0  0  0  0  0  0  0  0  0  # atno 17321 bound_to 7965
  139.4899  144.4375  151.9802 LP  0  0  0  0  0  0  0  0  0  0  0  0  # atno 17342 bound_to 10162
  140.3468  144.3137  150.5956 LP  0  0  0  0  0  0  0  0  0  0  0  0  # atno 17343 bound_to 10162
  156.3018  130.7181  151.2054 LP  0  0  0  0  0  0  0  0  0  0  0  0  # atno 17370 bound_to 10713
  157.7414  131.0504  150.5099 LP  0  0  0  0  0  0  0  0  0  0  0  0  # atno 17371 bound_to 10713
  140.8715  134.2720  157.5188 LP  0  0  0  0  0  0  0  0  0  0  0  0  # atno 17394 bound_to 11000
  139.8706  134.9570  156.4254 LP  0  0  0  0  0  0  0  0  0  0  0  0  # atno 17395 bound_to 11000

$$$$
