AV-unprocessed.smi:1039|AV-procd|sdf|4523|dock4
  -GOLD-   22720 2543D 1   1.00000     0.00000
 Structure written by MMmdl.
 41 42  0  0  0  0  0  0  0  0  2 V2000
  149.8598  134.8454  155.6865 C   0  0  0  0  0  0  0  0  0  0  0  0
  150.9935  135.8786  155.6371 C   0  0  0  0  0  0  0  0  0  0  0  0
  151.2299  136.5325  157.0157 C   0  0  0  0  0  0  0  0  0  0  0  0
  152.2949  137.6405  156.9296 C   0  0  0  0  0  0  0  0  0  0  0  0
  151.8661  138.6318  155.9281 N   0  0  0  0  0  0  0  0  0  0  0  0
  151.3917  139.8779  156.1811 C   0  0  0  0  0  0  0  0  0  0  0  0
  151.1891  140.7164  155.3023 O   0  0  0  0  0  0  0  0  0  0  0  0
  151.1883  140.1482  157.4813 N   0  0  0  0  0  0  0  0  0  0  0  0
  150.7134  141.4195  158.0196 C   0  0  0  0  0  0  0  0  0  0  0  0
  151.7212  142.5751  157.8446 C   0  0  0  0  0  0  0  0  0  0  0  0
  151.7626  143.5521  158.9835 C   0  0  0  0  0  0  0  0  0  0  0  0
  151.3659  144.8286  158.9107 N   0  3  0  0  0  0  0  0  0  0  0  0
  151.5464  145.4558  160.1122 C   0  0  0  0  0  0  0  0  0  0  0  0
  152.0755  144.5193  160.9603 C   0  0  0  0  0  0  0  0  0  0  0  0
  152.1984  143.3576  160.2411 N   0  0  0  0  0  0  0  0  0  0  0  0
  152.7129  142.0820  160.7502 C   0  0  0  0  0  0  0  0  0  0  0  0
  153.8232  141.7348  160.0998 F   0  0  0  0  0  0  0  0  0  0  0  0
  152.9442  142.1580  162.0598 F   0  0  0  0  0  0  0  0  0  0  0  0
  151.8267  138.0423  154.5842 C   0  0  0  0  0  0  0  0  0  0  0  0
  150.7431  136.9488  154.5524 C   0  0  0  0  0  0  0  0  0  0  0  0
  148.9090  135.3123  155.9453 H   0  0  0  0  0  0  0  0  0  0  0  0
  150.0643  134.0734  156.4287 H   0  0  0  0  0  0  0  0  0  0  0  0
  149.7369  134.3512  154.7225 H   0  0  0  0  0  0  0  0  0  0  0  0
  151.9080  135.3484  155.3669 H   0  0  0  0  0  0  0  0  0  0  0  0
  150.2967  136.9556  157.3906 H   0  0  0  0  0  0  0  0  0  0  0  0
  151.5394  135.7773  157.7387 H   0  0  0  0  0  0  0  0  0  0  0  0
  152.4742  138.0573  157.9205 H   0  0  0  0  0  0  0  0  0  0  0  0
  153.2506  137.2130  156.6227 H   0  0  0  0  0  0  0  0  0  0  0  0
  151.3729  139.4122  158.1475 H   0  0  0  0  0  0  0  0  0  0  0  0
  149.7532  141.6829  157.5735 H   0  0  0  0  0  0  0  0  0  0  0  0
  150.5192  141.2599  159.0793 H   0  0  0  0  0  0  0  0  0  0  0  0
  152.7327  142.1793  157.7446 H   0  0  0  0  0  0  0  0  0  0  0  0
  151.5152  143.1316  156.9309 H   0  0  0  0  0  0  0  0  0  0  0  0
  151.2901  146.4935  160.2692 H   0  0  0  0  0  0  0  0  0  0  0  0
  152.3658  144.5922  161.9985 H   0  0  0  0  0  0  0  0  0  0  0  0
  151.9709  141.2996  160.5871 H   0  0  0  0  0  0  0  0  0  0  0  0
  151.6329  138.7797  153.8041 H   0  0  0  0  0  0  0  0  0  0  0  0
  152.8011  137.6126  154.3473 H   0  0  0  0  0  0  0  0  0  0  0  0
  150.7168  136.4829  153.5669 H   0  0  0  0  0  0  0  0  0  0  0  0
  149.7644  137.4071  154.7030 H   0  0  0  0  0  0  0  0  0  0  0  0
  150.9874  145.2651  158.0792 H   0  0  0  0  0  0  0  0  0  0  0  0
  1  2  1  0  0  0  0
  1 21  1  0  0  0  0
  1 22  1  0  0  0  0
  1 23  1  0  0  0  0
  2 20  1  0  0  0  0
  2  3  1  0  0  0  0
  2 24  1  0  0  0  0
  3  4  1  0  0  0  0
  3 25  1  0  0  0  0
  3 26  1  0  0  0  0
  4  5  1  0  0  0  0
  4 27  1  0  0  0  0
  4 28  1  0  0  0  0
  5  6  1  0  0  0  0
  5 19  1  0  0  0  0
  6  7  2  0  0  0  0
  6  8  1  0  0  0  0
  8  9  1  0  0  0  0
  8 29  1  0  0  0  0
  9 10  1  0  0  0  0
  9 30  1  0  0  0  0
  9 31  1  0  0  0  0
 10 11  1  0  0  0  0
 10 32  1  0  0  0  0
 10 33  1  0  0  0  0
 11 15  1  0  0  0  0
 11 12  2  0  0  0  0
 12 13  1  0  0  0  0
 12 41  1  0  0  0  0
 13 14  2  0  0  0  0
 13 34  1  0  0  0  0
 14 15  1  0  0  0  0
 14 35  1  0  0  0  0
 15 16  1  0  0  0  0
 16 17  1  0  0  0  0
 16 18  1  0  0  0  0
 16 36  1  0  0  0  0
 19 20  1  0  0  0  0
 19 37  1  0  0  0  0
 19 38  1  0  0  0  0
 20 39  1  0  0  0  0
 20 40  1  0  0  0  0
M  CHG  1  12   1
M  END
> <s_m_source_file>
AV-unprocessed.smi

> <i_m_source_file_index>
1039

> <i_lp_mmshare_version>
43012

> <i_f3d_flags>
0

> <s_epik_input>
W0NIM11bQ0hdMVtDSDJdW0NIMl1OKFtDSDJdW0NIMl0xKUMoPU8pW05IXVtDSDJdW0NIMl1jMm5bY0hdW2NIXW4yW0NIXShGKUY=

> <s_epik_cmdline>
J2VwaWtfcHl0aG9uJywgJy1waCcsICc3LjAnLCAnLXRuJywgJzgnLCAnLW1hJywgJzIwMCcsICctbWV0YWxfYmluZGluZycsICctaW1hZScsICc8aW5maWxlLm1hZT4nLCAnLW9tYWUnLCAnPG91dGZpbGUubWFlPic=

> <r_lp_tautomer_probability>
1

> <r_epik_Ionization_Penalty>
1.09425

> <r_epik_Ionization_Penalty_Charging>
0

> <r_epik_Ionization_Penalty_Neutral>
1.09425

> <r_epik_State_Penalty>
1.15074

> <r_epik_Charging_Adjusted_Penalty>
1.15074

> <i_epik_Tot_Q>
1

> <i_epik_Tot_abs_Q>
1

> <r_epik_Metal_State_Penalty>
1.2388

> <b_epik_Metal_Only>
0

> <s_lp_Force_Field>
OPLS_2005

> <r_lp_Energy>
37.2769

> <b_lp_Chiralities_Consistent>
1

> <s_lp_Variant>
AV-unprocessed.smi:1039-2

> <Gold.Version>
5.8.1

> <Gold.Id.Protein>
6NUR|6NUR_protein|mol2

> <Gold.PLP.Fitness>
47.2691

> <Gold.PLP.PLP>
-45.6361

> <Gold.PLP.part.hbond>
-1.0000

> <Gold.PLP.part.metal>
0.0000

> <Gold.PLP.part.buried>
-6.1276

> <Gold.PLP.part.nonpolar>
-38.9083

> <Gold.PLP.part.repulsive>
0.2333

> <Gold.PLP.ligand.clash>
0.1537

> <Gold.PLP.ligand.torsion>
0.4495

> <Gold.PLP.Chemscore.Hbond>
0.8800

> <Gold.PLP.Chemscore.CHOScore>
0.0000

> <Gold.PLP.Chemscore.Metal>
0.0000

> <Gold.Chemscore.Hbonds>
donor molecule, donor type, donor heavy atom, donor atom, acceptor molecule, acceptor atom, score
      P1  H  7989  7998       L1     7  0.82

> <Gold.PLP.Chemscore.Internal.Correction>
0.0457

> <Gold.Rescore>
     Score         DG    S(hbond)    S(metal)    S(lipo)     H(rot)  DE(clash)    DE(int)     intcor
     13.42     -13.85       0.92        0.00      80.38       1.61       0.05       0.38       ----

> <Gold.Chemscore.Fitness>
13.4185

> <Gold.Chemscore.DG>
-13.8469

> <Gold.Chemscore.ZeroCoef>
-5.4800

> <Gold.Chemscore.Hbond>
0.9198

> <Gold.Chemscore.Metal>
0.0000

> <Gold.Chemscore.Lipo>
80.3762

> <Gold.Chemscore.Internal_Hbond>
0.0000

> <Gold.Chemscore.DEClash>
0.0524

> <Gold.Chemscore.DEInternal>
0.3760

> <Gold.Chemscore.Rot>
1.6051

> <Gold.Chemscore.Internal.Correction>
   9.000000E+99

> <Gold.Chemscore.Hbonds>
donor molecule, donor type, donor heavy atom, donor atom, acceptor molecule, acceptor atom, score
      P1  H  7989  7998       L1     7  0.81

> <Gold.Chemscore.Hbond.Weighted>
-3.0721

> <Gold.Chemscore.Metal.Weighted>
-0.0000

> <Gold.Chemscore.Lipo.Weighted>
-9.4040

> <Gold.Chemscore.Internal_Hbond.Weighted>
0.0000

> <Gold.Chemscore.DEClash.Weighted>
0.0524

> <Gold.Chemscore.DEInternal.Weighted>
0.3760

> <Gold.Chemscore.Rot.Weighted>
4.1092

> <Gold.Chemscore.Internal.Correction.Weighted>
   9.000000E+99

> <Gold.Protein.RotatedTorsions>
[ 6907 6896 6895 6894 ] final  128.87 input  -60.11 | X-H torsion
[ 7974 7965 7964 7962 ] final  150.01 input  175.53 | X-H torsion
[ 8008 7997 7996 7995 ] final  101.70 input   59.86 | X-H torsion
[ 10167 10162 10161 10158 ] final  -58.78 input  -65.29 | X-H torsion
[ 10718 10713 10712 10709 ] final  -50.13 input   66.30 | X-H torsion
[ 10763 10752 10751 10750 ] final   23.70 input  -60.55 | X-H torsion
[ 11005 11000 10999 10996 ] final -149.12 input  -57.11 | X-H torsion

> <Gold.Protein.ActiveResidues>
 VAL166  LYS551  ARG553  GLY616  TRP617  ASP618  TYR619  PRO620  LYS621  CYS622 
 ASP623  PHE694  ASN695  SER759  ASP760  ASP761  ALA762  ILE779  LEU786  VAL792 
 PHE793  MET794  SER795  GLU796  ALA797  LYS798  CYS799  TRP800  GLU811  SER814 

> <Gold.Protein.RotatedAtoms>
  152.3678  133.6379  159.6063 H   0  0  0  0  0  0  0  0  0  0  0  0  # atno 6907 bound_to 6896
  150.7646  133.9320  159.3438 H   0  0  0  0  0  0  0  0  0  0  0  0  # atno 6908 bound_to 6896
  151.7147  135.0907  160.0325 H   0  0  0  0  0  0  0  0  0  0  0  0  # atno 6909 bound_to 6896
  144.8395  139.6354  143.6023 H   0  0  0  0  0  0  0  0  0  0  0  0  # atno 7974 bound_to 7965
  156.1323  140.3193  155.8368 H   0  0  0  0  0  0  0  0  0  0  0  0  # atno 8008 bound_to 7997
  155.4308  140.0518  157.3036 H   0  0  0  0  0  0  0  0  0  0  0  0  # atno 8009 bound_to 7997
  154.4909  140.2092  155.9563 H   0  0  0  0  0  0  0  0  0  0  0  0  # atno 8010 bound_to 7997
  140.6176  143.2408  151.5559 H   0  0  0  0  0  0  0  0  0  0  0  0  # atno 10167 bound_to 10162
  156.1828  130.4151  149.9482 H   0  0  0  0  0  0  0  0  0  0  0  0  # atno 10718 bound_to 10713
  153.0819  135.6621  154.0028 H   0  0  0  0  0  0  0  0  0  0  0  0  # atno 10763 bound_to 10752
  153.9648  135.2970  155.3432 H   0  0  0  0  0  0  0  0  0  0  0  0  # atno 10764 bound_to 10752
  154.7220  135.5161  153.8898 H   0  0  0  0  0  0  0  0  0  0  0  0  # atno 10765 bound_to 10752
  140.7541  134.3373  157.5118 H   0  0  0  0  0  0  0  0  0  0  0  0  # atno 11005 bound_to 11000
  146.2690  139.6588  142.9309 LP  0  0  0  0  0  0  0  0  0  0  0  0  # atno 17320 bound_to 7965
  145.4723  141.0436  143.2691 LP  0  0  0  0  0  0  0  0  0  0  0  0  # atno 17321 bound_to 7965
  139.5411  144.2644  152.1353 LP  0  0  0  0  0  0  0  0  0  0  0  0  # atno 17342 bound_to 10162
  140.1857  144.4801  150.6505 LP  0  0  0  0  0  0  0  0  0  0  0  0  # atno 17343 bound_to 10162
  156.7246  130.9020  151.3621 LP  0  0  0  0  0  0  0  0  0  0  0  0  # atno 17370 bound_to 10713
  157.6879  130.9204  150.0436 LP  0  0  0  0  0  0  0  0  0  0  0  0  # atno 17371 bound_to 10713
  139.8782  134.9161  156.3146 LP  0  0  0  0  0  0  0  0  0  0  0  0  # atno 17394 bound_to 11000
  140.9724  133.7319  156.0553 LP  0  0  0  0  0  0  0  0  0  0  0  0  # atno 17395 bound_to 11000

$$$$
