AV-unprocessed.smi:2720|AV-procd|sdf|10499|dock3
  -GOLD-   2272014543D 1   1.00000     0.00000
 Structure written by MMmdl.
 32 33  0  0  0  0  0  0  0  0  3 V2000
  149.5017  140.9326  153.2539 O   0  0  0  0  0  0  0  0  0  0  0  0
  149.0502  140.2404  154.4048 C   0  0  0  0  0  0  0  0  0  0  0  0
  150.3143  139.7953  155.1883 C   0  0  0  0  0  0  0  0  0  0  0  0
  150.7005  140.6884  156.3589 C   0  0  0  0  0  0  0  0  0  0  0  0
  150.9433  142.0675  156.1667 C   0  0  0  0  0  0  0  0  0  0  0  0
  151.3022  142.8646  157.2732 C   0  0  0  0  0  0  0  0  0  0  0  0
  151.4110  142.3057  158.4982 N   0  3  0  0  0  0  0  0  0  0  0  0
  151.1905  140.9925  158.7255 C   0  0  0  0  0  0  0  0  0  0  0  0
  150.8298  140.1463  157.6571 C   0  0  0  0  0  0  0  0  0  0  0  0
  148.2092  141.2217  155.2546 C   0  0  0  0  0  0  0  0  0  0  0  0
  146.8959  141.6351  154.5642 C   0  0  0  0  0  0  0  0  0  0  0  0
  146.1033  140.4460  154.1891 N   0  3  0  0  0  0  0  0  0  0  0  0
  146.8402  139.5287  153.2954 C   0  0  0  0  0  0  0  0  0  0  0  0
  148.1562  139.0600  153.9460 C   0  0  0  0  0  0  0  0  0  0  0  0
  149.5307  140.3284  152.5271 H   0  0  0  0  0  0  0  0  0  0  0  0
  150.2082  138.7672  155.5385 H   0  0  0  0  0  0  0  0  0  0  0  0
  151.1671  139.7785  154.5084 H   0  0  0  0  0  0  0  0  0  0  0  0
  150.8557  142.5126  155.1862 H   0  0  0  0  0  0  0  0  0  0  0  0
  151.5049  143.9242  157.2155 H   0  0  0  0  0  0  0  0  0  0  0  0
  151.3093  140.6609  159.7468 H   0  0  0  0  0  0  0  0  0  0  0  0
  150.6535  139.0951  157.8342 H   0  0  0  0  0  0  0  0  0  0  0  0
  147.9640  140.7545  156.2097 H   0  0  0  0  0  0  0  0  0  0  0  0
  148.7936  142.1105  155.4965 H   0  0  0  0  0  0  0  0  0  0  0  0
  146.3011  142.2606  155.2301 H   0  0  0  0  0  0  0  0  0  0  0  0
  147.0994  142.2289  153.6720 H   0  0  0  0  0  0  0  0  0  0  0  0
  145.8497  139.9464  155.0297 H   0  0  0  0  0  0  0  0  0  0  0  0
  146.2064  138.6712  153.0681 H   0  0  0  0  0  0  0  0  0  0  0  0
  147.0393  140.0331  152.3490 H   0  0  0  0  0  0  0  0  0  0  0  0
  148.6890  138.4197  153.2419 H   0  0  0  0  0  0  0  0  0  0  0  0
  147.9178  138.4340  154.8073 H   0  0  0  0  0  0  0  0  0  0  0  0
  145.2593  140.7490  153.7237 H   0  0  0  0  0  0  0  0  0  0  0  0
  151.6724  142.9003  159.2853 H   0  0  0  0  0  0  0  0  0  0  0  0
  1  2  1  0  0  0  0
  1 15  1  0  0  0  0
  2 14  1  0  0  0  0
  2  3  1  0  0  0  0
  2 10  1  0  0  0  0
  3  4  1  0  0  0  0
  3 16  1  0  0  0  0
  3 17  1  0  0  0  0
  4  9  1  0  0  0  0
  4  5  2  0  0  0  0
  5  6  1  0  0  0  0
  5 18  1  0  0  0  0
  6  7  2  0  0  0  0
  6 19  1  0  0  0  0
  7  8  1  0  0  0  0
  7 32  1  0  0  0  0
  8  9  2  0  0  0  0
  8 20  1  0  0  0  0
  9 21  1  0  0  0  0
 10 11  1  0  0  0  0
 10 22  1  0  0  0  0
 10 23  1  0  0  0  0
 11 12  1  0  0  0  0
 11 24  1  0  0  0  0
 11 25  1  0  0  0  0
 12 13  1  0  0  0  0
 12 26  1  0  0  0  0
 12 31  1  0  0  0  0
 13 14  1  0  0  0  0
 13 27  1  0  0  0  0
 13 28  1  0  0  0  0
 14 29  1  0  0  0  0
 14 30  1  0  0  0  0
M  CHG  1   7   1
M  CHG  1  12   1
M  END
> <s_m_source_file>
AV-unprocessed.smi

> <i_m_source_file_index>
2720

> <i_lp_mmshare_version>
43012

> <i_f3d_flags>
0

> <s_epik_input>
W0NIMl0xW0NIMl1bTkhdW0NIMl1bQ0gyXUMxKFtPSF0pW0NIMl1jMltjSF1bY0hdbltjSF1bY0hdMg==

> <s_epik_cmdline>
J2VwaWtfcHl0aG9uJywgJy1waCcsICc3LjAnLCAnLXRuJywgJzgnLCAnLW1hJywgJzIwMCcsICctbWV0YWxfYmluZGluZycsICctaW1hZScsICc8aW5maWxlLm1hZT4nLCAnLW9tYWUnLCAnPG91dGZpbGUubWFlPic=

> <r_epik_Ionization_Penalty>
1.30405

> <r_epik_Ionization_Penalty_Charging>
1.30405

> <r_epik_Ionization_Penalty_Neutral>
5.30574e-07

> <r_epik_State_Penalty>
1.37793

> <r_epik_Charging_Adjusted_Penalty>
2.68198

> <i_epik_Tot_Q>
2

> <i_epik_Tot_abs_Q>
2

> <r_epik_Metal_State_Penalty>
5.40982

> <b_epik_Metal_Only>
0

> <s_lp_Force_Field>
OPLS_2005

> <r_lp_Energy>
28.3784

> <b_lp_Chiralities_Consistent>
1

> <s_lp_Variant>
AV-unprocessed.smi:2720-2

> <Gold.Version>
5.8.1

> <Gold.Id.Protein>
6NUR|6NUR_protein|mol2

> <Gold.PLP.Fitness>
35.9760

> <Gold.PLP.PLP>
-26.7569

> <Gold.PLP.part.hbond>
-3.1571

> <Gold.PLP.part.metal>
0.0000

> <Gold.PLP.part.buried>
-4.9338

> <Gold.PLP.part.nonpolar>
-19.3684

> <Gold.PLP.part.repulsive>
0.0632

> <Gold.PLP.ligand.clash>
0.0000

> <Gold.PLP.ligand.torsion>
0.8431

> <Gold.PLP.Chemscore.Hbond>
3.6339

> <Gold.PLP.Chemscore.CHOScore>
0.0000

> <Gold.PLP.Chemscore.Metal>
0.0000

> <Gold.Chemscore.Hbonds>
donor molecule, donor type, donor heavy atom, donor atom, acceptor molecule, acceptor atom, score
      L1  H     1    15       P1  7957  0.67
      L1  H    12    31       P1 10175  2.00
      P1  H  7989  7998       L1     1  0.10
      P1  H  8011  8017       L1     1  0.85

> <Gold.PLP.Chemscore.Internal.Correction>
0.0035

> <Gold.Rescore>
     Score         DG    S(hbond)    S(metal)    S(lipo)     H(rot)  DE(clash)    DE(int)     intcor
     15.62     -16.49       2.14        0.00      69.55       1.67       0.04       0.83       ----

> <Gold.Chemscore.Fitness>
15.6190

> <Gold.Chemscore.DG>
-16.4899

> <Gold.Chemscore.ZeroCoef>
-5.4800

> <Gold.Chemscore.Hbond>
2.1392

> <Gold.Chemscore.Metal>
0.0000

> <Gold.Chemscore.Lipo>
69.5534

> <Gold.Chemscore.Internal_Hbond>
0.0000

> <Gold.Chemscore.DEClash>
0.0420

> <Gold.Chemscore.DEInternal>
0.8289

> <Gold.Chemscore.Rot>
1.6691

> <Gold.Chemscore.Internal.Correction>
   9.000000E+99

> <Gold.Chemscore.Hbonds>
donor molecule, donor type, donor heavy atom, donor atom, acceptor molecule, acceptor atom, score
      L1  H     1    15       P1  7957  0.64
      L1  H    12    31       P1 10175  0.87
      P1  H  8011  8017       L1     1  0.15

> <Gold.Chemscore.Hbond.Weighted>
-7.1450

> <Gold.Chemscore.Metal.Weighted>
-0.0000

> <Gold.Chemscore.Lipo.Weighted>
-8.1377

> <Gold.Chemscore.Internal_Hbond.Weighted>
0.0000

> <Gold.Chemscore.DEClash.Weighted>
0.0420

> <Gold.Chemscore.DEInternal.Weighted>
0.8289

> <Gold.Chemscore.Rot.Weighted>
4.2728

> <Gold.Chemscore.Internal.Correction.Weighted>
   9.000000E+99

> <Gold.Protein.RotatedTorsions>
[ 6907 6896 6895 6894 ] final -109.54 input  -60.11 | X-H torsion
[ 7974 7965 7964 7962 ] final -135.87 input  175.53 | X-H torsion
[ 8008 7997 7996 7995 ] final  -63.79 input   59.86 | X-H torsion
[ 10167 10162 10161 10158 ] final -129.09 input  -65.29 | X-H torsion
[ 10718 10713 10712 10709 ] final  -85.14 input   66.30 | X-H torsion
[ 10763 10752 10751 10750 ] final   32.22 input  -60.55 | X-H torsion
[ 11005 11000 10999 10996 ] final -161.46 input  -57.11 | X-H torsion

> <Gold.Protein.ActiveResidues>
 VAL166  LYS551  ARG553  GLY616  TRP617  ASP618  TYR619  PRO620  LYS621  CYS622 
 ASP623  PHE694  ASN695  SER759  ASP760  ASP761  ALA762  ILE779  LEU786  VAL792 
 PHE793  MET794  SER795  GLU796  ALA797  LYS798  CYS799  TRP800  GLU811  SER814 

> <Gold.Protein.RotatedAtoms>
  150.7568  133.9514  159.3486 H   0  0  0  0  0  0  0  0  0  0  0  0  # atno 6907 bound_to 6896
  151.7431  135.0848  160.0328 H   0  0  0  0  0  0  0  0  0  0  0  0  # atno 6908 bound_to 6896
  152.3515  133.6148  159.5984 H   0  0  0  0  0  0  0  0  0  0  0  0  # atno 6909 bound_to 6896
  144.8976  140.6728  143.5105 H   0  0  0  0  0  0  0  0  0  0  0  0  # atno 7974 bound_to 7965
  154.4574  140.0967  156.6797 H   0  0  0  0  0  0  0  0  0  0  0  0  # atno 8008 bound_to 7997
  155.5096  140.3476  155.4367 H   0  0  0  0  0  0  0  0  0  0  0  0  # atno 8009 bound_to 7997
  156.0805  140.1372  156.9707 H   0  0  0  0  0  0  0  0  0  0  0  0  # atno 8010 bound_to 7997
  139.9435  143.6136  152.2497 H   0  0  0  0  0  0  0  0  0  0  0  0  # atno 10167 bound_to 10162
  155.9999  130.4721  150.4517 H   0  0  0  0  0  0  0  0  0  0  0  0  # atno 10718 bound_to 10713
  153.0274  135.6419  154.1321 H   0  0  0  0  0  0  0  0  0  0  0  0  # atno 10763 bound_to 10752
  154.1048  135.2857  155.3245 H   0  0  0  0  0  0  0  0  0  0  0  0  # atno 10764 bound_to 10752
  154.6373  135.5472  153.7812 H   0  0  0  0  0  0  0  0  0  0  0  0  # atno 10765 bound_to 10752
  140.6202  134.4758  157.5223 H   0  0  0  0  0  0  0  0  0  0  0  0  # atno 11005 bound_to 11000
  145.3673  139.1667  143.4351 LP  0  0  0  0  0  0  0  0  0  0  0  0  # atno 17320 bound_to 7965
  146.3090  140.3741  142.8677 LP  0  0  0  0  0  0  0  0  0  0  0  0  # atno 17321 bound_to 7965
  139.6686  144.7661  151.1827 LP  0  0  0  0  0  0  0  0  0  0  0  0  # atno 17342 bound_to 10162
  140.7604  143.5900  150.8806 LP  0  0  0  0  0  0  0  0  0  0  0  0  # atno 17343 bound_to 10162
  157.2549  131.0554  151.2356 LP  0  0  0  0  0  0  0  0  0  0  0  0  # atno 17370 bound_to 10713
  157.3492  130.7073  149.6430 LP  0  0  0  0  0  0  0  0  0  0  0  0  # atno 17371 bound_to 10713
  139.9156  134.8252  156.1376 LP  0  0  0  0  0  0  0  0  0  0  0  0  # atno 17394 bound_to 11000
  141.0748  133.6780  156.2213 LP  0  0  0  0  0  0  0  0  0  0  0  0  # atno 17395 bound_to 11000

$$$$
