AV-unprocessed.smi:2224|AV-procd|sdf|8991|dock1
  -GOLD-   2272012203D 1   1.00000     0.00000
 Structure written by MMmdl.
 44 46  0  0  0  0  0  0  0  0  1 V2000
  141.7288  134.7786  153.2023 C   0  0  0  0  0  0  0  0  0  0  0  0
  143.0904  134.4334  152.6368 C   0  0  0  0  0  0  0  0  0  0  0  0
  143.2614  133.3262  151.7839 C   0  0  0  0  0  0  0  0  0  0  0  0
  144.5548  133.0588  151.2933 C   0  0  0  0  0  0  0  0  0  0  0  0
  144.8112  131.8870  150.3689 C   0  0  0  0  0  0  0  0  0  0  0  0
  145.6313  133.8124  151.6041 N   0  0  0  0  0  0  0  0  0  0  0  0
  145.4781  134.8802  152.4259 C   0  0  0  0  0  0  0  0  0  0  0  0
  146.5431  135.7350  152.8145 N   0  0  0  0  0  0  0  0  0  0  0  0
  146.6060  136.5551  153.8780 C   0  0  0  0  0  0  0  0  0  0  0  0
  145.7167  136.7079  154.7160 O   0  0  0  0  0  0  0  0  0  0  0  0
  147.7755  137.2079  153.9154 N   0  0  0  0  0  0  0  0  0  0  0  0
  148.1448  138.1869  154.9308 C   0  0  2  0  0  0  0  0  0  0  0  0
  148.5222  139.5389  154.3248 C   0  0  1  0  0  0  0  0  0  0  0  0
  147.9265  140.9011  154.3544 C   0  0  0  0  0  0  0  0  0  0  0  0
  149.2259  141.6946  154.6578 C   0  0  0  0  0  0  0  0  0  0  0  0
  150.2258  140.7040  155.0014 O   0  0  0  0  0  0  0  0  0  0  0  0
  149.4684  139.6233  155.5063 C   0  0  2  0  0  0  0  0  0  0  0  0
  149.6509  138.0968  155.3852 C   0  0  0  0  0  0  0  0  0  0  0  0
  149.8924  137.3644  156.7055 C   0  0  0  0  0  0  0  0  0  0  0  0
  150.7167  137.5760  154.3994 C   0  0  0  0  0  0  0  0  0  0  0  0
  144.2143  135.2203  152.9582 C   0  0  0  0  0  0  0  0  0  0  0  0
  140.9773  134.0468  152.9042 H   0  0  0  0  0  0  0  0  0  0  0  0
  141.4107  135.7590  152.8477 H   0  0  0  0  0  0  0  0  0  0  0  0
  141.7670  134.8026  154.2918 H   0  0  0  0  0  0  0  0  0  0  0  0
  142.4244  132.6990  151.5131 H   0  0  0  0  0  0  0  0  0  0  0  0
  143.9133  131.2825  150.2371 H   0  0  0  0  0  0  0  0  0  0  0  0
  145.5953  131.2468  150.7745 H   0  0  0  0  0  0  0  0  0  0  0  0
  145.1298  132.2427  149.3888 H   0  0  0  0  0  0  0  0  0  0  0  0
  147.3457  135.7322  152.2031 H   0  0  0  0  0  0  0  0  0  0  0  0
  148.4526  137.0225  153.1902 H   0  0  0  0  0  0  0  0  0  0  0  0
  147.4299  138.2698  155.7547 H   0  0  0  0  0  0  0  0  0  0  0  0
  149.0384  139.3965  153.3725 H   0  0  0  0  0  0  0  0  0  0  0  0
  147.4733  141.1871  153.4048 H   0  0  0  0  0  0  0  0  0  0  0  0
  147.1871  141.0068  155.1496 H   0  0  0  0  0  0  0  0  0  0  0  0
  149.5635  142.2691  153.7948 H   0  0  0  0  0  0  0  0  0  0  0  0
  149.0737  142.3867  155.4870 H   0  0  0  0  0  0  0  0  0  0  0  0
  148.9781  139.9026  156.4461 H   0  0  0  0  0  0  0  0  0  0  0  0
  150.8807  137.5844  157.1102 H   0  0  0  0  0  0  0  0  0  0  0  0
  149.8177  136.2832  156.5849 H   0  0  0  0  0  0  0  0  0  0  0  0
  149.1625  137.6527  157.4627 H   0  0  0  0  0  0  0  0  0  0  0  0
  151.7229  137.7839  154.7645 H   0  0  0  0  0  0  0  0  0  0  0  0
  150.6502  138.0173  153.4068 H   0  0  0  0  0  0  0  0  0  0  0  0
  150.6393  136.4964  154.2669 H   0  0  0  0  0  0  0  0  0  0  0  0
  144.1049  136.0745  153.6111 H   0  0  0  0  0  0  0  0  0  0  0  0
  1  2  1  0  0  0  0
  1 22  1  0  0  0  0
  1 23  1  0  0  0  0
  1 24  1  0  0  0  0
  2 21  1  0  0  0  0
  2  3  2  0  0  0  0
  3  4  1  0  0  0  0
  3 25  1  0  0  0  0
  4  5  1  0  0  0  0
  4  6  2  0  0  0  0
  5 26  1  0  0  0  0
  5 27  1  0  0  0  0
  5 28  1  0  0  0  0
  6  7  1  0  0  0  0
  7  8  1  0  0  0  0
  7 21  2  0  0  0  0
  8  9  1  0  0  0  0
  8 29  1  0  0  0  0
  9 10  2  0  0  0  0
  9 11  1  0  0  0  0
 11 12  1  0  0  0  0
 11 30  1  0  0  0  0
 12 18  1  0  0  0  0
 12 13  1  0  0  0  0
 12 31  1  0  0  0  0
 13 17  1  0  0  0  0
 13 14  1  0  0  0  0
 13 32  1  0  0  0  0
 14 15  1  0  0  0  0
 14 33  1  0  0  0  0
 14 34  1  0  0  0  0
 15 16  1  0  0  0  0
 15 35  1  0  0  0  0
 15 36  1  0  0  0  0
 16 17  1  0  0  0  0
 17 18  1  0  0  0  0
 17 37  1  0  0  0  0
 18 19  1  0  0  0  0
 18 20  1  0  0  0  0
 19 38  1  0  0  0  0
 19 39  1  0  0  0  0
 19 40  1  0  0  0  0
 20 41  1  0  0  0  0
 20 42  1  0  0  0  0
 20 43  1  0  0  0  0
 21 44  1  0  0  0  0
M  END
> <s_m_source_file>
AV-unprocessed.smi

> <i_m_source_file_index>
2224

> <i_lp_mmshare_version>
43012

> <i_f3d_flags>
0

> <s_epik_input>
W0NIM11jMVtjSF1jKFtDSDNdKW5jKFtjSF0xKVtOSF1DKD1PKVtOSF1bQ0BIXTJDKFtDSDNdKShbQ0gzXSlbQ0BIXShbQ0BASF0yMylPW0NIMl1bQ0gyXTM=

> <s_epik_cmdline>
J2VwaWtfcHl0aG9uJywgJy1waCcsICc3LjAnLCAnLXRuJywgJzgnLCAnLW1hJywgJzIwMCcsICctbWV0YWxfYmluZGluZycsICctaW1hZScsICc8aW5maWxlLm1hZT4nLCAnLW9tYWUnLCAnPG91dGZpbGUubWFlPic=

> <r_lp_tautomer_probability>
1

> <r_epik_Ionization_Penalty>
0.000276544

> <r_epik_Ionization_Penalty_Charging>
0

> <r_epik_Ionization_Penalty_Neutral>
0.000276544

> <r_epik_State_Penalty>
-0

> <r_epik_Charging_Adjusted_Penalty>
0

> <i_epik_Tot_Q>
0

> <i_epik_Tot_abs_Q>
0

> <r_epik_Metal_State_Penalty>
-0

> <b_epik_Metal_Only>
0

> <s_lp_Force_Field>
OPLS_2005

> <r_lp_Energy>
62.2425

> <b_lp_Chiralities_Consistent>
1

> <s_lp_Variant>
AV-unprocessed.smi:2224-1

> <Gold.Version>
5.8.1

> <Gold.Id.Protein>
6NUR|6NUR_protein|mol2

> <Gold.PLP.Fitness>
39.0356

> <Gold.PLP.PLP>
-30.5013

> <Gold.PLP.part.hbond>
-2.9561

> <Gold.PLP.part.metal>
0.0000

> <Gold.PLP.part.buried>
-3.5430

> <Gold.PLP.part.nonpolar>
-24.6204

> <Gold.PLP.part.repulsive>
0.2455

> <Gold.PLP.ligand.clash>
0.0170

> <Gold.PLP.ligand.torsion>
0.2496

> <Gold.PLP.Chemscore.Hbond>
2.9280

> <Gold.PLP.Chemscore.CHOScore>
0.0000

> <Gold.PLP.Chemscore.Metal>
0.0000

> <Gold.Chemscore.Hbonds>
donor molecule, donor type, donor heavy atom, donor atom, acceptor molecule, acceptor atom, score
      L1  H     8    29       P1  7948  1.00
      L1  H    11    30       P1  7948  1.00
      P1  H  7989  7998       L1    16  0.80

> <Gold.PLP.Chemscore.Internal.Correction>
0.2664

> <Gold.Rescore>
     Score         DG    S(hbond)    S(metal)    S(lipo)     H(rot)  DE(clash)    DE(int)     intcor
     18.89     -20.90       2.63        0.00      78.76       1.00       0.27       1.74       ----

> <Gold.Chemscore.Fitness>
18.8941

> <Gold.Chemscore.DG>
-20.9039

> <Gold.Chemscore.ZeroCoef>
-5.4800

> <Gold.Chemscore.Hbond>
2.6254

> <Gold.Chemscore.Metal>
0.0000

> <Gold.Chemscore.Lipo>
78.7606

> <Gold.Chemscore.Internal_Hbond>
0.0000

> <Gold.Chemscore.DEClash>
0.2743

> <Gold.Chemscore.DEInternal>
1.7355

> <Gold.Chemscore.Rot>
1.0000

> <Gold.Chemscore.Internal.Correction>
   9.000000E+99

> <Gold.Chemscore.Hbonds>
donor molecule, donor type, donor heavy atom, donor atom, acceptor molecule, acceptor atom, score
      L1  H     8    29       P1  7948  0.95
      L1  H    11    30       P1  7948  0.96
      P1  H  7989  7998       L1    16  0.30

> <Gold.Chemscore.Hbond.Weighted>
-8.7689

> <Gold.Chemscore.Metal.Weighted>
-0.0000

> <Gold.Chemscore.Lipo.Weighted>
-9.2150

> <Gold.Chemscore.Internal_Hbond.Weighted>
0.0000

> <Gold.Chemscore.DEClash.Weighted>
0.2743

> <Gold.Chemscore.DEInternal.Weighted>
1.7355

> <Gold.Chemscore.Rot.Weighted>
2.5600

> <Gold.Chemscore.Internal.Correction.Weighted>
   9.000000E+99

> <Gold.Protein.RotatedTorsions>
[ 6907 6896 6895 6894 ] final -110.19 input  -60.11 | X-H torsion
[ 7974 7965 7964 7962 ] final  102.42 input  175.53 | X-H torsion
[ 8008 7997 7996 7995 ] final    6.31 input   59.86 | X-H torsion
[ 10167 10162 10161 10158 ] final  -12.07 input  -65.29 | X-H torsion
[ 10718 10713 10712 10709 ] final -177.25 input   66.30 | X-H torsion
[ 10763 10752 10751 10750 ] final  -96.87 input  -60.55 | X-H torsion
[ 11005 11000 10999 10996 ] final  132.79 input  -57.11 | X-H torsion

> <Gold.Protein.ActiveResidues>
 VAL166  LYS551  ARG553  GLY616  TRP617  ASP618  TYR619  PRO620  LYS621  CYS622 
 ASP623  PHE694  ASN695  SER759  ASP760  ASP761  ALA762  ILE779  LEU786  VAL792 
 PHE793  MET794  SER795  GLU796  ALA797  LYS798  CYS799  TRP800  GLU811  SER814 

> <Gold.Protein.RotatedAtoms>
  150.7609  133.9419  159.3458 H   0  0  0  0  0  0  0  0  0  0  0  0  # atno 6907 bound_to 6896
  151.7328  135.0869  160.0312 H   0  0  0  0  0  0  0  0  0  0  0  0  # atno 6908 bound_to 6896
  152.3579  133.6222  159.6029 H   0  0  0  0  0  0  0  0  0  0  0  0  # atno 6909 bound_to 6896
  145.3593  139.2421  143.3515 H   0  0  0  0  0  0  0  0  0  0  0  0  # atno 7974 bound_to 7965
  154.7393  140.2746  155.6387 H   0  0  0  0  0  0  0  0  0  0  0  0  # atno 8008 bound_to 7997
  156.2870  140.2700  156.2042 H   0  0  0  0  0  0  0  0  0  0  0  0  # atno 8009 bound_to 7997
  155.0279  140.0371  157.2452 H   0  0  0  0  0  0  0  0  0  0  0  0  # atno 8010 bound_to 7997
  140.7153  143.5572  150.9236 H   0  0  0  0  0  0  0  0  0  0  0  0  # atno 10167 bound_to 10162
  156.8267  130.9639  151.3109 H   0  0  0  0  0  0  0  0  0  0  0  0  # atno 10718 bound_to 10713
  154.7278  135.5067  153.8914 H   0  0  0  0  0  0  0  0  0  0  0  0  # atno 10763 bound_to 10752
  153.0921  135.6662  153.9842 H   0  0  0  0  0  0  0  0  0  0  0  0  # atno 10764 bound_to 10752
  153.9651  135.3044  155.3410 H   0  0  0  0  0  0  0  0  0  0  0  0  # atno 10765 bound_to 10752
  139.9812  134.9547  156.9633 H   0  0  0  0  0  0  0  0  0  0  0  0  # atno 11005 bound_to 11000
  146.2934  140.4224  142.8731 LP  0  0  0  0  0  0  0  0  0  0  0  0  # atno 17320 bound_to 7965
  144.8659  140.7204  143.6078 LP  0  0  0  0  0  0  0  0  0  0  0  0  # atno 17321 bound_to 7965
  139.9297  143.6508  152.3079 LP  0  0  0  0  0  0  0  0  0  0  0  0  # atno 17342 bound_to 10162
  139.6954  144.7642  151.1365 LP  0  0  0  0  0  0  0  0  0  0  0  0  # atno 17343 bound_to 10162
  157.6428  130.8820  149.9481 LP  0  0  0  0  0  0  0  0  0  0  0  0  # atno 17370 bound_to 10713
  156.0957  130.3659  150.0310 LP  0  0  0  0  0  0  0  0  0  0  0  0  # atno 17371 bound_to 10713
  140.5093  134.1018  155.7267 LP  0  0  0  0  0  0  0  0  0  0  0  0  # atno 17394 bound_to 11000
  141.1484  133.9014  157.2160 LP  0  0  0  0  0  0  0  0  0  0  0  0  # atno 17395 bound_to 11000

$$$$
