AV-unprocessed.smi:1251|AV-procd|sdf|5260|dock7
  -GOLD-   22720 4373D 1   1.00000     0.00000
 Structure written by MMmdl.
 38 39  0  0  0  0  0  0  0  0  2 V2000
  151.5254  142.9559  157.8276 C   0  0  0  0  0  0  0  0  0  0  0  0
  151.5099  141.4437  157.5791 C   0  0  0  0  0  0  0  0  0  0  0  0
  151.2180  141.0904  156.1140 C   0  0  0  0  0  0  0  0  0  0  0  0
  151.1723  139.6176  155.8773 C   0  0  0  0  0  0  0  0  0  0  0  0
  151.2576  138.7227  156.8648 N   0  0  0  0  0  0  0  0  0  0  0  0
  151.2181  137.4187  156.3933 N   0  0  0  0  0  0  0  0  0  0  0  0
  151.1281  137.3446  155.0579 C   0  0  0  0  0  0  0  0  0  0  0  0
  151.0737  136.1713  154.4060 N   0  5  0  0  0  0  0  0  0  0  0  0
  150.5272  135.0886  155.0048 C   0  0  0  0  0  0  0  0  0  0  0  0
  150.9657  134.5039  155.9978 O   0  0  0  0  0  0  0  0  0  0  0  0
  149.4040  134.6578  154.4126 N   0  0  0  0  0  0  0  0  0  0  0  0
  148.5849  133.5204  154.8283 C   0  0  2  0  0  0  0  0  0  0  0  0
  149.4378  132.2414  154.8301 C   0  0  0  0  0  0  0  0  0  0  0  0
  147.3605  133.3952  153.9012 C   0  0  2  0  0  0  0  0  0  0  0  0
  147.6945  133.0526  152.4476 C   0  0  0  0  0  0  0  0  0  0  0  0
  146.4734  133.5702  151.7234 C   0  0  0  0  0  0  0  0  0  0  0  0
  146.1676  134.8470  152.5007 C   0  0  0  0  0  0  0  0  0  0  0  0
  146.6575  134.6338  153.8225 O   0  0  0  0  0  0  0  0  0  0  0  0
  151.0653  138.9209  154.2692 S   0  0  0  0  0  0  0  0  0  0  0  0
  151.7361  143.1751  158.8745 H   0  0  0  0  0  0  0  0  0  0  0  0
  150.5630  143.4048  157.5804 H   0  0  0  0  0  0  0  0  0  0  0  0
  152.2899  143.4461  157.2242 H   0  0  0  0  0  0  0  0  0  0  0  0
  152.4714  141.0210  157.8727 H   0  0  0  0  0  0  0  0  0  0  0  0
  150.7602  140.9819  158.2228 H   0  0  0  0  0  0  0  0  0  0  0  0
  150.2658  141.5242  155.8057 H   0  0  0  0  0  0  0  0  0  0  0  0
  151.9812  141.5216  155.4654 H   0  0  0  0  0  0  0  0  0  0  0  0
  149.0872  135.1707  153.6033 H   0  0  0  0  0  0  0  0  0  0  0  0
  148.2182  133.6925  155.8418 H   0  0  0  0  0  0  0  0  0  0  0  0
  148.8575  131.3812  155.1648 H   0  0  0  0  0  0  0  0  0  0  0  0
  150.2928  132.3389  155.4996 H   0  0  0  0  0  0  0  0  0  0  0  0
  149.8193  132.0183  153.8331 H   0  0  0  0  0  0  0  0  0  0  0  0
  146.6686  132.6462  154.2906 H   0  0  0  0  0  0  0  0  0  0  0  0
  148.5818  133.5956  152.1183 H   0  0  0  0  0  0  0  0  0  0  0  0
  147.8662  131.9876  152.2882 H   0  0  0  0  0  0  0  0  0  0  0  0
  146.6455  133.7475  150.6616 H   0  0  0  0  0  0  0  0  0  0  0  0
  145.6508  132.8609  151.8242 H   0  0  0  0  0  0  0  0  0  0  0  0
  146.7013  135.6939  152.0679 H   0  0  0  0  0  0  0  0  0  0  0  0
  145.1035  135.0837  152.5047 H   0  0  0  0  0  0  0  0  0  0  0  0
  1  2  1  0  0  0  0
  1 20  1  0  0  0  0
  1 21  1  0  0  0  0
  1 22  1  0  0  0  0
  2  3  1  0  0  0  0
  2 23  1  0  0  0  0
  2 24  1  0  0  0  0
  3  4  1  0  0  0  0
  3 25  1  0  0  0  0
  3 26  1  0  0  0  0
  4 19  1  0  0  0  0
  4  5  2  0  0  0  0
  5  6  1  0  0  0  0
  6  7  2  0  0  0  0
  7  8  1  0  0  0  0
  7 19  1  0  0  0  0
  8  9  1  0  0  0  0
  9 10  2  0  0  0  0
  9 11  1  0  0  0  0
 11 12  1  0  0  0  0
 11 27  1  0  0  0  0
 12 13  1  0  0  0  0
 12 14  1  0  0  0  0
 12 28  1  0  0  0  0
 13 29  1  0  0  0  0
 13 30  1  0  0  0  0
 13 31  1  0  0  0  0
 14 18  1  0  0  0  0
 14 15  1  0  0  0  0
 14 32  1  0  0  0  0
 15 16  1  0  0  0  0
 15 33  1  0  0  0  0
 15 34  1  0  0  0  0
 16 17  1  0  0  0  0
 16 35  1  0  0  0  0
 16 36  1  0  0  0  0
 17 18  1  0  0  0  0
 17 37  1  0  0  0  0
 17 38  1  0  0  0  0
M  CHG  1   8  -1
M  END
> <s_m_source_file>
AV-unprocessed.smi

> <i_m_source_file_index>
1251

> <i_lp_mmshare_version>
43012

> <i_f3d_flags>
0

> <s_epik_input>
W0NIM11bQ0gyXVtDSDJdYzFubmMoczEpW05IXUMoPU8pW05IXVtDQEhdKFtDSDNdKVtDQEBIXTJbQ0gyXVtDSDJdW0NIMl1PMg==

> <s_epik_cmdline>
J2VwaWtfcHl0aG9uJywgJy1waCcsICc3LjAnLCAnLXRuJywgJzgnLCAnLW1hJywgJzIwMCcsICctbWV0YWxfYmluZGluZycsICctaW1hZScsICc8aW5maWxlLm1hZT4nLCAnLW9tYWUnLCAnPG91dGZpbGUubWFlPic=

> <r_lp_tautomer_probability>
1

> <r_epik_Ionization_Penalty>
4.22551

> <r_epik_Ionization_Penalty_Charging>
4.21437

> <r_epik_Ionization_Penalty_Neutral>
0.0111434

> <r_epik_State_Penalty>
4.21389

> <r_epik_Charging_Adjusted_Penalty>
8.42826

> <i_epik_Tot_Q>
-1

> <i_epik_Tot_abs_Q>
1

> <r_epik_Metal_State_Penalty>
0.69377

> <b_epik_Metal_Only>
1

> <s_lp_Force_Field>
OPLS_2005

> <r_lp_Energy>
11.2841

> <b_lp_Chiralities_Consistent>
1

> <s_lp_Variant>
AV-unprocessed.smi:1251-5

> <Gold.Version>
5.8.1

> <Gold.Id.Protein>
6NUR|6NUR_protein|mol2

> <Gold.PLP.Fitness>
35.9534

> <Gold.PLP.PLP>
-28.6686

> <Gold.PLP.part.hbond>
-2.0000

> <Gold.PLP.part.metal>
0.0000

> <Gold.PLP.part.buried>
-2.7185

> <Gold.PLP.part.nonpolar>
-25.3292

> <Gold.PLP.part.repulsive>
1.5974

> <Gold.PLP.ligand.clash>
0.0000

> <Gold.PLP.ligand.torsion>
0.8906

> <Gold.PLP.Chemscore.Hbond>
3.0000

> <Gold.PLP.Chemscore.CHOScore>
0.0000

> <Gold.PLP.Chemscore.Metal>
0.0000

> <Gold.Chemscore.Hbonds>
donor molecule, donor type, donor heavy atom, donor atom, acceptor molecule, acceptor atom, score
      L1  H    11    27       P1  7948  1.00
      P1  H 10752 10764       L1     8  2.00

> <Gold.PLP.Chemscore.Internal.Correction>
0.0660

> <Gold.Rescore>
     Score         DG    S(hbond)    S(metal)    S(lipo)     H(rot)  DE(clash)    DE(int)     intcor
      9.67     -12.64       1.18        0.00      61.50       1.55       0.18       2.80       ----

> <Gold.Chemscore.Fitness>
9.6666

> <Gold.Chemscore.DG>
-12.6412

> <Gold.Chemscore.ZeroCoef>
-5.4800

> <Gold.Chemscore.Hbond>
1.1753

> <Gold.Chemscore.Metal>
0.0000

> <Gold.Chemscore.Lipo>
61.5019

> <Gold.Chemscore.Internal_Hbond>
0.0000

> <Gold.Chemscore.DEClash>
0.1766

> <Gold.Chemscore.DEInternal>
2.7980

> <Gold.Chemscore.Rot>
1.5469

> <Gold.Chemscore.Internal.Correction>
   9.000000E+99

> <Gold.Chemscore.Hbonds>
donor molecule, donor type, donor heavy atom, donor atom, acceptor molecule, acceptor atom, score
      L1  H    11    27       P1  7948  0.38
      P1  H 10752 10764       L1     8  0.15

> <Gold.Chemscore.Hbond.Weighted>
-3.9254

> <Gold.Chemscore.Metal.Weighted>
-0.0000

> <Gold.Chemscore.Lipo.Weighted>
-7.1957

> <Gold.Chemscore.Internal_Hbond.Weighted>
0.0000

> <Gold.Chemscore.DEClash.Weighted>
0.1766

> <Gold.Chemscore.DEInternal.Weighted>
2.7980

> <Gold.Chemscore.Rot.Weighted>
3.9600

> <Gold.Chemscore.Internal.Correction.Weighted>
   9.000000E+99

> <Gold.Protein.RotatedTorsions>
[ 6907 6896 6895 6894 ] final   59.56 input  -60.11 | X-H torsion
[ 7974 7965 7964 7962 ] final -164.16 input  175.53 | X-H torsion
[ 8008 7997 7996 7995 ] final -178.88 input   59.86 | X-H torsion
[ 10167 10162 10161 10158 ] final -149.77 input  -65.29 | X-H torsion
[ 10718 10713 10712 10709 ] final  138.49 input   66.30 | X-H torsion
[ 10763 10752 10751 10750 ] final  -79.53 input  -60.55 | X-H torsion
[ 11005 11000 10999 10996 ] final  -58.74 input  -57.11 | X-H torsion

> <Gold.Protein.ActiveResidues>
 VAL166  LYS551  ARG553  GLY616  TRP617  ASP618  TYR619  PRO620  LYS621  CYS622 
 ASP623  PHE694  ASN695  SER759  ASP760  ASP761  ALA762  ILE779  LEU786  VAL792 
 PHE793  MET794  SER795  GLU796  ALA797  LYS798  CYS799  TRP800  GLU811  SER814 

> <Gold.Protein.RotatedAtoms>
  152.3925  134.6418  160.0101 H   0  0  0  0  0  0  0  0  0  0  0  0  # atno 6907 bound_to 6896
  151.6648  133.3310  159.3190 H   0  0  0  0  0  0  0  0  0  0  0  0  # atno 6908 bound_to 6896
  150.7838  134.6850  159.6510 H   0  0  0  0  0  0  0  0  0  0  0  0  # atno 6909 bound_to 6896
  144.7304  140.3001  143.6206 H   0  0  0  0  0  0  0  0  0  0  0  0  # atno 7974 bound_to 7965
  156.0240  140.1267  157.0328 H   0  0  0  0  0  0  0  0  0  0  0  0  # atno 8008 bound_to 7997
  154.4323  140.1063  156.6074 H   0  0  0  0  0  0  0  0  0  0  0  0  # atno 8009 bound_to 7997
  155.5904  140.3469  155.4567 H   0  0  0  0  0  0  0  0  0  0  0  0  # atno 8010 bound_to 7997
  139.7413  143.8658  152.2563 H   0  0  0  0  0  0  0  0  0  0  0  0  # atno 10167 bound_to 10162
  157.4247  131.1042  151.0315 H   0  0  0  0  0  0  0  0  0  0  0  0  # atno 10718 bound_to 10713
  154.5398  135.5692  153.6830 H   0  0  0  0  0  0  0  0  0  0  0  0  # atno 10763 bound_to 10752
  152.9960  135.6225  154.2516 H   0  0  0  0  0  0  0  0  0  0  0  0  # atno 10764 bound_to 10752
  154.2447  135.2861  155.2820 H   0  0  0  0  0  0  0  0  0  0  0  0  # atno 10765 bound_to 10752
  141.1220  133.6613  156.4966 H   0  0  0  0  0  0  0  0  0  0  0  0  # atno 11005 bound_to 11000
  145.7769  139.1877  143.2180 LP  0  0  0  0  0  0  0  0  0  0  0  0  # atno 17320 bound_to 7965
  146.0865  140.7704  142.9616 LP  0  0  0  0  0  0  0  0  0  0  0  0  # atno 17321 bound_to 7965
  139.8609  144.7117  150.9101 LP  0  0  0  0  0  0  0  0  0  0  0  0  # atno 17342 bound_to 10162
  140.7786  143.3818  151.1463 LP  0  0  0  0  0  0  0  0  0  0  0  0  # atno 17343 bound_to 10162
  157.1233  130.6071  149.5510 LP  0  0  0  0  0  0  0  0  0  0  0  0  # atno 17370 bound_to 10713
  155.9892  130.4939  150.7206 LP  0  0  0  0  0  0  0  0  0  0  0  0  # atno 17371 bound_to 10713
  140.4480  134.6955  157.5025 LP  0  0  0  0  0  0  0  0  0  0  0  0  # atno 17394 bound_to 11000
  140.0185  134.6583  155.9275 LP  0  0  0  0  0  0  0  0  0  0  0  0  # atno 17395 bound_to 11000

$$$$
