AV-unprocessed.smi:998|AV-procd|sdf|4349|dock7
  -GOLD-   22720 2253D 1   1.00000     0.00000
 Structure written by MMmdl.
 44 46  0  0  0  0  0  0  0  0  1 V2000
  142.7670  135.3388  152.9494 C   0  0  0  0  0  0  0  0  0  0  0  0
  144.3965  135.0643  152.1394 S   0  0  0  0  0  0  0  0  0  0  0  0
  144.9526  133.7812  152.5950 O   0  0  0  0  0  0  0  0  0  0  0  0
  144.2295  135.3239  150.7012 O   0  0  0  0  0  0  0  0  0  0  0  0
  145.3822  136.3302  152.7948 N   0  0  0  0  0  0  0  0  0  0  0  0
  146.3124  135.9758  153.8860 C   0  0  0  0  0  0  0  0  0  0  0  0
  146.8567  137.2338  154.5836 C   0  0  0  0  0  0  0  0  0  0  0  0
  147.4577  138.1409  153.6148 N   0  0  0  0  0  0  0  0  0  0  0  0
  148.1224  139.2199  154.2153 C   0  0  0  0  0  0  0  0  0  0  0  0
  149.1744  138.9596  155.1172 C   0  0  0  0  0  0  0  0  0  0  0  0
  149.8360  140.0453  155.7228 C   0  0  0  0  0  0  0  0  0  0  0  0
  149.4257  141.3614  155.4014 C   0  0  0  0  0  0  0  0  0  0  0  0
  149.9929  142.5390  155.9593 N   0  0  0  0  0  0  0  0  0  0  0  0
  151.0113  142.6514  156.8294 C   0  0  0  0  0  0  0  0  0  0  0  0
  151.6719  141.7141  157.2767 O   0  0  0  0  0  0  0  0  0  0  0  0
  151.2370  143.9346  157.1424 N   0  0  0  0  0  0  0  0  0  0  0  0
  152.2510  144.4058  158.0297 C   0  0  0  0  0  0  0  0  0  0  0  0
  152.2790  143.8347  159.4311 C   0  0  0  0  0  0  0  0  0  0  0  0
  151.8165  145.2481  159.2098 C   0  0  0  0  0  0  0  0  0  0  0  0
  148.3542  141.5118  154.4974 C   0  0  0  0  0  0  0  0  0  0  0  0
  147.7171  140.4759  153.9128 N   0  0  0  0  0  0  0  0  0  0  0  0
  146.5002  138.5436  152.5928 C   0  0  0  0  0  0  0  0  0  0  0  0
  145.9449  137.3158  151.8497 C   0  0  0  0  0  0  0  0  0  0  0  0
  142.0402  134.6378  152.5400 H   0  0  0  0  0  0  0  0  0  0  0  0
  142.4318  136.3578  152.7572 H   0  0  0  0  0  0  0  0  0  0  0  0
  142.8499  135.1769  154.0229 H   0  0  0  0  0  0  0  0  0  0  0  0
  145.8067  135.3458  154.6160 H   0  0  0  0  0  0  0  0  0  0  0  0
  147.1341  135.3880  153.4744 H   0  0  0  0  0  0  0  0  0  0  0  0
  146.0482  137.7423  155.1115 H   0  0  0  0  0  0  0  0  0  0  0  0
  147.5979  136.9505  155.3320 H   0  0  0  0  0  0  0  0  0  0  0  0
  149.4686  137.9457  155.3467 H   0  0  0  0  0  0  0  0  0  0  0  0
  150.6278  139.8445  156.4273 H   0  0  0  0  0  0  0  0  0  0  0  0
  149.6038  143.4065  155.6197 H   0  0  0  0  0  0  0  0  0  0  0  0
  150.6450  144.6350  156.7207 H   0  0  0  0  0  0  0  0  0  0  0  0
  153.2187  144.6549  157.5965 H   0  0  0  0  0  0  0  0  0  0  0  0
  151.5251  143.0957  159.6957 H   0  0  0  0  0  0  0  0  0  0  0  0
  153.2529  143.6921  159.8951 H   0  0  0  0  0  0  0  0  0  0  0  0
  152.4813  146.0492  159.5259 H   0  0  0  0  0  0  0  0  0  0  0  0
  150.7539  145.4518  159.3279 H   0  0  0  0  0  0  0  0  0  0  0  0
  147.9959  142.4956  154.2312 H   0  0  0  0  0  0  0  0  0  0  0  0
  145.6792  139.0958  153.0528 H   0  0  0  0  0  0  0  0  0  0  0  0
  146.9813  139.2193  151.8845 H   0  0  0  0  0  0  0  0  0  0  0  0
  146.7300  136.8368  151.2632 H   0  0  0  0  0  0  0  0  0  0  0  0
  145.1757  137.6400  151.1493 H   0  0  0  0  0  0  0  0  0  0  0  0
  1  2  1  0  0  0  0
  1 24  1  0  0  0  0
  1 25  1  0  0  0  0
  1 26  1  0  0  0  0
  2  3  2  0  0  0  0
  2  4  2  0  0  0  0
  2  5  1  0  0  0  0
  5 23  1  0  0  0  0
  5  6  1  0  0  0  0
  6  7  1  0  0  0  0
  6 27  1  0  0  0  0
  6 28  1  0  0  0  0
  7  8  1  0  0  0  0
  7 29  1  0  0  0  0
  7 30  1  0  0  0  0
  8  9  1  0  0  0  0
  8 22  1  0  0  0  0
  9 21  1  0  0  0  0
  9 10  2  0  0  0  0
 10 11  1  0  0  0  0
 10 31  1  0  0  0  0
 11 12  2  0  0  0  0
 11 32  1  0  0  0  0
 12 13  1  0  0  0  0
 12 20  1  0  0  0  0
 13 14  1  0  0  0  0
 13 33  1  0  0  0  0
 14 15  2  0  0  0  0
 14 16  1  0  0  0  0
 16 17  1  0  0  0  0
 16 34  1  0  0  0  0
 17 19  1  0  0  0  0
 17 18  1  0  0  0  0
 17 35  1  0  0  0  0
 18 19  1  0  0  0  0
 18 36  1  0  0  0  0
 18 37  1  0  0  0  0
 19 38  1  0  0  0  0
 19 39  1  0  0  0  0
 20 21  2  0  0  0  0
 20 40  1  0  0  0  0
 22 23  1  0  0  0  0
 22 41  1  0  0  0  0
 22 42  1  0  0  0  0
 23 43  1  0  0  0  0
 23 44  1  0  0  0  0
M  END
> <s_m_source_file>
AV-unprocessed.smi

> <i_m_source_file_index>
998

> <i_lp_mmshare_version>
43012

> <i_f3d_flags>
0

> <s_epik_input>
W0NIM11TKD1PKSg9TylOMVtDSDJdW0NIMl1OKFtDSDJdW0NIMl0xKWMyW2NIXVtjSF1jKFtjSF1uMilbTkhdQyg9TylbTkhdW0NIXTNbQ0gyXVtDSDJdMw==

> <s_epik_cmdline>
J2VwaWtfcHl0aG9uJywgJy1waCcsICc3LjAnLCAnLXRuJywgJzgnLCAnLW1hJywgJzIwMCcsICctbWV0YWxfYmluZGluZycsICctaW1hZScsICc8aW5maWxlLm1hZT4nLCAnLW9tYWUnLCAnPG91dGZpbGUubWFlPic=

> <r_lp_tautomer_probability>
1

> <r_epik_Ionization_Penalty>
0.0538093

> <r_epik_Ionization_Penalty_Charging>
0

> <r_epik_Ionization_Penalty_Neutral>
0.0538093

> <r_epik_State_Penalty>
0.0462087

> <r_epik_Charging_Adjusted_Penalty>
0.0462087

> <i_epik_Tot_Q>
0

> <i_epik_Tot_abs_Q>
0

> <r_epik_Metal_State_Penalty>
0.0423268

> <b_epik_Metal_Only>
0

> <s_lp_Force_Field>
OPLS_2005

> <r_lp_Energy>
34.3098

> <b_lp_Chiralities_Consistent>
1

> <s_lp_Variant>
AV-unprocessed.smi:998-1

> <Gold.Version>
5.8.1

> <Gold.Id.Protein>
6NUR|6NUR_protein|mol2

> <Gold.PLP.Fitness>
42.7488

> <Gold.PLP.PLP>
-36.8188

> <Gold.PLP.part.hbond>
-1.7095

> <Gold.PLP.part.metal>
0.0000

> <Gold.PLP.part.buried>
-4.3369

> <Gold.PLP.part.nonpolar>
-33.7409

> <Gold.PLP.part.repulsive>
1.8486

> <Gold.PLP.ligand.clash>
0.0000

> <Gold.PLP.ligand.torsion>
0.4974

> <Gold.PLP.Chemscore.Hbond>
1.6426

> <Gold.PLP.Chemscore.CHOScore>
0.4162

> <Gold.PLP.Chemscore.Metal>
0.0000

> <Gold.Chemscore.Hbonds>
donor molecule, donor type, donor heavy atom, donor atom, acceptor molecule, acceptor atom, score
      L1  H    13    33       P1  8028  0.91
      L1  H    16    34       P1  8028  0.80
      L1  C    20    40       P1  8028  0.36

> <Gold.PLP.Chemscore.Internal.Correction>
0.7486

> <Gold.Rescore>
     Score         DG    S(hbond)    S(metal)    S(lipo)     H(rot)  DE(clash)    DE(int)     intcor
     13.97     -16.56       1.63        0.00      82.02       1.55       0.05       2.55       ----

> <Gold.Chemscore.Fitness>
13.9666

> <Gold.Chemscore.DG>
-16.5627

> <Gold.Chemscore.ZeroCoef>
-5.4800

> <Gold.Chemscore.Hbond>
1.6321

> <Gold.Chemscore.Metal>
0.0000

> <Gold.Chemscore.Lipo>
82.0176

> <Gold.Chemscore.Internal_Hbond>
0.0000

> <Gold.Chemscore.DEClash>
0.0504

> <Gold.Chemscore.DEInternal>
2.5458

> <Gold.Chemscore.Rot>
1.5486

> <Gold.Chemscore.Internal.Correction>
   9.000000E+99

> <Gold.Chemscore.Hbonds>
donor molecule, donor type, donor heavy atom, donor atom, acceptor molecule, acceptor atom, score
      L1  H    13    33       P1  8028  0.87
      L1  H    16    34       P1  8028  0.70

> <Gold.Chemscore.Hbond.Weighted>
-5.4512

> <Gold.Chemscore.Metal.Weighted>
-0.0000

> <Gold.Chemscore.Lipo.Weighted>
-9.5961

> <Gold.Chemscore.Internal_Hbond.Weighted>
0.0000

> <Gold.Chemscore.DEClash.Weighted>
0.0504

> <Gold.Chemscore.DEInternal.Weighted>
2.5458

> <Gold.Chemscore.Rot.Weighted>
3.9645

> <Gold.Chemscore.Internal.Correction.Weighted>
   9.000000E+99

> <Gold.Protein.RotatedTorsions>
[ 6907 6896 6895 6894 ] final   42.76 input  -60.11 | X-H torsion
[ 7974 7965 7964 7962 ] final   79.93 input  175.53 | X-H torsion
[ 8008 7997 7996 7995 ] final  116.22 input   59.86 | X-H torsion
[ 10167 10162 10161 10158 ] final -146.67 input  -65.29 | X-H torsion
[ 10718 10713 10712 10709 ] final  101.61 input   66.30 | X-H torsion
[ 10763 10752 10751 10750 ] final  130.15 input  -60.55 | X-H torsion
[ 11005 11000 10999 10996 ] final  -63.19 input  -57.11 | X-H torsion

> <Gold.Protein.ActiveResidues>
 VAL166  LYS551  ARG553  GLY616  TRP617  ASP618  TYR619  PRO620  LYS621  CYS622 
 ASP623  PHE694  ASN695  SER759  ASP760  ASP761  ALA762  ILE779  LEU786  VAL792 
 PHE793  MET794  SER795  GLU796  ALA797  LYS798  CYS799  TRP800  GLU811  SER814 

> <Gold.Protein.RotatedAtoms>
  152.2119  134.8493  160.0496 H   0  0  0  0  0  0  0  0  0  0  0  0  # atno 6907 bound_to 6896
  151.9308  133.3605  159.3938 H   0  0  0  0  0  0  0  0  0  0  0  0  # atno 6908 bound_to 6896
  150.6978  134.4464  159.5360 H   0  0  0  0  0  0  0  0  0  0  0  0  # atno 6909 bound_to 6896
  145.6578  139.2463  143.1940 H   0  0  0  0  0  0  0  0  0  0  0  0  # atno 7974 bound_to 7965
  156.2427  140.2922  156.0489 H   0  0  0  0  0  0  0  0  0  0  0  0  # atno 8008 bound_to 7997
  155.1903  140.0406  157.2916 H   0  0  0  0  0  0  0  0  0  0  0  0  # atno 8009 bound_to 7997
  154.6199  140.2473  155.7569 H   0  0  0  0  0  0  0  0  0  0  0  0  # atno 8010 bound_to 7997
  139.7692  143.8263  152.2621 H   0  0  0  0  0  0  0  0  0  0  0  0  # atno 10167 bound_to 10162
  157.6824  131.0731  150.5279 H   0  0  0  0  0  0  0  0  0  0  0  0  # atno 10718 bound_to 10713
  153.7534  135.3206  155.3325 H   0  0  0  0  0  0  0  0  0  0  0  0  # atno 10763 bound_to 10752
  154.8255  135.4572  154.0910 H   0  0  0  0  0  0  0  0  0  0  0  0  # atno 10764 bound_to 10752
  153.2119  135.6937  153.8186 H   0  0  0  0  0  0  0  0  0  0  0  0  # atno 10765 bound_to 10752
  141.1385  133.6649  156.5642 H   0  0  0  0  0  0  0  0  0  0  0  0  # atno 11005 bound_to 11000
  146.1150  140.7380  142.9485 LP  0  0  0  0  0  0  0  0  0  0  0  0  # atno 17320 bound_to 7965
  144.7100  140.4001  143.7088 LP  0  0  0  0  0  0  0  0  0  0  0  0  # atno 17321 bound_to 7965
  139.8292  144.7261  150.9472 LP  0  0  0  0  0  0  0  0  0  0  0  0  # atno 17342 bound_to 10162
  140.7813  143.4085  151.1031 LP  0  0  0  0  0  0  0  0  0  0  0  0  # atno 17343 bound_to 10162
  156.5590  130.4251  149.6072 LP  0  0  0  0  0  0  0  0  0  0  0  0  # atno 17370 bound_to 10713
  156.2837  130.7085  151.1916 LP  0  0  0  0  0  0  0  0  0  0  0  0  # atno 17371 bound_to 10713
  140.3964  134.7395  157.4753 LP  0  0  0  0  0  0  0  0  0  0  0  0  # atno 17394 bound_to 11000
  140.0528  134.6106  155.8841 LP  0  0  0  0  0  0  0  0  0  0  0  0  # atno 17395 bound_to 11000

$$$$
