AV-unprocessed.smi:1338|AV-procd|sdf|5499|dock2
  -GOLD-   22720 5 83D 1   1.00000     0.00000
 Structure written by MMmdl.
 40 41  0  0  0  0  0  0  0  0  1 V2000
  146.4714  137.9747  152.2054 C   0  0  0  0  0  0  0  0  0  0  0  0
  147.1302  139.1261  152.9353 C   0  0  0  0  0  0  0  0  0  0  0  0
  146.5225  140.2224  153.2497 N   0  0  0  0  0  0  0  0  0  0  0  0
  147.2388  141.2203  153.9254 C   0  0  0  0  0  0  0  0  0  0  0  0
  146.4547  142.4792  154.2549 C   0  0  0  0  0  0  0  0  0  0  0  0
  148.5538  141.0583  154.2562 C   0  0  0  0  0  0  0  0  0  0  0  0
  149.3624  142.1274  154.9885 C   0  0  0  0  0  0  0  0  0  0  0  0
  149.8749  141.7219  156.3715 C   0  0  0  0  0  0  0  0  0  0  0  0
  149.7356  140.5635  156.7633 O   0  0  0  0  0  0  0  0  0  0  0  0
  150.4734  142.6811  157.0943 N   0  0  0  0  0  0  0  0  0  0  0  0
  151.0555  142.5018  158.4203 C   0  0  0  0  0  0  0  0  0  0  0  0
  151.7469  143.7983  158.8900 C   0  0  0  0  0  0  0  0  0  0  0  0
  152.4374  143.6073  160.2503 C   0  0  0  0  0  0  0  0  0  0  0  0
  153.4301  142.4348  160.2129 C   0  0  0  0  0  0  0  0  0  0  0  0
  152.7429  141.1403  159.7504 C   0  0  0  0  0  0  0  0  0  0  0  0
  152.0541  141.3294  158.3891 C   0  0  0  0  0  0  0  0  0  0  0  0
  149.2374  139.8018  153.8922 C   0  0  0  0  0  0  0  0  0  0  0  0
  150.4169  139.5523  154.1366 O   0  0  0  0  0  0  0  0  0  0  0  0
  148.4703  138.8978  153.2432 N   0  0  0  0  0  0  0  0  0  0  0  0
  148.8933  138.0226  152.9708 H   0  0  0  0  0  0  0  0  0  0  0  0
  146.1008  138.3080  151.2358 H   0  0  0  0  0  0  0  0  0  0  0  0
  145.6279  137.5972  152.7838 H   0  0  0  0  0  0  0  0  0  0  0  0
  147.1673  137.1509  152.0397 H   0  0  0  0  0  0  0  0  0  0  0  0
  146.4377  142.6529  155.3308 H   0  0  0  0  0  0  0  0  0  0  0  0
  145.4213  142.4020  153.9145 H   0  0  0  0  0  0  0  0  0  0  0  0
  146.9000  143.3468  153.7680 H   0  0  0  0  0  0  0  0  0  0  0  0
  150.2055  142.4180  154.3610 H   0  0  0  0  0  0  0  0  0  0  0  0
  148.7782  143.0417  155.0995 H   0  0  0  0  0  0  0  0  0  0  0  0
  150.5423  143.6034  156.6894 H   0  0  0  0  0  0  0  0  0  0  0  0
  150.2618  142.2495  159.1267 H   0  0  0  0  0  0  0  0  0  0  0  0
  152.4866  144.1103  158.1514 H   0  0  0  0  0  0  0  0  0  0  0  0
  151.0208  144.6088  158.9610 H   0  0  0  0  0  0  0  0  0  0  0  0
  152.9554  144.5232  160.5360 H   0  0  0  0  0  0  0  0  0  0  0  0
  151.6851  143.4252  161.0189 H   0  0  0  0  0  0  0  0  0  0  0  0
  154.2526  142.6739  159.5378 H   0  0  0  0  0  0  0  0  0  0  0  0
  153.8713  142.2894  161.1995 H   0  0  0  0  0  0  0  0  0  0  0  0
  153.4737  140.3335  159.6883 H   0  0  0  0  0  0  0  0  0  0  0  0
  152.0052  140.8331  160.4929 H   0  0  0  0  0  0  0  0  0  0  0  0
  151.5408  140.4090  158.1076 H   0  0  0  0  0  0  0  0  0  0  0  0
  152.8110  141.5071  157.6237 H   0  0  0  0  0  0  0  0  0  0  0  0
  1  2  1  0  0  0  0
  1 21  1  0  0  0  0
  1 22  1  0  0  0  0
  1 23  1  0  0  0  0
  2 19  1  0  0  0  0
  2  3  2  0  0  0  0
  3  4  1  0  0  0  0
  4  5  1  0  0  0  0
  4  6  2  0  0  0  0
  5 24  1  0  0  0  0
  5 25  1  0  0  0  0
  5 26  1  0  0  0  0
  6  7  1  0  0  0  0
  6 17  1  0  0  0  0
  7  8  1  0  0  0  0
  7 27  1  0  0  0  0
  7 28  1  0  0  0  0
  8  9  2  0  0  0  0
  8 10  1  0  0  0  0
 10 11  1  0  0  0  0
 10 29  1  0  0  0  0
 11 16  1  0  0  0  0
 11 12  1  0  0  0  0
 11 30  1  0  0  0  0
 12 13  1  0  0  0  0
 12 31  1  0  0  0  0
 12 32  1  0  0  0  0
 13 14  1  0  0  0  0
 13 33  1  0  0  0  0
 13 34  1  0  0  0  0
 14 15  1  0  0  0  0
 14 35  1  0  0  0  0
 14 36  1  0  0  0  0
 15 16  1  0  0  0  0
 15 37  1  0  0  0  0
 15 38  1  0  0  0  0
 16 39  1  0  0  0  0
 16 40  1  0  0  0  0
 17 18  2  0  0  0  0
 17 19  1  0  0  0  0
 19 20  1  0  0  0  0
M  END
> <s_m_source_file>
AV-unprocessed.smi

> <i_m_source_file_index>
1338

> <i_lp_mmshare_version>
43012

> <i_f3d_flags>
0

> <s_epik_input>
W0NIM11jMW5jKFtDSDNdKWMoYyg9TylbbkhdMSlbQ0gyXUMoPU8pW05IXVtDSF0yW0NIMl1bQ0gyXVtDSDJdW0NIMl1bQ0gyXTI=

> <s_epik_cmdline>
J2VwaWtfcHl0aG9uJywgJy1waCcsICc3LjAnLCAnLXRuJywgJzgnLCAnLW1hJywgJzIwMCcsICctbWV0YWxfYmluZGluZycsICctaW1hZScsICc8aW5maWxlLm1hZT4nLCAnLW9tYWUnLCAnPG91dGZpbGUubWFlPic=

> <r_lp_tautomer_probability>
0.839158

> <r_epik_Ionization_Penalty>
0.000373802

> <r_epik_Ionization_Penalty_Charging>
0.000339356

> <r_epik_Ionization_Penalty_Neutral>
3.44455e-05

> <r_epik_State_Penalty>
0.09125

> <r_epik_Charging_Adjusted_Penalty>
0.0915894

> <i_epik_Tot_Q>
0

> <i_epik_Tot_abs_Q>
0

> <r_epik_Metal_State_Penalty>
0.252336

> <b_epik_Metal_Only>
0

> <s_lp_Force_Field>
OPLS_2005

> <r_lp_Energy>
10.2314

> <b_lp_Chiralities_Consistent>
1

> <s_lp_Variant>
AV-unprocessed.smi:1338-1

> <Gold.Version>
5.8.1

> <Gold.Id.Protein>
6NUR|6NUR_protein|mol2

> <Gold.PLP.Fitness>
45.1187

> <Gold.PLP.PLP>
-39.1685

> <Gold.PLP.part.hbond>
-3.9679

> <Gold.PLP.part.metal>
0.0000

> <Gold.PLP.part.buried>
2.9438

> <Gold.PLP.part.nonpolar>
-38.8793

> <Gold.PLP.part.repulsive>
1.5028

> <Gold.PLP.ligand.clash>
0.0000

> <Gold.PLP.ligand.torsion>
0.0871

> <Gold.PLP.Chemscore.Hbond>
2.0404

> <Gold.PLP.Chemscore.CHOScore>
0.0000

> <Gold.PLP.Chemscore.Metal>
0.0000

> <Gold.Chemscore.Hbonds>
donor molecule, donor type, donor heavy atom, donor atom, acceptor molecule, acceptor atom, score
      L1  H    10    29       P1  8028  0.27
      L1  H    19    20       P1  7948  0.88
      P1  H  7989  7998       L1    18  1.00

> <Gold.PLP.Chemscore.Internal.Correction>
0.0032

> <Gold.Rescore>
     Score         DG    S(hbond)    S(metal)    S(lipo)     H(rot)  DE(clash)    DE(int)     intcor
     16.33     -21.57       2.56        0.00      97.06       1.49       4.97       0.27       ----

> <Gold.Chemscore.Fitness>
16.3287

> <Gold.Chemscore.DG>
-21.5730

> <Gold.Chemscore.ZeroCoef>
-5.4800

> <Gold.Chemscore.Hbond>
2.5635

> <Gold.Chemscore.Metal>
0.0000

> <Gold.Chemscore.Lipo>
97.0614

> <Gold.Chemscore.Internal_Hbond>
0.0000

> <Gold.Chemscore.DEClash>
4.9749

> <Gold.Chemscore.DEInternal>
0.2695

> <Gold.Chemscore.Rot>
1.4942

> <Gold.Chemscore.Internal.Correction>
   9.000000E+99

> <Gold.Chemscore.Hbonds>
donor molecule, donor type, donor heavy atom, donor atom, acceptor molecule, acceptor atom, score
      L1  H    10    29       P1  8028  0.27
      L1  H    19    20       P1  7948  0.83
      P1  H  7989  7998       L1    18  0.88

> <Gold.Chemscore.Hbond.Weighted>
-8.5621

> <Gold.Chemscore.Metal.Weighted>
-0.0000

> <Gold.Chemscore.Lipo.Weighted>
-11.3562

> <Gold.Chemscore.Internal_Hbond.Weighted>
0.0000

> <Gold.Chemscore.DEClash.Weighted>
4.9749

> <Gold.Chemscore.DEInternal.Weighted>
0.2695

> <Gold.Chemscore.Rot.Weighted>
3.8253

> <Gold.Chemscore.Internal.Correction.Weighted>
   9.000000E+99

> <Gold.Protein.RotatedTorsions>
[ 6907 6896 6895 6894 ] final -142.72 input  -60.11 | X-H torsion
[ 7974 7965 7964 7962 ] final  101.04 input  175.53 | X-H torsion
[ 8008 7997 7996 7995 ] final -128.73 input   59.86 | X-H torsion
[ 10167 10162 10161 10158 ] final    7.92 input  -65.29 | X-H torsion
[ 10718 10713 10712 10709 ] final   21.14 input   66.30 | X-H torsion
[ 10763 10752 10751 10750 ] final  -31.79 input  -60.55 | X-H torsion
[ 11005 11000 10999 10996 ] final   46.03 input  -57.11 | X-H torsion

> <Gold.Protein.ActiveResidues>
 VAL166  LYS551  ARG553  GLY616  TRP617  ASP618  TYR619  PRO620  LYS621  CYS622 
 ASP623  PHE694  ASN695  SER759  ASP760  ASP761  ALA762  ILE779  LEU786  VAL792 
 PHE793  MET794  SER795  GLU796  ALA797  LYS798  CYS799  TRP800  GLU811  SER814 

> <Gold.Protein.RotatedAtoms>
  151.0909  133.5317  159.2614 H   0  0  0  0  0  0  0  0  0  0  0  0  # atno 6907 bound_to 6896
  151.2184  135.0508  159.8950 H   0  0  0  0  0  0  0  0  0  0  0  0  # atno 6908 bound_to 6896
  152.5434  134.0715  159.8249 H   0  0  0  0  0  0  0  0  0  0  0  0  # atno 6909 bound_to 6896
  145.3776  139.2386  143.3421 H   0  0  0  0  0  0  0  0  0  0  0  0  # atno 7974 bound_to 7965
  155.2675  140.0438  157.3003 H   0  0  0  0  0  0  0  0  0  0  0  0  # atno 8008 bound_to 7997
  154.5673  140.2363  155.8212 H   0  0  0  0  0  0  0  0  0  0  0  0  # atno 8009 bound_to 7997
  156.2095  140.3003  155.9709 H   0  0  0  0  0  0  0  0  0  0  0  0  # atno 8010 bound_to 7997
  140.6344  143.7919  150.7339 H   0  0  0  0  0  0  0  0  0  0  0  0  # atno 10167 bound_to 10162
  157.1344  130.6605  149.5961 H   0  0  0  0  0  0  0  0  0  0  0  0  # atno 10718 bound_to 10713
  153.8032  135.6888  153.4852 H   0  0  0  0  0  0  0  0  0  0  0  0  # atno 10763 bound_to 10752
  153.1675  135.4555  154.9856 H   0  0  0  0  0  0  0  0  0  0  0  0  # atno 10764 bound_to 10752
  154.7998  135.3333  154.7518 H   0  0  0  0  0  0  0  0  0  0  0  0  # atno 10765 bound_to 10752
  140.1406  134.4588  155.8452 H   0  0  0  0  0  0  0  0  0  0  0  0  # atno 11005 bound_to 11000
  146.2857  140.4438  142.8759 LP  0  0  0  0  0  0  0  0  0  0  0  0  # atno 17320 bound_to 7965
  144.8531  140.7030  143.6155 LP  0  0  0  0  0  0  0  0  0  0  0  0  # atno 17321 bound_to 7965
  140.1538  143.4335  152.2114 LP  0  0  0  0  0  0  0  0  0  0  0  0  # atno 17342 bound_to 10162
  139.5556  144.7370  151.4305 LP  0  0  0  0  0  0  0  0  0  0  0  0  # atno 17343 bound_to 10162
  155.9801  130.4800  150.6755 LP  0  0  0  0  0  0  0  0  0  0  0  0  # atno 17370 bound_to 10713
  157.4364  131.0856  151.0988 LP  0  0  0  0  0  0  0  0  0  0  0  0  # atno 17371 bound_to 10713
  141.2185  133.6832  156.7240 LP  0  0  0  0  0  0  0  0  0  0  0  0  # atno 17394 bound_to 11000
  140.2727  134.8379  157.3862 LP  0  0  0  0  0  0  0  0  0  0  0  0  # atno 17395 bound_to 11000

$$$$
