#       Name:                AV-unprocessed.smi:2567
#       Creating user name   scv26
#       Creation time:       Fri Mar 27 14:10:50 2020


#       File generated by GOLD software.
#

@<TRIPOS>MOLECULE
AV-unprocessed.smi:2567
    38    39     1
SMALL
NO_CHARGES


@<TRIPOS>ATOM
      1 ****        -3.0897   1.8185  -0.7751 C.3            1 S1                 0.0000
      2 ****        -2.8021   0.3518  -1.1431 C.3            1 S1                 0.0000
      3 ****        -3.4392  -0.5809  -0.0897 C.3            1 S1                 0.0000
      4 ****        -3.4642   0.0108  -2.4967 C.3            1 S1                 0.0000
      5 ****        -1.3087   0.1303  -1.2069 C.2            1 S1                 0.0000
      6 ****        -0.6072   0.4306  -2.3029 N.2            1 S1                 0.0000
      7 ****         0.6641   0.2275  -1.9012 N.pl3          1 S1                 0.0000
      8 ****         0.6686  -0.1183  -0.6137 C.2            1 S1                 0.0000
      9 ****         1.9337  -0.3812   0.1401 C.3            1 S1                 0.0000
     10 ****         2.3436   0.8063   1.0326 C.3            1 S1                 0.0000
     11 ****         3.5347   0.4512   1.8286 N.4            1 S1                 1.0000
     12 ****         3.3171  -0.7859   2.6046 C.3            1 S1                 0.0000
     13 ****         2.8712  -1.9250   1.6714 C.3            1 S1                 0.0000
     14 ****         1.7069  -1.5300   0.9535 O.3            1 S1                 0.0000
     15 ****        -0.5557  -0.1633  -0.1000 N.2            1 S1                 0.0000
     16 ****         1.4606   0.3544  -2.5094 H              1 S1                 0.0000
     17 ****        -4.1614   2.0119  -0.7200 H              1 S1                 0.0000
     18 ****        -2.6697   2.5018  -1.5139 H              1 S1                 0.0000
     19 ****        -2.6581   2.0757   0.1930 H              1 S1                 0.0000
     20 ****        -3.0627  -0.3758   0.9132 H              1 S1                 0.0000
     21 ****        -3.2359  -1.6295  -0.3107 H              1 S1                 0.0000
     22 ****        -4.5220  -0.4574  -0.0534 H              1 S1                 0.0000
     23 ****        -4.5477   0.1251  -2.4479 H              1 S1                 0.0000
     24 ****        -3.2562  -1.0180  -2.7942 H              1 S1                 0.0000
     25 ****        -3.1121   0.6630  -3.2969 H              1 S1                 0.0000
     26 ****         2.7257  -0.6014  -0.5786 H              1 S1                 0.0000
     27 ****         2.5619   1.6869   0.4280 H              1 S1                 0.0000
     28 ****         1.5315   1.0742   1.7102 H              1 S1                 0.0000
     29 ****         4.3129   0.3067   1.2010 H              1 S1                 0.0000
     30 ****         4.2364  -1.0531   3.1261 H              1 S1                 0.0000
     31 ****         2.5565  -0.6037   3.3650 H              1 S1                 0.0000
     32 ****         3.6672  -2.1927   0.9749 H              1 S1                 0.0000
     33 ****         2.6424  -2.8187   2.2521 H              1 S1                 0.0000
     34 ****         3.7564   1.2085   2.4595 H              1 S1                 0.0000
     35 ****        -0.9407   0.7306  -3.1966 LP             1 S1                 0.0000
     36 ****         1.4190  -2.2870   0.3670 LP             1 S1                 0.0000
     37 ****         0.9810  -1.3213   1.6088 LP             1 S1                 0.0000
     38 ****        -0.8475  -0.3578   0.8365 LP             1 S1                 0.0000
@<TRIPOS>BOND
    1    1    2 1     
    2    1   17 1     
    3    1   18 1     
    4    1   19 1     
    5    2    3 1     
    6    2    4 1     
    7    2    5 1     
    8    3   20 1     
    9    3   21 1     
   10    3   22 1     
   11    4   23 1     
   12    4   24 1     
   13    4   25 1     
   14    5   15 1     
   15    5    6 2     
   16    6    7 1     
   17    7   16 1     
   18    7    8 1     
   19    8    9 1     
   20    8   15 2     
   21    9   14 1     
   22    9   10 1     
   23    9   26 1     
   24   10   11 1     
   25   10   27 1     
   26   10   28 1     
   27   11   12 1     
   28   11   29 1     
   29   11   34 1     
   30   12   13 1     
   31   12   30 1     
   32   12   31 1     
   33   13   14 1     
   34   13   32 1     
   35   13   33 1     
   36    6   35 1     
   37   14   36 1     
   38   14   37 1     
   39   15   38 1     
@<TRIPOS>SUBSTRUCTURE
      1 S1             1
@<TRIPOS>SET
LONE_PAIRS      STATIC     ATOMS    <user>   **** ""
4 35 36 37 38
DONOR_HYDROGENS      STATIC     ATOMS    <user>   **** ""
3 16 29 34
ATOM$BLUE        STATIC     ATOMS    COLORGROUP SYSTEM
4 35 36 37 38
ATOM$RED        STATIC     ATOMS    COLORGROUP SYSTEM
3 16 29 34
