#       Name:                AV-unprocessed.smi:963
#       Creating user name   scv26
#       Creation time:       Fri Mar 27 02:18:36 2020


#       File generated by GOLD software.
#

@<TRIPOS>MOLECULE
AV-unprocessed.smi:963
    39    40     1
SMALL
NO_CHARGES


@<TRIPOS>ATOM
      1 ****        -4.5884  -2.6143   1.9718 C.3            1 S1                 0.0000
      2 ****        -4.3432  -2.1041   0.5476 C.3            1 S1                 0.0000
      3 ****        -3.4561  -0.8942   0.5209 C.2            1 S1                 0.0000
      4 ****        -2.0696  -1.0594   0.5969 N.2            1 S1                 0.0000
      5 ****        -1.4097   0.1002   0.5731 C.2            1 S1                 0.0000
      6 ****         0.0785   0.2025   0.5977 C.3            1 S1                 0.0000
      7 ****         0.6908   0.1372  -0.8077 C.3            1 S1                 0.0000
      8 ****         2.1455   0.2136  -0.7379 N.am           1 S1                 0.0000
      9 ****         2.9196   1.0552  -1.4410 C.2            1 S1                 0.0000
     10 ****         2.4896   1.8609  -2.2659 O.2            1 S1                 0.0000
     11 ****         4.2302   0.8716  -1.2139 N.am           1 S1                 0.0000
     12 ****         4.9371   0.4317  -0.0145 C.3            1 S1                 0.0000
     13 ****         6.2205   0.8306  -0.7392 C.3            1 S1                 0.0000
     14 ****         5.3686   1.6224  -1.7288 C.3            1 S1                 0.0000
     15 ****        -2.4698   1.4953   0.4336 S.3            1 S1                 0.0000
     16 ****        -3.8461   0.4225   0.4361 C.2            1 S1                 0.0000
     17 ****        -5.2348   0.9632   0.3493 C.3            1 S1                 0.0000
     18 ****        -5.2332  -3.4931   1.9636 H              1 S1                 0.0000
     19 ****        -5.0713  -1.8520   2.5838 H              1 S1                 0.0000
     20 ****        -3.6526  -2.8922   2.4578 H              1 S1                 0.0000
     21 ****        -3.8999  -2.9036  -0.0471 H              1 S1                 0.0000
     22 ****        -5.3006  -1.8824   0.0758 H              1 S1                 0.0000
     23 ****         0.3534   1.1391   1.0841 H              1 S1                 0.0000
     24 ****         0.4743  -0.6013   1.2201 H              1 S1                 0.0000
     25 ****         0.4212  -0.8026  -1.2905 H              1 S1                 0.0000
     26 ****         0.2766   0.9365  -1.4246 H              1 S1                 0.0000
     27 ****         2.6036  -0.4303  -0.1097 H              1 S1                 0.0000
     28 ****         4.7257   1.0378   0.8681 H              1 S1                 0.0000
     29 ****         4.8650  -0.6360   0.1951 H              1 S1                 0.0000
     30 ****         6.9051   1.4376  -0.1458 H              1 S1                 0.0000
     31 ****         6.7278  -0.0180  -1.2012 H              1 S1                 0.0000
     32 ****         5.6101   1.4257  -2.7740 H              1 S1                 0.0000
     33 ****         5.3247   2.6911  -1.5134 H              1 S1                 0.0000
     34 ****        -5.8774   0.5050   1.1014 H              1 S1                 0.0000
     35 ****        -5.6658   0.7637  -0.6320 H              1 S1                 0.0000
     36 ****        -5.2490   2.0414   0.5099 H              1 S1                 0.0000
     37 ****        -1.6209  -1.9507   0.6621 LP             1 S1                 0.0000
     38 ****         1.5075   1.9161  -2.4459 LP             1 S1                 0.0000
     39 ****         3.1223   2.4603  -2.7561 LP             1 S1                 0.0000
@<TRIPOS>BOND
    1    1    2 1     
    2    1   18 1     
    3    1   19 1     
    4    1   20 1     
    5    2    3 1     
    6    2   21 1     
    7    2   22 1     
    8    3   16 2     
    9    3    4 1     
   10    4    5 2     
   11    5    6 1     
   12    5   15 1     
   13    6    7 1     
   14    6   23 1     
   15    6   24 1     
   16    7    8 1     
   17    7   25 1     
   18    7   26 1     
   19    8    9 am    
   20    8   27 1     
   21    9   10 2     
   22    9   11 am    
   23   11   14 1     
   24   11   12 1     
   25   12   13 1     
   26   12   28 1     
   27   12   29 1     
   28   13   14 1     
   29   13   30 1     
   30   13   31 1     
   31   14   32 1     
   32   14   33 1     
   33   15   16 1     
   34   16   17 1     
   35   17   34 1     
   36   17   35 1     
   37   17   36 1     
   38    4   37 1     
   39   10   38 1     
   40   10   39 1     
@<TRIPOS>SUBSTRUCTURE
      1 S1             1
@<TRIPOS>SET
LONE_PAIRS      STATIC     ATOMS    <user>   **** ""
3 37 38 39
DONOR_HYDROGENS      STATIC     ATOMS    <user>   **** ""
1 27
ATOM$BLUE        STATIC     ATOMS    COLORGROUP SYSTEM
3 37 38 39
ATOM$RED        STATIC     ATOMS    COLORGROUP SYSTEM
1 27
