AV-unprocessed.smi:1831|AV-procd|sdf|7462|dock2
  -GOLD-   22720 9153D 1   1.00000     0.00000
 Structure written by MMmdl.
 40 41  0  0  0  0  0  0  0  0  3 V2000
  153.0618  143.1765  159.5910 C   0  0  0  0  0  0  0  0  0  0  0  0
  152.2239  142.5806  158.5122 C   0  0  0  0  0  0  0  0  0  0  0  0
  151.5864  143.3213  157.6027 N   0  0  0  0  0  0  0  0  0  0  0  0
  150.8750  142.5435  156.7008 N   0  0  0  0  0  0  0  0  0  0  0  0
  150.9765  141.2295  156.9449 C   0  0  0  0  0  0  0  0  0  0  0  0
  150.3633  140.3062  156.1858 N   0  5  0  0  0  0  0  0  0  0  0  0
  149.5786  140.6927  155.1555 C   0  0  0  0  0  0  0  0  0  0  0  0
  149.8236  141.5927  154.3488 O   0  0  0  0  0  0  0  0  0  0  0  0
  148.4325  140.0027  155.0626 N   0  0  0  0  0  0  0  0  0  0  0  0
  147.3775  140.2096  154.0747 C   0  0  0  0  0  0  0  0  0  0  0  0
  147.3456  139.0808  153.0270 C   0  0  2  0  0  0  0  0  0  0  0  0
  146.6629  139.4697  151.7177 C   0  0  0  0  0  0  0  0  0  0  0  0
  146.1795  138.1428  151.1167 C   0  0  0  0  0  0  0  0  0  0  0  0
  146.2966  137.1116  152.1784 N   0  3  2  0  0  0  0  0  0  0  0  0
  145.1853  136.1201  152.2284 C   0  0  0  0  0  0  0  0  0  0  0  0
  144.9975  135.4050  150.8763 C   0  0  0  0  0  0  0  0  0  0  0  0
  143.8628  136.7911  152.6444 C   0  0  0  0  0  0  0  0  0  0  0  0
  146.5632  137.8340  153.4396 C   0  0  0  0  0  0  0  0  0  0  0  0
  151.9994  140.8488  158.3299 S   0  0  0  0  0  0  0  0  0  0  0  0
  153.9903  143.5634  159.1709 H   0  0  0  0  0  0  0  0  0  0  0  0
  153.3034  142.4249  160.3427 H   0  0  0  0  0  0  0  0  0  0  0  0
  152.5269  143.9938  160.0749 H   0  0  0  0  0  0  0  0  0  0  0  0
  148.2813  139.2713  155.7421 H   0  0  0  0  0  0  0  0  0  0  0  0
  146.4063  140.3157  154.5608 H   0  0  0  0  0  0  0  0  0  0  0  0
  147.5731  141.1604  153.5785 H   0  0  0  0  0  0  0  0  0  0  0  0
  148.3700  138.7805  152.7991 H   0  0  0  0  0  0  0  0  0  0  0  0
  145.8028  140.1100  151.9196 H   0  0  0  0  0  0  0  0  0  0  0  0
  147.3287  140.0143  151.0477 H   0  0  0  0  0  0  0  0  0  0  0  0
  145.1517  138.2517  150.7667 H   0  0  0  0  0  0  0  0  0  0  0  0
  146.7915  137.8470  150.2639 H   0  0  0  0  0  0  0  0  0  0  0  0
  145.4374  135.3661  152.9759 H   0  0  0  0  0  0  0  0  0  0  0  0
  144.1490  134.7209  150.9107 H   0  0  0  0  0  0  0  0  0  0  0  0
  145.8689  134.8094  150.6036 H   0  0  0  0  0  0  0  0  0  0  0  0
  144.8133  136.1181  150.0720 H   0  0  0  0  0  0  0  0  0  0  0  0
  143.0473  136.0675  152.6631 H   0  0  0  0  0  0  0  0  0  0  0  0
  143.5851  137.5826  151.9472 H   0  0  0  0  0  0  0  0  0  0  0  0
  143.9192  137.2296  153.6406 H   0  0  0  0  0  0  0  0  0  0  0  0
  147.1186  137.2169  154.1466 H   0  0  0  0  0  0  0  0  0  0  0  0
  145.6177  138.1210  153.9033 H   0  0  0  0  0  0  0  0  0  0  0  0
  147.1430  136.5987  151.9765 H   0  0  0  0  0  0  0  0  0  0  0  0
  1  2  1  0  0  0  0
  1 20  1  0  0  0  0
  1 21  1  0  0  0  0
  1 22  1  0  0  0  0
  2 19  1  0  0  0  0
  2  3  2  0  0  0  0
  3  4  1  0  0  0  0
  4  5  2  0  0  0  0
  5  6  1  0  0  0  0
  5 19  1  0  0  0  0
  6  7  1  0  0  0  0
  7  8  2  0  0  0  0
  7  9  1  0  0  0  0
  9 10  1  0  0  0  0
  9 23  1  0  0  0  0
 10 11  1  0  0  0  0
 10 24  1  0  0  0  0
 10 25  1  0  0  0  0
 11 18  1  0  0  0  0
 11 12  1  0  0  0  0
 11 26  1  0  0  0  0
 12 13  1  0  0  0  0
 12 27  1  0  0  0  0
 12 28  1  0  0  0  0
 13 14  1  0  0  0  0
 13 29  1  0  0  0  0
 13 30  1  0  0  0  0
 14 15  1  0  0  0  0
 14 18  1  0  0  0  0
 14 40  1  0  0  0  0
 15 16  1  0  0  0  0
 15 17  1  0  0  0  0
 15 31  1  0  0  0  0
 16 32  1  0  0  0  0
 16 33  1  0  0  0  0
 16 34  1  0  0  0  0
 17 35  1  0  0  0  0
 17 36  1  0  0  0  0
 17 37  1  0  0  0  0
 18 38  1  0  0  0  0
 18 39  1  0  0  0  0
M  CHG  1   6  -1
M  CHG  1  14   1
M  END
> <s_m_source_file>
AV-unprocessed.smi

> <i_m_source_file_index>
1831

> <i_lp_mmshare_version>
43012

> <i_f3d_flags>
0

> <s_epik_input>
W0NIM11jMW5uYyhzMSlbTkhdQyg9TylbTkhdW0NIMl1bQ0BASF0yW0NIMl1bQ0gyXU4oW0NIMl0yKVtDSF0oW0NIM10pW0NIM10=

> <s_epik_cmdline>
J2VwaWtfcHl0aG9uJywgJy1waCcsICc3LjAnLCAnLXRuJywgJzgnLCAnLW1hJywgJzIwMCcsICctbWV0YWxfYmluZGluZycsICctaW1hZScsICc8aW5maWxlLm1hZT4nLCAnLW9tYWUnLCAnPG91dGZpbGUubWFlPic=

> <r_lp_tautomer_probability>
1

> <r_epik_Ionization_Penalty>
4.24531

> <r_epik_Ionization_Penalty_Charging>
4.11954

> <r_epik_Ionization_Penalty_Neutral>
0.125766

> <r_epik_State_Penalty>
4.11879

> <r_epik_Charging_Adjusted_Penalty>
8.23833

> <i_epik_Tot_Q>
0

> <i_epik_Tot_abs_Q>
2

> <r_epik_Metal_State_Penalty>
0.659341

> <b_epik_Metal_Only>
1

> <s_lp_Force_Field>
OPLS_2005

> <r_lp_Energy>
22.0207

> <b_lp_Chiralities_Consistent>
1

> <s_lp_Variant>
AV-unprocessed.smi:1831-7

> <Gold.Version>
5.8.1

> <Gold.Id.Protein>
6NUR|6NUR_protein|mol2

> <Gold.PLP.Fitness>
36.8180

> <Gold.PLP.PLP>
-30.5694

> <Gold.PLP.part.hbond>
-3.0000

> <Gold.PLP.part.metal>
0.0000

> <Gold.PLP.part.buried>
4.1002

> <Gold.PLP.part.nonpolar>
-31.7805

> <Gold.PLP.part.repulsive>
0.6632

> <Gold.PLP.ligand.clash>
0.0000

> <Gold.PLP.ligand.torsion>
0.6710

> <Gold.PLP.Chemscore.Hbond>
2.5112

> <Gold.PLP.Chemscore.CHOScore>
0.0000

> <Gold.PLP.Chemscore.Metal>
0.0000

> <Gold.Chemscore.Hbonds>
donor molecule, donor type, donor heavy atom, donor atom, acceptor molecule, acceptor atom, score
      L1  H    14    40       P1  7948  2.00
      P1  H  7989  7998       L1     8  0.23
      P1  H  8011  8017       L1     8  0.33

> <Gold.PLP.Chemscore.Internal.Correction>
0.0571

> <Gold.Rescore>
     Score         DG    S(hbond)    S(metal)    S(lipo)     H(rot)  DE(clash)    DE(int)     intcor
     12.55     -16.53       1.62        0.00      81.18       1.51       1.94       2.04       ----

> <Gold.Chemscore.Fitness>
12.5456

> <Gold.Chemscore.DG>
-16.5286

> <Gold.Chemscore.ZeroCoef>
-5.4800

> <Gold.Chemscore.Hbond>
1.6240

> <Gold.Chemscore.Metal>
0.0000

> <Gold.Chemscore.Lipo>
81.1780

> <Gold.Chemscore.Internal_Hbond>
0.0000

> <Gold.Chemscore.DEClash>
1.9441

> <Gold.Chemscore.DEInternal>
2.0389

> <Gold.Chemscore.Rot>
1.5131

> <Gold.Chemscore.Internal.Correction>
   9.000000E+99

> <Gold.Chemscore.Hbonds>
donor molecule, donor type, donor heavy atom, donor atom, acceptor molecule, acceptor atom, score
      L1  H    14    40       P1  7948  1.00
      P1  H  7989  7998       L1     8  0.08
      P1  H  8011  8017       L1     8  0.32

> <Gold.Chemscore.Hbond.Weighted>
-5.4243

> <Gold.Chemscore.Metal.Weighted>
-0.0000

> <Gold.Chemscore.Lipo.Weighted>
-9.4978

> <Gold.Chemscore.Internal_Hbond.Weighted>
0.0000

> <Gold.Chemscore.DEClash.Weighted>
1.9441

> <Gold.Chemscore.DEInternal.Weighted>
2.0389

> <Gold.Chemscore.Rot.Weighted>
3.8735

> <Gold.Chemscore.Internal.Correction.Weighted>
   9.000000E+99

> <Gold.Protein.RotatedTorsions>
[ 6907 6896 6895 6894 ] final  -34.87 input  -60.11 | X-H torsion
[ 7974 7965 7964 7962 ] final -145.20 input  175.53 | X-H torsion
[ 8008 7997 7996 7995 ] final   21.88 input   59.86 | X-H torsion
[ 10167 10162 10161 10158 ] final  -77.56 input  -65.29 | X-H torsion
[ 10718 10713 10712 10709 ] final -160.01 input   66.30 | X-H torsion
[ 10763 10752 10751 10750 ] final  -46.65 input  -60.55 | X-H torsion
[ 11005 11000 10999 10996 ] final   68.26 input  -57.11 | X-H torsion

> <Gold.Protein.ActiveResidues>
 VAL166  LYS551  ARG553  GLY616  TRP617  ASP618  TYR619  PRO620  LYS621  CYS622 
 ASP623  PHE694  ASN695  SER759  ASP760  ASP761  ALA762  ILE779  LEU786  VAL792 
 PHE793  MET794  SER795  GLU796  ALA797  LYS798  CYS799  TRP800  GLU811  SER814 

> <Gold.Protein.RotatedAtoms>
  151.0471  134.9647  159.8191 H   0  0  0  0  0  0  0  0  0  0  0  0  # atno 6907 bound_to 6896
  152.5374  134.2585  159.8936 H   0  0  0  0  0  0  0  0  0  0  0  0  # atno 6908 bound_to 6896
  151.2599  133.4264  159.2649 H   0  0  0  0  0  0  0  0  0  0  0  0  # atno 6909 bound_to 6896
  144.8244  140.5614  143.5557 H   0  0  0  0  0  0  0  0  0  0  0  0  # atno 7974 bound_to 7965
  154.9573  140.3073  155.5047 H   0  0  0  0  0  0  0  0  0  0  0  0  # atno 8008 bound_to 7997
  156.2981  140.2308  156.4594 H   0  0  0  0  0  0  0  0  0  0  0  0  # atno 8009 bound_to 7997
  154.7998  140.0435  157.1252 H   0  0  0  0  0  0  0  0  0  0  0  0  # atno 8010 bound_to 7997
  140.4759  143.2414  151.8133 H   0  0  0  0  0  0  0  0  0  0  0  0  # atno 10167 bound_to 10162
  156.5761  130.8709  151.2851 H   0  0  0  0  0  0  0  0  0  0  0  0  # atno 10718 bound_to 10713
  154.0484  135.6634  153.4797 H   0  0  0  0  0  0  0  0  0  0  0  0  # atno 10763 bound_to 10752
  153.0473  135.5106  154.7775 H   0  0  0  0  0  0  0  0  0  0  0  0  # atno 10764 bound_to 10752
  154.6773  135.3039  154.9627 H   0  0  0  0  0  0  0  0  0  0  0  0  # atno 10765 bound_to 10752
  139.9722  134.6882  156.0425 H   0  0  0  0  0  0  0  0  0  0  0  0  # atno 11005 bound_to 11000
  145.5033  139.1482  143.3645 LP  0  0  0  0  0  0  0  0  0  0  0  0  # atno 17320 bound_to 7965
  146.2549  140.5173  142.8877 LP  0  0  0  0  0  0  0  0  0  0  0  0  # atno 17321 bound_to 7965
  139.4825  144.4833  151.9278 LP  0  0  0  0  0  0  0  0  0  0  0  0  # atno 17342 bound_to 10162
  140.3919  144.2605  150.5899 LP  0  0  0  0  0  0  0  0  0  0  0  0  # atno 17343 bound_to 10162
  157.7337  130.9735  150.1992 LP  0  0  0  0  0  0  0  0  0  0  0  0  # atno 17370 bound_to 10713
  156.2672  130.3717  149.8069 LP  0  0  0  0  0  0  0  0  0  0  0  0  # atno 17371 bound_to 10713
  141.1401  133.6566  156.3705 LP  0  0  0  0  0  0  0  0  0  0  0  0  # atno 17394 bound_to 11000
  140.5270  134.6249  157.5337 LP  0  0  0  0  0  0  0  0  0  0  0  0  # atno 17395 bound_to 11000

$$$$
