AV-unprocessed.smi:740|AV-procd|sdf|3549|dock2
  -GOLD-   22720 0543D 1   1.00000     0.00000
 Structure written by MMmdl.
 44 46  0  0  0  0  0  0  0  0  1 V2000
  153.3116  142.3015  161.8837 C   0  0  0  0  0  0  0  0  0  0  0  0
  152.8195  141.8553  160.5181 C   0  0  0  0  0  0  0  0  0  0  0  0
  151.9355  142.6914  159.7997 C   0  0  0  0  0  0  0  0  0  0  0  0
  151.4581  142.3159  158.5252 C   0  0  0  0  0  0  0  0  0  0  0  0
  150.6010  142.9719  157.6582 N   0  0  0  0  0  0  0  0  0  0  0  0
  150.5491  142.1203  156.6382 C   0  0  0  0  0  0  0  0  0  0  0  0
  151.2708  140.9882  156.7423 N   0  0  0  0  0  0  0  0  0  0  0  0
  151.3709  139.9265  155.7571 C   0  0  0  0  0  0  0  0  0  0  0  0
  150.0915  139.7913  154.9092 C   0  0  1  0  0  0  0  0  0  0  0  0
  150.0712  140.8332  153.9522 O   0  0  0  0  0  0  0  0  0  0  0  0
  150.0370  138.4376  154.1712 C   0  0  0  0  0  0  0  0  0  0  0  0
  149.6017  137.3487  155.0536 N   0  0  0  0  0  0  0  0  0  0  0  0
  150.3987  136.3541  155.4676 C   0  0  0  0  0  0  0  0  0  0  0  0
  151.5831  136.1988  155.1717 O   0  0  0  0  0  0  0  0  0  0  0  0
  149.6503  135.4021  156.3900 C   0  0  0  0  0  0  0  0  0  0  0  0
  148.2401  136.0076  156.4533 C   0  0  2  0  0  0  0  0  0  0  0  0
  147.1350  135.0544  155.9692 C   0  0  0  0  0  0  0  0  0  0  0  0
  148.3637  137.2374  155.5557 C   0  0  0  0  0  0  0  0  0  0  0  0
  147.4240  138.0048  155.3467 O   0  0  0  0  0  0  0  0  0  0  0  0
  151.8928  141.0707  157.9837 C   0  0  0  0  0  0  0  0  0  0  0  0
  152.7706  140.2290  158.6897 C   0  0  0  0  0  0  0  0  0  0  0  0
  153.2380  140.6196  159.9622 C   0  0  0  0  0  0  0  0  0  0  0  0
  154.1872  139.7050  160.7158 C   0  0  0  0  0  0  0  0  0  0  0  0
  152.8668  143.2533  162.1759 H   0  0  0  0  0  0  0  0  0  0  0  0
  154.3946  142.4264  161.8759 H   0  0  0  0  0  0  0  0  0  0  0  0
  153.0527  141.5648  162.6444 H   0  0  0  0  0  0  0  0  0  0  0  0
  151.6168  143.6331  160.2217 H   0  0  0  0  0  0  0  0  0  0  0  0
  149.9543  142.3320  155.7617 H   0  0  0  0  0  0  0  0  0  0  0  0
  152.2377  140.1147  155.1222 H   0  0  0  0  0  0  0  0  0  0  0  0
  151.5707  138.9940  156.2867 H   0  0  0  0  0  0  0  0  0  0  0  0
  149.2241  139.9002  155.5618 H   0  0  0  0  0  0  0  0  0  0  0  0
  149.6636  140.5101  153.1632 H   0  0  0  0  0  0  0  0  0  0  0  0
  149.4073  138.5073  153.2823 H   0  0  0  0  0  0  0  0  0  0  0  0
  151.0310  138.1885  153.7957 H   0  0  0  0  0  0  0  0  0  0  0  0
  149.6553  134.3939  155.9740 H   0  0  0  0  0  0  0  0  0  0  0  0
  150.1232  135.3751  157.3723 H   0  0  0  0  0  0  0  0  0  0  0  0
  148.0219  136.3385  157.4695 H   0  0  0  0  0  0  0  0  0  0  0  0
  146.1525  135.5234  156.0342 H   0  0  0  0  0  0  0  0  0  0  0  0
  147.1075  134.1513  156.5793 H   0  0  0  0  0  0  0  0  0  0  0  0
  147.2920  134.7497  154.9337 H   0  0  0  0  0  0  0  0  0  0  0  0
  153.0840  139.2924  158.2532 H   0  0  0  0  0  0  0  0  0  0  0  0
  154.4145  138.8064  160.1414 H   0  0  0  0  0  0  0  0  0  0  0  0
  153.7456  139.3938  161.6628 H   0  0  0  0  0  0  0  0  0  0  0  0
  155.1273  140.2164  160.9228 H   0  0  0  0  0  0  0  0  0  0  0  0
  1  2  1  0  0  0  0
  1 24  1  0  0  0  0
  1 25  1  0  0  0  0
  1 26  1  0  0  0  0
  2 22  1  0  0  0  0
  2  3  2  0  0  0  0
  3  4  1  0  0  0  0
  3 27  1  0  0  0  0
  4 20  2  0  0  0  0
  4  5  1  0  0  0  0
  5  6  2  0  0  0  0
  6  7  1  0  0  0  0
  6 28  1  0  0  0  0
  7  8  1  0  0  0  0
  7 20  1  0  0  0  0
  8  9  1  0  0  0  0
  8 29  1  0  0  0  0
  8 30  1  0  0  0  0
  9 10  1  0  0  0  0
  9 11  1  0  0  0  0
  9 31  1  0  0  0  0
 10 32  1  0  0  0  0
 11 12  1  0  0  0  0
 11 33  1  0  0  0  0
 11 34  1  0  0  0  0
 12 18  1  0  0  0  0
 12 13  1  0  0  0  0
 13 14  2  0  0  0  0
 13 15  1  0  0  0  0
 15 16  1  0  0  0  0
 15 35  1  0  0  0  0
 15 36  1  0  0  0  0
 16 17  1  0  0  0  0
 16 18  1  0  0  0  0
 16 37  1  0  0  0  0
 17 38  1  0  0  0  0
 17 39  1  0  0  0  0
 17 40  1  0  0  0  0
 18 19  2  0  0  0  0
 20 21  1  0  0  0  0
 21 22  2  0  0  0  0
 21 41  1  0  0  0  0
 22 23  1  0  0  0  0
 23 42  1  0  0  0  0
 23 43  1  0  0  0  0
 23 44  1  0  0  0  0
M  END
> <s_m_source_file>
AV-unprocessed.smi

> <i_m_source_file_index>
740

> <i_lp_mmshare_version>
43012

> <i_f3d_flags>
0

> <s_epik_input>
W0NIM11jKFtjSF0xKWMoW0NIM10pW2NIXWMoYzEyKW4oW2NIXW4yKVtDSDJdW0NASF0oW09IXSlbQ0gyXU4zQyg9TylbQ0gyXVtDQEBIXShbQ0gzXSlDMz1P

> <s_epik_cmdline>
J2VwaWtfcHl0aG9uJywgJy1waCcsICc3LjAnLCAnLXRuJywgJzgnLCAnLW1hJywgJzIwMCcsICctbWV0YWxfYmluZGluZycsICctaW1hZScsICc8aW5maWxlLm1hZT4nLCAnLW9tYWUnLCAnPG91dGZpbGUubWFlPic=

> <r_lp_tautomer_probability>
1

> <r_epik_Ionization_Penalty>
0.104021

> <r_epik_Ionization_Penalty_Charging>
0

> <r_epik_Ionization_Penalty_Neutral>
0.104021

> <r_epik_State_Penalty>
0.0939354

> <r_epik_Charging_Adjusted_Penalty>
0.0939354

> <i_epik_Tot_Q>
0

> <i_epik_Tot_abs_Q>
0

> <r_epik_Metal_State_Penalty>
0.000101783

> <b_epik_Metal_Only>
0

> <s_lp_Force_Field>
OPLS_2005

> <r_lp_Energy>
16.4677

> <b_lp_Chiralities_Consistent>
1

> <s_lp_Variant>
AV-unprocessed.smi:740-4

> <Gold.Version>
5.8.1

> <Gold.Id.Protein>
6NUR|6NUR_protein|mol2

> <Gold.PLP.Fitness>
47.0309

> <Gold.PLP.PLP>
-38.9830

> <Gold.PLP.part.hbond>
-3.1904

> <Gold.PLP.part.metal>
0.0000

> <Gold.PLP.part.buried>
-2.4936

> <Gold.PLP.part.nonpolar>
-33.6031

> <Gold.PLP.part.repulsive>
0.7776

> <Gold.PLP.ligand.clash>
0.0000

> <Gold.PLP.ligand.torsion>
0.7575

> <Gold.PLP.Chemscore.Hbond>
2.4873

> <Gold.PLP.Chemscore.CHOScore>
0.6845

> <Gold.PLP.Chemscore.Metal>
0.0000

> <Gold.Chemscore.Hbonds>
donor molecule, donor type, donor heavy atom, donor atom, acceptor molecule, acceptor atom, score
      L1  H    10    32       P1  7957  0.94
      P1  H  7989  7998       L1    10  0.54
      P1  H 10752 10764       L1    14  1.00
      L1  C     6    28       P1  8028  0.56

> <Gold.PLP.Chemscore.Internal.Correction>
0.0477

> <Gold.Rescore>
     Score         DG    S(hbond)    S(metal)    S(lipo)     H(rot)  DE(clash)    DE(int)     intcor
     17.64     -18.56       2.32        0.00      96.23       2.31       0.14       0.79       ----

> <Gold.Chemscore.Fitness>
17.6372

> <Gold.Chemscore.DG>
-18.5593

> <Gold.Chemscore.ZeroCoef>
-5.4800

> <Gold.Chemscore.Hbond>
2.3192

> <Gold.Chemscore.Metal>
0.0000

> <Gold.Chemscore.Lipo>
96.2298

> <Gold.Chemscore.Internal_Hbond>
0.0000

> <Gold.Chemscore.DEClash>
0.1357

> <Gold.Chemscore.DEInternal>
0.7863

> <Gold.Chemscore.Rot>
2.3147

> <Gold.Chemscore.Internal.Correction>
   9.000000E+99

> <Gold.Chemscore.Hbonds>
donor molecule, donor type, donor heavy atom, donor atom, acceptor molecule, acceptor atom, score
      L1  H    10    32       P1  7957  0.88
      P1  H  7989  7998       L1    10  0.05
      P1  H 10752 10764       L1    14  0.98

> <Gold.Chemscore.Hbond.Weighted>
-7.7460

> <Gold.Chemscore.Metal.Weighted>
-0.0000

> <Gold.Chemscore.Lipo.Weighted>
-11.2589

> <Gold.Chemscore.Internal_Hbond.Weighted>
0.0000

> <Gold.Chemscore.DEClash.Weighted>
0.1357

> <Gold.Chemscore.DEInternal.Weighted>
0.7863

> <Gold.Chemscore.Rot.Weighted>
5.9256

> <Gold.Chemscore.Internal.Correction.Weighted>
   9.000000E+99

> <Gold.Protein.RotatedTorsions>
[ 6907 6896 6895 6894 ] final -134.65 input  -60.11 | X-H torsion
[ 7974 7965 7964 7962 ] final -179.69 input  175.53 | X-H torsion
[ 8008 7997 7996 7995 ] final   52.25 input   59.86 | X-H torsion
[ 10167 10162 10161 10158 ] final  -47.56 input  -65.29 | X-H torsion
[ 10718 10713 10712 10709 ] final -177.43 input   66.30 | X-H torsion
[ 10763 10752 10751 10750 ] final  -48.59 input  -60.55 | X-H torsion
[ 11005 11000 10999 10996 ] final   26.81 input  -57.11 | X-H torsion

> <Gold.Protein.ActiveResidues>
 VAL166  LYS551  ARG553  GLY616  TRP617  ASP618  TYR619  PRO620  LYS621  CYS622 
 ASP623  PHE694  ASN695  SER759  ASP760  ASP761  ALA762  ILE779  LEU786  VAL792 
 PHE793  MET794  SER795  GLU796  ALA797  LYS798  CYS799  TRP800  GLU811  SER814 

> <Gold.Protein.RotatedAtoms>
  150.9883  133.6175  159.2711 H   0  0  0  0  0  0  0  0  0  0  0  0  # atno 6907 bound_to 6896
  151.3404  135.0861  159.9379 H   0  0  0  0  0  0  0  0  0  0  0  0  # atno 6908 bound_to 6896
  152.5238  133.9496  159.7720 H   0  0  0  0  0  0  0  0  0  0  0  0  # atno 6909 bound_to 6896
  144.7138  140.0680  143.6430 H   0  0  0  0  0  0  0  0  0  0  0  0  # atno 7974 bound_to 7965
  155.4487  140.3457  155.4298 H   0  0  0  0  0  0  0  0  0  0  0  0  # atno 8008 bound_to 7997
  156.1233  140.1493  156.9202 H   0  0  0  0  0  0  0  0  0  0  0  0  # atno 8009 bound_to 7997
  154.4840  140.0861  156.7422 H   0  0  0  0  0  0  0  0  0  0  0  0  # atno 8010 bound_to 7997
  140.6770  143.2779  151.3944 H   0  0  0  0  0  0  0  0  0  0  0  0  # atno 10167 bound_to 10162
  156.8294  130.9648  151.3107 H   0  0  0  0  0  0  0  0  0  0  0  0  # atno 10718 bound_to 10713
  154.0802  135.6592  153.4837 H   0  0  0  0  0  0  0  0  0  0  0  0  # atno 10763 bound_to 10752
  153.0358  135.5178  154.7481 H   0  0  0  0  0  0  0  0  0  0  0  0  # atno 10764 bound_to 10752
  154.6574  135.3010  154.9878 H   0  0  0  0  0  0  0  0  0  0  0  0  # atno 10765 bound_to 10752
  140.3330  134.2417  155.7700 H   0  0  0  0  0  0  0  0  0  0  0  0  # atno 11005 bound_to 11000
  145.9808  139.2940  143.1043 LP  0  0  0  0  0  0  0  0  0  0  0  0  # atno 17320 bound_to 7965
  145.9013  140.9241  143.0501 LP  0  0  0  0  0  0  0  0  0  0  0  0  # atno 17321 bound_to 7965
  139.6068  144.1181  152.2257 LP  0  0  0  0  0  0  0  0  0  0  0  0  # atno 17342 bound_to 10162
  140.0582  144.5878  150.7283 LP  0  0  0  0  0  0  0  0  0  0  0  0  # atno 17343 bound_to 10162
  157.6415  130.8809  149.9457 LP  0  0  0  0  0  0  0  0  0  0  0  0  # atno 17370 bound_to 10713
  156.0943  130.3660  150.0336 LP  0  0  0  0  0  0  0  0  0  0  0  0  # atno 17371 bound_to 10713
  141.2058  133.7849  157.0210 LP  0  0  0  0  0  0  0  0  0  0  0  0  # atno 17394 bound_to 11000
  140.0845  134.9629  157.1677 LP  0  0  0  0  0  0  0  0  0  0  0  0  # atno 17395 bound_to 11000

$$$$
