AV-unprocessed.smi:3342|AV-procd|sdf|12887|dock9
  -GOLD-   2272019293D 1   1.00000     0.00000
 Structure written by MMmdl.
 42 43  0  0  0  0  0  0  0  0  2 V2000
  145.3856  134.1052  153.8396 C   0  0  0  0  0  0  0  0  0  0  0  0
  146.4850  134.0866  152.7654 C   0  0  2  0  0  0  0  0  0  0  0  0
  146.5072  132.7795  151.9432 C   0  0  0  0  0  0  0  0  0  0  0  0
  145.5141  132.7647  150.8655 N   0  0  0  0  0  0  0  0  0  0  0  0
  145.6296  132.1538  149.6436 C   0  0  0  0  0  0  0  0  0  0  0  0
  144.4584  132.3962  148.9731 C   0  0  0  0  0  0  0  0  0  0  0  0
  143.6768  133.1410  149.8154 N   0  3  0  0  0  0  0  0  0  0  0  0
  144.3193  133.3617  150.9669 C   0  0  0  0  0  0  0  0  0  0  0  0
  147.7820  134.2968  153.4016 N   0  0  0  0  0  0  0  0  0  0  0  0
  148.3104  133.5277  154.3695 C   0  0  0  0  0  0  0  0  0  0  0  0
  147.7377  132.5201  154.7878 O   0  0  0  0  0  0  0  0  0  0  0  0
  149.5117  133.9497  154.8388 N   0  0  0  0  0  0  0  0  0  0  0  0
  150.2157  135.1819  154.4470 C   0  0  0  0  0  0  0  0  0  0  0  0
  150.0436  136.2217  155.5689 C   0  0  0  0  0  0  0  0  0  0  0  0
  150.5631  135.6744  156.9206 C   0  0  0  0  0  0  0  0  0  0  0  0
  150.2578  136.6509  158.0643 C   0  0  0  0  0  0  0  0  0  0  0  0
  150.6771  137.9101  157.9184 N   0  0  0  0  0  0  0  0  0  0  0  0
  149.6509  136.2763  159.0661 O   0  0  0  0  0  0  0  0  0  0  0  0
  149.9734  134.2744  157.2154 C   0  0  0  0  0  0  0  0  0  0  0  0
  150.1457  133.3323  156.0095 C   0  0  0  0  0  0  0  0  0  0  0  0
  144.3919  134.0392  153.3964 H   0  0  0  0  0  0  0  0  0  0  0  0
  145.4195  135.0291  154.4182 H   0  0  0  0  0  0  0  0  0  0  0  0
  145.4969  133.2731  154.5356 H   0  0  0  0  0  0  0  0  0  0  0  0
  146.2932  134.9221  152.0895 H   0  0  0  0  0  0  0  0  0  0  0  0
  147.4836  132.6311  151.4800 H   0  0  0  0  0  0  0  0  0  0  0  0
  146.3312  131.9169  152.5881 H   0  0  0  0  0  0  0  0  0  0  0  0
  146.5145  131.6067  149.3508 H   0  0  0  0  0  0  0  0  0  0  0  0
  144.1304  132.1008  147.9871 H   0  0  0  0  0  0  0  0  0  0  0  0
  143.9463  133.9148  151.8107 H   0  0  0  0  0  0  0  0  0  0  0  0
  148.3121  135.1020  153.1014 H   0  0  0  0  0  0  0  0  0  0  0  0
  151.2748  134.9611  154.3058 H   0  0  0  0  0  0  0  0  0  0  0  0
  149.8826  135.5990  153.4967 H   0  0  0  0  0  0  0  0  0  0  0  0
  150.5767  137.1365  155.3067 H   0  0  0  0  0  0  0  0  0  0  0  0
  148.9887  136.4907  155.6456 H   0  0  0  0  0  0  0  0  0  0  0  0
  151.6462  135.5660  156.8382 H   0  0  0  0  0  0  0  0  0  0  0  0
  150.4985  138.5895  158.6434 H   0  0  0  0  0  0  0  0  0  0  0  0
  151.1714  138.1785  157.0799 H   0  0  0  0  0  0  0  0  0  0  0  0
  150.4576  133.8411  158.0914 H   0  0  0  0  0  0  0  0  0  0  0  0
  148.9120  134.3523  157.4575 H   0  0  0  0  0  0  0  0  0  0  0  0
  149.7356  132.3484  156.2418 H   0  0  0  0  0  0  0  0  0  0  0  0
  151.2053  133.1687  155.8078 H   0  0  0  0  0  0  0  0  0  0  0  0
  142.7457  133.4757  149.6007 H   0  0  0  0  0  0  0  0  0  0  0  0
  1  2  1  0  0  0  0
  1 21  1  0  0  0  0
  1 22  1  0  0  0  0
  1 23  1  0  0  0  0
  2  3  1  0  0  0  0
  2  9  1  0  0  0  0
  2 24  1  0  0  0  0
  3  4  1  0  0  0  0
  3 25  1  0  0  0  0
  3 26  1  0  0  0  0
  4  8  1  0  0  0  0
  4  5  1  0  0  0  0
  5  6  2  0  0  0  0
  5 27  1  0  0  0  0
  6  7  1  0  0  0  0
  6 28  1  0  0  0  0
  7  8  2  0  0  0  0
  7 42  1  0  0  0  0
  8 29  1  0  0  0  0
  9 10  1  0  0  0  0
  9 30  1  0  0  0  0
 10 11  2  0  0  0  0
 10 12  1  0  0  0  0
 12 20  1  0  0  0  0
 12 13  1  0  0  0  0
 13 14  1  0  0  0  0
 13 31  1  0  0  0  0
 13 32  1  0  0  0  0
 14 15  1  0  0  0  0
 14 33  1  0  0  0  0
 14 34  1  0  0  0  0
 15 16  1  0  0  0  0
 15 19  1  0  0  0  0
 15 35  1  0  0  0  0
 16 17  1  0  0  0  0
 16 18  2  0  0  0  0
 17 36  1  0  0  0  0
 17 37  1  0  0  0  0
 19 20  1  0  0  0  0
 19 38  1  0  0  0  0
 19 39  1  0  0  0  0
 20 40  1  0  0  0  0
 20 41  1  0  0  0  0
M  CHG  1   7   1
M  END
> <s_m_source_file>
AV-unprocessed.smi

> <i_m_source_file_index>
3342

> <i_lp_mmshare_version>
43012

> <i_f3d_flags>
0

> <s_epik_input>
W2NIXTFuW2NIXVtjSF1uMVtDSDJdW0NAQEhdKFtDSDNdKVtOSF1DKD1PKU4yW0NIMl1bQ0gyXVtDSF0oQyg9TylbTkgyXSlbQ0gyXVtDSDJdMg==

> <s_epik_cmdline>
J2VwaWtfcHl0aG9uJywgJy1waCcsICc3LjAnLCAnLXRuJywgJzgnLCAnLW1hJywgJzIwMCcsICctbWV0YWxfYmluZGluZycsICctaW1hZScsICc8aW5maWxlLm1hZT4nLCAnLW9tYWUnLCAnPG91dGZpbGUubWFlPic=

> <r_lp_tautomer_probability>
1

> <r_epik_Ionization_Penalty>
0.254015

> <r_epik_Ionization_Penalty_Charging>
0

> <r_epik_Ionization_Penalty_Neutral>
0.254015

> <r_epik_State_Penalty>
0.245417

> <r_epik_Charging_Adjusted_Penalty>
0.245417

> <i_epik_Tot_Q>
1

> <i_epik_Tot_abs_Q>
1

> <r_epik_Metal_State_Penalty>
0.535589

> <b_epik_Metal_Only>
0

> <s_lp_Force_Field>
OPLS_2005

> <r_lp_Energy>
30.9276

> <b_lp_Chiralities_Consistent>
1

> <s_lp_Variant>
AV-unprocessed.smi:3342-1

> <Gold.Version>
5.8.1

> <Gold.Id.Protein>
6NUR|6NUR_protein|mol2

> <Gold.PLP.Fitness>
40.2493

> <Gold.PLP.PLP>
-27.2400

> <Gold.PLP.part.hbond>
-2.9987

> <Gold.PLP.part.metal>
0.0000

> <Gold.PLP.part.buried>
-0.4933

> <Gold.PLP.part.nonpolar>
-23.4827

> <Gold.PLP.part.repulsive>
0.1261

> <Gold.PLP.ligand.clash>
0.0000

> <Gold.PLP.ligand.torsion>
0.6777

> <Gold.PLP.Chemscore.Hbond>
4.0000

> <Gold.PLP.Chemscore.CHOScore>
0.7527

> <Gold.PLP.Chemscore.Metal>
0.0000

> <Gold.Chemscore.Hbonds>
donor molecule, donor type, donor heavy atom, donor atom, acceptor molecule, acceptor atom, score
      L1  H     7    42       P1 10186  2.00
      L1  H     9    30       P1  7948  1.00
      P1  H  6896  6909       L1    18  1.00
      L1  C     5    27       P1 10747  0.55

> <Gold.PLP.Chemscore.Internal.Correction>
0.1065

> <Gold.Rescore>
     Score         DG    S(hbond)    S(metal)    S(lipo)     H(rot)  DE(clash)    DE(int)     intcor
     13.49     -15.77       2.86        0.00      57.60       2.34       0.60       1.68       ----

> <Gold.Chemscore.Fitness>
13.4899

> <Gold.Chemscore.DG>
-15.7746

> <Gold.Chemscore.ZeroCoef>
-5.4800

> <Gold.Chemscore.Hbond>
2.8578

> <Gold.Chemscore.Metal>
0.0000

> <Gold.Chemscore.Lipo>
57.6048

> <Gold.Chemscore.Internal_Hbond>
0.0000

> <Gold.Chemscore.DEClash>
0.6008

> <Gold.Chemscore.DEInternal>
1.6840

> <Gold.Chemscore.Rot>
2.3400

> <Gold.Chemscore.Internal.Correction>
   9.000000E+99

> <Gold.Chemscore.Hbonds>
donor molecule, donor type, donor heavy atom, donor atom, acceptor molecule, acceptor atom, score
      L1  H     7    42       P1 10186  0.98
      L1  H     9    30       P1  7948  0.90
      P1  H  6896  6909       L1    18  0.30

> <Gold.Chemscore.Hbond.Weighted>
-9.5452

> <Gold.Chemscore.Metal.Weighted>
-0.0000

> <Gold.Chemscore.Lipo.Weighted>
-6.7398

> <Gold.Chemscore.Internal_Hbond.Weighted>
0.0000

> <Gold.Chemscore.DEClash.Weighted>
0.6008

> <Gold.Chemscore.DEInternal.Weighted>
1.6840

> <Gold.Chemscore.Rot.Weighted>
5.9904

> <Gold.Chemscore.Internal.Correction.Weighted>
   9.000000E+99

> <Gold.Protein.RotatedTorsions>
[ 6907 6896 6895 6894 ] final   70.67 input  -60.11 | X-H torsion
[ 7974 7965 7964 7962 ] final -136.04 input  175.53 | X-H torsion
[ 8008 7997 7996 7995 ] final  109.18 input   59.86 | X-H torsion
[ 10167 10162 10161 10158 ] final    6.23 input  -65.29 | X-H torsion
[ 10718 10713 10712 10709 ] final  117.57 input   66.30 | X-H torsion
[ 10763 10752 10751 10750 ] final    7.74 input  -60.55 | X-H torsion
[ 11005 11000 10999 10996 ] final -157.98 input  -57.11 | X-H torsion

> <Gold.Protein.ActiveResidues>
 VAL166  LYS551  ARG553  GLY616  TRP617  ASP618  TYR619  PRO620  LYS621  CYS622 
 ASP623  PHE694  ASN695  SER759  ASP760  ASP761  ALA762  ILE779  LEU786  VAL792 
 PHE793  MET794  SER795  GLU796  ALA797  LYS798  CYS799  TRP800  GLU811  SER814 

> <Gold.Protein.RotatedAtoms>
  152.4763  134.4834  159.9672 H   0  0  0  0  0  0  0  0  0  0  0  0  # atno 6907 bound_to 6896
  151.4850  133.3532  159.2852 H   0  0  0  0  0  0  0  0  0  0  0  0  # atno 6908 bound_to 6896
  150.8805  134.8221  159.7282 H   0  0  0  0  0  0  0  0  0  0  0  0  # atno 6909 bound_to 6896
  144.8961  140.6709  143.5114 H   0  0  0  0  0  0  0  0  0  0  0  0  # atno 7974 bound_to 7965
  156.1960  140.3062  155.9428 H   0  0  0  0  0  0  0  0  0  0  0  0  # atno 8008 bound_to 7997
  155.3065  140.0449  157.3049 H   0  0  0  0  0  0  0  0  0  0  0  0  # atno 8009 bound_to 7997
  154.5510  140.2291  155.8494 H   0  0  0  0  0  0  0  0  0  0  0  0  # atno 8010 bound_to 7997
  140.6439  143.7709  150.7469 H   0  0  0  0  0  0  0  0  0  0  0  0  # atno 10167 bound_to 10162
  157.6088  131.1038  150.7633 H   0  0  0  0  0  0  0  0  0  0  0  0  # atno 10718 bound_to 10713
  153.2329  135.6894  153.7870 H   0  0  0  0  0  0  0  0  0  0  0  0  # atno 10763 bound_to 10752
  153.7027  135.3295  155.3229 H   0  0  0  0  0  0  0  0  0  0  0  0  # atno 10764 bound_to 10752
  154.8322  135.4572  154.1221 H   0  0  0  0  0  0  0  0  0  0  0  0  # atno 10765 bound_to 10752
  140.6587  134.4373  157.5234 H   0  0  0  0  0  0  0  0  0  0  0  0  # atno 11005 bound_to 11000
  145.3697  139.1661  143.4339 LP  0  0  0  0  0  0  0  0  0  0  0  0  # atno 17320 bound_to 7965
  146.3082  140.3767  142.8680 LP  0  0  0  0  0  0  0  0  0  0  0  0  # atno 17321 bound_to 7965
  140.1346  143.4495  152.2233 LP  0  0  0  0  0  0  0  0  0  0  0  0  # atno 17342 bound_to 10162
  139.5649  144.7429  151.4051 LP  0  0  0  0  0  0  0  0  0  0  0  0  # atno 17343 bound_to 10162
  156.8015  130.4923  149.5369 LP  0  0  0  0  0  0  0  0  0  0  0  0  # atno 17370 bound_to 10713
  156.1183  130.6091  151.0154 LP  0  0  0  0  0  0  0  0  0  0  0  0  # atno 17371 bound_to 10713
  139.9020  134.8533  156.1855 LP  0  0  0  0  0  0  0  0  0  0  0  0  # atno 17394 bound_to 11000
  141.0482  133.6902  156.1722 LP  0  0  0  0  0  0  0  0  0  0  0  0  # atno 17395 bound_to 11000

$$$$
