AV-unprocessed.smi:2106|AV-procd|sdf|8596|dock4
  -GOLD-   2272011333D 1   1.00000     0.00000
 Structure written by MMmdl.
 48 49  0  0  0  0  0  0  0  0  2 V2000
  153.7488  141.6280  161.2496 C   0  0  0  0  0  0  0  0  0  0  0  0
  152.9732  142.5058  160.3124 C   0  0  0  0  0  0  0  0  0  0  0  0
  152.7100  143.8993  160.4264 C   0  0  0  0  0  0  0  0  0  0  0  0
  151.9707  144.1956  159.3163 C   0  0  0  0  0  0  0  0  0  0  0  0
  151.3903  145.4958  158.8666 C   0  0  0  0  0  0  0  0  0  0  0  0
  151.8240  143.0170  158.6057 N   0  0  0  0  0  0  0  0  0  0  0  0
  151.1355  142.7838  157.3460 C   0  0  0  0  0  0  0  0  0  0  0  0
  149.9079  141.8941  157.5476 C   0  0  0  0  0  0  0  0  0  0  0  0
  150.0289  140.7853  158.0682 O   0  0  0  0  0  0  0  0  0  0  0  0
  148.7316  142.3918  157.1350 N   0  0  0  0  0  0  0  0  0  0  0  0
  147.4431  141.7236  157.2768 C   0  0  0  0  0  0  0  0  0  0  0  0
  146.2872  142.5857  156.7314 C   0  0  0  0  0  0  0  0  0  0  0  0
  145.7892  143.5721  157.7228 N   0  3  1  0  0  0  0  0  0  0  0  0
  144.3830  143.9637  157.4637 C   0  0  0  0  0  0  0  0  0  0  0  0
  143.9183  145.0285  158.4752 C   0  0  1  0  0  0  0  0  0  0  0  0
  142.4422  145.3970  158.2904 C   0  0  0  0  0  0  0  0  0  0  0  0
  144.0841  144.5191  159.7936 O   0  0  0  0  0  0  0  0  0  0  0  0
  145.4417  144.2208  160.0983 C   0  0  1  0  0  0  0  0  0  0  0  0
  145.5146  143.7713  161.5619 C   0  0  0  0  0  0  0  0  0  0  0  0
  145.9487  143.1338  159.1317 C   0  0  0  0  0  0  0  0  0  0  0  0
  152.4401  141.9830  159.2203 N   0  0  0  0  0  0  0  0  0  0  0  0
  154.0899  142.1876  162.1209 H   0  0  0  0  0  0  0  0  0  0  0  0
  154.6281  141.2104  160.7591 H   0  0  0  0  0  0  0  0  0  0  0  0
  153.1387  140.7980  161.6070 H   0  0  0  0  0  0  0  0  0  0  0  0
  153.0185  144.5799  161.2060 H   0  0  0  0  0  0  0  0  0  0  0  0
  151.6457  146.2961  159.5612 H   0  0  0  0  0  0  0  0  0  0  0  0
  150.3033  145.4374  158.8085 H   0  0  0  0  0  0  0  0  0  0  0  0
  151.7694  145.7731  157.8832 H   0  0  0  0  0  0  0  0  0  0  0  0
  150.8431  143.7408  156.9099 H   0  0  0  0  0  0  0  0  0  0  0  0
  151.8235  142.3152  156.6418 H   0  0  0  0  0  0  0  0  0  0  0  0
  148.7276  143.3143  156.7233 H   0  0  0  0  0  0  0  0  0  0  0  0
  147.4946  140.7575  156.7742 H   0  0  0  0  0  0  0  0  0  0  0  0
  147.2850  141.5161  158.3355 H   0  0  0  0  0  0  0  0  0  0  0  0
  146.6487  143.1196  155.8512 H   0  0  0  0  0  0  0  0  0  0  0  0
  145.4571  141.9629  156.3947 H   0  0  0  0  0  0  0  0  0  0  0  0
  144.2909  144.3562  156.4503 H   0  0  0  0  0  0  0  0  0  0  0  0
  143.7437  143.0812  157.5251 H   0  0  0  0  0  0  0  0  0  0  0  0
  144.5190  145.9326  158.3607 H   0  0  0  0  0  0  0  0  0  0  0  0
  142.2590  145.7993  157.2938 H   0  0  0  0  0  0  0  0  0  0  0  0
  142.1359  146.1523  159.0145 H   0  0  0  0  0  0  0  0  0  0  0  0
  141.7977  144.5275  158.4241 H   0  0  0  0  0  0  0  0  0  0  0  0
  146.0426  145.1249  159.9835 H   0  0  0  0  0  0  0  0  0  0  0  0
  146.5397  143.5382  161.8507 H   0  0  0  0  0  0  0  0  0  0  0  0
  144.9084  142.8811  161.7330 H   0  0  0  0  0  0  0  0  0  0  0  0
  145.1521  144.5541  162.2285 H   0  0  0  0  0  0  0  0  0  0  0  0
  145.3978  142.2048  159.2881 H   0  0  0  0  0  0  0  0  0  0  0  0
  146.9952  142.9248  159.3501 H   0  0  0  0  0  0  0  0  0  0  0  0
  146.3441  144.4081  157.6064 H   0  0  0  0  0  0  0  0  0  0  0  0
  1  2  1  0  0  0  0
  1 22  1  0  0  0  0
  1 23  1  0  0  0  0
  1 24  1  0  0  0  0
  2 21  2  0  0  0  0
  2  3  1  0  0  0  0
  3  4  2  0  0  0  0
  3 25  1  0  0  0  0
  4  5  1  0  0  0  0
  4  6  1  0  0  0  0
  5 26  1  0  0  0  0
  5 27  1  0  0  0  0
  5 28  1  0  0  0  0
  6  7  1  0  0  0  0
  6 21  1  0  0  0  0
  7  8  1  0  0  0  0
  7 29  1  0  0  0  0
  7 30  1  0  0  0  0
  8  9  2  0  0  0  0
  8 10  1  0  0  0  0
 10 11  1  0  0  0  0
 10 31  1  0  0  0  0
 11 12  1  0  0  0  0
 11 32  1  0  0  0  0
 11 33  1  0  0  0  0
 12 13  1  0  0  0  0
 12 34  1  0  0  0  0
 12 35  1  0  0  0  0
 13 20  1  0  0  0  0
 13 14  1  0  0  0  0
 13 48  1  0  0  0  0
 14 15  1  0  0  0  0
 14 36  1  0  0  0  0
 14 37  1  0  0  0  0
 15 16  1  0  0  0  0
 15 17  1  0  0  0  0
 15 38  1  0  0  0  0
 16 39  1  0  0  0  0
 16 40  1  0  0  0  0
 16 41  1  0  0  0  0
 17 18  1  0  0  0  0
 18 19  1  0  0  0  0
 18 20  1  0  0  0  0
 18 42  1  0  0  0  0
 19 43  1  0  0  0  0
 19 44  1  0  0  0  0
 19 45  1  0  0  0  0
 20 46  1  0  0  0  0
 20 47  1  0  0  0  0
M  CHG  1  13   1
M  END
> <s_m_source_file>
AV-unprocessed.smi

> <i_m_source_file_index>
2106

> <i_lp_mmshare_version>
43012

> <i_f3d_flags>
0

> <s_epik_input>
W0NIM11jMVtjSF1jKFtDSDNdKW4objEpW0NIMl1DKD1PKVtOSF1bQ0gyXVtDSDJdTjJbQ0gyXVtDQEBIXShbQ0gzXSlPW0NAQEhdKFtDSDNdKVtDSDJdMg==

> <s_epik_cmdline>
J2VwaWtfcHl0aG9uJywgJy1waCcsICc3LjAnLCAnLXRuJywgJzgnLCAnLW1hJywgJzIwMCcsICctbWV0YWxfYmluZGluZycsICctaW1hZScsICc8aW5maWxlLm1hZT4nLCAnLW9tYWUnLCAnPG91dGZpbGUubWFlPic=

> <r_lp_tautomer_probability>
1

> <r_epik_Ionization_Penalty>
0.748586

> <r_epik_Ionization_Penalty_Charging>
0.748396

> <r_epik_Ionization_Penalty_Neutral>
0.000189656

> <r_epik_State_Penalty>
0.775162

> <r_epik_Charging_Adjusted_Penalty>
1.52356

> <i_epik_Tot_Q>
1

> <i_epik_Tot_abs_Q>
1

> <r_epik_Metal_State_Penalty>
0.775295

> <b_epik_Metal_Only>
0

> <s_lp_Force_Field>
OPLS_2005

> <r_lp_Energy>
12.4658

> <b_lp_Chiralities_Consistent>
1

> <s_lp_Variant>
AV-unprocessed.smi:2106-4

> <Gold.Version>
5.8.1

> <Gold.Id.Protein>
6NUR|6NUR_protein|mol2

> <Gold.PLP.Fitness>
47.0551

> <Gold.PLP.PLP>
-39.0848

> <Gold.PLP.part.hbond>
-2.0000

> <Gold.PLP.part.metal>
0.0000

> <Gold.PLP.part.buried>
-6.5403

> <Gold.PLP.part.nonpolar>
-30.3014

> <Gold.PLP.part.repulsive>
0.1371

> <Gold.PLP.ligand.clash>
0.0000

> <Gold.PLP.ligand.torsion>
0.5269

> <Gold.PLP.Chemscore.Hbond>
3.0000

> <Gold.PLP.Chemscore.CHOScore>
0.0000

> <Gold.PLP.Chemscore.Metal>
0.0000

> <Gold.Chemscore.Hbonds>
donor molecule, donor type, donor heavy atom, donor atom, acceptor molecule, acceptor atom, score
      L1  H    10    31       P1  8028  1.00
      L1  H    13    48       P1  8029  1.00

> <Gold.PLP.Chemscore.Internal.Correction>
0.0240

> <Gold.Rescore>
     Score         DG    S(hbond)    S(metal)    S(lipo)     H(rot)  DE(clash)    DE(int)     intcor
     16.16     -17.16       1.51        0.00      94.53       1.73       0.02       0.98       ----

> <Gold.Chemscore.Fitness>
16.1586

> <Gold.Chemscore.DG>
-17.1597

> <Gold.Chemscore.ZeroCoef>
-5.4800

> <Gold.Chemscore.Hbond>
1.5128

> <Gold.Chemscore.Metal>
0.0000

> <Gold.Chemscore.Lipo>
94.5299

> <Gold.Chemscore.Internal_Hbond>
0.0000

> <Gold.Chemscore.DEClash>
0.0230

> <Gold.Chemscore.DEInternal>
0.9781

> <Gold.Chemscore.Rot>
1.7316

> <Gold.Chemscore.Internal.Correction>
   9.000000E+99

> <Gold.Chemscore.Hbonds>
donor molecule, donor type, donor heavy atom, donor atom, acceptor molecule, acceptor atom, score
      L1  H    10    31       P1  8028  0.70
      L1  H    13    48       P1  8029  0.06

> <Gold.Chemscore.Hbond.Weighted>
-5.0527

> <Gold.Chemscore.Metal.Weighted>
-0.0000

> <Gold.Chemscore.Lipo.Weighted>
-11.0600

> <Gold.Chemscore.Internal_Hbond.Weighted>
0.0000

> <Gold.Chemscore.DEClash.Weighted>
0.0230

> <Gold.Chemscore.DEInternal.Weighted>
0.9781

> <Gold.Chemscore.Rot.Weighted>
4.4330

> <Gold.Chemscore.Internal.Correction.Weighted>
   9.000000E+99

> <Gold.Protein.RotatedTorsions>
[ 6907 6896 6895 6894 ] final   -3.71 input  -60.11 | X-H torsion
[ 7974 7965 7964 7962 ] final  100.55 input  175.53 | X-H torsion
[ 8008 7997 7996 7995 ] final -126.59 input   59.86 | X-H torsion
[ 10167 10162 10161 10158 ] final   23.45 input  -65.29 | X-H torsion
[ 10718 10713 10712 10709 ] final   10.68 input   66.30 | X-H torsion
[ 10763 10752 10751 10750 ] final  -80.91 input  -60.55 | X-H torsion
[ 11005 11000 10999 10996 ] final  159.88 input  -57.11 | X-H torsion

> <Gold.Protein.ActiveResidues>
 VAL166  LYS551  ARG553  GLY616  TRP617  ASP618  TYR619  PRO620  LYS621  CYS622 
 ASP623  PHE694  ASN695  SER759  ASP760  ASP761  ALA762  ILE779  LEU786  VAL792 
 PHE793  MET794  SER795  GLU796  ALA797  LYS798  CYS799  TRP800  GLU811  SER814 

> <Gold.Protein.RotatedAtoms>
  151.5093  135.1064  159.9849 H   0  0  0  0  0  0  0  0  0  0  0  0  # atno 6907 bound_to 6896
  152.4668  133.7937  159.6926 H   0  0  0  0  0  0  0  0  0  0  0  0  # atno 6908 bound_to 6896
  150.8656  133.7516  159.3003 H   0  0  0  0  0  0  0  0  0  0  0  0  # atno 6909 bound_to 6896
  145.3841  139.2374  143.3387 H   0  0  0  0  0  0  0  0  0  0  0  0  # atno 7974 bound_to 7965
  155.2321  140.0425  157.2963 H   0  0  0  0  0  0  0  0  0  0  0  0  # atno 8008 bound_to 7997
  154.5881  140.2419  155.7929 H   0  0  0  0  0  0  0  0  0  0  0  0  # atno 8009 bound_to 7997
  156.2240  140.2960  156.0031 H   0  0  0  0  0  0  0  0  0  0  0  0  # atno 8010 bound_to 7997
  140.5268  143.9910  150.6444 H   0  0  0  0  0  0  0  0  0  0  0  0  # atno 10167 bound_to 10162
  156.9845  130.6018  149.5680 H   0  0  0  0  0  0  0  0  0  0  0  0  # atno 10718 bound_to 10713
  154.5570  135.5645  153.6973 H   0  0  0  0  0  0  0  0  0  0  0  0  # atno 10763 bound_to 10752
  153.0006  135.6264  154.2296 H   0  0  0  0  0  0  0  0  0  0  0  0  # atno 10764 bound_to 10752
  154.2233  135.2869  155.2896 H   0  0  0  0  0  0  0  0  0  0  0  0  # atno 10765 bound_to 10752
  140.2005  134.8341  157.3012 H   0  0  0  0  0  0  0  0  0  0  0  0  # atno 11005 bound_to 11000
  146.2828  140.4514  142.8769 LP  0  0  0  0  0  0  0  0  0  0  0  0  # atno 17320 bound_to 7965
  144.8486  140.6967  143.6183 LP  0  0  0  0  0  0  0  0  0  0  0  0  # atno 17321 bound_to 7965
  140.3274  143.3099  152.0723 LP  0  0  0  0  0  0  0  0  0  0  0  0  # atno 17342 bound_to 10162
  139.4941  144.6533  151.6628 LP  0  0  0  0  0  0  0  0  0  0  0  0  # atno 17343 bound_to 10162
  156.0231  130.5326  150.8332 LP  0  0  0  0  0  0  0  0  0  0  0  0  # atno 17370 bound_to 10713
  157.5503  131.0943  150.9705 LP  0  0  0  0  0  0  0  0  0  0  0  0  # atno 17371 bound_to 10713
  140.2060  134.4197  155.7637 LP  0  0  0  0  0  0  0  0  0  0  0  0  # atno 17394 bound_to 11000
  141.2227  133.7095  156.8261 LP  0  0  0  0  0  0  0  0  0  0  0  0  # atno 17395 bound_to 11000

$$$$
