AV-unprocessed.smi:332|AV-procd|sdf|2354|dock6
  -GOLD-   2262022263D 1   1.00000     0.00000
 Structure written by MMmdl.
 42 44  0  0  0  0  0  0  0  0  1 V2000
  150.3161  136.4322  155.4724 C   0  0  0  0  0  0  0  0  0  0  0  0
  149.6219  137.4685  156.3694 C   0  0  2  0  0  0  0  0  0  0  0  0
  148.5180  136.8135  157.0701 N   0  0  0  0  0  0  0  0  0  0  0  0
  148.5814  136.2233  158.2741 C   0  0  0  0  0  0  0  0  0  0  0  0
  149.6064  136.1795  158.9559 O   0  0  0  0  0  0  0  0  0  0  0  0
  147.2694  135.6119  158.7860 C   0  0  0  0  0  0  0  0  0  0  0  0
  147.3485  135.1373  160.1775 N   0  0  0  0  0  0  0  0  0  0  0  0
  147.2257  133.7494  160.3896 C   0  0  0  0  0  0  0  0  0  0  0  0
  147.2818  133.2112  161.6182 C   0  0  0  0  0  0  0  0  0  0  0  0
  147.4738  134.0958  162.7429 C   0  0  0  0  0  0  0  0  0  0  0  0
  147.5885  135.4252  162.5516 C   0  0  0  0  0  0  0  0  0  0  0  0
  147.5262  136.0180  161.2104 C   0  0  0  0  0  0  0  0  0  0  0  0
  147.6286  137.2314  161.0270 O   0  0  0  0  0  0  0  0  0  0  0  0
  149.0878  138.6814  155.5689 C   0  0  1  0  0  0  0  0  0  0  0  0
  148.4189  139.7863  156.4202 C   0  0  0  0  0  0  0  0  0  0  0  0
  149.0930  141.0738  155.9117 C   0  0  1  0  0  0  0  0  0  0  0  0
  150.5312  141.1352  156.4579 C   0  0  0  0  0  0  0  0  0  0  0  0
  151.2517  140.0554  155.6305 C   0  0  0  0  0  0  0  0  0  0  0  0
  150.1218  139.4899  154.7453 C   0  0  2  0  0  0  0  0  0  0  0  0
  149.3278  140.7563  154.4397 C   0  0  0  0  0  0  0  0  0  0  0  0
  151.1914  136.8555  154.9798 H   0  0  0  0  0  0  0  0  0  0  0  0
  149.6440  136.0616  154.6978 H   0  0  0  0  0  0  0  0  0  0  0  0
  150.6567  135.5758  156.0555 H   0  0  0  0  0  0  0  0  0  0  0  0
  150.3549  137.8149  157.0982 H   0  0  0  0  0  0  0  0  0  0  0  0
  147.6280  136.8044  156.5931 H   0  0  0  0  0  0  0  0  0  0  0  0
  146.4835  136.3611  158.6821 H   0  0  0  0  0  0  0  0  0  0  0  0
  146.9711  134.7934  158.1279 H   0  0  0  0  0  0  0  0  0  0  0  0
  147.0774  133.1582  159.4975 H   0  0  0  0  0  0  0  0  0  0  0  0
  147.1820  132.1452  161.7615 H   0  0  0  0  0  0  0  0  0  0  0  0
  147.5242  133.6900  163.7425 H   0  0  0  0  0  0  0  0  0  0  0  0
  147.7299  136.0717  163.4052 H   0  0  0  0  0  0  0  0  0  0  0  0
  148.3411  138.3057  154.8662 H   0  0  0  0  0  0  0  0  0  0  0  0
  147.3433  139.8078  156.2406 H   0  0  0  0  0  0  0  0  0  0  0  0
  148.5708  139.6545  157.4920 H   0  0  0  0  0  0  0  0  0  0  0  0
  148.5135  141.9771  156.1041 H   0  0  0  0  0  0  0  0  0  0  0  0
  150.9756  142.1153  156.2797 H   0  0  0  0  0  0  0  0  0  0  0  0
  150.5764  140.9370  157.5296 H   0  0  0  0  0  0  0  0  0  0  0  0
  152.0250  140.5115  155.0107 H   0  0  0  0  0  0  0  0  0  0  0  0
  151.7397  139.3030  156.2485 H   0  0  0  0  0  0  0  0  0  0  0  0
  150.4827  138.9638  153.8611 H   0  0  0  0  0  0  0  0  0  0  0  0
  148.4063  140.5705  153.8847 H   0  0  0  0  0  0  0  0  0  0  0  0
  149.9098  141.5198  153.9199 H   0  0  0  0  0  0  0  0  0  0  0  0
  1  2  1  0  0  0  0
  1 21  1  0  0  0  0
  1 22  1  0  0  0  0
  1 23  1  0  0  0  0
  2  3  1  0  0  0  0
  2 14  1  0  0  0  0
  2 24  1  0  0  0  0
  3  4  1  0  0  0  0
  3 25  1  0  0  0  0
  4  5  2  0  0  0  0
  4  6  1  0  0  0  0
  6  7  1  0  0  0  0
  6 26  1  0  0  0  0
  6 27  1  0  0  0  0
  7 12  1  0  0  0  0
  7  8  1  0  0  0  0
  8  9  2  0  0  0  0
  8 28  1  0  0  0  0
  9 10  1  0  0  0  0
  9 29  1  0  0  0  0
 10 11  2  0  0  0  0
 10 30  1  0  0  0  0
 11 12  1  0  0  0  0
 11 31  1  0  0  0  0
 12 13  2  0  0  0  0
 14 19  1  0  0  0  0
 14 15  1  0  0  0  0
 14 32  1  0  0  0  0
 15 16  1  0  0  0  0
 15 33  1  0  0  0  0
 15 34  1  0  0  0  0
 16 20  1  0  0  0  0
 16 17  1  0  0  0  0
 16 35  1  0  0  0  0
 17 18  1  0  0  0  0
 17 36  1  0  0  0  0
 17 37  1  0  0  0  0
 18 19  1  0  0  0  0
 18 38  1  0  0  0  0
 18 39  1  0  0  0  0
 19 20  1  0  0  0  0
 19 40  1  0  0  0  0
 20 41  1  0  0  0  0
 20 42  1  0  0  0  0
M  END
> <s_m_source_file>
AV-unprocessed.smi

> <i_m_source_file_index>
332

> <i_lp_mmshare_version>
43012

> <i_f3d_flags>
0

> <s_epik_input>
W0NIMl0xW0NIMl1bQ0BIXShbQ0gyXTIpW0NAQEhdKFtDSDJdW0NAQEhdMTIpW0NASF0oW0NIM10pW05IXUMoPU8pW0NIMl1uM1tjSF1bY0hdW2NIXVtjSF1jMz1P

> <s_epik_cmdline>
J2VwaWtfcHl0aG9uJywgJy1waCcsICc3LjAnLCAnLXRuJywgJzgnLCAnLW1hJywgJzIwMCcsICctbWV0YWxfYmluZGluZycsICctaW1hZScsICc8aW5maWxlLm1hZT4nLCAnLW9tYWUnLCAnPG91dGZpbGUubWFlPic=

> <r_lp_tautomer_probability>
1

> <r_epik_Ionization_Penalty>
4.05802e-07

> <r_epik_Ionization_Penalty_Charging>
3.84175e-07

> <r_epik_Ionization_Penalty_Neutral>
2.16269e-08

> <r_epik_State_Penalty>
-0

> <r_epik_Charging_Adjusted_Penalty>
3.84175e-07

> <i_epik_Tot_Q>
0

> <i_epik_Tot_abs_Q>
0

> <r_epik_Metal_State_Penalty>
-0

> <b_epik_Metal_Only>
0

> <s_lp_Force_Field>
OPLS_2005

> <r_lp_Energy>
60.6012

> <b_lp_Chiralities_Consistent>
1

> <s_lp_Variant>
AV-unprocessed.smi:332-3

> <Gold.Version>
5.8.1

> <Gold.Id.Protein>
6NUR|6NUR_protein|mol2

> <Gold.PLP.Fitness>
42.3136

> <Gold.PLP.PLP>
-34.8174

> <Gold.PLP.part.hbond>
-3.0000

> <Gold.PLP.part.metal>
0.0000

> <Gold.PLP.part.buried>
-2.3908

> <Gold.PLP.part.nonpolar>
-29.6264

> <Gold.PLP.part.repulsive>
0.0096

> <Gold.PLP.ligand.clash>
0.0000

> <Gold.PLP.ligand.torsion>
0.4472

> <Gold.PLP.Chemscore.Hbond>
2.7920

> <Gold.PLP.Chemscore.CHOScore>
0.0000

> <Gold.PLP.Chemscore.Metal>
0.0000

> <Gold.Chemscore.Hbonds>
donor molecule, donor type, donor heavy atom, donor atom, acceptor molecule, acceptor atom, score
      P1  H  6896  6909       L1     5  1.00
      P1  H  6931  6943       L1    13  0.86
      P1  H  6934  6947       L1    13  0.91

> <Gold.PLP.Chemscore.Internal.Correction>
0.0146

> <Gold.Rescore>
     Score         DG    S(hbond)    S(metal)    S(lipo)     H(rot)  DE(clash)    DE(int)     intcor
     19.39     -19.91       2.79        0.00      77.46       1.54       0.04       0.48       ----

> <Gold.Chemscore.Fitness>
19.3897

> <Gold.Chemscore.DG>
-19.9078

> <Gold.Chemscore.ZeroCoef>
-5.4800

> <Gold.Chemscore.Hbond>
2.7866

> <Gold.Chemscore.Metal>
0.0000

> <Gold.Chemscore.Lipo>
77.4576

> <Gold.Chemscore.Internal_Hbond>
0.0000

> <Gold.Chemscore.DEClash>
0.0368

> <Gold.Chemscore.DEInternal>
0.4814

> <Gold.Chemscore.Rot>
1.5398

> <Gold.Chemscore.Internal.Correction>
   9.000000E+99

> <Gold.Chemscore.Hbonds>
donor molecule, donor type, donor heavy atom, donor atom, acceptor molecule, acceptor atom, score
      P1  H  6896  6909       L1     5  0.99
      P1  H  6931  6943       L1    13  0.83
      P1  H  6934  6947       L1    13  0.90

> <Gold.Chemscore.Hbond.Weighted>
-9.3072

> <Gold.Chemscore.Metal.Weighted>
-0.0000

> <Gold.Chemscore.Lipo.Weighted>
-9.0625

> <Gold.Chemscore.Internal_Hbond.Weighted>
0.0000

> <Gold.Chemscore.DEClash.Weighted>
0.0368

> <Gold.Chemscore.DEInternal.Weighted>
0.4814

> <Gold.Chemscore.Rot.Weighted>
3.9419

> <Gold.Chemscore.Internal.Correction.Weighted>
   9.000000E+99

> <Gold.Protein.RotatedTorsions>
[ 6907 6896 6895 6894 ] final   67.77 input  -60.11 | X-H torsion
[ 7974 7965 7964 7962 ] final   -1.54 input  175.53 | X-H torsion
[ 8008 7997 7996 7995 ] final -115.18 input   59.86 | X-H torsion
[ 10167 10162 10161 10158 ] final  -57.22 input  -65.29 | X-H torsion
[ 10718 10713 10712 10709 ] final    7.99 input   66.30 | X-H torsion
[ 10763 10752 10751 10750 ] final   78.33 input  -60.55 | X-H torsion
[ 11005 11000 10999 10996 ] final  112.58 input  -57.11 | X-H torsion

> <Gold.Protein.ActiveResidues>
 VAL166  LYS551  ARG553  GLY616  TRP617  ASP618  TYR619  PRO620  LYS621  CYS622 
 ASP623  PHE694  ASN695  SER759  ASP760  ASP761  ALA762  ILE779  LEU786  VAL792 
 PHE793  MET794  SER795  GLU796  ALA797  LYS798  CYS799  TRP800  GLU811  SER814 

> <Gold.Protein.RotatedAtoms>
  152.4575  134.5259  159.9796 H   0  0  0  0  0  0  0  0  0  0  0  0  # atno 6907 bound_to 6896
  151.5317  133.3442  159.2927 H   0  0  0  0  0  0  0  0  0  0  0  0  # atno 6908 bound_to 6896
  150.8524  134.7883  159.7082 H   0  0  0  0  0  0  0  0  0  0  0  0  # atno 6909 bound_to 6896
  146.2416  140.1436  142.8335 H   0  0  0  0  0  0  0  0  0  0  0  0  # atno 7974 bound_to 7965
  155.0480  140.0392  157.2533 H   0  0  0  0  0  0  0  0  0  0  0  0  # atno 8008 bound_to 7997
  154.7161  140.2702  155.6560 H   0  0  0  0  0  0  0  0  0  0  0  0  # atno 8009 bound_to 7997
  156.2803  140.2712  156.1818 H   0  0  0  0  0  0  0  0  0  0  0  0  # atno 8010 bound_to 7997
  140.6271  143.2443  151.5336 H   0  0  0  0  0  0  0  0  0  0  0  0  # atno 10167 bound_to 10162
  156.9450  130.5875  149.5654 H   0  0  0  0  0  0  0  0  0  0  0  0  # atno 10718 bound_to 10713
  153.0866  135.4881  154.8609 H   0  0  0  0  0  0  0  0  0  0  0  0  # atno 10763 bound_to 10752
  154.7218  135.3041  154.9037 H   0  0  0  0  0  0  0  0  0  0  0  0  # atno 10764 bound_to 10752
  153.9699  135.6802  153.4800 H   0  0  0  0  0  0  0  0  0  0  0  0  # atno 10765 bound_to 10752
  139.8931  134.9532  156.6607 H   0  0  0  0  0  0  0  0  0  0  0  0  # atno 11005 bound_to 11000
  145.0226  140.8806  143.5157 LP  0  0  0  0  0  0  0  0  0  0  0  0  # atno 17320 bound_to 7965
  145.1487  139.2528  143.5452 LP  0  0  0  0  0  0  0  0  0  0  0  0  # atno 17321 bound_to 7965
  139.5490  144.2446  152.1495 LP  0  0  0  0  0  0  0  0  0  0  0  0  # atno 17342 bound_to 10162
  140.1680  144.4963  150.6595 LP  0  0  0  0  0  0  0  0  0  0  0  0  # atno 17343 bound_to 10162
  156.0387  130.5472  150.8719 LP  0  0  0  0  0  0  0  0  0  0  0  0  # atno 17370 bound_to 10713
  157.5760  131.0946  150.9346 LP  0  0  0  0  0  0  0  0  0  0  0  0  # atno 17371 bound_to 10713
  140.7449  133.8946  155.8305 LP  0  0  0  0  0  0  0  0  0  0  0  0  # atno 17394 bound_to 11000
  141.0047  134.1102  157.4282 LP  0  0  0  0  0  0  0  0  0  0  0  0  # atno 17395 bound_to 11000

$$$$
