#       Name:                AV-unprocessed.smi:3284
#       Creating user name   scv26
#       Creation time:       Fri Mar 27 18:49:39 2020


#       File generated by GOLD software.
#

@<TRIPOS>MOLECULE
AV-unprocessed.smi:3284
    45    46     1
SMALL
NO_CHARGES


@<TRIPOS>ATOM
      1 ****        -0.6860   1.6210   2.4521 C.3            1 S1                 0.0000
      2 ****        -1.7435   1.9494   1.4111 C.2            1 S1                 0.0000
      3 ****        -2.9173   2.4844   1.7977 C.2            1 S1                 0.0000
      4 ****        -4.0091   2.9194   0.8483 C.3            1 S1                 0.0000
      5 ****        -3.4502   3.1604  -0.5556 C.3            1 S1                 0.0000
      6 ****        -2.5970   1.9735  -1.0315 C.3            1 S1                 0.0000
      7 ****        -2.1342   2.2248  -2.4797 C.3            1 S1                 0.0000
      8 ****        -1.4070   1.6712  -0.0686 C.3            1 S1                 0.0000
      9 ****        -0.8881   0.2278  -0.3049 C.3            1 S1                 0.0000
     10 ****         0.4944   0.0258   0.1751 N.4            1 S1                 1.0000
     11 ****         0.9782  -1.3625   0.0518 C.3            1 S1                 0.0000
     12 ****         2.4096  -1.4962   0.5860 C.3            1 S1                 0.0000
     13 ****         2.9180  -2.9017   0.5047 C.2            1 S1                 0.0000
     14 ****         2.6880  -3.8196   1.4381 N.2            1 S1                 0.0000
     15 ****         3.3083  -4.9708   0.9648 C.2            1 S1                 0.0000
     16 ****         3.8887  -4.7078  -0.2524 C.2            1 S1                 0.0000
     17 ****         3.6249  -3.3752  -0.5398 N.pl3          1 S1                 0.0000
     18 ****         4.0392  -2.6637  -1.7333 C.3            1 S1                 0.0000
     19 ****         0.2747   2.0537   2.1721 H              1 S1                 0.0000
     20 ****        -0.5722   0.5432   2.5651 H              1 S1                 0.0000
     21 ****        -0.9550   2.0222   3.4300 H              1 S1                 0.0000
     22 ****        -3.1191   2.6406   2.8476 H              1 S1                 0.0000
     23 ****        -4.7856   2.1541   0.8325 H              1 S1                 0.0000
     24 ****        -4.4670   3.8346   1.2244 H              1 S1                 0.0000
     25 ****        -4.2752   3.3405  -1.2459 H              1 S1                 0.0000
     26 ****        -2.8450   4.0683  -0.5553 H              1 S1                 0.0000
     27 ****        -3.2524   1.1007  -1.0409 H              1 S1                 0.0000
     28 ****        -1.4612   3.0809  -2.5361 H              1 S1                 0.0000
     29 ****        -2.9845   2.4348  -3.1292 H              1 S1                 0.0000
     30 ****        -1.6158   1.3679  -2.9069 H              1 S1                 0.0000
     31 ****        -0.6057   2.3684  -0.3188 H              1 S1                 0.0000
     32 ****        -1.5544  -0.4855   0.1826 H              1 S1                 0.0000
     33 ****        -0.8943  -0.0243  -1.3641 H              1 S1                 0.0000
     34 ****         1.1091   0.6330  -0.3478 H              1 S1                 0.0000
     35 ****         0.3118  -2.0245   0.6065 H              1 S1                 0.0000
     36 ****         0.9392  -1.6669  -0.9948 H              1 S1                 0.0000
     37 ****         3.0822  -0.8304   0.0446 H              1 S1                 0.0000
     38 ****         2.4452  -1.1798   1.6293 H              1 S1                 0.0000
     39 ****         3.2881  -5.8907   1.5303 H              1 S1                 0.0000
     40 ****         4.4504  -5.3442  -0.9205 H              1 S1                 0.0000
     41 ****         4.5128  -3.3507  -2.4353 H              1 S1                 0.0000
     42 ****         4.7530  -1.8837  -1.4681 H              1 S1                 0.0000
     43 ****         3.1724  -2.2112  -2.2150 H              1 S1                 0.0000
     44 ****         0.5319   0.2895   1.1495 H              1 S1                 0.0000
     45 ****         2.1807  -3.7072   2.2925 LP             1 S1                 0.0000
@<TRIPOS>BOND
    1    1    2 1     
    2    1   19 1     
    3    1   20 1     
    4    1   21 1     
    5    2    8 1     
    6    2    3 2     
    7    3    4 1     
    8    3   22 1     
    9    4    5 1     
   10    4   23 1     
   11    4   24 1     
   12    5    6 1     
   13    5   25 1     
   14    5   26 1     
   15    6    7 1     
   16    6    8 1     
   17    6   27 1     
   18    7   28 1     
   19    7   29 1     
   20    7   30 1     
   21    8    9 1     
   22    8   31 1     
   23    9   10 1     
   24    9   32 1     
   25    9   33 1     
   26   10   11 1     
   27   10   34 1     
   28   10   44 1     
   29   11   12 1     
   30   11   35 1     
   31   11   36 1     
   32   12   13 1     
   33   12   37 1     
   34   12   38 1     
   35   13   17 1     
   36   13   14 2     
   37   14   15 1     
   38   15   16 2     
   39   15   39 1     
   40   16   17 1     
   41   16   40 1     
   42   17   18 1     
   43   18   41 1     
   44   18   42 1     
   45   18   43 1     
   46   14   45 1     
@<TRIPOS>SUBSTRUCTURE
      1 S1             1
@<TRIPOS>SET
LONE_PAIRS      STATIC     ATOMS    <user>   **** ""
1 45
DONOR_HYDROGENS      STATIC     ATOMS    <user>   **** ""
2 34 44
ATOM$BLUE        STATIC     ATOMS    COLORGROUP SYSTEM
1 45
ATOM$RED        STATIC     ATOMS    COLORGROUP SYSTEM
2 34 44
