AV-unprocessed.smi:3091|AV-procd|sdf|11780|dock6
  -GOLD-   2272017163D 1   1.00000     0.00000
 Structure written by MMmdl.
 28 29  0  0  0  0  0  0  0  0  1 V2000
  147.2090  138.4316  151.3296 N   0  0  0  0  0  0  0  0  0  0  0  0
  146.5507  138.8520  152.5497 C   0  0  0  0  0  0  0  0  0  0  0  0
  147.3772  139.8525  153.3295 C   0  0  0  0  0  0  0  0  0  0  0  0
  146.8298  141.0943  153.7082 C   0  0  0  0  0  0  0  0  0  0  0  0
  147.6431  141.9938  154.4240 C   0  0  0  0  0  0  0  0  0  0  0  0
  148.9220  141.7266  154.7639 N   0  0  0  0  0  0  0  0  0  0  0  0
  149.4501  140.5327  154.3943 C   0  0  0  0  0  0  0  0  0  0  0  0
  150.7573  140.2427  154.7315 O   0  0  0  0  0  0  0  0  0  0  0  0
  151.0634  139.0010  155.3697 C   0  0  2  0  0  0  0  0  0  0  0  0
  150.9422  139.1190  156.8835 C   0  0  0  0  0  0  0  0  0  0  0  0
  152.3241  139.6130  157.2842 C   0  0  0  0  0  0  0  0  0  0  0  0
  153.1838  138.8680  156.4388 O   0  0  0  0  0  0  0  0  0  0  0  0
  152.5600  138.7207  155.1664 C   0  0  0  0  0  0  0  0  0  0  0  0
  148.7137  139.5682  153.6765 C   0  0  0  0  0  0  0  0  0  0  0  0
  146.5482  138.4529  150.5659 H   0  0  0  0  0  0  0  0  0  0  0  0
  147.9444  139.0831  151.0964 H   0  0  0  0  0  0  0  0  0  0  0  0
  145.5809  139.2854  152.3034 H   0  0  0  0  0  0  0  0  0  0  0  0
  146.3597  137.9757  153.1698 H   0  0  0  0  0  0  0  0  0  0  0  0
  145.8119  141.3530  153.4561 H   0  0  0  0  0  0  0  0  0  0  0  0
  147.2565  142.9543  154.7310 H   0  0  0  0  0  0  0  0  0  0  0  0
  150.4663  138.1823  154.9648 H   0  0  0  0  0  0  0  0  0  0  0  0
  150.1424  139.7812  157.2149 H   0  0  0  0  0  0  0  0  0  0  0  0
  150.7656  138.1344  157.3180 H   0  0  0  0  0  0  0  0  0  0  0  0
  152.4336  140.6778  157.0728 H   0  0  0  0  0  0  0  0  0  0  0  0
  152.5471  139.4430  158.3375 H   0  0  0  0  0  0  0  0  0  0  0  0
  152.7314  137.7085  154.7997 H   0  0  0  0  0  0  0  0  0  0  0  0
  153.0050  139.4126  154.4502 H   0  0  0  0  0  0  0  0  0  0  0  0
  149.1693  138.6294  153.3975 H   0  0  0  0  0  0  0  0  0  0  0  0
  1  2  1  0  0  0  0
  1 15  1  0  0  0  0
  1 16  1  0  0  0  0
  2  3  1  0  0  0  0
  2 17  1  0  0  0  0
  2 18  1  0  0  0  0
  3 14  1  0  0  0  0
  3  4  2  0  0  0  0
  4  5  1  0  0  0  0
  4 19  1  0  0  0  0
  5  6  2  0  0  0  0
  5 20  1  0  0  0  0
  6  7  1  0  0  0  0
  7  8  1  0  0  0  0
  7 14  2  0  0  0  0
  8  9  1  0  0  0  0
  9 13  1  0  0  0  0
  9 10  1  0  0  0  0
  9 21  1  0  0  0  0
 10 11  1  0  0  0  0
 10 22  1  0  0  0  0
 10 23  1  0  0  0  0
 11 12  1  0  0  0  0
 11 24  1  0  0  0  0
 11 25  1  0  0  0  0
 12 13  1  0  0  0  0
 13 26  1  0  0  0  0
 13 27  1  0  0  0  0
 14 28  1  0  0  0  0
M  END
> <s_m_source_file>
AV-unprocessed.smi

> <i_m_source_file_index>
3091

> <i_lp_mmshare_version>
43012

> <i_f3d_flags>
0

> <s_epik_input>
W05IMl1bQ0gyXWMxW2NIXVtjSF1uYyhbY0hdMSlPW0NAQEhdMltDSDJdW0NIMl1PW0NIMl0y

> <s_epik_cmdline>
J2VwaWtfcHl0aG9uJywgJy1waCcsICc3LjAnLCAnLXRuJywgJzgnLCAnLW1hJywgJzIwMCcsICctbWV0YWxfYmluZGluZycsICctaW1hZScsICc8aW5maWxlLm1hZT4nLCAnLW9tYWUnLCAnPG91dGZpbGUubWFlPic=

> <r_lp_tautomer_probability>
1

> <r_epik_Ionization_Penalty>
1.24495

> <r_epik_Ionization_Penalty_Charging>
0

> <r_epik_Ionization_Penalty_Neutral>
1.24495

> <r_epik_State_Penalty>
1.3141

> <r_epik_Charging_Adjusted_Penalty>
1.3141

> <i_epik_Tot_Q>
0

> <i_epik_Tot_abs_Q>
0

> <r_epik_Metal_State_Penalty>
1.31398

> <b_epik_Metal_Only>
0

> <s_lp_Force_Field>
OPLS_2005

> <r_lp_Energy>
14.7712

> <b_lp_Chiralities_Consistent>
1

> <s_lp_Variant>
AV-unprocessed.smi:3091-3

> <Gold.Version>
5.8.1

> <Gold.Id.Protein>
6NUR|6NUR_protein|mol2

> <Gold.PLP.Fitness>
37.6173

> <Gold.PLP.PLP>
-27.0225

> <Gold.PLP.part.hbond>
-5.0000

> <Gold.PLP.part.metal>
0.0000

> <Gold.PLP.part.buried>
0.5022

> <Gold.PLP.part.nonpolar>
-23.0695

> <Gold.PLP.part.repulsive>
0.4794

> <Gold.PLP.ligand.clash>
0.0000

> <Gold.PLP.ligand.torsion>
0.3936

> <Gold.PLP.Chemscore.Hbond>
3.0000

> <Gold.PLP.Chemscore.CHOScore>
0.7882

> <Gold.PLP.Chemscore.Metal>
0.0000

> <Gold.Chemscore.Hbonds>
donor molecule, donor type, donor heavy atom, donor atom, acceptor molecule, acceptor atom, score
      L1  H     1    16       P1  7957  1.00
      P1  H  7989  7998       L1     8  1.00
      P1  H  7997  8010       L1    12  0.75
      L1  C     5    20       P1  8028  0.81

> <Gold.PLP.Chemscore.Internal.Correction>
0.0174

> <Gold.Rescore>
     Score         DG    S(hbond)    S(metal)    S(lipo)     H(rot)  DE(clash)    DE(int)     intcor
     12.15     -12.84       1.49        0.00      54.27       1.54       0.15       0.55       ----

> <Gold.Chemscore.Fitness>
12.1467

> <Gold.Chemscore.DG>
-12.8438

> <Gold.Chemscore.ZeroCoef>
-5.4800

> <Gold.Chemscore.Hbond>
1.4859

> <Gold.Chemscore.Metal>
0.0000

> <Gold.Chemscore.Lipo>
54.2701

> <Gold.Chemscore.Internal_Hbond>
0.0000

> <Gold.Chemscore.DEClash>
0.1494

> <Gold.Chemscore.DEInternal>
0.5477

> <Gold.Chemscore.Rot>
1.5424

> <Gold.Chemscore.Internal.Correction>
   9.000000E+99

> <Gold.Chemscore.Hbonds>
donor molecule, donor type, donor heavy atom, donor atom, acceptor molecule, acceptor atom, score
      L1  H     1    16       P1  7957  0.45
      P1  H  7989  7998       L1     8  0.44
      P1  H  7997  8010       L1    12  0.05

> <Gold.Chemscore.Hbond.Weighted>
-4.9628

> <Gold.Chemscore.Metal.Weighted>
-0.0000

> <Gold.Chemscore.Lipo.Weighted>
-6.3496

> <Gold.Chemscore.Internal_Hbond.Weighted>
0.0000

> <Gold.Chemscore.DEClash.Weighted>
0.1494

> <Gold.Chemscore.DEInternal.Weighted>
0.5477

> <Gold.Chemscore.Rot.Weighted>
3.9487

> <Gold.Chemscore.Internal.Correction.Weighted>
   9.000000E+99

> <Gold.Protein.RotatedTorsions>
[ 6907 6896 6895 6894 ] final  160.36 input  -60.11 | X-H torsion
[ 7974 7965 7964 7962 ] final -159.37 input  175.53 | X-H torsion
[ 8008 7997 7996 7995 ] final   80.68 input   59.86 | X-H torsion
[ 10167 10162 10161 10158 ] final -147.25 input  -65.29 | X-H torsion
[ 10718 10713 10712 10709 ] final  -89.45 input   66.30 | X-H torsion
[ 10763 10752 10751 10750 ] final  -41.04 input  -60.55 | X-H torsion
[ 11005 11000 10999 10996 ] final   17.87 input  -57.11 | X-H torsion

> <Gold.Protein.ActiveResidues>
 VAL166  LYS551  ARG553  GLY616  TRP617  ASP618  TYR619  PRO620  LYS621  CYS622 
 ASP623  PHE694  ASN695  SER759  ASP760  ASP761  ALA762  ILE779  LEU786  VAL792 
 PHE793  MET794  SER795  GLU796  ALA797  LYS798  CYS799  TRP800  GLU811  SER814 

> <Gold.Protein.RotatedAtoms>
  151.9718  133.3728  159.4073 H   0  0  0  0  0  0  0  0  0  0  0  0  # atno 6907 bound_to 6896
  150.6948  134.4132  159.5180 H   0  0  0  0  0  0  0  0  0  0  0  0  # atno 6908 bound_to 6896
  152.1837  134.8732  160.0575 H   0  0  0  0  0  0  0  0  0  0  0  0  # atno 6909 bound_to 6896
  144.7468  140.3695  143.6079 H   0  0  0  0  0  0  0  0  0  0  0  0  # atno 7974 bound_to 7965
  155.8868  140.3441  155.5927 H   0  0  0  0  0  0  0  0  0  0  0  0  # atno 8008 bound_to 7997
  155.7657  140.0838  157.2152 H   0  0  0  0  0  0  0  0  0  0  0  0  # atno 8009 bound_to 7997
  154.4029  140.1527  156.2871 H   0  0  0  0  0  0  0  0  0  0  0  0  # atno 8010 bound_to 7997
  139.7639  143.8336  152.2612 H   0  0  0  0  0  0  0  0  0  0  0  0  # atno 10167 bound_to 10162
  155.9984  130.4873  150.5174 H   0  0  0  0  0  0  0  0  0  0  0  0  # atno 10718 bound_to 10713
  153.9560  135.6745  153.4744 H   0  0  0  0  0  0  0  0  0  0  0  0  # atno 10763 bound_to 10752
  153.0861  135.4898  154.8596 H   0  0  0  0  0  0  0  0  0  0  0  0  # atno 10764 bound_to 10752
  154.7299  135.3136  154.8868 H   0  0  0  0  0  0  0  0  0  0  0  0  # atno 10765 bound_to 10752
  140.4312  134.1418  155.7681 H   0  0  0  0  0  0  0  0  0  0  0  0  # atno 11005 bound_to 11000
  145.7093  139.1680  143.2548 LP  0  0  0  0  0  0  0  0  0  0  0  0  # atno 17320 bound_to 7965
  146.1359  140.7124  142.9390 LP  0  0  0  0  0  0  0  0  0  0  0  0  # atno 17321 bound_to 7965
  139.8351  144.7236  150.9401 LP  0  0  0  0  0  0  0  0  0  0  0  0  # atno 17342 bound_to 10162
  140.7809  143.4034  151.1111 LP  0  0  0  0  0  0  0  0  0  0  0  0  # atno 17343 bound_to 10162
  157.3139  131.0669  151.1981 LP  0  0  0  0  0  0  0  0  0  0  0  0  # atno 17370 bound_to 10713
  157.2917  130.6799  149.6117 LP  0  0  0  0  0  0  0  0  0  0  0  0  # atno 17371 bound_to 10713
  141.1745  133.8542  157.1466 LP  0  0  0  0  0  0  0  0  0  0  0  0  # atno 17394 bound_to 11000
  140.0133  134.9978  157.0441 LP  0  0  0  0  0  0  0  0  0  0  0  0  # atno 17395 bound_to 11000

$$$$
