#       Name:                AV-unprocessed.smi:103
#       Creating user name   scv26
#       Creation time:       Thu Mar 26 17:53:44 2020


#       File generated by GOLD software.
#

@<TRIPOS>MOLECULE
AV-unprocessed.smi:103
    64    66     1
SMALL
NO_CHARGES


@<TRIPOS>ATOM
      1 ****        -1.6274   5.4846  -0.3177 C.3            1 S1                 0.0000
      2 ****        -2.1855   4.1450   0.1456 C.2            1 S1                 0.0000
      3 ****        -3.3971   3.9633   0.2673 O.2            1 S1                 0.0000
      4 ****        -1.2212   3.2387   0.3839 O.3            1 S1                 0.0000
      5 ****        -1.5530   1.9306   0.8310 C.3            1 S1                 0.0000
      6 ****        -1.9317   1.0143  -0.3519 C.3            1 S1                 0.0000
      7 ****        -0.7652   0.8318  -1.1588 O.3            1 S1                 0.0000
      8 ****        -0.3811  -0.5090  -1.1818 C.3            1 S1                 0.0000
      9 ****         1.1155  -0.6073  -1.1460 N.pl3          1 S1                 0.0000
     10 ****         1.9316  -1.5947  -1.6598 C.2            1 S1                 0.0000
     11 ****         1.4080  -3.0138  -2.6140 S.o2           1 S1                 0.0000
     12 ****         1.3012  -2.3055  -4.3071 C.3            1 S1                 0.0000
     13 ****         2.5036  -3.9945  -2.5618 O.2            1 S1                 0.0000
     14 ****         0.0576  -3.3756  -2.1572 O.2            1 S1                 0.0000
     15 ****         3.2183  -1.4211  -1.5289 N.2            1 S1                 0.0000
     16 ****         3.3026  -0.2451  -0.7977 C.ar           1 S1                 0.0000
     17 ****         4.3803   0.5110  -0.2722 C.ar           1 S1                 0.0000
     18 ****         5.6635   0.1548  -0.4201 N.pl3          1 S1                 0.0000
     19 ****         4.1030   1.6443   0.4133 N.ar           1 S1                 0.0000
     20 ****         2.8310   2.0202   0.5759 C.ar           1 S1                 0.0000
     21 ****         1.7214   1.4177   0.1426 N.ar           1 S1                 0.0000
     22 ****         1.9992   0.2739  -0.5498 C.ar           1 S1                 0.0000
     23 ****        -1.0565  -1.1902   0.0137 C.3            1 S1                 0.0000
     24 ****        -0.3006  -1.0249   1.2132 O.3            1 S1                 0.0000
     25 ****         0.4153  -2.0430   1.7225 C.2            1 S1                 0.0000
     26 ****         1.1389  -1.6554   3.0047 C.3            1 S1                 0.0000
     27 ****         0.5212  -3.1700   1.2396 O.2            1 S1                 0.0000
     28 ****        -2.3562  -0.4048   0.0597 C.3            1 S1                 0.0000
     29 ****        -3.0116  -0.4743   1.3223 O.3            1 S1                 0.0000
     30 ****        -3.7218  -1.5657   1.6572 C.2            1 S1                 0.0000
     31 ****        -4.3324  -1.4572   3.0478 C.3            1 S1                 0.0000
     32 ****        -3.8844  -2.5667   0.9593 O.2            1 S1                 0.0000
     33 ****        -0.5778   5.5850  -0.0398 H              1 S1                 0.0000
     34 ****        -2.1836   6.3043   0.1378 H              1 S1                 0.0000
     35 ****        -1.7089   5.5722  -1.4011 H              1 S1                 0.0000
     36 ****        -0.6982   1.5231   1.3691 H              1 S1                 0.0000
     37 ****        -2.3691   1.9863   1.5527 H              1 S1                 0.0000
     38 ****        -2.7244   1.4738  -0.9427 H              1 S1                 0.0000
     39 ****        -0.6809  -0.9324  -2.1400 H              1 S1                 0.0000
     40 ****         0.9858  -3.0805  -5.0051 H              1 S1                 0.0000
     41 ****         2.2794  -1.9272  -4.6035 H              1 S1                 0.0000
     42 ****         0.5786  -1.4900  -4.3175 H              1 S1                 0.0000
     43 ****         5.8960  -0.6878  -0.9260 H              1 S1                 0.0000
     44 ****         6.3946   0.7254  -0.0211 H              1 S1                 0.0000
     45 ****         2.6799   2.9348   1.1302 H              1 S1                 0.0000
     46 ****        -1.2428  -2.2417  -0.2061 H              1 S1                 0.0000
     47 ****         1.4458  -0.6096   2.9697 H              1 S1                 0.0000
     48 ****         2.0284  -2.2710   3.1410 H              1 S1                 0.0000
     49 ****         0.4836  -1.7971   3.8643 H              1 S1                 0.0000
     50 ****        -3.0181  -0.7875  -0.7193 H              1 S1                 0.0000
     51 ****        -3.5905  -1.0984   3.7616 H              1 S1                 0.0000
     52 ****        -4.6923  -2.4297   3.3842 H              1 S1                 0.0000
     53 ****        -5.1716  -0.7618   3.0389 H              1 S1                 0.0000
     54 ****        -4.0370   4.7034   0.0604 LP             1 S1                 0.0000
     55 ****        -3.7414   3.0755   0.5730 LP             1 S1                 0.0000
     56 ****        -0.0181   1.3801  -0.7831 LP             1 S1                 0.0000
     57 ****        -0.9623   1.1320  -2.0921 LP             1 S1                 0.0000
     58 ****         3.9617  -1.9953  -1.8718 LP             1 S1                 0.0000
     59 ****         4.8442   2.1962   0.7952 LP             1 S1                 0.0000
     60 ****         0.7971   1.7627   0.3055 LP             1 S1                 0.0000
     61 ****         0.0475  -3.3958   0.3883 LP             1 S1                 0.0000
     62 ****         1.0810  -3.8600   1.6984 LP             1 S1                 0.0000
     63 ****        -3.4679  -2.6164   0.0515 LP             1 S1                 0.0000
     64 ****        -4.4330  -3.3302   1.3001 LP             1 S1                 0.0000
@<TRIPOS>BOND
    1    1    2 1     
    2    1   33 1     
    3    1   34 1     
    4    1   35 1     
    5    2    3 2     
    6    2    4 1     
    7    4    5 1     
    8    5    6 1     
    9    5   36 1     
   10    5   37 1     
   11    6   28 1     
   12    6    7 1     
   13    6   38 1     
   14    7    8 1     
   15    8    9 1     
   16    8   23 1     
   17    8   39 1     
   18    9   22 1     
   19    9   10 1     
   20   10   11 1     
   21   10   15 2     
   22   11   12 1     
   23   11   13 2     
   24   11   14 2     
   25   12   40 1     
   26   12   41 1     
   27   12   42 1     
   28   15   16 1     
   29   16   22 ar    
   30   16   17 ar    
   31   17   18 1     
   32   17   19 ar    
   33   18   43 1     
   34   18   44 1     
   35   19   20 ar    
   36   20   21 ar    
   37   20   45 1     
   38   21   22 ar    
   39   23   24 1     
   40   23   28 1     
   41   23   46 1     
   42   24   25 1     
   43   25   26 1     
   44   25   27 2     
   45   26   47 1     
   46   26   48 1     
   47   26   49 1     
   48   28   29 1     
   49   28   50 1     
   50   29   30 1     
   51   30   31 1     
   52   30   32 2     
   53   31   51 1     
   54   31   52 1     
   55   31   53 1     
   56    3   54 1     
   57    3   55 1     
   58    7   56 1     
   59    7   57 1     
   60   15   58 1     
   61   19   59 1     
   62   21   60 1     
   63   27   61 1     
   64   27   62 1     
   65   32   63 1     
   66   32   64 1     
@<TRIPOS>SUBSTRUCTURE
      1 S1             1
@<TRIPOS>SET
LONE_PAIRS      STATIC     ATOMS    <user>   **** ""
13 54 55 56 57 13 14 58 59 60 61 62 63 64
DONOR_HYDROGENS      STATIC     ATOMS    <user>   **** ""
2 43 44
ATOM$BLUE        STATIC     ATOMS    COLORGROUP SYSTEM
13 54 55 56 57 13 14 58 59 60 61 62 63 64
ATOM$RED        STATIC     ATOMS    COLORGROUP SYSTEM
2 43 44
