#       Name:                AV-unprocessed.smi:2104
#       Creating user name   scv26
#       Creation time:       Fri Mar 27 11:31:35 2020


#       File generated by GOLD software.
#

@<TRIPOS>MOLECULE
AV-unprocessed.smi:2104
    50    51     1
SMALL
NO_CHARGES


@<TRIPOS>ATOM
      1 ****        -3.4800   5.1239   1.5943 C.3            1 S1                 0.0000
      2 ****        -3.0955   3.7704   1.1036 C.2            1 S1                 0.0000
      3 ****        -2.9324   3.2457  -0.1477 C.2            1 S1                 0.0000
      4 ****        -2.5604   1.9005   0.1156 C.2            1 S1                 0.0000
      5 ****        -2.2877   0.9996  -0.9452 N.am           1 S1                 0.0000
      6 ****        -1.9181  -0.2885  -0.8480 C.2            1 S1                 0.0000
      7 ****        -1.8360  -0.9237   0.2038 O.2            1 S1                 0.0000
      8 ****        -1.6301  -0.8046  -2.0521 N.am           1 S1                 0.0000
      9 ****        -1.0943  -2.1422  -2.2845 C.3            1 S1                 0.0000
     10 ****         0.4378  -2.1533  -2.1733 C.3            1 S1                 0.0000
     11 ****         0.7978  -1.9376  -0.8178 O.3            1 S1                 0.0000
     12 ****         2.1854  -1.7418  -0.5780 C.3            1 S1                 0.0000
     13 ****         2.5813  -0.2771  -0.8682 C.3            1 S1                 0.0000
     14 ****         1.8784   0.7046   0.0848 C.3            1 S1                 0.0000
     15 ****         2.1440   0.3431   1.5538 C.3            1 S1                 0.0000
     16 ****         1.7569  -1.1144   1.8511 C.3            1 S1                 0.0000
     17 ****         2.4698  -2.0967   0.8987 C.3            1 S1                 0.0000
     18 ****         2.1184  -3.5579   1.2188 C.3            1 S1                 0.0000
     19 ****        -2.4983   1.6297   1.4104 N.2            1 S1                 0.0000
     20 ****        -2.8420   2.8264   2.0502 O.3            1 S1                 0.0000
     21 ****        -3.7417   5.7797   0.7638 H              1 S1                 0.0000
     22 ****        -2.6572   5.5835   2.1419 H              1 S1                 0.0000
     23 ****        -4.3401   5.0637   2.2613 H              1 S1                 0.0000
     24 ****        -3.0592   3.7462  -1.0961 H              1 S1                 0.0000
     25 ****        -2.3383   1.3889  -1.8749 H              1 S1                 0.0000
     26 ****        -1.7373  -0.2120  -2.8623 H              1 S1                 0.0000
     27 ****        -1.5376  -2.8672  -1.5999 H              1 S1                 0.0000
     28 ****        -1.3877  -2.4465  -3.2894 H              1 S1                 0.0000
     29 ****         0.8302  -3.1177  -2.4981 H              1 S1                 0.0000
     30 ****         0.8614  -1.3930  -2.8294 H              1 S1                 0.0000
     31 ****         2.7649  -2.4117  -1.2161 H              1 S1                 0.0000
     32 ****         3.6609  -0.1712  -0.7554 H              1 S1                 0.0000
     33 ****         2.3635  -0.0092  -1.9015 H              1 S1                 0.0000
     34 ****         2.2166   1.7219  -0.1135 H              1 S1                 0.0000
     35 ****         0.8049   0.6967  -0.1044 H              1 S1                 0.0000
     36 ****         3.2001   0.4934   1.7807 H              1 S1                 0.0000
     37 ****         1.5878   1.0157   2.2076 H              1 S1                 0.0000
     38 ****         2.0053  -1.3520   2.8860 H              1 S1                 0.0000
     39 ****         0.6755  -1.2288   1.7621 H              1 S1                 0.0000
     40 ****         3.5434  -1.9878   1.0597 H              1 S1                 0.0000
     41 ****         1.0496  -3.7443   1.1088 H              1 S1                 0.0000
     42 ****         2.3945  -3.8118   2.2425 H              1 S1                 0.0000
     43 ****         2.6463  -4.2429   0.5549 H              1 S1                 0.0000
     44 ****        -2.0532  -0.4808   1.0737 LP             1 S1                 0.0000
     45 ****        -1.5521  -1.8824   0.1881 LP             1 S1                 0.0000
     46 ****         0.5031  -2.7342  -0.2900 LP             1 S1                 0.0000
     47 ****         0.3115  -1.1255  -0.4951 LP             1 S1                 0.0000
     48 ****        -2.2579   0.7586   1.8386 LP             1 S1                 0.0000
     49 ****        -3.6574   2.6856   2.6118 LP             1 S1                 0.0000
     50 ****        -2.0853   3.1269   2.6308 LP             1 S1                 0.0000
@<TRIPOS>BOND
    1    1    2 1     
    2    1   21 1     
    3    1   22 1     
    4    1   23 1     
    5    2   20 1     
    6    2    3 2     
    7    3    4 1     
    8    3   24 1     
    9    4    5 1     
   10    4   19 2     
   11    5    6 am    
   12    5   25 1     
   13    6    7 2     
   14    6    8 am    
   15    8    9 1     
   16    8   26 1     
   17    9   10 1     
   18    9   27 1     
   19    9   28 1     
   20   10   11 1     
   21   10   29 1     
   22   10   30 1     
   23   11   12 1     
   24   12   17 1     
   25   12   13 1     
   26   12   31 1     
   27   13   14 1     
   28   13   32 1     
   29   13   33 1     
   30   14   15 1     
   31   14   34 1     
   32   14   35 1     
   33   15   16 1     
   34   15   36 1     
   35   15   37 1     
   36   16   17 1     
   37   16   38 1     
   38   16   39 1     
   39   17   18 1     
   40   17   40 1     
   41   18   41 1     
   42   18   42 1     
   43   18   43 1     
   44   19   20 1     
   45    7   44 1     
   46    7   45 1     
   47   11   46 1     
   48   11   47 1     
   49   19   48 1     
   50   20   49 1     
   51   20   50 1     
@<TRIPOS>SUBSTRUCTURE
      1 S1             1
@<TRIPOS>SET
LONE_PAIRS      STATIC     ATOMS    <user>   **** ""
7 44 45 46 47 48 49 50
DONOR_HYDROGENS      STATIC     ATOMS    <user>   **** ""
2 25 26
ATOM$BLUE        STATIC     ATOMS    COLORGROUP SYSTEM
7 44 45 46 47 48 49 50
ATOM$RED        STATIC     ATOMS    COLORGROUP SYSTEM
2 25 26
