AV-unprocessed.smi:2976|AV-procd|sdf|11366|dock2
  -GOLD-   2272016283D 1   1.00000     0.00000
 Structure written by MMmdl.
 40 41  0  0  0  0  0  0  0  0  1 V2000
  152.5914  143.7801  162.3851 C   0  0  0  0  0  0  0  0  0  0  0  0
  152.0862  143.6459  160.9375 C   0  0  1  0  0  0  0  0  0  0  0  0
  151.7813  145.0445  160.3616 C   0  0  0  0  0  0  0  0  0  0  0  0
  151.2634  144.9775  158.9190 C   0  0  0  0  0  0  0  0  0  0  0  0
  152.2559  144.2327  158.0148 C   0  0  0  0  0  0  0  0  0  0  0  0
  152.5700  142.8232  158.5532 C   0  0  2  0  0  0  0  0  0  0  0  0
  151.3969  141.9593  158.4465 N   0  0  0  0  0  0  0  0  0  0  0  0
  151.3813  140.6705  158.0691 C   0  0  0  0  0  0  0  0  0  0  0  0
  152.3972  140.0534  157.7522 O   0  0  0  0  0  0  0  0  0  0  0  0
  150.0206  139.9519  158.0347 C   0  0  0  0  0  0  0  0  0  0  0  0
  149.0637  140.5020  157.0590 N   0  0  0  0  0  0  0  0  0  0  0  0
  149.4687  140.3765  155.7412 N   0  0  0  0  0  0  0  0  0  0  0  0
  148.7344  140.8658  154.8025 C   0  0  0  0  0  0  0  0  0  0  0  0
  147.4872  141.5450  155.0752 C   0  0  0  0  0  0  0  0  0  0  0  0
  146.5455  142.1834  153.7744 Cl  0  0  0  0  0  0  0  0  0  0  0  0
  147.0956  141.6562  156.3693 C   0  0  0  0  0  0  0  0  0  0  0  0
  145.6171  142.4584  156.7748 Cl  0  0  0  0  0  0  0  0  0  0  0  0
  147.9080  141.1124  157.4661 C   0  0  0  0  0  0  0  0  0  0  0  0
  147.5951  141.2067  158.6534 O   0  0  0  0  0  0  0  0  0  0  0  0
  153.0763  142.8750  160.0184 C   0  0  2  0  0  0  0  0  0  0  0  0
  153.4081  141.4623  160.5430 C   0  0  0  0  0  0  0  0  0  0  0  0
  153.5639  144.2717  162.4216 H   0  0  0  0  0  0  0  0  0  0  0  0
  152.6854  142.8106  162.8734 H   0  0  0  0  0  0  0  0  0  0  0  0
  151.8998  144.3705  162.9868 H   0  0  0  0  0  0  0  0  0  0  0  0
  151.1477  143.0905  160.9735 H   0  0  0  0  0  0  0  0  0  0  0  0
  151.0437  145.5516  160.9848 H   0  0  0  0  0  0  0  0  0  0  0  0
  152.6821  145.6592  160.3928 H   0  0  0  0  0  0  0  0  0  0  0  0
  150.2932  144.4794  158.8986 H   0  0  0  0  0  0  0  0  0  0  0  0
  151.0991  145.9851  158.5368 H   0  0  0  0  0  0  0  0  0  0  0  0
  151.8645  144.1750  156.9986 H   0  0  0  0  0  0  0  0  0  0  0  0
  153.1814  144.8060  157.9492 H   0  0  0  0  0  0  0  0  0  0  0  0
  153.3652  142.3957  157.9394 H   0  0  0  0  0  0  0  0  0  0  0  0
  150.5115  142.3813  158.6856 H   0  0  0  0  0  0  0  0  0  0  0  0
  150.2045  138.8983  157.8168 H   0  0  0  0  0  0  0  0  0  0  0  0
  149.5916  139.9657  159.0383 H   0  0  0  0  0  0  0  0  0  0  0  0
  149.0145  140.7942  153.7515 H   0  0  0  0  0  0  0  0  0  0  0  0
  154.0136  143.4337  160.0076 H   0  0  0  0  0  0  0  0  0  0  0  0
  152.5068  140.8724  160.7141 H   0  0  0  0  0  0  0  0  0  0  0  0
  153.9620  141.5013  161.4805 H   0  0  0  0  0  0  0  0  0  0  0  0
  154.0301  140.9178  159.8320 H   0  0  0  0  0  0  0  0  0  0  0  0
  1  2  1  0  0  0  0
  1 22  1  0  0  0  0
  1 23  1  0  0  0  0
  1 24  1  0  0  0  0
  2 20  1  0  0  0  0
  2  3  1  0  0  0  0
  2 25  1  0  0  0  0
  3  4  1  0  0  0  0
  3 26  1  0  0  0  0
  3 27  1  0  0  0  0
  4  5  1  0  0  0  0
  4 28  1  0  0  0  0
  4 29  1  0  0  0  0
  5  6  1  0  0  0  0
  5 30  1  0  0  0  0
  5 31  1  0  0  0  0
  6  7  1  0  0  0  0
  6 20  1  0  0  0  0
  6 32  1  0  0  0  0
  7  8  1  0  0  0  0
  7 33  1  0  0  0  0
  8  9  2  0  0  0  0
  8 10  1  0  0  0  0
 10 11  1  0  0  0  0
 10 34  1  0  0  0  0
 10 35  1  0  0  0  0
 11 18  1  0  0  0  0
 11 12  1  0  0  0  0
 12 13  2  0  0  0  0
 13 14  1  0  0  0  0
 13 36  1  0  0  0  0
 14 15  1  0  0  0  0
 14 16  2  0  0  0  0
 16 17  1  0  0  0  0
 16 18  1  0  0  0  0
 18 19  2  0  0  0  0
 20 21  1  0  0  0  0
 20 37  1  0  0  0  0
 21 38  1  0  0  0  0
 21 39  1  0  0  0  0
 21 40  1  0  0  0  0
M  END
> <s_m_source_file>
AV-unprocessed.smi

> <i_m_source_file_index>
2976

> <i_lp_mmshare_version>
43012

> <i_f3d_flags>
0

> <s_epik_input>
W0NIM11bQ0BASF0xW0NIMl1bQ0gyXVtDSDJdW0NASF0oW0NASF0xW0NIM10pW05IXUMoPU8pW0NIMl1uMm5bY0hdYyhDbCljKENsKWMyPU8=

> <s_epik_cmdline>
J2VwaWtfcHl0aG9uJywgJy1waCcsICc3LjAnLCAnLXRuJywgJzgnLCAnLW1hJywgJzIwMCcsICctbWV0YWxfYmluZGluZycsICctaW1hZScsICc8aW5maWxlLm1hZT4nLCAnLW9tYWUnLCAnPG91dGZpbGUubWFlPic=

> <r_lp_tautomer_probability>
1

> <r_epik_Ionization_Penalty>
1.90777e-08

> <r_epik_Ionization_Penalty_Charging>
3.07942e-11

> <r_epik_Ionization_Penalty_Neutral>
1.90469e-08

> <r_epik_State_Penalty>
-0

> <r_epik_Charging_Adjusted_Penalty>
3.07942e-11

> <i_epik_Tot_Q>
0

> <i_epik_Tot_abs_Q>
0

> <r_epik_Metal_State_Penalty>
-0

> <b_epik_Metal_Only>
0

> <s_lp_Force_Field>
OPLS_2005

> <r_lp_Energy>
24.1651

> <b_lp_Chiralities_Consistent>
1

> <s_lp_Variant>
AV-unprocessed.smi:2976-8

> <Gold.Version>
5.8.1

> <Gold.Id.Protein>
6NUR|6NUR_protein|mol2

> <Gold.PLP.Fitness>
52.4836

> <Gold.PLP.PLP>
-47.1666

> <Gold.PLP.part.hbond>
-2.0000

> <Gold.PLP.part.metal>
0.0000

> <Gold.PLP.part.buried>
-5.0694

> <Gold.PLP.part.nonpolar>
-39.7166

> <Gold.PLP.part.repulsive>
0.1642

> <Gold.PLP.ligand.clash>
0.0000

> <Gold.PLP.ligand.torsion>
0.3335

> <Gold.PLP.Chemscore.Hbond>
0.9920

> <Gold.PLP.Chemscore.CHOScore>
0.9992

> <Gold.PLP.Chemscore.Metal>
0.0000

> <Gold.Chemscore.Hbonds>
donor molecule, donor type, donor heavy atom, donor atom, acceptor molecule, acceptor atom, score
      P1  H  6934  6946       L1    19  0.08
      P1  H  7997  8009       L1     9  0.46
      L1  C    13    36       P1  7957  0.42

> <Gold.PLP.Chemscore.Internal.Correction>
0.0105

> <Gold.Rescore>
     Score         DG    S(hbond)    S(metal)    S(lipo)     H(rot)  DE(clash)    DE(int)     intcor
     18.80     -19.68       0.96        0.00     126.53       1.49       0.23       0.66       ----

> <Gold.Chemscore.Fitness>
18.7953

> <Gold.Chemscore.DG>
-19.6816

> <Gold.Chemscore.ZeroCoef>
-5.4800

> <Gold.Chemscore.Hbond>
0.9589

> <Gold.Chemscore.Metal>
0.0000

> <Gold.Chemscore.Lipo>
126.5338

> <Gold.Chemscore.Internal_Hbond>
0.0000

> <Gold.Chemscore.DEClash>
0.2297

> <Gold.Chemscore.DEInternal>
0.6566

> <Gold.Chemscore.Rot>
1.4866

> <Gold.Chemscore.Internal.Correction>
   9.000000E+99

> <Gold.Chemscore.Hbonds>
donor molecule, donor type, donor heavy atom, donor atom, acceptor molecule, acceptor atom, score
      P1  H  6934  6946       L1    19  0.09
      P1  H  7997  8009       L1     9  0.45

> <Gold.Chemscore.Hbond.Weighted>
-3.2028

> <Gold.Chemscore.Metal.Weighted>
-0.0000

> <Gold.Chemscore.Lipo.Weighted>
-14.8044

> <Gold.Chemscore.Internal_Hbond.Weighted>
0.0000

> <Gold.Chemscore.DEClash.Weighted>
0.2297

> <Gold.Chemscore.DEInternal.Weighted>
0.6566

> <Gold.Chemscore.Rot.Weighted>
3.8057

> <Gold.Chemscore.Internal.Correction.Weighted>
   9.000000E+99

> <Gold.Protein.RotatedTorsions>
[ 6907 6896 6895 6894 ] final  -63.35 input  -60.11 | X-H torsion
[ 7974 7965 7964 7962 ] final  -78.19 input  175.53 | X-H torsion
[ 8008 7997 7996 7995 ] final  173.79 input   59.86 | X-H torsion
[ 10167 10162 10161 10158 ] final  170.89 input  -65.29 | X-H torsion
[ 10718 10713 10712 10709 ] final  -14.86 input   66.30 | X-H torsion
[ 10763 10752 10751 10750 ] final  -53.29 input  -60.55 | X-H torsion
[ 11005 11000 10999 10996 ] final   36.51 input  -57.11 | X-H torsion

> <Gold.Protein.ActiveResidues>
 VAL166  LYS551  ARG553  GLY616  TRP617  ASP618  TYR619  PRO620  LYS621  CYS622 
 ASP623  PHE694  ASN695  SER759  ASP760  ASP761  ALA762  ILE779  LEU786  VAL792 
 PHE793  MET794  SER795  GLU796  ALA797  LYS798  CYS799  TRP800  GLU811  SER814 

> <Gold.Protein.RotatedAtoms>
  150.7655  134.6447  159.6255 H   0  0  0  0  0  0  0  0  0  0  0  0  # atno 6907 bound_to 6896
  152.3684  134.6767  160.0193 H   0  0  0  0  0  0  0  0  0  0  0  0  # atno 6908 bound_to 6896
  151.7135  133.3276  159.3333 H   0  0  0  0  0  0  0  0  0  0  0  0  # atno 6909 bound_to 6896
  145.5897  140.9432  143.1299 H   0  0  0  0  0  0  0  0  0  0  0  0  # atno 7974 bound_to 7965
  156.1040  140.1451  156.9429 H   0  0  0  0  0  0  0  0  0  0  0  0  # atno 8008 bound_to 7997
  154.4721  140.0906  156.7216 H   0  0  0  0  0  0  0  0  0  0  0  0  # atno 8009 bound_to 7997
  155.4712  140.3442  155.4328 H   0  0  0  0  0  0  0  0  0  0  0  0  # atno 8010 bound_to 7997
  139.5031  144.3546  151.9887 H   0  0  0  0  0  0  0  0  0  0  0  0  # atno 10167 bound_to 10162
  156.6099  130.4847  149.6206 H   0  0  0  0  0  0  0  0  0  0  0  0  # atno 10718 bound_to 10713
  154.1564  135.6482  153.4975 H   0  0  0  0  0  0  0  0  0  0  0  0  # atno 10763 bound_to 10752
  153.0123  135.5350  154.6756 H   0  0  0  0  0  0  0  0  0  0  0  0  # atno 10764 bound_to 10752
  154.6057  135.2948  155.0458 H   0  0  0  0  0  0  0  0  0  0  0  0  # atno 10765 bound_to 10752
  140.2319  134.3517  155.7960 H   0  0  0  0  0  0  0  0  0  0  0  0  # atno 11005 bound_to 11000
  144.7357  139.7594  143.7330 LP  0  0  0  0  0  0  0  0  0  0  0  0  # atno 17320 bound_to 7965
  146.1656  139.4786  142.9960 LP  0  0  0  0  0  0  0  0  0  0  0  0  # atno 17321 bound_to 7965
  140.2983  144.3676  150.6068 LP  0  0  0  0  0  0  0  0  0  0  0  0  # atno 17342 bound_to 10162
  140.5893  143.2168  151.7282 LP  0  0  0  0  0  0  0  0  0  0  0  0  # atno 17343 bound_to 10162
  156.2398  130.6844  151.1545 LP  0  0  0  0  0  0  0  0  0  0  0  0  # atno 17370 bound_to 10713
  157.7257  131.0651  150.5942 LP  0  0  0  0  0  0  0  0  0  0  0  0  # atno 17371 bound_to 10713
  141.2217  133.7250  156.8745 LP  0  0  0  0  0  0  0  0  0  0  0  0  # atno 17394 bound_to 11000
  140.1742  134.9079  157.2870 LP  0  0  0  0  0  0  0  0  0  0  0  0  # atno 17395 bound_to 11000

$$$$
