#       Name:                AV-unprocessed.smi:2781
#       Creating user name   scv26
#       Creation time:       Fri Mar 27 15:15:47 2020


#       File generated by GOLD software.
#

@<TRIPOS>MOLECULE
AV-unprocessed.smi:2781
    38    41     1
SMALL
NO_CHARGES


@<TRIPOS>ATOM
      1 ****         1.8817   1.1523  -0.7346 O.2            1 S1                 0.0000
      2 ****         1.4923   0.0578  -0.3258 C.2            1 S1                 0.0000
      3 ****         2.2671  -1.0285  -0.1567 N.am           1 S1                 0.0000
      4 ****         3.6574  -1.1651  -0.4131 C.ar           1 S1                 0.0000
      5 ****         4.1986  -2.4366  -0.1149 C.ar           1 S1                 0.0000
      6 ****         5.5690  -2.6761  -0.3357 C.ar           1 S1                 0.0000
      7 ****         6.3624  -1.6355  -0.8503 C.ar           1 S1                 0.0000
      8 ****         7.6844  -1.8185  -1.0793 F              1 S1                 0.0000
      9 ****         5.7465  -0.3998  -1.1214 C.ar           1 S1                 0.0000
     10 ****         4.4332  -0.1690  -0.9098 N.ar           1 S1                 0.0000
     11 ****         0.2211  -0.1982   0.0127 N.am           1 S1                 0.0000
     12 ****        -0.8567   0.7356  -0.0454 C.3            1 S1                 0.0000
     13 ****        -1.9373   0.6119   1.0179 C.3            1 S1                 0.0000
     14 ****        -3.0199   1.6456   1.3141 C.3            1 S1                 0.0000
     15 ****        -4.3592   0.8963   1.4698 C.3            1 S1                 0.0000
     16 ****        -4.6647   0.4517   0.0181 C.3            1 S1                 0.0000
     17 ****        -3.4583   1.0129  -0.7632 C.3            1 S1                 0.0000
     18 ****        -3.2580   2.3393  -0.0281 C.3            1 S1                 0.0000
     19 ****        -2.2328   0.1848  -0.3878 C.3            1 S1                 0.0000
     20 ****         1.8079  -1.8554   0.1951 H              1 S1                 0.0000
     21 ****         3.5736  -3.2244   0.2797 H              1 S1                 0.0000
     22 ****         6.0019  -3.6403  -0.1142 H              1 S1                 0.0000
     23 ****         6.3211   0.4244  -1.5176 H              1 S1                 0.0000
     24 ****        -0.0045  -1.1267   0.3379 H              1 S1                 0.0000
     25 ****        -0.6132   1.7344  -0.4002 H              1 S1                 0.0000
     26 ****        -1.8124  -0.1676   1.7677 H              1 S1                 0.0000
     27 ****        -2.7620   2.3027   2.1448 H              1 S1                 0.0000
     28 ****        -4.2839   0.0527   2.1569 H              1 S1                 0.0000
     29 ****        -5.1392   1.5624   1.8411 H              1 S1                 0.0000
     30 ****        -4.7498  -0.6317  -0.0759 H              1 S1                 0.0000
     31 ****        -5.5987   0.8933  -0.3320 H              1 S1                 0.0000
     32 ****        -3.6039   1.0898  -1.8409 H              1 S1                 0.0000
     33 ****        -4.1427   2.9794  -0.0359 H              1 S1                 0.0000
     34 ****        -2.4141   2.9281  -0.3862 H              1 S1                 0.0000
     35 ****        -2.3061  -0.8828  -0.5882 H              1 S1                 0.0000
     36 ****         2.8445   1.2843  -0.9705 LP             1 S1                 0.0000
     37 ****         1.2351   1.9091  -0.8306 LP             1 S1                 0.0000
     38 ****         4.0369   0.7256  -1.1167 LP             1 S1                 0.0000
@<TRIPOS>BOND
    1    1    2 2     
    2    2    3 am    
    3    2   11 am    
    4    3    4 1     
    5    3   20 1     
    6    4   10 ar    
    7    4    5 ar    
    8    5    6 ar    
    9    5   21 1     
   10    6    7 ar    
   11    6   22 1     
   12    7    8 1     
   13    7    9 ar    
   14    9   10 ar    
   15    9   23 1     
   16   11   12 1     
   17   11   24 1     
   18   12   19 1     
   19   12   13 1     
   20   12   25 1     
   21   13   19 1     
   22   13   14 1     
   23   13   26 1     
   24   14   18 1     
   25   14   15 1     
   26   14   27 1     
   27   15   16 1     
   28   15   28 1     
   29   15   29 1     
   30   16   17 1     
   31   16   30 1     
   32   16   31 1     
   33   17   18 1     
   34   17   19 1     
   35   17   32 1     
   36   18   33 1     
   37   18   34 1     
   38   19   35 1     
   39    1   36 1     
   40    1   37 1     
   41   10   38 1     
@<TRIPOS>SUBSTRUCTURE
      1 S1             1
@<TRIPOS>SET
LONE_PAIRS      STATIC     ATOMS    <user>   **** ""
3 36 37 38
DONOR_HYDROGENS      STATIC     ATOMS    <user>   **** ""
2 20 24
ATOM$BLUE        STATIC     ATOMS    COLORGROUP SYSTEM
3 36 37 38
ATOM$RED        STATIC     ATOMS    COLORGROUP SYSTEM
2 20 24
