#       Name:                AV-unprocessed.smi:21
#       Creating user name   scv26
#       Creation time:       Thu Mar 26 15:30:14 2020


#       File generated by GOLD software.
#

@<TRIPOS>MOLECULE
AV-unprocessed.smi:21
    71    74     1
SMALL
NO_CHARGES


@<TRIPOS>ATOM
      1 ****        -0.7792  -1.3411  -3.2113 C.3            1 S1                 0.0000
      2 ****        -1.7012  -2.0112  -2.3665 O.3            1 S1                 0.0000
      3 ****        -2.8116  -1.2104  -1.9884 C.3            1 S1                 0.0000
      4 ****        -2.4483  -0.1234  -0.9845 C.3            1 S1                 0.0000
      5 ****        -3.7726   0.1889  -0.2692 C.3            1 S1                 0.0000
      6 ****        -3.5984   0.7690   1.1609 C.3            1 S1                 0.0000
      7 ****        -2.9706   2.0923   1.1886 N.pl3          1 S1                 0.0000
      8 ****        -3.8040   3.2341   0.8194 C.3            1 S1                 0.0000
      9 ****        -1.6286   2.1828   0.9716 C.ar           1 S1                 0.0000
     10 ****        -1.1660   3.1231   0.1034 N.ar           1 S1                 0.0000
     11 ****         0.1344   3.2002  -0.1908 C.ar           1 S1                 0.0000
     12 ****         1.1353   2.4420   0.2565 N.ar           1 S1                 0.0000
     13 ****         0.6871   1.5087   1.1427 C.ar           1 S1                 0.0000
     14 ****        -0.6600   1.3191   1.5657 C.ar           1 S1                 0.0000
     15 ****        -0.7130   0.2832   2.4930 N.2            1 S1                 0.0000
     16 ****         0.5202  -0.1309   2.5904 C.2            1 S1                 0.0000
     17 ****         1.4226   0.5382   1.7975 N.pl3          1 S1                 0.0000
     18 ****         2.8451   0.2769   1.6811 C.3            1 S1                 0.0000
     19 ****         3.2497  -0.3813   0.3342 C.3            1 S1                 0.0000
     20 ****         2.5068  -1.7193   0.0827 C.3            1 S1                 0.0000
     21 ****         1.1741  -1.5200  -0.3442 O.3            1 S1                 0.0000
     22 ****         4.7869  -0.5779   0.2676 C.3            1 S1                 0.0000
     23 ****         5.6036   0.6925   0.4384 C.3            1 S1                 0.0000
     24 ****         6.9557   0.2854  -0.1322 C.3            1 S1                 0.0000
     25 ****         6.6549  -0.5936  -1.2076 O.3            1 S1                 0.0000
     26 ****         5.3173  -1.0696  -1.0872 C.3            1 S1                 0.0000
     27 ****        -4.5764  -1.0674  -0.3645 N.4            1 S1                 1.0000
     28 ****        -5.0874  -1.6616   0.8935 C.3            1 S1                 0.0000
     29 ****        -3.8239  -2.0334  -1.1975 C.3            1 S1                 0.0000
     30 ****        -3.2991  -0.7753  -2.8629 H              1 S1                 0.0000
     31 ****        -4.3155   0.9181  -0.8718 H              1 S1                 0.0000
     32 ****         0.0256  -2.0235  -3.4842 H              1 S1                 0.0000
     33 ****        -0.3288  -0.4815  -2.7140 H              1 S1                 0.0000
     34 ****        -1.2593  -1.0025  -4.1301 H              1 S1                 0.0000
     35 ****        -1.7233  -0.5235  -0.2745 H              1 S1                 0.0000
     36 ****        -2.0078   0.7540  -1.4585 H              1 S1                 0.0000
     37 ****        -4.5780   0.8890   1.6232 H              1 S1                 0.0000
     38 ****        -3.0681   0.0656   1.7976 H              1 S1                 0.0000
     39 ****        -3.4018   4.1587   1.2356 H              1 S1                 0.0000
     40 ****        -4.8172   3.1137   1.2037 H              1 S1                 0.0000
     41 ****        -3.8639   3.3384  -0.2646 H              1 S1                 0.0000
     42 ****         0.4108   3.9733  -0.8927 H              1 S1                 0.0000
     43 ****         0.8044  -0.9502   3.2347 H              1 S1                 0.0000
     44 ****         3.3554   1.2305   1.8153 H              1 S1                 0.0000
     45 ****         3.1505  -0.3565   2.5150 H              1 S1                 0.0000
     46 ****         2.9819   0.3047  -0.4713 H              1 S1                 0.0000
     47 ****         2.9915  -2.2988  -0.7015 H              1 S1                 0.0000
     48 ****         2.5142  -2.3404   0.9788 H              1 S1                 0.0000
     49 ****         0.7824  -2.3647  -0.5061 H              1 S1                 0.0000
     50 ****         5.0945  -1.2871   1.0381 H              1 S1                 0.0000
     51 ****         5.1769   1.5050  -0.1518 H              1 S1                 0.0000
     52 ****         5.6778   1.0232   1.4747 H              1 S1                 0.0000
     53 ****         7.5468   1.1392  -0.4642 H              1 S1                 0.0000
     54 ****         7.5348  -0.2599   0.6141 H              1 S1                 0.0000
     55 ****         5.2896  -2.1561  -1.1730 H              1 S1                 0.0000
     56 ****         4.7346  -0.6525  -1.9096 H              1 S1                 0.0000
     57 ****        -4.2744  -1.9290   1.5696 H              1 S1                 0.0000
     58 ****        -5.6515  -2.5690   0.6750 H              1 S1                 0.0000
     59 ****        -5.7642  -0.9783   1.4062 H              1 S1                 0.0000
     60 ****        -4.4865  -2.6131  -1.8408 H              1 S1                 0.0000
     61 ****        -3.2916  -2.7336  -0.5506 H              1 S1                 0.0000
     62 ****        -5.3929  -0.8160  -0.9037 H              1 S1                 0.0000
     63 ****        -1.2205  -2.2968  -1.5374 LP             1 S1                 0.0000
     64 ****        -2.0428  -2.8180  -2.8484 LP             1 S1                 0.0000
     65 ****        -1.8072   3.7637  -0.3191 LP             1 S1                 0.0000
     66 ****         2.0903   2.5447  -0.0218 LP             1 S1                 0.0000
     67 ****        -1.5160  -0.0655   2.9763 LP             1 S1                 0.0000
     68 ****         1.1663  -0.9777  -1.1844 LP             1 S1                 0.0000
     69 ****         0.6601  -1.0402   0.3669 LP             1 S1                 0.0000
     70 ****         7.2857  -1.3693  -1.1878 LP             1 S1                 0.0000
     71 ****         6.7557  -0.1040  -2.0737 LP             1 S1                 0.0000
@<TRIPOS>BOND
    1    1    2 1     
    2    1   32 1     
    3    1   33 1     
    4    1   34 1     
    5    2    3 1     
    6    3   30 1     
    7    3   29 1     
    8    3    4 1     
    9    4    5 1     
   10    4   35 1     
   11    4   36 1     
   12    5   31 1     
   13    5    6 1     
   14    5   27 1     
   15    6    7 1     
   16    6   37 1     
   17    6   38 1     
   18    7    8 1     
   19    7    9 1     
   20    8   39 1     
   21    8   40 1     
   22    8   41 1     
   23    9   14 ar    
   24    9   10 ar    
   25   10   11 ar    
   26   11   12 ar    
   27   11   42 1     
   28   12   13 ar    
   29   13   17 1     
   30   13   14 ar    
   31   14   15 1     
   32   15   16 2     
   33   16   17 1     
   34   16   43 1     
   35   17   18 1     
   36   18   19 1     
   37   18   44 1     
   38   18   45 1     
   39   19   20 1     
   40   19   22 1     
   41   19   46 1     
   42   20   21 1     
   43   20   47 1     
   44   20   48 1     
   45   21   49 1     
   46   22   26 1     
   47   22   23 1     
   48   22   50 1     
   49   23   24 1     
   50   23   51 1     
   51   23   52 1     
   52   24   25 1     
   53   24   53 1     
   54   24   54 1     
   55   25   26 1     
   56   26   55 1     
   57   26   56 1     
   58   27   28 1     
   59   27   29 1     
   60   27   62 1     
   61   28   57 1     
   62   28   58 1     
   63   28   59 1     
   64   29   60 1     
   65   29   61 1     
   66    2   63 1     
   67    2   64 1     
   68   10   65 1     
   69   12   66 1     
   70   15   67 1     
   71   21   68 1     
   72   21   69 1     
   73   25   70 1     
   74   25   71 1     
@<TRIPOS>SUBSTRUCTURE
      1 S1             1
@<TRIPOS>SET
LONE_PAIRS      STATIC     ATOMS    <user>   **** ""
9 63 64 65 66 67 68 69 70 71
DONOR_HYDROGENS      STATIC     ATOMS    <user>   **** ""
2 49 62
ATOM$BLUE        STATIC     ATOMS    COLORGROUP SYSTEM
9 63 64 65 66 67 68 69 70 71
ATOM$RED        STATIC     ATOMS    COLORGROUP SYSTEM
2 49 62
