AV-unprocessed.smi:142|AV-procd|sdf|1192|dock10
  -GOLD-   2262018353D 1   1.00000     0.00000
 Structure written by MMmdl.
 52 55  0  0  0  0  0  0  0  0  1 V2000
  153.5028  137.4896  159.0849 C   0  0  0  0  0  0  0  0  0  0  0  0
  152.5923  138.0537  157.9861 C   0  0  1  0  0  0  0  0  0  0  0  0
  151.4048  137.2124  157.8621 N   0  0  0  0  0  0  0  0  0  0  0  0
  151.3078  136.1296  157.0755 C   0  0  0  0  0  0  0  0  0  0  0  0
  152.2550  135.6675  156.4390 O   0  0  0  0  0  0  0  0  0  0  0  0
  149.9214  135.4787  156.9840 C   0  0  0  0  0  0  0  0  0  0  0  0
  149.8446  134.5250  155.8563 N   0  0  0  0  0  0  0  0  0  0  0  0
  148.9851  134.8094  154.7666 C   0  0  0  0  0  0  0  0  0  0  0  0
  148.3339  135.8539  154.7200 O   0  0  0  0  0  0  0  0  0  0  0  0
  148.9222  133.7838  153.7316 C   0  0  0  0  0  0  0  0  0  0  0  0
  148.1236  133.9614  152.6656 F   0  0  0  0  0  0  0  0  0  0  0  0
  149.6474  132.6508  153.8313 C   0  0  0  0  0  0  0  0  0  0  0  0
  150.4963  132.3913  154.8896 N   0  0  0  0  0  0  0  0  0  0  0  0
  151.2090  131.0572  154.9470 C   0  0  1  0  0  0  0  0  0  0  0  0
  150.7726  130.0709  153.8527 C   0  0  0  0  0  0  0  0  0  0  0  0
  152.0792  129.3696  153.5478 C   0  0  0  0  0  0  0  0  0  0  0  0
  153.0967  130.4890  153.7391 C   0  0  0  0  0  0  0  0  0  0  0  0
  152.5859  131.2687  154.8170 O   0  0  0  0  0  0  0  0  0  0  0  0
  150.5968  133.3279  155.9444 C   0  0  0  0  0  0  0  0  0  0  0  0
  151.3108  133.1093  156.9243 O   0  0  0  0  0  0  0  0  0  0  0  0
  152.2480  139.5160  158.2570 C   0  0  0  0  0  0  0  0  0  0  0  0
  151.4171  140.2448  157.3753 C   0  0  0  0  0  0  0  0  0  0  0  0
  151.1166  141.5962  157.6311 C   0  0  0  0  0  0  0  0  0  0  0  0
  151.6385  142.2316  158.7751 C   0  0  0  0  0  0  0  0  0  0  0  0
  151.3428  143.5858  159.0357 C   0  0  0  0  0  0  0  0  0  0  0  0
  151.8670  144.2141  160.1822 C   0  0  0  0  0  0  0  0  0  0  0  0
  152.6870  143.4920  161.0707 C   0  0  0  0  0  0  0  0  0  0  0  0
  152.9857  142.1395  160.8150 C   0  0  0  0  0  0  0  0  0  0  0  0
  152.4641  141.5049  159.6686 C   0  0  0  0  0  0  0  0  0  0  0  0
  152.7623  140.1518  159.4069 C   0  0  0  0  0  0  0  0  0  0  0  0
  154.4282  138.0617  159.1578 H   0  0  0  0  0  0  0  0  0  0  0  0
  153.7722  136.4531  158.8792 H   0  0  0  0  0  0  0  0  0  0  0  0
  153.0156  137.5200  160.0602 H   0  0  0  0  0  0  0  0  0  0  0  0
  153.1396  137.9999  157.0430 H   0  0  0  0  0  0  0  0  0  0  0  0
  150.5775  137.5167  158.3542 H   0  0  0  0  0  0  0  0  0  0  0  0
  149.7039  135.0056  157.9422 H   0  0  0  0  0  0  0  0  0  0  0  0
  149.1510  136.2455  156.8829 H   0  0  0  0  0  0  0  0  0  0  0  0
  149.5560  131.9202  153.0409 H   0  0  0  0  0  0  0  0  0  0  0  0
  151.0230  130.6595  155.9455 H   0  0  0  0  0  0  0  0  0  0  0  0
  149.9946  129.4013  154.2197 H   0  0  0  0  0  0  0  0  0  0  0  0
  150.3984  130.5870  152.9699 H   0  0  0  0  0  0  0  0  0  0  0  0
  152.2561  128.5761  154.2750 H   0  0  0  0  0  0  0  0  0  0  0  0
  152.1084  128.9327  152.5495 H   0  0  0  0  0  0  0  0  0  0  0  0
  154.0955  130.1132  153.9610 H   0  0  0  0  0  0  0  0  0  0  0  0
  153.1630  131.1047  152.8419 H   0  0  0  0  0  0  0  0  0  0  0  0
  151.0066  139.7726  156.4952 H   0  0  0  0  0  0  0  0  0  0  0  0
  150.4846  142.1409  156.9452 H   0  0  0  0  0  0  0  0  0  0  0  0
  150.7144  144.1472  158.3596 H   0  0  0  0  0  0  0  0  0  0  0  0
  151.6399  145.2513  160.3804 H   0  0  0  0  0  0  0  0  0  0  0  0
  153.0876  143.9761  161.9491 H   0  0  0  0  0  0  0  0  0  0  0  0
  153.6167  141.5934  161.5009 H   0  0  0  0  0  0  0  0  0  0  0  0
  153.3942  139.5994  160.0876 H   0  0  0  0  0  0  0  0  0  0  0  0
  1  2  1  0  0  0  0
  1 31  1  0  0  0  0
  1 32  1  0  0  0  0
  1 33  1  0  0  0  0
  2  3  1  0  0  0  0
  2 21  1  0  0  0  0
  2 34  1  0  0  0  0
  3  4  1  0  0  0  0
  3 35  1  0  0  0  0
  4  5  2  0  0  0  0
  4  6  1  0  0  0  0
  6  7  1  0  0  0  0
  6 36  1  0  0  0  0
  6 37  1  0  0  0  0
  7 19  1  0  0  0  0
  7  8  1  0  0  0  0
  8  9  2  0  0  0  0
  8 10  1  0  0  0  0
 10 11  1  0  0  0  0
 10 12  2  0  0  0  0
 12 13  1  0  0  0  0
 12 38  1  0  0  0  0
 13 14  1  0  0  0  0
 13 19  1  0  0  0  0
 14 18  1  0  0  0  0
 14 15  1  0  0  0  0
 14 39  1  0  0  0  0
 15 16  1  0  0  0  0
 15 40  1  0  0  0  0
 15 41  1  0  0  0  0
 16 17  1  0  0  0  0
 16 42  1  0  0  0  0
 16 43  1  0  0  0  0
 17 18  1  0  0  0  0
 17 44  1  0  0  0  0
 17 45  1  0  0  0  0
 19 20  2  0  0  0  0
 21 30  1  0  0  0  0
 21 22  2  0  0  0  0
 22 23  1  0  0  0  0
 22 46  1  0  0  0  0
 23 24  2  0  0  0  0
 23 47  1  0  0  0  0
 24 29  1  0  0  0  0
 24 25  1  0  0  0  0
 25 26  2  0  0  0  0
 25 48  1  0  0  0  0
 26 27  1  0  0  0  0
 26 49  1  0  0  0  0
 27 28  2  0  0  0  0
 27 50  1  0  0  0  0
 28 29  1  0  0  0  0
 28 51  1  0  0  0  0
 29 30  2  0  0  0  0
 30 52  1  0  0  0  0
M  END
> <s_m_source_file>
AV-unprocessed.smi

> <i_m_source_file_index>
142

> <i_lp_mmshare_version>
43012

> <i_f3d_flags>
0

> <s_epik_input>
W2NIXTFbY0hdW2NIXVtjSF1jKGMxMilbY0hdYyhbY0hdW2NIXTIpW0NASF0oW0NIM10pW05IXUMoPU8pW0NIMl1uM2MoPU8pYyhGKVtjSF1uKGMzPU8pW0NAQEhdNFtDSDJdW0NIMl1bQ0gyXU80

> <s_epik_cmdline>
J2VwaWtfcHl0aG9uJywgJy1waCcsICc3LjAnLCAnLXRuJywgJzgnLCAnLW1hJywgJzIwMCcsICctbWV0YWxfYmluZGluZycsICctaW1hZScsICc8aW5maWxlLm1hZT4nLCAnLW9tYWUnLCAnPG91dGZpbGUubWFlPic=

> <r_lp_tautomer_probability>
1

> <r_epik_Ionization_Penalty>
3.35688e-08

> <r_epik_Ionization_Penalty_Charging>
3.59856e-09

> <r_epik_Ionization_Penalty_Neutral>
2.99702e-08

> <r_epik_State_Penalty>
-0

> <r_epik_Charging_Adjusted_Penalty>
3.59856e-09

> <i_epik_Tot_Q>
0

> <i_epik_Tot_abs_Q>
0

> <r_epik_Metal_State_Penalty>
-0

> <b_epik_Metal_Only>
0

> <s_epik_Chemistry_Notes>
This compound contains an acetal/aminal-like group ( X-CH(R)-Y where X, Y are N, S, or O) that may be acid/base labile, releasing an aldehyde.

> <s_lp_Force_Field>
OPLS_2005

> <r_lp_Energy>
24.972

> <b_lp_Chiralities_Consistent>
1

> <s_lp_Variant>
AV-unprocessed.smi:142-4

> <Gold.Version>
5.8.1

> <Gold.Id.Protein>
6NUR|6NUR_protein|mol2

> <Gold.PLP.Fitness>
59.6250

> <Gold.PLP.PLP>
-55.4353

> <Gold.PLP.part.hbond>
-2.0000

> <Gold.PLP.part.metal>
0.0000

> <Gold.PLP.part.buried>
-6.2416

> <Gold.PLP.part.nonpolar>
-48.6748

> <Gold.PLP.part.repulsive>
1.3370

> <Gold.PLP.ligand.clash>
0.0000

> <Gold.PLP.ligand.torsion>
0.7366

> <Gold.PLP.Chemscore.Hbond>
1.8640

> <Gold.PLP.Chemscore.CHOScore>
0.0000

> <Gold.PLP.Chemscore.Metal>
0.0000

> <Gold.Chemscore.Hbonds>
donor molecule, donor type, donor heavy atom, donor atom, acceptor molecule, acceptor atom, score
      P1  H  6896  6909       L1    20  0.28
      P1  H 10752 10765       L1     5  1.00

> <Gold.PLP.Chemscore.Internal.Correction>
0.0709

> <Gold.Rescore>
     Score         DG    S(hbond)    S(metal)    S(lipo)     H(rot)  DE(clash)    DE(int)     intcor
     20.75     -22.06       1.93        0.00     130.72       2.02       0.03       1.28       ----

> <Gold.Chemscore.Fitness>
20.7483

> <Gold.Chemscore.DG>
-22.0607

> <Gold.Chemscore.ZeroCoef>
-5.4800

> <Gold.Chemscore.Hbond>
1.9316

> <Gold.Chemscore.Metal>
0.0000

> <Gold.Chemscore.Lipo>
130.7195

> <Gold.Chemscore.Internal_Hbond>
0.0000

> <Gold.Chemscore.DEClash>
0.0316

> <Gold.Chemscore.DEInternal>
1.2809

> <Gold.Chemscore.Rot>
2.0175

> <Gold.Chemscore.Internal.Correction>
   9.000000E+99

> <Gold.Chemscore.Hbonds>
donor molecule, donor type, donor heavy atom, donor atom, acceptor molecule, acceptor atom, score
      P1  H  6896  6909       L1    20  0.28
      P1  H 10752 10765       L1     5  0.99

> <Gold.Chemscore.Hbond.Weighted>
-6.4514

> <Gold.Chemscore.Metal.Weighted>
-0.0000

> <Gold.Chemscore.Lipo.Weighted>
-15.2942

> <Gold.Chemscore.Internal_Hbond.Weighted>
0.0000

> <Gold.Chemscore.DEClash.Weighted>
0.0316

> <Gold.Chemscore.DEInternal.Weighted>
1.2809

> <Gold.Chemscore.Rot.Weighted>
5.1648

> <Gold.Chemscore.Internal.Correction.Weighted>
   9.000000E+99

> <Gold.Protein.RotatedTorsions>
[ 6907 6896 6895 6894 ] final  -37.79 input  -60.11 | X-H torsion
[ 7974 7965 7964 7962 ] final -113.74 input  175.53 | X-H torsion
[ 8008 7997 7996 7995 ] final  -40.41 input   59.86 | X-H torsion
[ 10167 10162 10161 10158 ] final -102.18 input  -65.29 | X-H torsion
[ 10718 10713 10712 10709 ] final -165.06 input   66.30 | X-H torsion
[ 10763 10752 10751 10750 ] final -152.92 input  -60.55 | X-H torsion
[ 11005 11000 10999 10996 ] final  -59.62 input  -57.11 | X-H torsion

> <Gold.Protein.ActiveResidues>
 VAL166  LYS551  ARG553  GLY616  TRP617  ASP618  TYR619  PRO620  LYS621  CYS622 
 ASP623  PHE694  ASN695  SER759  ASP760  ASP761  ALA762  ILE779  LEU786  VAL792 
 PHE793  MET794  SER795  GLU796  ALA797  LYS798  CYS799  TRP800  GLU811  SER814 

> <Gold.Protein.RotatedAtoms>
  151.0104  134.9392  159.8003 H   0  0  0  0  0  0  0  0  0  0  0  0  # atno 6907 bound_to 6896
  152.5301  134.3036  159.9097 H   0  0  0  0  0  0  0  0  0  0  0  0  # atno 6908 bound_to 6896
  151.3042  133.4067  159.2676 H   0  0  0  0  0  0  0  0  0  0  0  0  # atno 6909 bound_to 6896
  145.1284  140.8710  143.3772 H   0  0  0  0  0  0  0  0  0  0  0  0  # atno 7974 bound_to 7965
  154.4012  140.1526  156.3023 H   0  0  0  0  0  0  0  0  0  0  0  0  # atno 8008 bound_to 7997
  155.8690  140.3450  155.5786 H   0  0  0  0  0  0  0  0  0  0  0  0  # atno 8009 bound_to 7997
  155.7796  140.0841  157.2057 H   0  0  0  0  0  0  0  0  0  0  0  0  # atno 8010 bound_to 7997
  140.2334  143.3590  152.0866 H   0  0  0  0  0  0  0  0  0  0  0  0  # atno 10167 bound_to 10162
  156.6480  130.8996  151.3008 H   0  0  0  0  0  0  0  0  0  0  0  0  # atno 10718 bound_to 10713
  154.7962  135.3225  154.7660 H   0  0  0  0  0  0  0  0  0  0  0  0  # atno 10763 bound_to 10752
  153.8338  135.6877  153.4815 H   0  0  0  0  0  0  0  0  0  0  0  0  # atno 10764 bound_to 10752
  153.1655  135.4643  154.9774 H   0  0  0  0  0  0  0  0  0  0  0  0  # atno 10765 bound_to 10752
  141.1255  133.6617  156.5099 H   0  0  0  0  0  0  0  0  0  0  0  0  # atno 11005 bound_to 11000
  145.0662  139.3066  143.5855 LP  0  0  0  0  0  0  0  0  0  0  0  0  # atno 17320 bound_to 7965
  146.3516  140.0122  142.8666 LP  0  0  0  0  0  0  0  0  0  0  0  0  # atno 17321 bound_to 7965
  139.5102  144.6880  151.5836 LP  0  0  0  0  0  0  0  0  0  0  0  0  # atno 17342 bound_to 10162
  140.6168  143.9334  150.6494 LP  0  0  0  0  0  0  0  0  0  0  0  0  # atno 17343 bound_to 10162
  157.7150  130.9486  150.1223 LP  0  0  0  0  0  0  0  0  0  0  0  0  # atno 17370 bound_to 10713
  156.2107  130.3666  149.8674 LP  0  0  0  0  0  0  0  0  0  0  0  0  # atno 17371 bound_to 10713
  140.4377  134.7044  157.4975 LP  0  0  0  0  0  0  0  0  0  0  0  0  # atno 17394 bound_to 11000
  140.0250  134.6490  155.9186 LP  0  0  0  0  0  0  0  0  0  0  0  0  # atno 17395 bound_to 11000

$$$$
