AV-unprocessed.smi:2017|AV-procd|sdf|8168|dock4
  -GOLD-   2272010413D 1   1.00000     0.00000
 Structure written by MMmdl.
 44 45  0  0  0  0  0  0  0  0  2 V2000
  147.7150  140.2637  155.7141 O   0  0  0  0  0  0  0  0  0  0  0  0
  148.3618  140.3775  154.6718 C   0  0  0  0  0  0  0  0  0  0  0  0
  149.6324  141.2373  154.6270 C   0  0  0  0  0  0  0  0  0  0  0  0
  150.4874  141.0615  155.8121 N   0  0  0  0  0  0  0  0  0  0  0  0
  150.2186  141.8603  156.9375 C   0  0  0  0  0  0  0  0  0  0  0  0
  150.9460  141.7648  158.0668 C   0  0  0  0  0  0  0  0  0  0  0  0
  152.0386  140.8007  158.1042 C   0  0  0  0  0  0  0  0  0  0  0  0
  152.7171  140.7036  159.1249 O   0  0  0  0  0  0  0  0  0  0  0  0
  152.2566  140.0448  156.9886 N   0  5  0  0  0  0  0  0  0  0  0  0
  151.5066  140.1510  155.8479 C   0  0  0  0  0  0  0  0  0  0  0  0
  151.7186  139.4564  154.8531 O   0  0  0  0  0  0  0  0  0  0  0  0
  147.9999  139.7990  153.5167 N   0  0  0  0  0  0  0  0  0  0  0  0
  146.8272  138.9518  153.3355 C   0  0  0  0  0  0  0  0  0  0  0  0
  146.6163  138.5852  151.8566 C   0  0  0  0  0  0  0  0  0  0  0  0
  145.4683  137.5902  151.6504 C   0  0  0  0  0  0  0  0  0  0  0  0
  145.9210  136.2820  151.9704 O   0  0  0  0  0  0  0  0  0  0  0  0
  145.2283  135.2367  151.3004 C   0  0  0  0  0  0  0  0  0  0  0  0
  143.9421  134.8494  152.0607 C   0  0  0  0  0  0  0  0  0  0  0  0
  143.2579  133.6307  151.4192 C   0  0  0  0  0  0  0  0  0  0  0  0
  144.2196  132.4361  151.3209 C   0  0  0  0  0  0  0  0  0  0  0  0
  145.5033  132.8178  150.5676 C   0  0  0  0  0  0  0  0  0  0  0  0
  146.1850  134.0344  151.2142 C   0  0  0  0  0  0  0  0  0  0  0  0
  150.1986  141.0146  153.7204 H   0  0  0  0  0  0  0  0  0  0  0  0
  149.3311  142.2809  154.5269 H   0  0  0  0  0  0  0  0  0  0  0  0
  149.3887  142.5430  156.8293 H   0  0  0  0  0  0  0  0  0  0  0  0
  150.7247  142.3835  158.9239 H   0  0  0  0  0  0  0  0  0  0  0  0
  148.5865  139.9475  152.7083 H   0  0  0  0  0  0  0  0  0  0  0  0
  146.9719  138.0476  153.9273 H   0  0  0  0  0  0  0  0  0  0  0  0
  145.9417  139.4465  153.7383 H   0  0  0  0  0  0  0  0  0  0  0  0
  146.4004  139.4893  151.2859 H   0  0  0  0  0  0  0  0  0  0  0  0
  147.5357  138.1716  151.4402 H   0  0  0  0  0  0  0  0  0  0  0  0
  144.6160  137.8763  152.2670 H   0  0  0  0  0  0  0  0  0  0  0  0
  145.1431  137.6209  150.6095 H   0  0  0  0  0  0  0  0  0  0  0  0
  144.9783  135.5480  150.2843 H   0  0  0  0  0  0  0  0  0  0  0  0
  144.1854  134.6248  153.0998 H   0  0  0  0  0  0  0  0  0  0  0  0
  143.2398  135.6821  152.0818 H   0  0  0  0  0  0  0  0  0  0  0  0
  142.3771  133.3517  151.9982 H   0  0  0  0  0  0  0  0  0  0  0  0
  142.9014  133.8950  150.4230 H   0  0  0  0  0  0  0  0  0  0  0  0
  144.4737  132.0880  152.3230 H   0  0  0  0  0  0  0  0  0  0  0  0
  143.7275  131.6026  150.8190 H   0  0  0  0  0  0  0  0  0  0  0  0
  146.1905  131.9715  150.5504 H   0  0  0  0  0  0  0  0  0  0  0  0
  145.2639  133.0430  149.5275 H   0  0  0  0  0  0  0  0  0  0  0  0
  147.0728  134.3066  150.6427 H   0  0  0  0  0  0  0  0  0  0  0  0
  146.5312  133.7679  152.2138 H   0  0  0  0  0  0  0  0  0  0  0  0
  1  2  2  0  0  0  0
  2  3  1  0  0  0  0
  2 12  1  0  0  0  0
  3  4  1  0  0  0  0
  3 23  1  0  0  0  0
  3 24  1  0  0  0  0
  4 10  1  0  0  0  0
  4  5  1  0  0  0  0
  5  6  2  0  0  0  0
  5 25  1  0  0  0  0
  6  7  1  0  0  0  0
  6 26  1  0  0  0  0
  7  8  2  0  0  0  0
  7  9  1  0  0  0  0
  9 10  1  0  0  0  0
 10 11  2  0  0  0  0
 12 13  1  0  0  0  0
 12 27  1  0  0  0  0
 13 14  1  0  0  0  0
 13 28  1  0  0  0  0
 13 29  1  0  0  0  0
 14 15  1  0  0  0  0
 14 30  1  0  0  0  0
 14 31  1  0  0  0  0
 15 16  1  0  0  0  0
 15 32  1  0  0  0  0
 15 33  1  0  0  0  0
 16 17  1  0  0  0  0
 17 22  1  0  0  0  0
 17 18  1  0  0  0  0
 17 34  1  0  0  0  0
 18 19  1  0  0  0  0
 18 35  1  0  0  0  0
 18 36  1  0  0  0  0
 19 20  1  0  0  0  0
 19 37  1  0  0  0  0
 19 38  1  0  0  0  0
 20 21  1  0  0  0  0
 20 39  1  0  0  0  0
 20 40  1  0  0  0  0
 21 22  1  0  0  0  0
 21 41  1  0  0  0  0
 21 42  1  0  0  0  0
 22 43  1  0  0  0  0
 22 44  1  0  0  0  0
M  CHG  1   9  -1
M  END
> <s_m_source_file>
AV-unprocessed.smi

> <i_m_source_file_index>
2017

> <i_lp_mmshare_version>
43012

> <i_f3d_flags>
0

> <s_epik_input>
Tz1jMVtuSF1jKD1PKVtjSF1bY0hdbjFbQ0gyXUMoPU8pW05IXVtDSDJdW0NIMl1bQ0gyXU9bQ0hdMltDSDJdW0NIMl1bQ0gyXVtDSDJdW0NIMl0y

> <s_epik_cmdline>
J2VwaWtfcHl0aG9uJywgJy1waCcsICc3LjAnLCAnLXRuJywgJzgnLCAnLW1hJywgJzIwMCcsICctbWV0YWxfYmluZGluZycsICctaW1hZScsICc8aW5maWxlLm1hZT4nLCAnLW9tYWUnLCAnPG91dGZpbGUubWFlPic=

> <r_lp_tautomer_probability>
0.999537

> <r_epik_Ionization_Penalty>
3.07707

> <r_epik_Ionization_Penalty_Charging>
2.73667e-08

> <r_epik_Ionization_Penalty_Neutral>
3.07707

> <r_epik_State_Penalty>
3.07611

> <r_epik_Charging_Adjusted_Penalty>
3.07611

> <i_epik_Tot_Q>
-1

> <i_epik_Tot_abs_Q>
1

> <r_epik_Metal_State_Penalty>
0.459703

> <b_epik_Metal_Only>
1

> <s_lp_Force_Field>
OPLS_2005

> <r_lp_Energy>
18.9634

> <b_lp_Chiralities_Consistent>
1

> <s_lp_Variant>
AV-unprocessed.smi:2017-2

> <Gold.Version>
5.8.1

> <Gold.Id.Protein>
6NUR|6NUR_protein|mol2

> <Gold.PLP.Fitness>
51.4101

> <Gold.PLP.PLP>
-38.7000

> <Gold.PLP.part.hbond>
-3.0000

> <Gold.PLP.part.metal>
0.0000

> <Gold.PLP.part.buried>
-1.0962

> <Gold.PLP.part.nonpolar>
-36.4067

> <Gold.PLP.part.repulsive>
1.9066

> <Gold.PLP.ligand.clash>
0.0000

> <Gold.PLP.ligand.torsion>
1.1775

> <Gold.PLP.Chemscore.Hbond>
4.0000

> <Gold.PLP.Chemscore.CHOScore>
1.0000

> <Gold.PLP.Chemscore.Metal>
0.0000

> <Gold.Chemscore.Hbonds>
donor molecule, donor type, donor heavy atom, donor atom, acceptor molecule, acceptor atom, score
      L1  H    12    27       P1  7957  1.00
      P1  H  7989  7998       L1    11  0.95
      P1  H  7997  8009       L1     9  1.46
      L1  C     5    25       P1  8028  1.00

> <Gold.PLP.Chemscore.Internal.Correction>
0.0651

> <Gold.Rescore>
     Score         DG    S(hbond)    S(metal)    S(lipo)     H(rot)  DE(clash)    DE(int)     intcor
     13.67     -16.75       2.57        0.00      81.03       2.66       2.05       1.04       ----

> <Gold.Chemscore.Fitness>
13.6685

> <Gold.Chemscore.DG>
-16.7540

> <Gold.Chemscore.ZeroCoef>
-5.4800

> <Gold.Chemscore.Hbond>
2.5737

> <Gold.Chemscore.Metal>
0.0000

> <Gold.Chemscore.Lipo>
81.0280

> <Gold.Chemscore.Internal_Hbond>
0.0000

> <Gold.Chemscore.DEClash>
2.0459

> <Gold.Chemscore.DEInternal>
1.0396

> <Gold.Chemscore.Rot>
2.6572

> <Gold.Chemscore.Internal.Correction>
   9.000000E+99

> <Gold.Chemscore.Hbonds>
donor molecule, donor type, donor heavy atom, donor atom, acceptor molecule, acceptor atom, score
      L1  H    12    27       P1  7957  1.00
      P1  H  7989  7998       L1    11  0.21
      P1  H  7997  8009       L1     9  0.35

> <Gold.Chemscore.Hbond.Weighted>
-8.5962

> <Gold.Chemscore.Metal.Weighted>
-0.0000

> <Gold.Chemscore.Lipo.Weighted>
-9.4803

> <Gold.Chemscore.Internal_Hbond.Weighted>
0.0000

> <Gold.Chemscore.DEClash.Weighted>
2.0459

> <Gold.Chemscore.DEInternal.Weighted>
1.0396

> <Gold.Chemscore.Rot.Weighted>
6.8024

> <Gold.Chemscore.Internal.Correction.Weighted>
   9.000000E+99

> <Gold.Protein.RotatedTorsions>
[ 6907 6896 6895 6894 ] final -100.33 input  -60.11 | X-H torsion
[ 7974 7965 7964 7962 ] final  -64.95 input  175.53 | X-H torsion
[ 8008 7997 7996 7995 ] final -172.18 input   59.86 | X-H torsion
[ 10167 10162 10161 10158 ] final  -13.89 input  -65.29 | X-H torsion
[ 10718 10713 10712 10709 ] final -166.75 input   66.30 | X-H torsion
[ 10763 10752 10751 10750 ] final   36.04 input  -60.55 | X-H torsion
[ 11005 11000 10999 10996 ] final   59.33 input  -57.11 | X-H torsion

> <Gold.Protein.ActiveResidues>
 VAL166  LYS551  ARG553  GLY616  TRP617  ASP618  TYR619  PRO620  LYS621  CYS622 
 ASP623  PHE694  ASN695  SER759  ASP760  ASP761  ALA762  ILE779  LEU786  VAL792 
 PHE793  MET794  SER795  GLU796  ALA797  LYS798  CYS799  TRP800  GLU811  SER814 

> <Gold.Protein.RotatedAtoms>
  150.7112  134.0903  159.3929 H   0  0  0  0  0  0  0  0  0  0  0  0  # atno 6907 bound_to 6896
  151.8889  135.0422  160.0505 H   0  0  0  0  0  0  0  0  0  0  0  0  # atno 6908 bound_to 6896
  152.2508  133.5178  159.5361 H   0  0  0  0  0  0  0  0  0  0  0  0  # atno 6909 bound_to 6896
  145.7604  140.8864  143.0433 H   0  0  0  0  0  0  0  0  0  0  0  0  # atno 7974 bound_to 7965
  155.9413  140.1109  157.1053 H   0  0  0  0  0  0  0  0  0  0  0  0  # atno 8008 bound_to 7997
  154.4090  140.1218  156.4996 H   0  0  0  0  0  0  0  0  0  0  0  0  # atno 8009 bound_to 7997
  155.6959  140.3472  155.4915 H   0  0  0  0  0  0  0  0  0  0  0  0  # atno 8010 bound_to 7997
  140.7191  143.5379  150.9443 H   0  0  0  0  0  0  0  0  0  0  0  0  # atno 10167 bound_to 10162
  156.6724  130.9089  151.3045 H   0  0  0  0  0  0  0  0  0  0  0  0  # atno 10718 bound_to 10713
  153.0094  135.6317  154.1921 H   0  0  0  0  0  0  0  0  0  0  0  0  # atno 10763 bound_to 10752
  154.1664  135.2820  155.3095 H   0  0  0  0  0  0  0  0  0  0  0  0  # atno 10764 bound_to 10752
  154.5942  135.5608  153.7369 H   0  0  0  0  0  0  0  0  0  0  0  0  # atno 10765 bound_to 10752
  140.0312  134.6009  155.9505 H   0  0  0  0  0  0  0  0  0  0  0  0  # atno 11005 bound_to 11000
  144.6831  139.9714  143.7482 LP  0  0  0  0  0  0  0  0  0  0  0  0  # atno 17320 bound_to 7965
  146.0270  139.3301  143.0778 LP  0  0  0  0  0  0  0  0  0  0  0  0  # atno 17321 bound_to 7965
  139.9101  143.6731  152.3116 LP  0  0  0  0  0  0  0  0  0  0  0  0  # atno 17342 bound_to 10162
  139.7111  144.7620  151.1111 LP  0  0  0  0  0  0  0  0  0  0  0  0  # atno 17343 bound_to 10162
  157.7073  130.9399  150.0971 LP  0  0  0  0  0  0  0  0  0  0  0  0  # atno 17370 bound_to 10713
  156.1929  130.3655  149.8886 LP  0  0  0  0  0  0  0  0  0  0  0  0  # atno 17371 bound_to 10713
  141.1832  133.6550  156.5106 LP  0  0  0  0  0  0  0  0  0  0  0  0  # atno 17394 bound_to 11000
  140.4223  134.7176  157.4896 LP  0  0  0  0  0  0  0  0  0  0  0  0  # atno 17395 bound_to 11000

$$$$
