AV-unprocessed.smi:2859|AV-procd|sdf|11004|dock6
  -GOLD-   2272015463D 1   1.00000     0.00000
 Structure written by MMmdl.
 51 52  0  0  0  0  0  0  0  0  1 V2000
  152.7766  143.9795  160.2070 C   0  0  0  0  0  0  0  0  0  0  0  0
  152.0156  143.8447  158.8689 C   0  0  0  0  0  0  0  0  0  0  0  0
  150.6451  144.5318  159.0415 C   0  0  0  0  0  0  0  0  0  0  0  0
  152.8379  144.5788  157.7896 C   0  0  0  0  0  0  0  0  0  0  0  0
  151.8105  142.3776  158.4544 C   0  0  0  0  0  0  0  0  0  0  0  0
  151.1027  141.9838  157.2931 C   0  0  0  0  0  0  0  0  0  0  0  0
  151.0128  140.5948  157.0264 C   0  0  0  0  0  0  0  0  0  0  0  0
  150.3399  140.0735  155.8978 N   0  0  0  0  0  0  0  0  0  0  0  0
  150.4497  138.6451  155.6174 C   0  0  0  0  0  0  0  0  0  0  0  0
  149.9481  138.3343  154.1990 C   0  0  0  0  0  0  0  0  0  0  0  0
  148.6248  138.8298  154.0392 O   0  0  0  0  0  0  0  0  0  0  0  0
  148.5625  140.2494  154.1751 C   0  0  1  0  0  0  0  0  0  0  0  0
  147.1280  140.7115  153.8786 C   0  0  0  0  0  0  0  0  0  0  0  0
  146.6026  140.3560  152.7024 N   0  0  0  0  0  0  0  0  0  0  0  0
  146.5020  141.3952  154.6866 O   0  0  0  0  0  0  0  0  0  0  0  0
  149.0277  140.6465  155.5946 C   0  0  0  0  0  0  0  0  0  0  0  0
  151.5809  139.7048  157.8726 N   0  0  0  0  0  0  0  0  0  0  0  0
  152.1939  140.1605  158.9697 C   0  0  0  0  0  0  0  0  0  0  0  0
  152.9554  139.1369  159.8281 C   0  0  0  0  0  0  0  0  0  0  0  0
  153.7016  139.8706  160.9573 C   0  0  0  0  0  0  0  0  0  0  0  0
  153.9681  138.3373  158.9744 C   0  0  0  0  0  0  0  0  0  0  0  0
  151.9875  138.0940  160.4351 C   0  0  0  0  0  0  0  0  0  0  0  0
  152.3610  141.4515  159.2716 N   0  0  0  0  0  0  0  0  0  0  0  0
  152.9111  145.0265  160.4810 H   0  0  0  0  0  0  0  0  0  0  0  0
  153.7709  143.5346  160.1517 H   0  0  0  0  0  0  0  0  0  0  0  0
  152.2380  143.5031  161.0272 H   0  0  0  0  0  0  0  0  0  0  0  0
  150.0413  144.0250  159.7953 H   0  0  0  0  0  0  0  0  0  0  0  0
  150.0741  144.5361  158.1123 H   0  0  0  0  0  0  0  0  0  0  0  0
  150.7572  145.5706  159.3537 H   0  0  0  0  0  0  0  0  0  0  0  0
  153.0148  145.6193  158.0640 H   0  0  0  0  0  0  0  0  0  0  0  0
  152.3289  144.5835  156.8251 H   0  0  0  0  0  0  0  0  0  0  0  0
  153.8103  144.1064  157.6453 H   0  0  0  0  0  0  0  0  0  0  0  0
  150.6668  142.7128  156.6301 H   0  0  0  0  0  0  0  0  0  0  0  0
  151.4876  138.3203  155.6961 H   0  0  0  0  0  0  0  0  0  0  0  0
  149.8700  138.0869  156.3536 H   0  0  0  0  0  0  0  0  0  0  0  0
  150.6066  138.7732  153.4477 H   0  0  0  0  0  0  0  0  0  0  0  0
  149.9467  137.2574  154.0302 H   0  0  0  0  0  0  0  0  0  0  0  0
  149.2151  140.7100  153.4314 H   0  0  0  0  0  0  0  0  0  0  0  0
  145.6654  140.6475  152.4649 H   0  0  0  0  0  0  0  0  0  0  0  0
  147.1469  139.8065  152.0538 H   0  0  0  0  0  0  0  0  0  0  0  0
  148.3145  140.2943  156.3414 H   0  0  0  0  0  0  0  0  0  0  0  0
  149.0490  141.7345  155.6623 H   0  0  0  0  0  0  0  0  0  0  0  0
  154.2560  139.1739  161.5868 H   0  0  0  0  0  0  0  0  0  0  0  0
  153.0096  140.4162  161.5998 H   0  0  0  0  0  0  0  0  0  0  0  0
  154.4149  140.5917  160.5559 H   0  0  0  0  0  0  0  0  0  0  0  0
  154.7438  138.9782  158.5532 H   0  0  0  0  0  0  0  0  0  0  0  0
  153.4742  137.8280  158.1459 H   0  0  0  0  0  0  0  0  0  0  0  0
  154.4769  137.5780  159.5690 H   0  0  0  0  0  0  0  0  0  0  0  0
  152.5264  137.3379  161.0071 H   0  0  0  0  0  0  0  0  0  0  0  0
  151.4234  137.5767  159.6580 H   0  0  0  0  0  0  0  0  0  0  0  0
  151.2685  138.5506  161.1166 H   0  0  0  0  0  0  0  0  0  0  0  0
  1  2  1  0  0  0  0
  1 24  1  0  0  0  0
  1 25  1  0  0  0  0
  1 26  1  0  0  0  0
  2  3  1  0  0  0  0
  2  4  1  0  0  0  0
  2  5  1  0  0  0  0
  3 27  1  0  0  0  0
  3 28  1  0  0  0  0
  3 29  1  0  0  0  0
  4 30  1  0  0  0  0
  4 31  1  0  0  0  0
  4 32  1  0  0  0  0
  5 23  1  0  0  0  0
  5  6  2  0  0  0  0
  6  7  1  0  0  0  0
  6 33  1  0  0  0  0
  7  8  1  0  0  0  0
  7 17  2  0  0  0  0
  8 16  1  0  0  0  0
  8  9  1  0  0  0  0
  9 10  1  0  0  0  0
  9 34  1  0  0  0  0
  9 35  1  0  0  0  0
 10 11  1  0  0  0  0
 10 36  1  0  0  0  0
 10 37  1  0  0  0  0
 11 12  1  0  0  0  0
 12 13  1  0  0  0  0
 12 16  1  0  0  0  0
 12 38  1  0  0  0  0
 13 14  1  0  0  0  0
 13 15  2  0  0  0  0
 14 39  1  0  0  0  0
 14 40  1  0  0  0  0
 16 41  1  0  0  0  0
 16 42  1  0  0  0  0
 17 18  1  0  0  0  0
 18 19  1  0  0  0  0
 18 23  2  0  0  0  0
 19 20  1  0  0  0  0
 19 21  1  0  0  0  0
 19 22  1  0  0  0  0
 20 43  1  0  0  0  0
 20 44  1  0  0  0  0
 20 45  1  0  0  0  0
 21 46  1  0  0  0  0
 21 47  1  0  0  0  0
 21 48  1  0  0  0  0
 22 49  1  0  0  0  0
 22 50  1  0  0  0  0
 22 51  1  0  0  0  0
M  END
> <s_m_source_file>
AV-unprocessed.smi

> <i_m_source_file_index>
2859

> <i_lp_mmshare_version>
43012

> <i_f3d_flags>
0

> <s_epik_input>
W0NIM11DKFtDSDNdKShbQ0gzXSljMVtjSF1jKG5jKG4xKUMoW0NIM10pKFtDSDNdKVtDSDNdKU4yW0NIMl1bQ0gyXU9bQ0BIXShbQ0gyXTIpQyg9TylbTkgyXQ==

> <s_epik_cmdline>
J2VwaWtfcHl0aG9uJywgJy1waCcsICc3LjAnLCAnLXRuJywgJzgnLCAnLW1hJywgJzIwMCcsICctbWV0YWxfYmluZGluZycsICctaW1hZScsICc8aW5maWxlLm1hZT4nLCAnLW9tYWUnLCAnPG91dGZpbGUubWFlPic=

> <r_lp_tautomer_probability>
1

> <r_epik_Ionization_Penalty>
0.0011326

> <r_epik_Ionization_Penalty_Charging>
0

> <r_epik_Ionization_Penalty_Neutral>
0.0011326

> <r_epik_State_Penalty>
0.000721507

> <r_epik_Charging_Adjusted_Penalty>
0.000721507

> <i_epik_Tot_Q>
0

> <i_epik_Tot_abs_Q>
0

> <r_epik_Metal_State_Penalty>
-0

> <b_epik_Metal_Only>
0

> <s_lp_Force_Field>
OPLS_2005

> <r_lp_Energy>
9.66703

> <b_lp_Chiralities_Consistent>
1

> <s_lp_Variant>
AV-unprocessed.smi:2859-1

> <Gold.Version>
5.8.1

> <Gold.Id.Protein>
6NUR|6NUR_protein|mol2

> <Gold.PLP.Fitness>
41.5503

> <Gold.PLP.PLP>
-38.6836

> <Gold.PLP.part.hbond>
-1.0504

> <Gold.PLP.part.metal>
0.0000

> <Gold.PLP.part.buried>
-4.9499

> <Gold.PLP.part.nonpolar>
-33.4236

> <Gold.PLP.part.repulsive>
1.5131

> <Gold.PLP.ligand.clash>
0.0000

> <Gold.PLP.ligand.torsion>
0.3749

> <Gold.PLP.Chemscore.Hbond>
1.0000

> <Gold.PLP.Chemscore.CHOScore>
0.0000

> <Gold.PLP.Chemscore.Metal>
0.0000

> <Gold.Chemscore.Hbonds>
donor molecule, donor type, donor heavy atom, donor atom, acceptor molecule, acceptor atom, score
      L1  H    14    39       P1 10175  1.00

> <Gold.PLP.Chemscore.Internal.Correction>
0.6165

> <Gold.Rescore>
     Score         DG    S(hbond)    S(metal)    S(lipo)     H(rot)  DE(clash)    DE(int)     intcor
     16.79     -17.68       0.98        0.00     116.47       1.83       0.19       0.70       ----

> <Gold.Chemscore.Fitness>
16.7926

> <Gold.Chemscore.DG>
-17.6814

> <Gold.Chemscore.ZeroCoef>
-5.4800

> <Gold.Chemscore.Hbond>
0.9774

> <Gold.Chemscore.Metal>
0.0000

> <Gold.Chemscore.Lipo>
116.4742

> <Gold.Chemscore.Internal_Hbond>
0.0000

> <Gold.Chemscore.DEClash>
0.1910

> <Gold.Chemscore.DEInternal>
0.6978

> <Gold.Chemscore.Rot>
1.8323

> <Gold.Chemscore.Internal.Correction>
   9.000000E+99

> <Gold.Chemscore.Hbonds>
donor molecule, donor type, donor heavy atom, donor atom, acceptor molecule, acceptor atom, score
      L1  H    14    39       P1 10175  0.29

> <Gold.Chemscore.Hbond.Weighted>
-3.2646

> <Gold.Chemscore.Metal.Weighted>
-0.0000

> <Gold.Chemscore.Lipo.Weighted>
-13.6275

> <Gold.Chemscore.Internal_Hbond.Weighted>
0.0000

> <Gold.Chemscore.DEClash.Weighted>
0.1910

> <Gold.Chemscore.DEInternal.Weighted>
0.6978

> <Gold.Chemscore.Rot.Weighted>
4.6907

> <Gold.Chemscore.Internal.Correction.Weighted>
   9.000000E+99

> <Gold.Protein.RotatedTorsions>
[ 6907 6896 6895 6894 ] final -145.71 input  -60.11 | X-H torsion
[ 7974 7965 7964 7962 ] final  143.07 input  175.53 | X-H torsion
[ 8008 7997 7996 7995 ] final   56.74 input   59.86 | X-H torsion
[ 10167 10162 10161 10158 ] final  -78.44 input  -65.29 | X-H torsion
[ 10718 10713 10712 10709 ] final  -41.29 input   66.30 | X-H torsion
[ 10763 10752 10751 10750 ] final  148.47 input  -60.55 | X-H torsion
[ 11005 11000 10999 10996 ] final  -31.19 input  -57.11 | X-H torsion

> <Gold.Protein.ActiveResidues>
 VAL166  LYS551  ARG553  GLY616  TRP617  ASP618  TYR619  PRO620  LYS621  CYS622 
 ASP623  PHE694  ASN695  SER759  ASP760  ASP761  ALA762  ILE779  LEU786  VAL792 
 PHE793  MET794  SER795  GLU796  ALA797  LYS798  CYS799  TRP800  GLU811  SER814 

> <Gold.Protein.RotatedAtoms>
  151.1315  133.5033  159.2598 H   0  0  0  0  0  0  0  0  0  0  0  0  # atno 6907 bound_to 6896
  151.1752  135.0336  159.8779 H   0  0  0  0  0  0  0  0  0  0  0  0  # atno 6908 bound_to 6896
  152.5460  134.1174  159.8437 H   0  0  0  0  0  0  0  0  0  0  0  0  # atno 6909 bound_to 6896
  144.8952  139.5500  143.5779 H   0  0  0  0  0  0  0  0  0  0  0  0  # atno 7974 bound_to 7965
  155.5223  140.3480  155.4409 H   0  0  0  0  0  0  0  0  0  0  0  0  # atno 8008 bound_to 7997
  156.0775  140.1378  156.9780 H   0  0  0  0  0  0  0  0  0  0  0  0  # atno 8009 bound_to 7997
  154.4561  140.0953  156.6738 H   0  0  0  0  0  0  0  0  0  0  0  0  # atno 8010 bound_to 7997
  140.4682  143.2434  151.8246 H   0  0  0  0  0  0  0  0  0  0  0  0  # atno 10167 bound_to 10162
  156.2720  130.4208  149.8428 H   0  0  0  0  0  0  0  0  0  0  0  0  # atno 10718 bound_to 10713
  154.0553  135.2878  155.3334 H   0  0  0  0  0  0  0  0  0  0  0  0  # atno 10763 bound_to 10752
  154.6843  135.5251  153.8309 H   0  0  0  0  0  0  0  0  0  0  0  0  # atno 10764 bound_to 10752
  153.0544  135.6589  154.0746 H   0  0  0  0  0  0  0  0  0  0  0  0  # atno 10765 bound_to 10752
  140.9447  133.7257  156.1129 H   0  0  0  0  0  0  0  0  0  0  0  0  # atno 11005 bound_to 11000
  146.3077  139.7637  142.9043 LP  0  0  0  0  0  0  0  0  0  0  0  0  # atno 17320 bound_to 7965
  145.3712  141.0343  143.3230 LP  0  0  0  0  0  0  0  0  0  0  0  0  # atno 17321 bound_to 7965
  139.4815  144.4925  151.9166 LP  0  0  0  0  0  0  0  0  0  0  0  0  # atno 17342 bound_to 10162
  140.4010  144.2493  150.5893 LP  0  0  0  0  0  0  0  0  0  0  0  0  # atno 17343 bound_to 10162
  156.5906  130.8504  151.3407 LP  0  0  0  0  0  0  0  0  0  0  0  0  # atno 17370 bound_to 10713
  157.7287  130.9660  150.1754 LP  0  0  0  0  0  0  0  0  0  0  0  0  # atno 17371 bound_to 10713
  140.7685  134.3859  157.5512 LP  0  0  0  0  0  0  0  0  0  0  0  0  # atno 17394 bound_to 11000
  139.8830  134.9007  156.2794 LP  0  0  0  0  0  0  0  0  0  0  0  0  # atno 17395 bound_to 11000

$$$$
