AV-unprocessed.smi:1867|AV-procd|sdf|7578|dock2
  -GOLD-   22720 9293D 1   1.00000     0.00000
 Structure written by MMmdl.
 52 55  0  0  0  0  0  0  0  0  4 V2000
  146.7129  140.4477  153.6707 O   0  0  0  0  0  0  0  0  0  0  0  0
  147.3912  139.5240  153.2262 C   0  0  0  0  0  0  0  0  0  0  0  0
  148.6657  139.3709  153.6641 N   0  0  0  0  0  0  0  0  0  0  0  0
  149.4151  140.1758  154.5639 C   0  0  0  0  0  0  0  0  0  0  0  0
  150.5671  139.6084  155.1465 C   0  0  0  0  0  0  0  0  0  0  0  0
  151.3576  140.3747  156.0270 C   0  0  0  0  0  0  0  0  0  0  0  0
  150.9957  141.7136  156.3082 C   0  0  0  0  0  0  0  0  0  0  0  0
  151.7351  142.5382  157.1775 N   0  0  0  0  0  0  0  0  0  0  0  0
  151.4939  143.9700  157.2500 C   0  0  0  0  0  0  0  0  0  0  0  0
  152.3392  144.4477  158.4302 C   0  0  0  0  0  0  0  0  0  0  0  0
  152.3359  143.2435  159.3717 C   0  0  0  0  0  0  0  0  0  0  0  0
  152.2845  142.0352  158.4302 C   0  0  0  0  0  0  0  0  0  0  0  0
  149.8867  142.2201  155.7184 N   0  3  0  0  0  0  0  0  0  0  0  0
  149.1020  141.5214  154.8700 C   0  0  0  0  0  0  0  0  0  0  0  0
  146.8730  138.6375  152.3225 N   0  5  0  0  0  0  0  0  0  0  0  0
  145.6613  137.8054  152.4282 C   0  0  2  0  0  0  0  0  0  0  0  0
  145.4748  137.3575  153.8788 C   0  0  0  0  0  0  0  0  0  0  0  0
  146.3538  136.1102  154.0222 C   0  0  0  0  0  0  0  0  0  0  0  0
  146.5233  135.5539  152.6590 N   0  3  1  0  0  0  0  0  0  0  0  0
  146.1687  134.1141  152.5345 C   0  0  0  0  0  0  0  0  0  0  0  0
  145.9884  133.7181  151.0608 C   0  0  0  0  0  0  0  0  0  0  0  0
  144.8438  134.5098  150.3980 C   0  0  0  0  0  0  0  0  0  0  0  0
  144.5623  135.8464  151.1130 C   0  0  0  0  0  0  0  0  0  0  0  0
  145.8643  136.4683  151.6812 C   0  0  1  0  0  0  0  0  0  0  0  0
  149.1366  138.5416  153.3337 H   0  0  0  0  0  0  0  0  0  0  0  0
  150.8441  138.5877  154.9259 H   0  0  0  0  0  0  0  0  0  0  0  0
  152.2308  139.9239  156.4738 H   0  0  0  0  0  0  0  0  0  0  0  0
  151.7757  144.4750  156.3255 H   0  0  0  0  0  0  0  0  0  0  0  0
  150.4344  144.1515  157.4368 H   0  0  0  0  0  0  0  0  0  0  0  0
  153.3579  144.6508  158.0970 H   0  0  0  0  0  0  0  0  0  0  0  0
  151.9482  145.3542  158.8934 H   0  0  0  0  0  0  0  0  0  0  0  0
  153.1969  143.2227  160.0404 H   0  0  0  0  0  0  0  0  0  0  0  0
  151.4352  143.2662  159.9868 H   0  0  0  0  0  0  0  0  0  0  0  0
  151.6844  141.2325  158.8602 H   0  0  0  0  0  0  0  0  0  0  0  0
  153.2869  141.6495  158.2420 H   0  0  0  0  0  0  0  0  0  0  0  0
  148.2679  142.0734  154.4634 H   0  0  0  0  0  0  0  0  0  0  0  0
  144.7728  138.3289  152.0725 H   0  0  0  0  0  0  0  0  0  0  0  0
  145.7150  138.1308  154.6103 H   0  0  0  0  0  0  0  0  0  0  0  0
  144.4313  137.0804  154.0344 H   0  0  0  0  0  0  0  0  0  0  0  0
  147.3402  136.3733  154.4090 H   0  0  0  0  0  0  0  0  0  0  0  0
  145.9158  135.3973  154.7223 H   0  0  0  0  0  0  0  0  0  0  0  0
  146.9504  133.5150  153.0023 H   0  0  0  0  0  0  0  0  0  0  0  0
  145.2438  133.9066  153.0755 H   0  0  0  0  0  0  0  0  0  0  0  0
  146.9208  133.9099  150.5276 H   0  0  0  0  0  0  0  0  0  0  0  0
  145.8018  132.6475  150.9714 H   0  0  0  0  0  0  0  0  0  0  0  0
  145.0966  134.6907  149.3526 H   0  0  0  0  0  0  0  0  0  0  0  0
  143.9306  133.9137  150.3903 H   0  0  0  0  0  0  0  0  0  0  0  0
  144.0688  136.5248  150.4140 H   0  0  0  0  0  0  0  0  0  0  0  0
  143.8452  135.6665  151.9174 H   0  0  0  0  0  0  0  0  0  0  0  0
  146.5430  136.6070  150.8373 H   0  0  0  0  0  0  0  0  0  0  0  0
  147.5104  135.6290  152.4575 H   0  0  0  0  0  0  0  0  0  0  0  0
  149.6307  143.1865  155.9203 H   0  0  0  0  0  0  0  0  0  0  0  0
  1  2  2  0  0  0  0
  2  3  1  0  0  0  0
  2 15  1  0  0  0  0
  3  4  1  0  0  0  0
  3 25  1  0  0  0  0
  4 14  1  0  0  0  0
  4  5  2  0  0  0  0
  5  6  1  0  0  0  0
  5 26  1  0  0  0  0
  6  7  2  0  0  0  0
  6 27  1  0  0  0  0
  7  8  1  0  0  0  0
  7 13  1  0  0  0  0
  8 12  1  0  0  0  0
  8  9  1  0  0  0  0
  9 10  1  0  0  0  0
  9 28  1  0  0  0  0
  9 29  1  0  0  0  0
 10 11  1  0  0  0  0
 10 30  1  0  0  0  0
 10 31  1  0  0  0  0
 11 12  1  0  0  0  0
 11 32  1  0  0  0  0
 11 33  1  0  0  0  0
 12 34  1  0  0  0  0
 12 35  1  0  0  0  0
 13 14  2  0  0  0  0
 13 52  1  0  0  0  0
 14 36  1  0  0  0  0
 15 16  1  0  0  0  0
 16 24  1  0  0  0  0
 16 17  1  0  0  0  0
 16 37  1  0  0  0  0
 17 18  1  0  0  0  0
 17 38  1  0  0  0  0
 17 39  1  0  0  0  0
 18 19  1  0  0  0  0
 18 40  1  0  0  0  0
 18 41  1  0  0  0  0
 19 24  1  0  0  0  0
 19 20  1  0  0  0  0
 19 51  1  0  0  0  0
 20 21  1  0  0  0  0
 20 42  1  0  0  0  0
 20 43  1  0  0  0  0
 21 22  1  0  0  0  0
 21 44  1  0  0  0  0
 21 45  1  0  0  0  0
 22 23  1  0  0  0  0
 22 46  1  0  0  0  0
 22 47  1  0  0  0  0
 23 24  1  0  0  0  0
 23 48  1  0  0  0  0
 23 49  1  0  0  0  0
 24 50  1  0  0  0  0
M  CHG  1  13   1
M  CHG  1  15  -1
M  CHG  1  19   1
M  END
> <s_m_source_file>
AV-unprocessed.smi

> <i_m_source_file_index>
1867

> <i_lp_mmshare_version>
43012

> <i_f3d_flags>
0

> <s_epik_input>
W0NIMl0xW0NIMl1bQ0gyXVtDSDJdW0NASF0oTjEyKVtDQEBIXShbQ0gyXVtDSDJdMilbTkhdQyg9TylbTkhdYzNbY0hdW2NIXWMobltjSF0zKU40W0NIMl1bQ0gyXVtDSDJdW0NIMl00

> <s_epik_cmdline>
J2VwaWtfcHl0aG9uJywgJy1waCcsICc3LjAnLCAnLXRuJywgJzgnLCAnLW1hJywgJzIwMCcsICctbWV0YWxfYmluZGluZycsICctaW1hZScsICc8aW5maWxlLm1hZT4nLCAnLW9tYWUnLCAnPG91dGZpbGUubWFlPic=

> <r_lp_tautomer_probability>
0.999994

> <r_epik_Ionization_Penalty>
8.56137

> <r_epik_Ionization_Penalty_Charging>
8.56136

> <r_epik_Ionization_Penalty_Neutral>
3.91889e-06

> <r_epik_State_Penalty>
8.16255

> <r_epik_Charging_Adjusted_Penalty>
16.7239

> <i_epik_Tot_Q>
1

> <i_epik_Tot_abs_Q>
3

> <r_epik_Metal_State_Penalty>
4.14279

> <b_epik_Metal_Only>
1

> <s_lp_Force_Field>
OPLS_2005

> <r_lp_Energy>
71.5854

> <b_lp_Chiralities_Consistent>
1

> <s_lp_Variant>
AV-unprocessed.smi:1867-19

> <Gold.Version>
5.8.1

> <Gold.Id.Protein>
6NUR|6NUR_protein|mol2

> <Gold.PLP.Fitness>
54.3390

> <Gold.PLP.PLP>
-44.6688

> <Gold.PLP.part.hbond>
-3.0000

> <Gold.PLP.part.metal>
0.0000

> <Gold.PLP.part.buried>
-2.3335

> <Gold.PLP.part.nonpolar>
-40.6334

> <Gold.PLP.part.repulsive>
0.7120

> <Gold.PLP.ligand.clash>
0.0000

> <Gold.PLP.ligand.torsion>
1.3116

> <Gold.PLP.Chemscore.Hbond>
4.0000

> <Gold.PLP.Chemscore.CHOScore>
0.0000

> <Gold.PLP.Chemscore.Metal>
0.0000

> <Gold.Chemscore.Hbonds>
donor molecule, donor type, donor heavy atom, donor atom, acceptor molecule, acceptor atom, score
      L1  H    13    52       P1  8028  2.00
      L1  H    19    51       P1  7948  2.00

> <Gold.PLP.Chemscore.Internal.Correction>
0.2935

> <Gold.Rescore>
     Score         DG    S(hbond)    S(metal)    S(lipo)     H(rot)  DE(clash)    DE(int)     intcor
     19.77     -22.46       1.99        0.00     110.30       1.00       0.37       2.33       ----

> <Gold.Chemscore.Fitness>
19.7689

> <Gold.Chemscore.DG>
-22.4609

> <Gold.Chemscore.ZeroCoef>
-5.4800

> <Gold.Chemscore.Hbond>
1.9869

> <Gold.Chemscore.Metal>
0.0000

> <Gold.Chemscore.Lipo>
110.2973

> <Gold.Chemscore.Internal_Hbond>
0.0000

> <Gold.Chemscore.DEClash>
0.3658

> <Gold.Chemscore.DEInternal>
2.3262

> <Gold.Chemscore.Rot>
1.0000

> <Gold.Chemscore.Internal.Correction>
   9.000000E+99

> <Gold.Chemscore.Hbonds>
donor molecule, donor type, donor heavy atom, donor atom, acceptor molecule, acceptor atom, score
      L1  H    13    52       P1  8028  0.99
      L1  H    19    51       P1  7948  0.99

> <Gold.Chemscore.Hbond.Weighted>
-6.6361

> <Gold.Chemscore.Metal.Weighted>
-0.0000

> <Gold.Chemscore.Lipo.Weighted>
-12.9048

> <Gold.Chemscore.Internal_Hbond.Weighted>
0.0000

> <Gold.Chemscore.DEClash.Weighted>
0.3658

> <Gold.Chemscore.DEInternal.Weighted>
2.3262

> <Gold.Chemscore.Rot.Weighted>
2.5600

> <Gold.Chemscore.Internal.Correction.Weighted>
   9.000000E+99

> <Gold.Protein.RotatedTorsions>
[ 6907 6896 6895 6894 ] final   54.73 input  -60.11 | X-H torsion
[ 7974 7965 7964 7962 ] final   85.91 input  175.53 | X-H torsion
[ 8008 7997 7996 7995 ] final   17.66 input   59.86 | X-H torsion
[ 10167 10162 10161 10158 ] final  -97.46 input  -65.29 | X-H torsion
[ 10718 10713 10712 10709 ] final   -5.52 input   66.30 | X-H torsion
[ 10763 10752 10751 10750 ] final  178.49 input  -60.55 | X-H torsion
[ 11005 11000 10999 10996 ] final -164.49 input  -57.11 | X-H torsion

> <Gold.Protein.ActiveResidues>
 VAL166  LYS551  ARG553  GLY616  TRP617  ASP618  TYR619  PRO620  LYS621  CYS622 
 ASP623  PHE694  ASN695  SER759  ASP760  ASP761  ALA762  ILE779  LEU786  VAL792 
 PHE793  MET794  SER795  GLU796  ALA797  LYS798  CYS799  TRP800  GLU811  SER814 

> <Gold.Protein.RotatedAtoms>
  152.3468  134.7059  160.0247 H   0  0  0  0  0  0  0  0  0  0  0  0  # atno 6907 bound_to 6896
  151.7426  133.3317  159.3378 H   0  0  0  0  0  0  0  0  0  0  0  0  # atno 6908 bound_to 6896
  150.7514  134.6197  159.6174 H   0  0  0  0  0  0  0  0  0  0  0  0  # atno 6909 bound_to 6896
  145.5793  139.2323  143.2362 H   0  0  0  0  0  0  0  0  0  0  0  0  # atno 7974 bound_to 7965
  154.8947  140.2992  155.5351 H   0  0  0  0  0  0  0  0  0  0  0  0  # atno 8008 bound_to 7997
  156.3020  140.2418  156.3902 H   0  0  0  0  0  0  0  0  0  0  0  0  # atno 8009 bound_to 7997
  154.8582  140.0406  157.1637 H   0  0  0  0  0  0  0  0  0  0  0  0  # atno 8010 bound_to 7997
  140.2832  143.3269  152.0421 H   0  0  0  0  0  0  0  0  0  0  0  0  # atno 10167 bound_to 10162
  156.7453  130.5222  149.5815 H   0  0  0  0  0  0  0  0  0  0  0  0  # atno 10718 bound_to 10713
  154.5084  135.2787  155.1363 H   0  0  0  0  0  0  0  0  0  0  0  0  # atno 10763 bound_to 10752
  154.2969  135.6256  153.5412 H   0  0  0  0  0  0  0  0  0  0  0  0  # atno 10764 bound_to 10752
  152.9914  135.5687  154.5543 H   0  0  0  0  0  0  0  0  0  0  0  0  # atno 10765 bound_to 10752
  140.5863  134.5090  157.5186 H   0  0  0  0  0  0  0  0  0  0  0  0  # atno 11005 bound_to 11000
  146.1728  140.6620  142.9225 LP  0  0  0  0  0  0  0  0  0  0  0  0  # atno 17320 bound_to 7965
  144.7401  140.4919  143.6875 LP  0  0  0  0  0  0  0  0  0  0  0  0  # atno 17321 bound_to 7965
  139.4957  144.6577  151.6534 LP  0  0  0  0  0  0  0  0  0  0  0  0  # atno 17342 bound_to 10162
  140.5795  143.9971  150.6260 LP  0  0  0  0  0  0  0  0  0  0  0  0  # atno 17343 bound_to 10162
  156.1437  130.6262  151.0502 LP  0  0  0  0  0  0  0  0  0  0  0  0  # atno 17370 bound_to 10713
  157.6801  131.0840  150.7393 LP  0  0  0  0  0  0  0  0  0  0  0  0  # atno 17371 bound_to 10713
  139.9294  134.7993  156.0974 LP  0  0  0  0  0  0  0  0  0  0  0  0  # atno 17394 bound_to 11000
  141.0964  133.6694  156.2654 LP  0  0  0  0  0  0  0  0  0  0  0  0  # atno 17395 bound_to 11000

$$$$
