AV-unprocessed.smi:1691|AV-procd|sdf|6775|dock9
  -GOLD-   22720 7533D 1   1.00000     0.00000
 Structure written by MMmdl.
 44 45  0  0  0  0  0  0  0  0  2 V2000
  146.9857  139.8537  157.2709 C   0  0  0  0  0  0  0  0  0  0  0  0
  146.6299  140.0477  155.7830 C   0  0  0  0  0  0  0  0  0  0  0  0
  145.1122  139.8479  155.6058 C   0  0  0  0  0  0  0  0  0  0  0  0
  147.4781  139.1264  154.8572 C   0  0  1  0  0  0  0  0  0  0  0  0
  147.0814  139.2558  153.3587 C   0  0  0  0  0  0  0  0  0  0  0  0
  147.0769  137.9790  152.6501 N   0  0  0  0  0  0  0  0  0  0  0  0
  145.9872  137.2639  152.3368 C   0  0  0  0  0  0  0  0  0  0  0  0
  144.8402  137.6094  152.6192 O   0  0  0  0  0  0  0  0  0  0  0  0
  146.3141  136.1441  151.6722 N   0  0  0  0  0  0  0  0  0  0  0  0
  145.4286  135.1617  151.1630 C   0  0  0  0  0  0  0  0  0  0  0  0
  145.6585  133.7741  150.9290 C   0  0  0  0  0  0  0  0  0  0  0  0
  144.5756  133.1841  150.4437 N   0  0  0  0  0  0  0  0  0  0  0  0
  143.6613  134.1767  150.3640 N   0  0  0  0  0  0  0  0  0  0  0  0
  144.1385  135.3961  150.7911 C   0  0  0  0  0  0  0  0  0  0  0  0
  148.9357  139.3447  155.1234 N   0  3  0  0  0  0  0  0  0  0  0  0
  149.8660  138.5238  154.3098 C   0  0  0  0  0  0  0  0  0  0  0  0
  151.2961  138.6581  154.8588 C   0  0  0  0  0  0  0  0  0  0  0  0
  151.6757  140.0295  154.8744 O   0  0  0  0  0  0  0  0  0  0  0  0
  150.8376  140.8095  155.7198 C   0  0  0  0  0  0  0  0  0  0  0  0
  149.3903  140.7555  155.2040 C   0  0  0  0  0  0  0  0  0  0  0  0
  142.7268  134.0076  150.0194 H   0  0  0  0  0  0  0  0  0  0  0  0
  146.8336  138.8198  157.5826 H   0  0  0  0  0  0  0  0  0  0  0  0
  146.3654  140.4843  157.9087 H   0  0  0  0  0  0  0  0  0  0  0  0
  148.0216  140.1181  157.4826 H   0  0  0  0  0  0  0  0  0  0  0  0
  146.8437  141.0867  155.5305 H   0  0  0  0  0  0  0  0  0  0  0  0
  144.8302  138.8030  155.7393 H   0  0  0  0  0  0  0  0  0  0  0  0
  144.7691  140.1690  154.6228 H   0  0  0  0  0  0  0  0  0  0  0  0
  144.5511  140.4352  156.3334 H   0  0  0  0  0  0  0  0  0  0  0  0
  147.2481  138.1034  155.1600 H   0  0  0  0  0  0  0  0  0  0  0  0
  146.0650  139.6367  153.2695 H   0  0  0  0  0  0  0  0  0  0  0  0
  147.7186  139.9909  152.8648 H   0  0  0  0  0  0  0  0  0  0  0  0
  147.9769  137.6077  152.3823 H   0  0  0  0  0  0  0  0  0  0  0  0
  147.2961  135.9798  151.5060 H   0  0  0  0  0  0  0  0  0  0  0  0
  146.5471  133.1811  151.0873 H   0  0  0  0  0  0  0  0  0  0  0  0
  143.5362  136.2925  150.7927 H   0  0  0  0  0  0  0  0  0  0  0  0
  149.5627  137.4766  154.3351 H   0  0  0  0  0  0  0  0  0  0  0  0
  149.8514  138.8392  153.2677 H   0  0  0  0  0  0  0  0  0  0  0  0
  151.3696  138.2368  155.8627 H   0  0  0  0  0  0  0  0  0  0  0  0
  151.9936  138.1047  154.2295 H   0  0  0  0  0  0  0  0  0  0  0  0
  150.8989  140.4479  156.7476 H   0  0  0  0  0  0  0  0  0  0  0  0
  151.1974  141.8385  155.7218 H   0  0  0  0  0  0  0  0  0  0  0  0
  149.3435  141.2292  154.2248 H   0  0  0  0  0  0  0  0  0  0  0  0
  148.7425  141.3263  155.8689 H   0  0  0  0  0  0  0  0  0  0  0  0
  149.0583  138.9832  156.0586 H   0  0  0  0  0  0  0  0  0  0  0  0
  1  2  1  0  0  0  0
  1 22  1  0  0  0  0
  1 23  1  0  0  0  0
  1 24  1  0  0  0  0
  2  3  1  0  0  0  0
  2  4  1  0  0  0  0
  2 25  1  0  0  0  0
  3 26  1  0  0  0  0
  3 27  1  0  0  0  0
  3 28  1  0  0  0  0
  4  5  1  0  0  0  0
  4 15  1  0  0  0  0
  4 29  1  0  0  0  0
  5  6  1  0  0  0  0
  5 30  1  0  0  0  0
  5 31  1  0  0  0  0
  6  7  1  0  0  0  0
  6 32  1  0  0  0  0
  7  8  2  0  0  0  0
  7  9  1  0  0  0  0
  9 10  1  0  0  0  0
  9 33  1  0  0  0  0
 10 14  2  0  0  0  0
 10 11  1  0  0  0  0
 11 12  2  0  0  0  0
 11 34  1  0  0  0  0
 12 13  1  0  0  0  0
 13 21  1  0  0  0  0
 13 14  1  0  0  0  0
 14 35  1  0  0  0  0
 15 20  1  0  0  0  0
 15 16  1  0  0  0  0
 15 44  1  0  0  0  0
 16 17  1  0  0  0  0
 16 36  1  0  0  0  0
 16 37  1  0  0  0  0
 17 18  1  0  0  0  0
 17 38  1  0  0  0  0
 17 39  1  0  0  0  0
 18 19  1  0  0  0  0
 19 20  1  0  0  0  0
 19 40  1  0  0  0  0
 19 41  1  0  0  0  0
 20 42  1  0  0  0  0
 20 43  1  0  0  0  0
M  CHG  1  15   1
M  END
> <s_m_source_file>
AV-unprocessed.smi

> <i_m_source_file_index>
1691

> <i_lp_mmshare_version>
43012

> <i_f3d_flags>
0

> <s_epik_input>
W0NIMl0xW0NIMl1PW0NIMl1bQ0gyXU4xW0NASF0oW0NIXShbQ0gzXSlbQ0gzXSlbQ0gyXVtOSF1DKD1PKVtOSF1jMltjSF1uW25IXVtjSF0y

> <s_epik_cmdline>
J2VwaWtfcHl0aG9uJywgJy1waCcsICc3LjAnLCAnLXRuJywgJzgnLCAnLW1hJywgJzIwMCcsICctbWV0YWxfYmluZGluZycsICctaW1hZScsICc8aW5maWxlLm1hZT4nLCAnLW9tYWUnLCAnPG91dGZpbGUubWFlPic=

> <r_lp_tautomer_probability>
0.5

> <r_epik_Ionization_Penalty>
0.363378

> <r_epik_Ionization_Penalty_Charging>
0.363339

> <r_epik_Ionization_Penalty_Neutral>
3.97246e-05

> <r_epik_State_Penalty>
0.36031

> <r_epik_Charging_Adjusted_Penalty>
0.723649

> <i_epik_Tot_Q>
1

> <i_epik_Tot_abs_Q>
1

> <r_epik_Metal_State_Penalty>
0.360311

> <b_epik_Metal_Only>
0

> <s_lp_Force_Field>
OPLS_2005

> <r_lp_Energy>
33.682

> <b_lp_Chiralities_Consistent>
1

> <s_lp_Variant>
AV-unprocessed.smi:1691-2

> <Gold.Version>
5.8.1

> <Gold.Id.Protein>
6NUR|6NUR_protein|mol2

> <Gold.PLP.Fitness>
41.6678

> <Gold.PLP.PLP>
-28.3105

> <Gold.PLP.part.hbond>
-4.0000

> <Gold.PLP.part.metal>
0.0000

> <Gold.PLP.part.buried>
-6.0517

> <Gold.PLP.part.nonpolar>
-20.9006

> <Gold.PLP.part.repulsive>
0.9579

> <Gold.PLP.ligand.clash>
0.0000

> <Gold.PLP.ligand.torsion>
0.9540

> <Gold.PLP.Chemscore.Hbond>
3.9920

> <Gold.PLP.Chemscore.CHOScore>
1.0000

> <Gold.PLP.Chemscore.Metal>
0.0000

> <Gold.Chemscore.Hbonds>
donor molecule, donor type, donor heavy atom, donor atom, acceptor molecule, acceptor atom, score
      L1  H     6    32       P1  7948  0.99
      L1  H     9    33       P1  7948  1.00
      L1  H    13    21       P1 10186  1.00
      P1  H  7989  7998       L1    18  1.00
      L1  C    14    35       P1 10171  1.00

> <Gold.PLP.Chemscore.Internal.Correction>
0.2893

> <Gold.Rescore>
     Score         DG    S(hbond)    S(metal)    S(lipo)     H(rot)  DE(clash)    DE(int)     intcor
     17.14     -19.35       3.61        0.00      55.88       1.84       0.02       2.18       ----

> <Gold.Chemscore.Fitness>
17.1411

> <Gold.Chemscore.DG>
-19.3487

> <Gold.Chemscore.ZeroCoef>
-5.4800

> <Gold.Chemscore.Hbond>
3.6071

> <Gold.Chemscore.Metal>
0.0000

> <Gold.Chemscore.Lipo>
55.8800

> <Gold.Chemscore.Internal_Hbond>
0.0000

> <Gold.Chemscore.DEClash>
0.0234

> <Gold.Chemscore.DEInternal>
2.1842

> <Gold.Chemscore.Rot>
1.8425

> <Gold.Chemscore.Internal.Correction>
   9.000000E+99

> <Gold.Chemscore.Hbonds>
donor molecule, donor type, donor heavy atom, donor atom, acceptor molecule, acceptor atom, score
      L1  H     6    32       P1  7948  0.94
      L1  H     9    33       P1  7948  0.97
      L1  H    13    21       P1 10186  0.98
      P1  H  7989  7998       L1    18  0.32

> <Gold.Chemscore.Hbond.Weighted>
-12.0476

> <Gold.Chemscore.Metal.Weighted>
-0.0000

> <Gold.Chemscore.Lipo.Weighted>
-6.5380

> <Gold.Chemscore.Internal_Hbond.Weighted>
0.0000

> <Gold.Chemscore.DEClash.Weighted>
0.0234

> <Gold.Chemscore.DEInternal.Weighted>
2.1842

> <Gold.Chemscore.Rot.Weighted>
4.7168

> <Gold.Chemscore.Internal.Correction.Weighted>
   9.000000E+99

> <Gold.Protein.RotatedTorsions>
[ 6907 6896 6895 6894 ] final  -51.80 input  -60.11 | X-H torsion
[ 7974 7965 7964 7962 ] final   70.56 input  175.53 | X-H torsion
[ 8008 7997 7996 7995 ] final -166.07 input   59.86 | X-H torsion
[ 10167 10162 10161 10158 ] final  -21.84 input  -65.29 | X-H torsion
[ 10718 10713 10712 10709 ] final  169.26 input   66.30 | X-H torsion
[ 10763 10752 10751 10750 ] final -133.75 input  -60.55 | X-H torsion
[ 11005 11000 10999 10996 ] final  121.24 input  -57.11 | X-H torsion

> <Gold.Protein.ActiveResidues>
 VAL166  LYS551  ARG553  GLY616  TRP617  ASP618  TYR619  PRO620  LYS621  CYS622 
 ASP623  PHE694  ASN695  SER759  ASP760  ASP761  ALA762  ILE779  LEU786  VAL792 
 PHE793  MET794  SER795  GLU796  ALA797  LYS798  CYS799  TRP800  GLU811  SER814 

> <Gold.Protein.RotatedAtoms>
  150.8577  134.7921  159.7058 H   0  0  0  0  0  0  0  0  0  0  0  0  # atno 6907 bound_to 6896
  152.4624  134.5151  159.9775 H   0  0  0  0  0  0  0  0  0  0  0  0  # atno 6908 bound_to 6896
  151.5260  133.3419  159.2945 H   0  0  0  0  0  0  0  0  0  0  0  0  # atno 6909 bound_to 6896
  145.7766  139.2868  143.1290 H   0  0  0  0  0  0  0  0  0  0  0  0  # atno 7974 bound_to 7965
  155.8587  140.0974  157.1628 H   0  0  0  0  0  0  0  0  0  0  0  0  # atno 8008 bound_to 7997
  154.3989  140.1369  156.3996 H   0  0  0  0  0  0  0  0  0  0  0  0  # atno 8009 bound_to 7997
  155.7881  140.3456  155.5336 H   0  0  0  0  0  0  0  0  0  0  0  0  # atno 8010 bound_to 7997
  140.7284  143.4590  151.0407 H   0  0  0  0  0  0  0  0  0  0  0  0  # atno 10167 bound_to 10162
  157.0253  131.0243  151.2762 H   0  0  0  0  0  0  0  0  0  0  0  0  # atno 10718 bound_to 10713
  154.8728  135.3756  154.4623 H   0  0  0  0  0  0  0  0  0  0  0  0  # atno 10763 bound_to 10752
  153.5290  135.7028  153.5698 H   0  0  0  0  0  0  0  0  0  0  0  0  # atno 10764 bound_to 10752
  153.3911  135.3972  155.1889 H   0  0  0  0  0  0  0  0  0  0  0  0  # atno 10765 bound_to 10752
  139.9217  134.9638  156.7927 H   0  0  0  0  0  0  0  0  0  0  0  0  # atno 11005 bound_to 11000
  146.0116  140.8430  142.9968 LP  0  0  0  0  0  0  0  0  0  0  0  0  # atno 17320 bound_to 7965
  144.6803  140.2498  143.7333 LP  0  0  0  0  0  0  0  0  0  0  0  0  # atno 17321 bound_to 7965
  139.8273  143.7739  152.3179 LP  0  0  0  0  0  0  0  0  0  0  0  0  # atno 17342 bound_to 10162
  139.7842  144.7433  151.0045 LP  0  0  0  0  0  0  0  0  0  0  0  0  # atno 17343 bound_to 10162
  157.5219  130.8003  149.7818 LP  0  0  0  0  0  0  0  0  0  0  0  0  # atno 17370 bound_to 10713
  156.0088  130.3843  150.2336 LP  0  0  0  0  0  0  0  0  0  0  0  0  # atno 17371 bound_to 10713
  140.6453  133.9780  155.7728 LP  0  0  0  0  0  0  0  0  0  0  0  0  # atno 17394 bound_to 11000
  141.0744  134.0157  157.3479 LP  0  0  0  0  0  0  0  0  0  0  0  0  # atno 17395 bound_to 11000

$$$$
