AV-unprocessed.smi:112|AV-procd|sdf|1090|dock5
  -GOLD-   2262018193D 1   1.00000     0.00000
 Structure written by MMmdl.
 54 57  0  0  0  0  0  0  0  0  3 V2000
  146.6311  138.4212  154.1365 C   0  0  0  0  0  0  0  0  0  0  0  0
  147.9883  137.8528  154.5196 C   0  0  0  0  0  0  0  0  0  0  0  0
  148.1379  136.5847  154.9665 C   0  0  0  0  0  0  0  0  0  0  0  0
  149.3547  136.0338  155.3207 N   0  0  0  0  0  0  0  0  0  0  0  0
  149.3978  134.6188  155.8608 C   0  0  1  0  0  0  0  0  0  0  0  0
  148.0136  134.0361  156.1818 C   0  0  0  0  0  0  0  0  0  0  0  0
  148.2054  132.5745  155.8273 C   0  0  2  0  0  0  0  0  0  0  0  0
  148.7263  131.8637  156.9357 O   0  0  0  0  0  0  0  0  0  0  0  0
  149.2000  132.6471  154.6573 C   0  0  2  0  0  0  0  0  0  0  0  0
  150.0679  131.4034  154.3966 C   0  0  0  0  0  0  0  0  0  0  0  0
  150.8596  131.1085  155.5280 O   0  0  0  0  0  0  0  0  0  0  0  0
  150.0128  133.7898  154.9187 O   0  0  0  0  0  0  0  0  0  0  0  0
  150.5202  136.8303  155.2623 C   0  0  0  0  0  0  0  0  0  0  0  0
  151.6120  136.3914  155.6273 O   0  0  0  0  0  0  0  0  0  0  0  0
  150.4009  138.1548  154.7833 N   0  0  0  0  0  0  0  0  0  0  0  0
  151.6168  138.9978  154.7169 C   0  0  0  0  0  0  0  0  0  0  0  0
  152.2430  139.2968  156.0973 C   0  0  0  0  0  0  0  0  0  0  0  0
  153.1115  138.5402  156.5330 O   0  0  0  0  0  0  0  0  0  0  0  0
  151.8025  140.3889  156.7704 N   0  0  0  0  0  0  0  0  0  0  0  0
  150.7552  141.2906  156.2598 C   0  0  0  0  0  0  0  0  0  0  0  0
  150.5555  142.3781  157.3379 C   0  0  0  0  0  0  0  0  0  0  0  0
  151.5524  141.9975  158.3923 C   0  0  0  0  0  0  0  0  0  0  0  0
  151.7947  142.6728  159.6004 C   0  0  0  0  0  0  0  0  0  0  0  0
  152.7824  142.1666  160.4815 C   0  0  0  0  0  0  0  0  0  0  0  0
  153.0638  142.8493  161.7599 N   0  3  0  0  0  0  0  0  0  0  0  0
  152.4537  143.8829  162.0139 O   0  0  0  0  0  0  0  0  0  0  0  0
  153.8961  142.3531  162.5123 O   0  5  0  0  0  0  0  0  0  0  0  0
  153.4967  140.9942  160.1174 C   0  0  0  0  0  0  0  0  0  0  0  0
  153.2399  140.3278  158.8992 C   0  0  0  0  0  0  0  0  0  0  0  0
  152.2512  140.8497  158.0367 C   0  0  0  0  0  0  0  0  0  0  0  0
  149.1605  138.7221  154.4013 C   0  0  0  0  0  0  0  0  0  0  0  0
  149.0980  139.8880  154.0061 O   0  0  0  0  0  0  0  0  0  0  0  0
  145.8328  137.6899  154.2665 H   0  0  0  0  0  0  0  0  0  0  0  0
  146.6300  138.7337  153.0918 H   0  0  0  0  0  0  0  0  0  0  0  0
  146.3928  139.2877  154.7542 H   0  0  0  0  0  0  0  0  0  0  0  0
  147.2526  135.9701  155.0467 H   0  0  0  0  0  0  0  0  0  0  0  0
  150.0354  134.6454  156.7449 H   0  0  0  0  0  0  0  0  0  0  0  0
  147.7430  134.2134  157.2232 H   0  0  0  0  0  0  0  0  0  0  0  0
  147.2440  134.4770  155.5502 H   0  0  0  0  0  0  0  0  0  0  0  0
  147.2674  132.1049  155.5299 H   0  0  0  0  0  0  0  0  0  0  0  0
  149.5963  131.5640  156.7209 H   0  0  0  0  0  0  0  0  0  0  0  0
  148.6391  132.8734  153.7494 H   0  0  0  0  0  0  0  0  0  0  0  0
  149.4276  130.5433  154.2000 H   0  0  0  0  0  0  0  0  0  0  0  0
  150.7031  131.5296  153.5199 H   0  0  0  0  0  0  0  0  0  0  0  0
  150.8338  130.1766  155.6815 H   0  0  0  0  0  0  0  0  0  0  0  0
  152.3700  138.5281  154.0829 H   0  0  0  0  0  0  0  0  0  0  0  0
  151.3967  139.9401  154.2137 H   0  0  0  0  0  0  0  0  0  0  0  0
  151.0653  141.7440  155.3174 H   0  0  0  0  0  0  0  0  0  0  0  0
  149.8229  140.7501  156.0903 H   0  0  0  0  0  0  0  0  0  0  0  0
  150.7657  143.3766  156.9535 H   0  0  0  0  0  0  0  0  0  0  0  0
  149.5453  142.3626  157.7480 H   0  0  0  0  0  0  0  0  0  0  0  0
  151.2301  143.5621  159.8392 H   0  0  0  0  0  0  0  0  0  0  0  0
  154.2541  140.5917  160.7736 H   0  0  0  0  0  0  0  0  0  0  0  0
  153.8059  139.4414  158.6613 H   0  0  0  0  0  0  0  0  0  0  0  0
  1  2  1  0  0  0  0
  1 33  1  0  0  0  0
  1 34  1  0  0  0  0
  1 35  1  0  0  0  0
  2 31  1  0  0  0  0
  2  3  2  0  0  0  0
  3  4  1  0  0  0  0
  3 36  1  0  0  0  0
  4  5  1  0  0  0  0
  4 13  1  0  0  0  0
  5 12  1  0  0  0  0
  5  6  1  0  0  0  0
  5 37  1  0  0  0  0
  6  7  1  0  0  0  0
  6 38  1  0  0  0  0
  6 39  1  0  0  0  0
  7  8  1  0  0  0  0
  7  9  1  0  0  0  0
  7 40  1  0  0  0  0
  8 41  1  0  0  0  0
  9 10  1  0  0  0  0
  9 12  1  0  0  0  0
  9 42  1  0  0  0  0
 10 11  1  0  0  0  0
 10 43  1  0  0  0  0
 10 44  1  0  0  0  0
 11 45  1  0  0  0  0
 13 14  2  0  0  0  0
 13 15  1  0  0  0  0
 15 16  1  0  0  0  0
 15 31  1  0  0  0  0
 16 17  1  0  0  0  0
 16 46  1  0  0  0  0
 16 47  1  0  0  0  0
 17 18  2  0  0  0  0
 17 19  1  0  0  0  0
 19 30  1  0  0  0  0
 19 20  1  0  0  0  0
 20 21  1  0  0  0  0
 20 48  1  0  0  0  0
 20 49  1  0  0  0  0
 21 22  1  0  0  0  0
 21 50  1  0  0  0  0
 21 51  1  0  0  0  0
 22 30  2  0  0  0  0
 22 23  1  0  0  0  0
 23 24  2  0  0  0  0
 23 52  1  0  0  0  0
 24 25  1  0  0  0  0
 24 28  1  0  0  0  0
 25 26  2  0  0  0  0
 25 27  1  0  0  0  0
 28 29  2  0  0  0  0
 28 53  1  0  0  0  0
 29 30  1  0  0  0  0
 29 54  1  0  0  0  0
 31 32  2  0  0  0  0
M  CHG  1  25   1
M  CHG  1  27  -1
M  END
> <s_m_source_file>
AV-unprocessed.smi

> <i_m_source_file_index>
112

> <i_lp_mmshare_version>
43012

> <i_f3d_flags>
0

> <s_epik_input>
W09IXVtDSDJdW0NAQEhdKE8xKVtDQEhdKFtPSF0pW0NIMl1bQ0BIXTFuKFtjSF1jMltDSDNdKWMoPU8pbihjMj1PKVtDSDJdQyg9TylOKFtDSDJdW0NIMl0zKWMoYzM0KVtjSF1bY0hdYyhbY0hdNClbTitdKD1PKVtPLV0=

> <s_epik_cmdline>
J2VwaWtfcHl0aG9uJywgJy1waCcsICc3LjAnLCAnLXRuJywgJzgnLCAnLW1hJywgJzIwMCcsICctbWV0YWxfYmluZGluZycsICctaW1hZScsICc8aW5maWxlLm1hZT4nLCAnLW9tYWUnLCAnPG91dGZpbGUubWFlPic=

> <r_lp_tautomer_probability>
1

> <r_epik_Ionization_Penalty>
2.5696e-07

> <r_epik_Ionization_Penalty_Charging>
1.04886e-08

> <r_epik_Ionization_Penalty_Neutral>
2.46472e-07

> <r_epik_State_Penalty>
-0

> <r_epik_Charging_Adjusted_Penalty>
1.04886e-08

> <i_epik_Tot_Q>
0

> <i_epik_Tot_abs_Q>
2

> <r_epik_Metal_State_Penalty>
-0

> <b_epik_Metal_Only>
0

> <s_epik_Chemistry_Notes>
This compound contains an acetal/aminal-like group ( X-CH(R)-Y where X, Y are N, S, or O) that may be acid/base labile, releasing an aldehyde.

> <s_lp_Force_Field>
OPLS_2005

> <r_lp_Energy>
55.491

> <b_lp_Chiralities_Consistent>
1

> <s_lp_Variant>
AV-unprocessed.smi:112-8

> <Gold.Version>
5.8.1

> <Gold.Id.Protein>
6NUR|6NUR_protein|mol2

> <Gold.PLP.Fitness>
51.8414

> <Gold.PLP.PLP>
-48.3771

> <Gold.PLP.part.hbond>
-3.0000

> <Gold.PLP.part.metal>
0.0000

> <Gold.PLP.part.buried>
-5.3970

> <Gold.PLP.part.nonpolar>
-38.0712

> <Gold.PLP.part.repulsive>
1.5244

> <Gold.PLP.ligand.clash>
0.0000

> <Gold.PLP.ligand.torsion>
0.6676

> <Gold.PLP.Chemscore.Hbond>
1.5856

> <Gold.PLP.Chemscore.CHOScore>
0.0000

> <Gold.PLP.Chemscore.Metal>
0.0000

> <Gold.Chemscore.Hbonds>
donor molecule, donor type, donor heavy atom, donor atom, acceptor molecule, acceptor atom, score
      P1  H  7997  8008       L1    18  0.59
      P1  H 10752 10765       L1    14  1.00

> <Gold.PLP.Chemscore.Internal.Correction>
0.0427

> <Gold.Rescore>
     Score         DG    S(hbond)    S(metal)    S(lipo)     H(rot)  DE(clash)    DE(int)     intcor
      7.63     -12.00       1.09        0.00      96.60       3.29       0.21       4.16       ----

> <Gold.Chemscore.Fitness>
7.6263

> <Gold.Chemscore.DG>
-12.0011

> <Gold.Chemscore.ZeroCoef>
-5.4800

> <Gold.Chemscore.Hbond>
1.0914

> <Gold.Chemscore.Metal>
0.0000

> <Gold.Chemscore.Lipo>
96.6015

> <Gold.Chemscore.Internal_Hbond>
0.0000

> <Gold.Chemscore.DEClash>
0.2138

> <Gold.Chemscore.DEInternal>
4.1610

> <Gold.Chemscore.Rot>
3.2916

> <Gold.Chemscore.Internal.Correction>
   9.000000E+99

> <Gold.Chemscore.Hbonds>
donor molecule, donor type, donor heavy atom, donor atom, acceptor molecule, acceptor atom, score
      P1  H  7997  8008       L1    18  0.04
      P1  H 10752 10765       L1    14  1.00

> <Gold.Chemscore.Hbond.Weighted>
-3.6453

> <Gold.Chemscore.Metal.Weighted>
-0.0000

> <Gold.Chemscore.Lipo.Weighted>
-11.3024

> <Gold.Chemscore.Internal_Hbond.Weighted>
0.0000

> <Gold.Chemscore.DEClash.Weighted>
0.2138

> <Gold.Chemscore.DEInternal.Weighted>
4.1610

> <Gold.Chemscore.Rot.Weighted>
8.4265

> <Gold.Chemscore.Internal.Correction.Weighted>
   9.000000E+99

> <Gold.Protein.RotatedTorsions>
[ 6907 6896 6895 6894 ] final -150.70 input  -60.11 | X-H torsion
[ 7974 7965 7964 7962 ] final    2.77 input  175.53 | X-H torsion
[ 8008 7997 7996 7995 ] final  -66.09 input   59.86 | X-H torsion
[ 10167 10162 10161 10158 ] final  124.28 input  -65.29 | X-H torsion
[ 10718 10713 10712 10709 ] final   78.80 input   66.30 | X-H torsion
[ 10763 10752 10751 10750 ] final -172.37 input  -60.55 | X-H torsion
[ 11005 11000 10999 10996 ] final  150.29 input  -57.11 | X-H torsion

> <Gold.Protein.ActiveResidues>
 VAL166  LYS551  ARG553  GLY616  TRP617  ASP618  TYR619  PRO620  LYS621  CYS622 
 ASP623  PHE694  ASN695  SER759  ASP760  ASP761  ALA762  ILE779  LEU786  VAL792 
 PHE793  MET794  SER795  GLU796  ALA797  LYS798  CYS799  TRP800  GLU811  SER814 

> <Gold.Protein.RotatedAtoms>
  151.2024  133.4603  159.2596 H   0  0  0  0  0  0  0  0  0  0  0  0  # atno 6907 bound_to 6896
  151.1056  134.9997  159.8480 H   0  0  0  0  0  0  0  0  0  0  0  0  # atno 6908 bound_to 6896
  152.5447  134.1947  159.8741 H   0  0  0  0  0  0  0  0  0  0  0  0  # atno 6909 bound_to 6896
  146.2444  140.0785  142.8358 H   0  0  0  0  0  0  0  0  0  0  0  0  # atno 7974 bound_to 7965
  154.4712  140.0920  156.7150 H   0  0  0  0  0  0  0  0  0  0  0  0  # atno 8008 bound_to 7997
  155.4718  140.3464  155.4308 H   0  0  0  0  0  0  0  0  0  0  0  0  # atno 8009 bound_to 7997
  156.1043  140.1430  156.9414 H   0  0  0  0  0  0  0  0  0  0  0  0  # atno 8010 bound_to 7997
  139.5751  144.6959  151.3675 H   0  0  0  0  0  0  0  0  0  0  0  0  # atno 10167 bound_to 10162
  157.6756  130.9885  150.1839 H   0  0  0  0  0  0  0  0  0  0  0  0  # atno 10718 bound_to 10713
  154.6201  135.2874  155.0336 H   0  0  0  0  0  0  0  0  0  0  0  0  # atno 10763 bound_to 10752
  154.1534  135.6500  153.4972 H   0  0  0  0  0  0  0  0  0  0  0  0  # atno 10764 bound_to 10752
  153.0232  135.5361  154.6987 H   0  0  0  0  0  0  0  0  0  0  0  0  # atno 10765 bound_to 10752
  140.1118  134.8919  157.1947 H   0  0  0  0  0  0  0  0  0  0  0  0  # atno 11005 bound_to 11000
  145.0753  140.9184  143.4857 LP  0  0  0  0  0  0  0  0  0  0  0  0  # atno 17320 bound_to 7965
  145.0928  139.2878  143.5726 LP  0  0  0  0  0  0  0  0  0  0  0  0  # atno 17321 bound_to 7965
  140.7034  143.7575  150.7440 LP  0  0  0  0  0  0  0  0  0  0  0  0  # atno 17342 bound_to 10162
  140.1093  143.4715  152.2380 LP  0  0  0  0  0  0  0  0  0  0  0  0  # atno 17343 bound_to 10162
  156.2566  130.3706  149.8175 LP  0  0  0  0  0  0  0  0  0  0  0  0  # atno 17370 bound_to 10713
  156.5933  130.8515  151.3413 LP  0  0  0  0  0  0  0  0  0  0  0  0  # atno 17371 bound_to 10713
  140.3080  134.3055  155.7273 LP  0  0  0  0  0  0  0  0  0  0  0  0  # atno 17394 bound_to 11000
  141.2132  133.7633  156.9736 LP  0  0  0  0  0  0  0  0  0  0  0  0  # atno 17395 bound_to 11000

$$$$
