#       Name:                AV-unprocessed.smi:3032
#       Creating user name   scv26
#       Creation time:       Fri Mar 27 16:53:30 2020


#       File generated by GOLD software.
#

@<TRIPOS>MOLECULE
AV-unprocessed.smi:3032
    41    42     1
SMALL
NO_CHARGES


@<TRIPOS>ATOM
      1 ****        -3.0411   2.7451  -1.0511 C.3            1 S1                 0.0000
      2 ****        -2.3570   1.8600   0.0005 C.3            1 S1                 0.0000
      3 ****        -3.0694   1.9547   1.3623 C.3            1 S1                 0.0000
      4 ****        -2.3867   1.0741   2.4196 C.3            1 S1                 0.0000
      5 ****        -2.3023  -0.3925   1.9590 C.3            1 S1                 0.0000
      6 ****        -1.6475  -0.5682   0.5689 C.3            1 S1                 0.0000
      7 ****        -0.1115  -0.4575   0.6113 C.2            1 S1                 0.0000
      8 ****         0.4398   0.5687   1.0087 O.2            1 S1                 0.0000
      9 ****         0.5735  -1.5325   0.1901 N.am           1 S1                 0.0000
     10 ****         2.0273  -1.6287   0.1273 C.3            1 S1                 0.0000
     11 ****         2.5836  -0.9492  -1.1345 C.3            1 S1                 0.0000
     12 ****         4.0689  -1.0651  -1.2392 C.2            1 S1                 0.0000
     13 ****         4.9433  -0.2696  -0.6111 N.2            1 S1                 0.0000
     14 ****         6.1976  -0.7364  -0.9722 N.2            1 S1                 0.0000
     15 ****         5.9575  -1.7711  -1.7792 C.2            1 S1                 0.0000
     16 ****         4.6575  -2.0195  -1.9761 N.pl3          1 S1                 0.0000
     17 ****        -2.2830   0.3898  -0.4670 C.3            1 S1                 0.0000
     18 ****         4.2297  -2.7414  -2.5374 H              1 S1                 0.0000
     19 ****        -4.0704   2.4307  -1.2265 H              1 S1                 0.0000
     20 ****        -2.5125   2.7020  -2.0038 H              1 S1                 0.0000
     21 ****        -3.0609   3.7879  -0.7335 H              1 S1                 0.0000
     22 ****        -1.3428   2.2399   0.1228 H              1 S1                 0.0000
     23 ****        -3.0837   2.9898   1.7053 H              1 S1                 0.0000
     24 ****        -4.1116   1.6508   1.2552 H              1 S1                 0.0000
     25 ****        -1.3915   1.4623   2.6350 H              1 S1                 0.0000
     26 ****        -2.9399   1.1313   3.3573 H              1 S1                 0.0000
     27 ****        -1.7674  -0.9807   2.7059 H              1 S1                 0.0000
     28 ****        -3.3110  -0.8063   1.9243 H              1 S1                 0.0000
     29 ****        -1.8746  -1.5843   0.2414 H              1 S1                 0.0000
     30 ****         0.0484  -2.3385  -0.1169 H              1 S1                 0.0000
     31 ****         2.4721  -1.1953   1.0248 H              1 S1                 0.0000
     32 ****         2.2956  -2.6853   0.1276 H              1 S1                 0.0000
     33 ****         2.1314  -1.3862  -2.0259 H              1 S1                 0.0000
     34 ****         2.3209   0.1094  -1.1413 H              1 S1                 0.0000
     35 ****         6.7436  -2.3572  -2.2322 H              1 S1                 0.0000
     36 ****        -3.2911   0.0383  -0.6907 H              1 S1                 0.0000
     37 ****        -1.7359   0.3314  -1.4093 H              1 S1                 0.0000
     38 ****        -0.1105   1.3472   1.3105 LP             1 S1                 0.0000
     39 ****         1.4381   0.6239   1.0298 LP             1 S1                 0.0000
     40 ****         4.7353   0.5002  -0.0077 LP             1 S1                 0.0000
     41 ****         7.0869  -0.3766  -0.6898 LP             1 S1                 0.0000
@<TRIPOS>BOND
    1    1    2 1     
    2    1   19 1     
    3    1   20 1     
    4    1   21 1     
    5    2   17 1     
    6    2    3 1     
    7    2   22 1     
    8    3    4 1     
    9    3   23 1     
   10    3   24 1     
   11    4    5 1     
   12    4   25 1     
   13    4   26 1     
   14    5    6 1     
   15    5   27 1     
   16    5   28 1     
   17    6    7 1     
   18    6   17 1     
   19    6   29 1     
   20    7    8 2     
   21    7    9 am    
   22    9   10 1     
   23    9   30 1     
   24   10   11 1     
   25   10   31 1     
   26   10   32 1     
   27   11   12 1     
   28   11   33 1     
   29   11   34 1     
   30   12   16 1     
   31   12   13 2     
   32   13   14 1     
   33   14   15 2     
   34   15   16 1     
   35   15   35 1     
   36   16   18 1     
   37   17   36 1     
   38   17   37 1     
   39    8   38 1     
   40    8   39 1     
   41   13   40 1     
   42   14   41 1     
@<TRIPOS>SUBSTRUCTURE
      1 S1             1
@<TRIPOS>SET
LONE_PAIRS      STATIC     ATOMS    <user>   **** ""
4 38 39 40 41
DONOR_HYDROGENS      STATIC     ATOMS    <user>   **** ""
2 30 18
ATOM$BLUE        STATIC     ATOMS    COLORGROUP SYSTEM
4 38 39 40 41
ATOM$RED        STATIC     ATOMS    COLORGROUP SYSTEM
2 30 18
