AV-unprocessed.smi:2906|AV-procd|sdf|11163|dock3
  -GOLD-   2272016 53D 1   1.00000     0.00000
 Structure written by MMmdl.
 40 41  0  0  0  0  0  0  0  0  1 V2000
  145.6290  130.2166  151.8874 C   0  0  0  0  0  0  0  0  0  0  0  0
  145.9426  131.2282  150.7733 C   0  0  0  0  0  0  0  0  0  0  0  0
  144.7802  132.1857  150.4607 C   0  0  0  0  0  0  0  0  0  0  0  0
  143.8544  131.8116  149.7389 O   0  0  0  0  0  0  0  0  0  0  0  0
  144.8137  133.4242  150.9951 N   0  0  0  0  0  0  0  0  0  0  0  0
  143.7807  134.4303  150.7639 C   0  0  0  0  0  0  0  0  0  0  0  0
  144.3275  135.7355  151.3423 C   0  0  0  0  0  0  0  0  0  0  0  0
  145.3455  135.2957  152.3909 C   0  0  2  0  0  0  0  0  0  0  0  0
  146.4166  136.2746  152.5471 N   0  0  0  0  0  0  0  0  0  0  0  0
  146.2474  137.5266  152.9953 C   0  0  0  0  0  0  0  0  0  0  0  0
  145.1541  137.9840  153.3300 O   0  0  0  0  0  0  0  0  0  0  0  0
  147.4137  138.1948  153.0279 N   0  0  0  0  0  0  0  0  0  0  0  0
  147.6471  139.5312  153.4457 C   0  0  0  0  0  0  0  0  0  0  0  0
  146.7929  140.5418  153.2502 N   0  0  0  0  0  0  0  0  0  0  0  0
  147.2745  141.7492  153.7655 C   0  0  0  0  0  0  0  0  0  0  0  0
  146.4496  142.9943  153.6438 C   0  0  0  0  0  0  0  0  0  0  0  0
  145.2052  142.9580  154.5379 C   0  0  0  0  0  0  0  0  0  0  0  0
  148.5104  141.6331  154.3540 C   0  0  0  0  0  0  0  0  0  0  0  0
  149.1174  140.0003  154.2850 S   0  0  0  0  0  0  0  0  0  0  0  0
  145.8606  133.9461  151.8713 C   0  0  0  0  0  0  0  0  0  0  0  0
  146.4796  129.5565  152.0576 H   0  0  0  0  0  0  0  0  0  0  0  0
  144.7740  129.5910  151.6284 H   0  0  0  0  0  0  0  0  0  0  0  0
  145.4090  130.7174  152.8311 H   0  0  0  0  0  0  0  0  0  0  0  0
  146.8152  131.8164  151.0592 H   0  0  0  0  0  0  0  0  0  0  0  0
  146.2085  130.6832  149.8669 H   0  0  0  0  0  0  0  0  0  0  0  0
  143.5400  134.5359  149.7048 H   0  0  0  0  0  0  0  0  0  0  0  0
  142.8726  134.1311  151.2892 H   0  0  0  0  0  0  0  0  0  0  0  0
  144.8232  136.2948  150.5474 H   0  0  0  0  0  0  0  0  0  0  0  0
  143.5451  136.3726  151.7558 H   0  0  0  0  0  0  0  0  0  0  0  0
  144.8272  135.1447  153.3398 H   0  0  0  0  0  0  0  0  0  0  0  0
  147.3477  135.9775  152.2944 H   0  0  0  0  0  0  0  0  0  0  0  0
  148.2304  137.6887  152.7190 H   0  0  0  0  0  0  0  0  0  0  0  0
  147.0501  143.8673  153.9017 H   0  0  0  0  0  0  0  0  0  0  0  0
  146.1431  143.1384  152.6072 H   0  0  0  0  0  0  0  0  0  0  0  0
  144.6250  143.8750  154.4338 H   0  0  0  0  0  0  0  0  0  0  0  0
  145.4786  142.8536  155.5881 H   0  0  0  0  0  0  0  0  0  0  0  0
  144.5557  142.1222  154.2760 H   0  0  0  0  0  0  0  0  0  0  0  0
  149.0981  142.4073  154.8249 H   0  0  0  0  0  0  0  0  0  0  0  0
  146.0797  133.2705  152.6994 H   0  0  0  0  0  0  0  0  0  0  0  0
  146.7734  134.0719  151.2863 H   0  0  0  0  0  0  0  0  0  0  0  0
  1  2  1  0  0  0  0
  1 21  1  0  0  0  0
  1 22  1  0  0  0  0
  1 23  1  0  0  0  0
  2  3  1  0  0  0  0
  2 24  1  0  0  0  0
  2 25  1  0  0  0  0
  3  4  2  0  0  0  0
  3  5  1  0  0  0  0
  5 20  1  0  0  0  0
  5  6  1  0  0  0  0
  6  7  1  0  0  0  0
  6 26  1  0  0  0  0
  6 27  1  0  0  0  0
  7  8  1  0  0  0  0
  7 28  1  0  0  0  0
  7 29  1  0  0  0  0
  8  9  1  0  0  0  0
  8 20  1  0  0  0  0
  8 30  1  0  0  0  0
  9 10  1  0  0  0  0
  9 31  1  0  0  0  0
 10 11  2  0  0  0  0
 10 12  1  0  0  0  0
 12 13  1  0  0  0  0
 12 32  1  0  0  0  0
 13 19  1  0  0  0  0
 13 14  2  0  0  0  0
 14 15  1  0  0  0  0
 15 16  1  0  0  0  0
 15 18  2  0  0  0  0
 16 17  1  0  0  0  0
 16 33  1  0  0  0  0
 16 34  1  0  0  0  0
 17 35  1  0  0  0  0
 17 36  1  0  0  0  0
 17 37  1  0  0  0  0
 18 19  1  0  0  0  0
 18 38  1  0  0  0  0
 20 39  1  0  0  0  0
 20 40  1  0  0  0  0
M  END
> <s_m_source_file>
AV-unprocessed.smi

> <i_m_source_file_index>
2906

> <i_lp_mmshare_version>
43012

> <i_f3d_flags>
0

> <s_epik_input>
W0NIM11bQ0gyXUMoPU8pTjFbQ0gyXVtDSDJdW0NASF0oW0NIMl0xKVtOSF1DKD1PKVtOSF1jMm5jKFtjSF1zMilbQ0gyXVtDSDNd

> <s_epik_cmdline>
J2VwaWtfcHl0aG9uJywgJy1waCcsICc3LjAnLCAnLXRuJywgJzgnLCAnLW1hJywgJzIwMCcsICctbWV0YWxfYmluZGluZycsICctaW1hZScsICc8aW5maWxlLm1hZT4nLCAnLW9tYWUnLCAnPG91dGZpbGUubWFlPic=

> <r_lp_tautomer_probability>
1

> <r_epik_Ionization_Penalty>
0.000174744

> <r_epik_Ionization_Penalty_Charging>
0

> <r_epik_Ionization_Penalty_Neutral>
0.000174744

> <r_epik_State_Penalty>
-0

> <r_epik_Charging_Adjusted_Penalty>
0

> <i_epik_Tot_Q>
0

> <i_epik_Tot_abs_Q>
0

> <r_epik_Metal_State_Penalty>
0.0273865

> <b_epik_Metal_Only>
0

> <s_lp_Force_Field>
OPLS_2005

> <r_lp_Energy>
21.1229

> <b_lp_Chiralities_Consistent>
1

> <s_lp_Variant>
AV-unprocessed.smi:2906-2

> <Gold.Version>
5.8.1

> <Gold.Id.Protein>
6NUR|6NUR_protein|mol2

> <Gold.PLP.Fitness>
47.1508

> <Gold.PLP.PLP>
-36.8887

> <Gold.PLP.part.hbond>
-3.0000

> <Gold.PLP.part.metal>
0.0000

> <Gold.PLP.part.buried>
-3.6999

> <Gold.PLP.part.nonpolar>
-30.9874

> <Gold.PLP.part.repulsive>
0.8553

> <Gold.PLP.ligand.clash>
0.0000

> <Gold.PLP.ligand.torsion>
0.6467

> <Gold.PLP.Chemscore.Hbond>
2.8480

> <Gold.PLP.Chemscore.CHOScore>
1.0000

> <Gold.PLP.Chemscore.Metal>
0.0000

> <Gold.Chemscore.Hbonds>
donor molecule, donor type, donor heavy atom, donor atom, acceptor molecule, acceptor atom, score
      L1  H     9    31       P1  7948  1.00
      L1  H    12    32       P1  7948  0.99
      P1  H 10785 10796       L1     4  0.80
      L1  C    18    38       P1  8028  1.00

> <Gold.PLP.Chemscore.Internal.Correction>
0.0115

> <Gold.Rescore>
     Score         DG    S(hbond)    S(metal)    S(lipo)     H(rot)  DE(clash)    DE(int)     intcor
     17.11     -19.52       2.75        0.00      72.27       1.41       0.90       1.52       ----

> <Gold.Chemscore.Fitness>
17.1065

> <Gold.Chemscore.DG>
-19.5212

> <Gold.Chemscore.ZeroCoef>
-5.4800

> <Gold.Chemscore.Hbond>
2.7530

> <Gold.Chemscore.Metal>
0.0000

> <Gold.Chemscore.Lipo>
72.2748

> <Gold.Chemscore.Internal_Hbond>
0.0000

> <Gold.Chemscore.DEClash>
0.8970

> <Gold.Chemscore.DEInternal>
1.5177

> <Gold.Chemscore.Rot>
1.4102

> <Gold.Chemscore.Internal.Correction>
   9.000000E+99

> <Gold.Chemscore.Hbonds>
donor molecule, donor type, donor heavy atom, donor atom, acceptor molecule, acceptor atom, score
      L1  H     9    31       P1  7948  0.98
      L1  H    12    32       P1  7948  0.94
      P1  H 10785 10796       L1     4  0.73

> <Gold.Chemscore.Hbond.Weighted>
-9.1951

> <Gold.Chemscore.Metal.Weighted>
-0.0000

> <Gold.Chemscore.Lipo.Weighted>
-8.4561

> <Gold.Chemscore.Internal_Hbond.Weighted>
0.0000

> <Gold.Chemscore.DEClash.Weighted>
0.8970

> <Gold.Chemscore.DEInternal.Weighted>
1.5177

> <Gold.Chemscore.Rot.Weighted>
3.6101

> <Gold.Chemscore.Internal.Correction.Weighted>
   9.000000E+99

> <Gold.Protein.RotatedTorsions>
[ 6907 6896 6895 6894 ] final -170.26 input  -60.11 | X-H torsion
[ 7974 7965 7964 7962 ] final    0.44 input  175.53 | X-H torsion
[ 8008 7997 7996 7995 ] final  139.87 input   59.86 | X-H torsion
[ 10167 10162 10161 10158 ] final   31.26 input  -65.29 | X-H torsion
[ 10718 10713 10712 10709 ] final  -71.75 input   66.30 | X-H torsion
[ 10763 10752 10751 10750 ] final   39.37 input  -60.55 | X-H torsion
[ 11005 11000 10999 10996 ] final  -43.78 input  -57.11 | X-H torsion

> <Gold.Protein.ActiveResidues>
 VAL166  LYS551  ARG553  GLY616  TRP617  ASP618  TYR619  PRO620  LYS621  CYS622 
 ASP623  PHE694  ASN695  SER759  ASP760  ASP761  ALA762  ILE779  LEU786  VAL792 
 PHE793  MET794  SER795  GLU796  ALA797  LYS798  CYS799  TRP800  GLU811  SER814 

> <Gold.Protein.RotatedAtoms>
  151.5049  133.3496  159.2874 H   0  0  0  0  0  0  0  0  0  0  0  0  # atno 6907 bound_to 6896
  150.8749  134.8132  159.7193 H   0  0  0  0  0  0  0  0  0  0  0  0  # atno 6908 bound_to 6896
  152.4724  134.4939  159.9755 H   0  0  0  0  0  0  0  0  0  0  0  0  # atno 6909 bound_to 6896
  146.2434  140.1137  142.8343 H   0  0  0  0  0  0  0  0  0  0  0  0  # atno 7974 bound_to 7965
  156.2985  140.2356  156.4307 H   0  0  0  0  0  0  0  0  0  0  0  0  # atno 8008 bound_to 7997
  154.8272  140.0435  157.1472 H   0  0  0  0  0  0  0  0  0  0  0  0  # atno 8009 bound_to 7997
  154.9248  140.3008  155.5201 H   0  0  0  0  0  0  0  0  0  0  0  0  # atno 8010 bound_to 7997
  140.4604  144.0914  150.6211 H   0  0  0  0  0  0  0  0  0  0  0  0  # atno 10167 bound_to 10162
  156.0349  130.4358  150.2490 H   0  0  0  0  0  0  0  0  0  0  0  0  # atno 10718 bound_to 10713
  152.9969  135.6222  154.2455 H   0  0  0  0  0  0  0  0  0  0  0  0  # atno 10763 bound_to 10752
  154.2194  135.2796  155.2932 H   0  0  0  0  0  0  0  0  0  0  0  0  # atno 10764 bound_to 10752
  154.5541  135.5725  153.7006 H   0  0  0  0  0  0  0  0  0  0  0  0  # atno 10765 bound_to 10752
  141.0407  133.6781  156.2780 H   0  0  0  0  0  0  0  0  0  0  0  0  # atno 11005 bound_to 11000
  145.0465  140.8985  143.5021 LP  0  0  0  0  0  0  0  0  0  0  0  0  # atno 17320 bound_to 7965
  145.1227  139.2683  143.5580 LP  0  0  0  0  0  0  0  0  0  0  0  0  # atno 17321 bound_to 7965
  140.4100  143.2661  151.9845 LP  0  0  0  0  0  0  0  0  0  0  0  0  # atno 17342 bound_to 10162
  139.4805  144.5924  151.7749 LP  0  0  0  0  0  0  0  0  0  0  0  0  # atno 17343 bound_to 10162
  157.0590  131.0084  151.3228 LP  0  0  0  0  0  0  0  0  0  0  0  0  # atno 17370 bound_to 10713
  157.5084  130.7923  149.7679 LP  0  0  0  0  0  0  0  0  0  0  0  0  # atno 17371 bound_to 10713
  140.6240  134.5332  157.5551 LP  0  0  0  0  0  0  0  0  0  0  0  0  # atno 17394 bound_to 11000
  139.9273  134.8031  156.1031 LP  0  0  0  0  0  0  0  0  0  0  0  0  # atno 17395 bound_to 11000

$$$$
