AV-unprocessed.smi:199|AV-procd|sdf|1568|dock9
  -GOLD-   2262019443D 1   1.00000     0.00000
 Structure written by MMmdl.
 51 55  0  0  0  0  0  0  0  0  1 V2000
  148.8771  138.0587  154.6398 C   0  0  0  0  0  0  0  0  0  0  0  0
  149.6203  139.3512  154.2676 C   0  0  2  0  0  0  0  0  0  0  0  0
  150.7006  139.5127  155.1830 O   0  0  0  0  0  0  0  0  0  0  0  0
  150.9624  140.8961  155.3378 C   0  0  0  0  0  0  0  0  0  0  0  0
  149.5620  141.4871  155.3876 C   0  0  0  0  0  0  0  0  0  0  0  0
  148.8069  140.6754  154.3375 C   0  0  1  0  0  0  0  0  0  0  0  0
  148.9560  141.3345  153.0905 O   0  0  0  0  0  0  0  0  0  0  0  0
  147.2890  140.5407  154.6307 C   0  0  0  0  0  0  0  0  0  0  0  0
  146.6412  139.4916  153.8569 N   0  0  0  0  0  0  0  0  0  0  0  0
  146.6303  139.3664  152.4867 C   0  0  0  0  0  0  0  0  0  0  0  0
  145.9687  138.3401  152.0282 N   0  0  0  0  0  0  0  0  0  0  0  0
  145.4962  137.6963  153.1661 C   0  0  0  0  0  0  0  0  0  0  0  0
  144.7084  136.5314  153.4014 C   0  0  0  0  0  0  0  0  0  0  0  0
  144.2110  135.7358  152.4144 N   0  0  0  0  0  0  0  0  0  0  0  0
  144.7496  135.8011  151.0634 C   0  0  1  0  0  0  0  0  0  0  0  0
  146.1099  135.0854  151.1715 C   0  0  0  0  0  0  0  0  0  0  0  0
  145.7942  134.0001  152.2116 C   0  0  0  0  0  0  0  0  0  0  0  0
  144.3026  134.2847  152.5068 C   0  0  2  0  0  0  0  0  0  0  0  0
  143.3994  133.8526  151.3315 C   0  0  2  0  0  0  0  0  0  0  0  0
  143.5162  132.3849  150.8804 C   0  0  0  0  0  0  0  0  0  0  0  0
  142.7398  132.1755  149.7201 O   0  0  0  0  0  0  0  0  0  0  0  0
  143.7794  134.9044  150.2723 C   0  0  0  0  0  0  0  0  0  0  0  0
  144.4177  136.2301  154.6954 N   0  0  0  0  0  0  0  0  0  0  0  0
  144.8828  136.9885  155.6912 C   0  0  0  0  0  0  0  0  0  0  0  0
  145.6356  138.0865  155.6204 N   0  0  0  0  0  0  0  0  0  0  0  0
  145.9137  138.4117  154.3259 C   0  0  0  0  0  0  0  0  0  0  0  0
  148.0381  137.8739  153.9689 H   0  0  0  0  0  0  0  0  0  0  0  0
  148.4985  138.0937  155.6616 H   0  0  0  0  0  0  0  0  0  0  0  0
  149.5448  137.1997  154.5696 H   0  0  0  0  0  0  0  0  0  0  0  0
  150.0521  139.2227  153.2731 H   0  0  0  0  0  0  0  0  0  0  0  0
  151.5400  141.0991  156.2398 H   0  0  0  0  0  0  0  0  0  0  0  0
  151.5183  141.2684  154.4760 H   0  0  0  0  0  0  0  0  0  0  0  0
  149.1448  141.3005  156.3777 H   0  0  0  0  0  0  0  0  0  0  0  0
  149.5407  142.5644  155.2161 H   0  0  0  0  0  0  0  0  0  0  0  0
  148.5677  140.7958  152.4183 H   0  0  0  0  0  0  0  0  0  0  0  0
  147.1219  140.3328  155.6885 H   0  0  0  0  0  0  0  0  0  0  0  0
  146.7736  141.4771  154.4155 H   0  0  0  0  0  0  0  0  0  0  0  0
  147.1241  140.0706  151.8331 H   0  0  0  0  0  0  0  0  0  0  0  0
  144.8237  136.7960  150.6286 H   0  0  0  0  0  0  0  0  0  0  0  0
  146.4481  134.6757  150.2190 H   0  0  0  0  0  0  0  0  0  0  0  0
  146.8807  135.7622  151.5425 H   0  0  0  0  0  0  0  0  0  0  0  0
  145.9885  132.9907  151.8528 H   0  0  0  0  0  0  0  0  0  0  0  0
  146.4016  134.1470  153.1055 H   0  0  0  0  0  0  0  0  0  0  0  0
  143.9651  133.8691  153.4571 H   0  0  0  0  0  0  0  0  0  0  0  0
  142.3667  134.0298  151.6393 H   0  0  0  0  0  0  0  0  0  0  0  0
  144.5478  132.1091  150.6627 H   0  0  0  0  0  0  0  0  0  0  0  0
  143.1553  131.7184  151.6642 H   0  0  0  0  0  0  0  0  0  0  0  0
  142.0017  132.7653  149.7413 H   0  0  0  0  0  0  0  0  0  0  0  0
  142.8971  135.4626  149.9568 H   0  0  0  0  0  0  0  0  0  0  0  0
  144.2415  134.4772  149.3815 H   0  0  0  0  0  0  0  0  0  0  0  0
  144.6107  136.6709  156.6869 H   0  0  0  0  0  0  0  0  0  0  0  0
  1  2  1  0  0  0  0
  1 27  1  0  0  0  0
  1 28  1  0  0  0  0
  1 29  1  0  0  0  0
  2  6  1  0  0  0  0
  2  3  1  0  0  0  0
  2 30  1  0  0  0  0
  3  4  1  0  0  0  0
  4  5  1  0  0  0  0
  4 31  1  0  0  0  0
  4 32  1  0  0  0  0
  5  6  1  0  0  0  0
  5 33  1  0  0  0  0
  5 34  1  0  0  0  0
  6  7  1  0  0  0  0
  6  8  1  0  0  0  0
  7 35  1  0  0  0  0
  8  9  1  0  0  0  0
  8 36  1  0  0  0  0
  8 37  1  0  0  0  0
  9 26  1  0  0  0  0
  9 10  1  0  0  0  0
 10 11  2  0  0  0  0
 10 38  1  0  0  0  0
 11 12  1  0  0  0  0
 12 26  2  0  0  0  0
 12 13  1  0  0  0  0
 13 14  1  0  0  0  0
 13 23  2  0  0  0  0
 14 18  1  0  0  0  0
 14 15  1  0  0  0  0
 15 22  1  0  0  0  0
 15 16  1  0  0  0  0
 15 39  1  0  0  0  0
 16 17  1  0  0  0  0
 16 40  1  0  0  0  0
 16 41  1  0  0  0  0
 17 18  1  0  0  0  0
 17 42  1  0  0  0  0
 17 43  1  0  0  0  0
 18 19  1  0  0  0  0
 18 44  1  0  0  0  0
 19 20  1  0  0  0  0
 19 22  1  0  0  0  0
 19 45  1  0  0  0  0
 20 21  1  0  0  0  0
 20 46  1  0  0  0  0
 20 47  1  0  0  0  0
 21 48  1  0  0  0  0
 22 49  1  0  0  0  0
 22 50  1  0  0  0  0
 23 24  1  0  0  0  0
 24 25  2  0  0  0  0
 24 51  1  0  0  0  0
 25 26  1  0  0  0  0
M  END
> <s_m_source_file>
AV-unprocessed.smi

> <i_m_source_file_index>
199

> <i_lp_mmshare_version>
43012

> <i_f3d_flags>
0

> <s_epik_input>
W0NIMl0xW0NIMl1PW0NAQEhdKFtDSDNdKVtDQEBdMShbT0hdKVtDSDJdbihbY0hdbjIpYyhjMjMpbltjSF1uYzNOKFtDQEBIXTQ1KVtDQEhdKFtDSDJdW0NIMl00KVtDQEhdKFtDSDJdNSlbQ0gyXVtPSF0=

> <s_epik_cmdline>
J2VwaWtfcHl0aG9uJywgJy1waCcsICc3LjAnLCAnLXRuJywgJzgnLCAnLW1hJywgJzIwMCcsICctbWV0YWxfYmluZGluZycsICctaW1hZScsICc8aW5maWxlLm1hZT4nLCAnLW9tYWUnLCAnPG91dGZpbGUubWFlPic=

> <r_lp_tautomer_probability>
1

> <r_epik_Ionization_Penalty>
0.00583903

> <r_epik_Ionization_Penalty_Charging>
0

> <r_epik_Ionization_Penalty_Neutral>
0.00583903

> <r_epik_State_Penalty>
-0

> <r_epik_Charging_Adjusted_Penalty>
0

> <i_epik_Tot_Q>
0

> <i_epik_Tot_abs_Q>
0

> <r_epik_Metal_State_Penalty>
-0

> <b_epik_Metal_Only>
0

> <s_lp_Force_Field>
OPLS_2005

> <r_lp_Energy>
83.953

> <b_lp_Chiralities_Consistent>
1

> <s_lp_Variant>
AV-unprocessed.smi:199-9

> <Gold.Version>
5.8.1

> <Gold.Id.Protein>
6NUR|6NUR_protein|mol2

> <Gold.PLP.Fitness>
49.4885

> <Gold.PLP.PLP>
-37.9982

> <Gold.PLP.part.hbond>
-4.5878

> <Gold.PLP.part.metal>
0.0000

> <Gold.PLP.part.buried>
-2.4078

> <Gold.PLP.part.nonpolar>
-32.4751

> <Gold.PLP.part.repulsive>
0.5444

> <Gold.PLP.ligand.clash>
0.0000

> <Gold.PLP.ligand.torsion>
0.5890

> <Gold.PLP.Chemscore.Hbond>
3.2189

> <Gold.PLP.Chemscore.CHOScore>
1.0000

> <Gold.PLP.Chemscore.Metal>
0.0000

> <Gold.Chemscore.Hbonds>
donor molecule, donor type, donor heavy atom, donor atom, acceptor molecule, acceptor atom, score
      L1  H     7    35       P1  7957  0.42
      L1  H    21    48       P1 10186  1.00
      P1  H  8011  8017       L1     7  1.00
      P1  H 10785 10796       L1    21  0.32
      L1  C    10    38       P1  7957  0.93

> <Gold.PLP.Chemscore.Internal.Correction>
0.0118

> <Gold.Rescore>
     Score         DG    S(hbond)    S(metal)    S(lipo)     H(rot)  DE(clash)    DE(int)     intcor
      9.64     -14.79       2.32        0.00      80.62       3.07       1.18       3.98       ----

> <Gold.Chemscore.Fitness>
9.6360

> <Gold.Chemscore.DG>
-14.7901

> <Gold.Chemscore.ZeroCoef>
-5.4800

> <Gold.Chemscore.Hbond>
2.3186

> <Gold.Chemscore.Metal>
0.0000

> <Gold.Chemscore.Lipo>
80.6221

> <Gold.Chemscore.Internal_Hbond>
0.0000

> <Gold.Chemscore.DEClash>
1.1762

> <Gold.Chemscore.DEInternal>
3.9779

> <Gold.Chemscore.Rot>
3.0729

> <Gold.Chemscore.Internal.Correction>
   9.000000E+99

> <Gold.Chemscore.Hbonds>
donor molecule, donor type, donor heavy atom, donor atom, acceptor molecule, acceptor atom, score
      L1  H     7    35       P1  7957  0.40
      L1  H    21    48       P1 10186  0.99
      P1  H  8011  8017       L1     7  0.46
      P1  H 10785 10796       L1    21  0.27

> <Gold.Chemscore.Hbond.Weighted>
-7.7440

> <Gold.Chemscore.Metal.Weighted>
-0.0000

> <Gold.Chemscore.Lipo.Weighted>
-9.4328

> <Gold.Chemscore.Internal_Hbond.Weighted>
0.0000

> <Gold.Chemscore.DEClash.Weighted>
1.1762

> <Gold.Chemscore.DEInternal.Weighted>
3.9779

> <Gold.Chemscore.Rot.Weighted>
7.8667

> <Gold.Chemscore.Internal.Correction.Weighted>
   9.000000E+99

> <Gold.Protein.RotatedTorsions>
[ 6907 6896 6895 6894 ] final  109.23 input  -60.11 | X-H torsion
[ 7974 7965 7964 7962 ] final  -31.16 input  175.53 | X-H torsion
[ 8008 7997 7996 7995 ] final -157.19 input   59.86 | X-H torsion
[ 10167 10162 10161 10158 ] final    6.13 input  -65.29 | X-H torsion
[ 10718 10713 10712 10709 ] final -166.47 input   66.30 | X-H torsion
[ 10763 10752 10751 10750 ] final -103.96 input  -60.55 | X-H torsion
[ 11005 11000 10999 10996 ] final   56.29 input  -57.11 | X-H torsion

> <Gold.Protein.ActiveResidues>
 VAL166  LYS551  ARG553  GLY616  TRP617  ASP618  TYR619  PRO620  LYS621  CYS622 
 ASP623  PHE694  ASN695  SER759  ASP760  ASP761  ALA762  ILE779  LEU786  VAL792 
 PHE793  MET794  SER795  GLU796  ALA797  LYS798  CYS799  TRP800  GLU811  SER814 

> <Gold.Protein.RotatedAtoms>
  152.5077  133.8975  159.7424 H   0  0  0  0  0  0  0  0  0  0  0  0  # atno 6907 bound_to 6896
  150.9399  133.6660  159.2800 H   0  0  0  0  0  0  0  0  0  0  0  0  # atno 6908 bound_to 6896
  151.3976  135.0971  159.9598 H   0  0  0  0  0  0  0  0  0  0  0  0  # atno 6909 bound_to 6896
  146.1089  140.5632  142.8787 H   0  0  0  0  0  0  0  0  0  0  0  0  # atno 7974 bound_to 7965
  155.7286  140.0799  157.2299 H   0  0  0  0  0  0  0  0  0  0  0  0  # atno 8008 bound_to 7997
  154.4036  140.1599  156.2537 H   0  0  0  0  0  0  0  0  0  0  0  0  # atno 8009 bound_to 7997
  155.9130  140.3402  155.6116 H   0  0  0  0  0  0  0  0  0  0  0  0  # atno 8010 bound_to 7997
  140.6444  143.7696  150.7477 H   0  0  0  0  0  0  0  0  0  0  0  0  # atno 10167 bound_to 10162
  156.6683  130.9074  151.3040 H   0  0  0  0  0  0  0  0  0  0  0  0  # atno 10718 bound_to 10713
  154.7844  135.4804  153.9915 H   0  0  0  0  0  0  0  0  0  0  0  0  # atno 10763 bound_to 10752
  153.1540  135.6796  153.8847 H   0  0  0  0  0  0  0  0  0  0  0  0  # atno 10764 bound_to 10752
  153.8483  135.3170  155.3409 H   0  0  0  0  0  0  0  0  0  0  0  0  # atno 10765 bound_to 10752
  140.0541  134.5695  155.9229 H   0  0  0  0  0  0  0  0  0  0  0  0  # atno 11005 bound_to 11000
  144.7494  140.5152  143.6812 LP  0  0  0  0  0  0  0  0  0  0  0  0  # atno 17320 bound_to 7965
  145.5705  139.1483  143.3291 LP  0  0  0  0  0  0  0  0  0  0  0  0  # atno 17321 bound_to 7965
  140.1334  143.4505  152.2240 LP  0  0  0  0  0  0  0  0  0  0  0  0  # atno 17342 bound_to 10162
  139.5654  144.7432  151.4036 LP  0  0  0  0  0  0  0  0  0  0  0  0  # atno 17343 bound_to 10162
  157.7086  130.9414  150.1013 LP  0  0  0  0  0  0  0  0  0  0  0  0  # atno 17370 bound_to 10713
  156.1958  130.3657  149.8851 LP  0  0  0  0  0  0  0  0  0  0  0  0  # atno 17371 bound_to 10713
  141.1944  133.6582  156.5592 LP  0  0  0  0  0  0  0  0  0  0  0  0  # atno 17394 bound_to 11000
  140.3872  134.7472  157.4698 LP  0  0  0  0  0  0  0  0  0  0  0  0  # atno 17395 bound_to 11000

$$$$
