#       Name:                AV-unprocessed.smi:1686
#       Creating user name   scv26
#       Creation time:       Fri Mar 27 07:51:59 2020


#       File generated by GOLD software.
#

@<TRIPOS>MOLECULE
AV-unprocessed.smi:1686
    46    48     1
SMALL
NO_CHARGES


@<TRIPOS>ATOM
      1 ****        -3.1412   4.3301  -0.5896 C.3            1 S1                 0.0000
      2 ****        -3.5183   3.1968   0.3212 C.2            1 S1                 0.0000
      3 ****        -4.1944   3.4482   1.4348 N.2            1 S1                 0.0000
      4 ****        -4.3821   2.2143   2.0685 O.3            1 S1                 0.0000
      5 ****        -3.7989   1.2752   1.2886 C.2            1 S1                 0.0000
      6 ****        -3.7827  -0.3916   1.7099 Cl             1 S1                 0.0000
      7 ****        -3.2330   1.8087   0.1667 C.2            1 S1                 0.0000
      8 ****        -2.4847   1.1266  -0.9493 C.3            1 S1                 0.0000
      9 ****        -0.9864   1.1740  -0.6563 C.2            1 S1                 0.0000
     10 ****        -0.2881   2.0510  -1.1639 O.2            1 S1                 0.0000
     11 ****        -0.5133   0.2310   0.1732 N.am           1 S1                 0.0000
     12 ****         0.8726   0.1011   0.6146 C.3            1 S1                 0.0000
     13 ****         1.0360   0.8047   1.9720 C.3            1 S1                 0.0000
     14 ****         1.2634  -1.3936   0.6817 C.3            1 S1                 0.0000
     15 ****         2.7666  -1.6595   0.9232 C.3            1 S1                 0.0000
     16 ****         3.1220  -2.6717  -0.1821 C.3            1 S1                 0.0000
     17 ****         3.1742  -1.9401  -1.5361 C.3            1 S1                 0.0000
     18 ****         1.6880  -1.6663  -1.8290 C.3            1 S1                 0.0000
     19 ****         0.9819  -2.2429  -0.5843 C.3            1 S1                 0.0000
     20 ****         1.8341  -3.4774  -0.3081 C.3            1 S1                 0.0000
     21 ****        -2.0736   4.5404  -0.5251 H              1 S1                 0.0000
     22 ****        -3.6762   5.2465  -0.3383 H              1 S1                 0.0000
     23 ****        -3.3692   4.0899  -1.6282 H              1 S1                 0.0000
     24 ****        -2.7968   0.0882  -1.0683 H              1 S1                 0.0000
     25 ****        -2.6750   1.6095  -1.9085 H              1 S1                 0.0000
     26 ****        -1.1687  -0.4448   0.5387 H              1 S1                 0.0000
     27 ****         1.5323   0.6004  -0.0964 H              1 S1                 0.0000
     28 ****         2.0658   0.7539   2.3255 H              1 S1                 0.0000
     29 ****         0.4007   0.3517   2.7337 H              1 S1                 0.0000
     30 ****         0.7687   1.8595   1.9012 H              1 S1                 0.0000
     31 ****         0.7039  -1.8457   1.5030 H              1 S1                 0.0000
     32 ****         3.3782  -0.7589   0.8546 H              1 S1                 0.0000
     33 ****         2.9233  -2.0891   1.9134 H              1 S1                 0.0000
     34 ****         4.0160  -3.2581   0.0323 H              1 S1                 0.0000
     35 ****         3.7645  -1.0242  -1.4898 H              1 S1                 0.0000
     36 ****         3.6059  -2.5772  -2.3089 H              1 S1                 0.0000
     37 ****         1.4766  -0.6112  -1.9990 H              1 S1                 0.0000
     38 ****         1.3762  -2.2048  -2.7248 H              1 S1                 0.0000
     39 ****        -0.0762  -2.4534  -0.7434 H              1 S1                 0.0000
     40 ****         1.8487  -4.1895  -1.1354 H              1 S1                 0.0000
     41 ****         1.5589  -4.0011   0.6092 H              1 S1                 0.0000
     42 ****        -4.5076   4.3415   1.7572 LP             1 S1                 0.0000
     43 ****        -5.3589   2.0227   2.1642 LP             1 S1                 0.0000
     44 ****        -3.9542   2.2240   2.9722 LP             1 S1                 0.0000
     45 ****        -0.7016   2.7322  -1.7680 LP             1 S1                 0.0000
     46 ****         0.6929   2.0824  -0.9724 LP             1 S1                 0.0000
@<TRIPOS>BOND
    1    1    2 1     
    2    1   21 1     
    3    1   22 1     
    4    1   23 1     
    5    2    7 1     
    6    2    3 2     
    7    3    4 1     
    8    4    5 1     
    9    5    6 1     
   10    5    7 2     
   11    7    8 1     
   12    8    9 1     
   13    8   24 1     
   14    8   25 1     
   15    9   10 2     
   16    9   11 am    
   17   11   12 1     
   18   11   26 1     
   19   12   13 1     
   20   12   14 1     
   21   12   27 1     
   22   13   28 1     
   23   13   29 1     
   24   13   30 1     
   25   14   19 1     
   26   14   15 1     
   27   14   31 1     
   28   15   16 1     
   29   15   32 1     
   30   15   33 1     
   31   16   20 1     
   32   16   17 1     
   33   16   34 1     
   34   17   18 1     
   35   17   35 1     
   36   17   36 1     
   37   18   19 1     
   38   18   37 1     
   39   18   38 1     
   40   19   20 1     
   41   19   39 1     
   42   20   40 1     
   43   20   41 1     
   44    3   42 1     
   45    4   43 1     
   46    4   44 1     
   47   10   45 1     
   48   10   46 1     
@<TRIPOS>SUBSTRUCTURE
      1 S1             1
@<TRIPOS>SET
LONE_PAIRS      STATIC     ATOMS    <user>   **** ""
5 42 43 44 45 46
DONOR_HYDROGENS      STATIC     ATOMS    <user>   **** ""
1 26
ATOM$BLUE        STATIC     ATOMS    COLORGROUP SYSTEM
5 42 43 44 45 46
ATOM$RED        STATIC     ATOMS    COLORGROUP SYSTEM
1 26
