AV-unprocessed.smi:1504|AV-procd|sdf|6073|dock9
  -GOLD-   22720 6193D 1   1.00000     0.00000
 Structure written by MMmdl.
 40 41  0  0  0  0  0  0  0  0  2 V2000
  147.0561  137.4366  152.3365 O   0  0  0  0  0  0  0  0  0  0  0  0
  146.0911  138.2006  152.3111 C   0  0  0  0  0  0  0  0  0  0  0  0
  144.8173  137.7977  152.2035 N   0  0  0  0  0  0  0  0  0  0  0  0
  144.3890  136.4073  152.1030 C   0  0  0  0  0  0  0  0  0  0  0  0
  144.9102  135.7463  150.8157 C   0  0  0  0  0  0  0  0  0  0  0  0
  144.8117  134.2342  150.8643 C   0  0  0  0  0  0  0  0  0  0  0  0
  145.9016  133.4222  151.2468 C   0  0  0  0  0  0  0  0  0  0  0  0
  145.7414  132.0211  151.2720 C   0  0  0  0  0  0  0  0  0  0  0  0
  144.4964  131.4619  150.9160 C   0  0  0  0  0  0  0  0  0  0  0  0
  143.4410  132.3198  150.5444 C   0  0  0  0  0  0  0  0  0  0  0  0
  143.6340  133.6572  150.5322 N   0  3  0  0  0  0  0  0  0  0  0  0
  146.1880  139.5338  152.3842 N   0  0  0  0  0  0  0  0  0  0  0  0
  147.4452  140.2600  152.5085 C   0  0  0  0  0  0  0  0  0  0  0  0
  148.0161  140.1407  153.9318 C   0  0  2  0  0  0  0  0  0  0  0  0
  148.5967  141.4725  154.4460 C   0  0  0  0  0  0  0  0  0  0  0  0
  149.3705  141.1990  155.7391 C   0  0  0  0  0  0  0  0  0  0  0  0
  150.1270  139.5469  155.5157 S   0  0  0  0  0  0  0  0  0  0  0  0
  151.5250  139.7022  155.0865 O   0  0  0  0  0  0  0  0  0  0  0  0
  149.7772  138.6994  156.6657 O   0  0  0  0  0  0  0  0  0  0  0  0
  149.1113  139.0674  154.0659 C   0  0  0  0  0  0  0  0  0  0  0  0
  144.0936  138.5017  152.1926 H   0  0  0  0  0  0  0  0  0  0  0  0
  144.7219  135.8502  152.9805 H   0  0  0  0  0  0  0  0  0  0  0  0
  143.2991  136.3891  152.1185 H   0  0  0  0  0  0  0  0  0  0  0  0
  144.3477  136.1091  149.9543 H   0  0  0  0  0  0  0  0  0  0  0  0
  145.9506  136.0252  150.6424 H   0  0  0  0  0  0  0  0  0  0  0  0
  146.8489  133.8654  151.5184 H   0  0  0  0  0  0  0  0  0  0  0  0
  146.5637  131.3831  151.5611 H   0  0  0  0  0  0  0  0  0  0  0  0
  144.3534  130.3912  150.9284 H   0  0  0  0  0  0  0  0  0  0  0  0
  142.4564  131.9799  150.2582 H   0  0  0  0  0  0  0  0  0  0  0  0
  145.3410  140.0823  152.3547 H   0  0  0  0  0  0  0  0  0  0  0  0
  148.1596  139.8711  151.7810 H   0  0  0  0  0  0  0  0  0  0  0  0
  147.2786  141.3102  152.2632 H   0  0  0  0  0  0  0  0  0  0  0  0
  147.2037  139.8650  154.6062 H   0  0  0  0  0  0  0  0  0  0  0  0
  149.2856  141.8754  153.7022 H   0  0  0  0  0  0  0  0  0  0  0  0
  147.8189  142.2212  154.5990 H   0  0  0  0  0  0  0  0  0  0  0  0
  150.1390  141.9438  155.9461 H   0  0  0  0  0  0  0  0  0  0  0  0
  148.6928  141.1477  156.5915 H   0  0  0  0  0  0  0  0  0  0  0  0
  148.7100  138.0637  154.2066 H   0  0  0  0  0  0  0  0  0  0  0  0
  149.7640  139.0602  153.1923 H   0  0  0  0  0  0  0  0  0  0  0  0
  142.8562  134.2589  150.2599 H   0  0  0  0  0  0  0  0  0  0  0  0
  1  2  2  0  0  0  0
  2  3  1  0  0  0  0
  2 12  1  0  0  0  0
  3  4  1  0  0  0  0
  3 21  1  0  0  0  0
  4  5  1  0  0  0  0
  4 22  1  0  0  0  0
  4 23  1  0  0  0  0
  5  6  1  0  0  0  0
  5 24  1  0  0  0  0
  5 25  1  0  0  0  0
  6 11  1  0  0  0  0
  6  7  2  0  0  0  0
  7  8  1  0  0  0  0
  7 26  1  0  0  0  0
  8  9  2  0  0  0  0
  8 27  1  0  0  0  0
  9 10  1  0  0  0  0
  9 28  1  0  0  0  0
 10 11  2  0  0  0  0
 10 29  1  0  0  0  0
 11 40  1  0  0  0  0
 12 13  1  0  0  0  0
 12 30  1  0  0  0  0
 13 14  1  0  0  0  0
 13 31  1  0  0  0  0
 13 32  1  0  0  0  0
 14 20  1  0  0  0  0
 14 15  1  0  0  0  0
 14 33  1  0  0  0  0
 15 16  1  0  0  0  0
 15 34  1  0  0  0  0
 15 35  1  0  0  0  0
 16 17  1  0  0  0  0
 16 36  1  0  0  0  0
 16 37  1  0  0  0  0
 17 18  2  0  0  0  0
 17 19  2  0  0  0  0
 17 20  1  0  0  0  0
 20 38  1  0  0  0  0
 20 39  1  0  0  0  0
M  CHG  1  11   1
M  END
> <s_m_source_file>
AV-unprocessed.smi

> <i_m_source_file_index>
1504

> <i_lp_mmshare_version>
43012

> <i_f3d_flags>
0

> <s_epik_input>
Tz1TMSg9TylbQ0gyXVtDSDJdW0NASF0oW0NIMl0xKVtDSDJdW05IXUMoPU8pW05IXVtDSDJdW0NIMl1jMltjSF1bY0hdW2NIXVtjSF1uMg==

> <s_epik_cmdline>
J2VwaWtfcHl0aG9uJywgJy1waCcsICc3LjAnLCAnLXRuJywgJzgnLCAnLW1hJywgJzIwMCcsICctbWV0YWxfYmluZGluZycsICctaW1hZScsICc8aW5maWxlLm1hZT4nLCAnLW9tYWUnLCAnPG91dGZpbGUubWFlPic=

> <r_epik_Ionization_Penalty>
1.57393

> <r_epik_Ionization_Penalty_Charging>
1.57388

> <r_epik_Ionization_Penalty_Neutral>
4.82054e-05

> <r_epik_State_Penalty>
1.66991

> <r_epik_Charging_Adjusted_Penalty>
3.24379

> <i_epik_Tot_Q>
1

> <i_epik_Tot_abs_Q>
1

> <r_epik_Metal_State_Penalty>
1.71052

> <b_epik_Metal_Only>
0

> <s_lp_Force_Field>
OPLS_2005

> <r_lp_Energy>
6.68719

> <b_lp_Chiralities_Consistent>
1

> <s_lp_Variant>
AV-unprocessed.smi:1504-3

> <Gold.Version>
5.8.1

> <Gold.Id.Protein>
6NUR|6NUR_protein|mol2

> <Gold.PLP.Fitness>
45.7449

> <Gold.PLP.PLP>
-33.0112

> <Gold.PLP.part.hbond>
-5.0000

> <Gold.PLP.part.metal>
0.0000

> <Gold.PLP.part.buried>
-0.8359

> <Gold.PLP.part.nonpolar>
-32.8965

> <Gold.PLP.part.repulsive>
5.7354

> <Gold.PLP.ligand.clash>
0.0000

> <Gold.PLP.ligand.torsion>
1.0603

> <Gold.PLP.Chemscore.Hbond>
4.9440

> <Gold.PLP.Chemscore.CHOScore>
0.0000

> <Gold.PLP.Chemscore.Metal>
0.0000

> <Gold.Chemscore.Hbonds>
donor molecule, donor type, donor heavy atom, donor atom, acceptor molecule, acceptor atom, score
      L1  H     3    21       P1 10175  0.93
      L1  H    11    40       P1 10186  1.98
      L1  H    12    30       P1 10175  1.00
      P1  H  7989  7998       L1    18  1.00

> <Gold.PLP.Chemscore.Internal.Correction>
0.0224

> <Gold.Rescore>
     Score         DG    S(hbond)    S(metal)    S(lipo)     H(rot)  DE(clash)    DE(int)     intcor
     17.53     -21.86       3.36        0.00      88.08       2.01       3.27       1.06       ----

> <Gold.Chemscore.Fitness>
17.5283

> <Gold.Chemscore.DG>
-21.8594

> <Gold.Chemscore.ZeroCoef>
-5.4800

> <Gold.Chemscore.Hbond>
3.3627

> <Gold.Chemscore.Metal>
0.0000

> <Gold.Chemscore.Lipo>
88.0790

> <Gold.Chemscore.Internal_Hbond>
0.0000

> <Gold.Chemscore.DEClash>
3.2719

> <Gold.Chemscore.DEInternal>
1.0592

> <Gold.Chemscore.Rot>
2.0146

> <Gold.Chemscore.Internal.Correction>
   9.000000E+99

> <Gold.Chemscore.Hbonds>
donor molecule, donor type, donor heavy atom, donor atom, acceptor molecule, acceptor atom, score
      L1  H     3    21       P1 10175  0.87
      L1  H    11    40       P1 10186  0.80
      L1  H    12    30       P1 10175  0.85
      P1  H  7989  7998       L1    18  0.76

> <Gold.Chemscore.Hbond.Weighted>
-11.2314

> <Gold.Chemscore.Metal.Weighted>
-0.0000

> <Gold.Chemscore.Lipo.Weighted>
-10.3052

> <Gold.Chemscore.Internal_Hbond.Weighted>
0.0000

> <Gold.Chemscore.DEClash.Weighted>
3.2719

> <Gold.Chemscore.DEInternal.Weighted>
1.0592

> <Gold.Chemscore.Rot.Weighted>
5.1573

> <Gold.Chemscore.Internal.Correction.Weighted>
   9.000000E+99

> <Gold.Protein.RotatedTorsions>
[ 6907 6896 6895 6894 ] final -178.18 input  -60.11 | X-H torsion
[ 7974 7965 7964 7962 ] final   87.60 input  175.53 | X-H torsion
[ 8008 7997 7996 7995 ] final  -65.39 input   59.86 | X-H torsion
[ 10167 10162 10161 10158 ] final   46.69 input  -65.29 | X-H torsion
[ 10718 10713 10712 10709 ] final  -51.46 input   66.30 | X-H torsion
[ 10763 10752 10751 10750 ] final  104.71 input  -60.55 | X-H torsion
[ 11005 11000 10999 10996 ] final -111.91 input  -57.11 | X-H torsion

> <Gold.Protein.ActiveResidues>
 VAL166  LYS551  ARG553  GLY616  TRP617  ASP618  TYR619  PRO620  LYS621  CYS622 
 ASP623  PHE694  ASN695  SER759  ASP760  ASP761  ALA762  ILE779  LEU786  VAL792 
 PHE793  MET794  SER795  GLU796  ALA797  LYS798  CYS799  TRP800  GLU811  SER814 

> <Gold.Protein.RotatedAtoms>
  151.6330  133.3331  159.3112 H   0  0  0  0  0  0  0  0  0  0  0  0  # atno 6907 bound_to 6896
  150.8046  134.7167  159.6644 H   0  0  0  0  0  0  0  0  0  0  0  0  # atno 6908 bound_to 6896
  152.4141  134.6077  160.0068 H   0  0  0  0  0  0  0  0  0  0  0  0  # atno 6909 bound_to 6896
  145.5568  139.2300  143.2482 H   0  0  0  0  0  0  0  0  0  0  0  0  # atno 7974 bound_to 7965
  154.4669  140.0934  156.7043 H   0  0  0  0  0  0  0  0  0  0  0  0  # atno 8008 bound_to 7997
  155.4833  140.3468  155.4325 H   0  0  0  0  0  0  0  0  0  0  0  0  # atno 8009 bound_to 7997
  156.0971  140.1412  156.9505 H   0  0  0  0  0  0  0  0  0  0  0  0  # atno 8010 bound_to 7997
  140.3113  144.2817  150.6199 H   0  0  0  0  0  0  0  0  0  0  0  0  # atno 10167 bound_to 10162
  156.1708  130.4149  149.9651 H   0  0  0  0  0  0  0  0  0  0  0  0  # atno 10718 bound_to 10713
  153.3696  135.3934  155.1778 H   0  0  0  0  0  0  0  0  0  0  0  0  # atno 10763 bound_to 10752
  154.8692  135.3699  154.4995 H   0  0  0  0  0  0  0  0  0  0  0  0  # atno 10764 bound_to 10752
  153.5462  135.7083  153.5674 H   0  0  0  0  0  0  0  0  0  0  0  0  # atno 10765 bound_to 10752
  141.0706  133.9385  157.2492 H   0  0  0  0  0  0  0  0  0  0  0  0  # atno 11005 bound_to 11000
  146.1879  140.6392  142.9159 LP  0  0  0  0  0  0  0  0  0  0  0  0  # atno 17320 bound_to 7965
  144.7502  140.5172  143.6807 LP  0  0  0  0  0  0  0  0  0  0  0  0  # atno 17321 bound_to 7965
  140.5565  143.2198  151.7838 LP  0  0  0  0  0  0  0  0  0  0  0  0  # atno 17342 bound_to 10162
  139.4893  144.4406  151.9769 LP  0  0  0  0  0  0  0  0  0  0  0  0  # atno 17343 bound_to 10162
  156.7451  130.9094  151.3634 LP  0  0  0  0  0  0  0  0  0  0  0  0  # atno 17370 bound_to 10713
  157.6801  130.9132  150.0246 LP  0  0  0  0  0  0  0  0  0  0  0  0  # atno 17371 bound_to 10713
  139.9520  135.0173  156.9020 LP  0  0  0  0  0  0  0  0  0  0  0  0  # atno 17394 bound_to 11000
  140.5681  134.0470  155.7421 LP  0  0  0  0  0  0  0  0  0  0  0  0  # atno 17395 bound_to 11000

$$$$
