AV-unprocessed.smi:1251|AV-procd|sdf|5260|dock4
  -GOLD-   22720 4373D 1   1.00000     0.00000
 Structure written by MMmdl.
 38 39  0  0  0  0  0  0  0  0  2 V2000
  146.5936  141.8846  154.0976 C   0  0  0  0  0  0  0  0  0  0  0  0
  147.7761  140.9568  153.7984 C   0  0  0  0  0  0  0  0  0  0  0  0
  148.7828  140.8936  154.9555 C   0  0  0  0  0  0  0  0  0  0  0  0
  149.8141  139.8325  154.7615 C   0  0  0  0  0  0  0  0  0  0  0  0
  151.1116  140.1048  154.6011 N   0  0  0  0  0  0  0  0  0  0  0  0
  151.8671  138.9569  154.4124 N   0  0  0  0  0  0  0  0  0  0  0  0
  151.1305  137.8370  154.4083 C   0  0  0  0  0  0  0  0  0  0  0  0
  151.6750  136.6201  154.2431 N   0  5  0  0  0  0  0  0  0  0  0  0
  151.0429  135.5246  154.7224 C   0  0  0  0  0  0  0  0  0  0  0  0
  151.4114  134.8236  155.6674 O   0  0  0  0  0  0  0  0  0  0  0  0
  149.9151  135.2240  154.0623 N   0  0  0  0  0  0  0  0  0  0  0  0
  149.0138  134.1088  154.3469 C   0  0  2  0  0  0  0  0  0  0  0  0
  148.7530  134.0268  155.8598 C   0  0  0  0  0  0  0  0  0  0  0  0
  149.6136  132.8016  153.7940 C   0  0  2  0  0  0  0  0  0  0  0  0
  148.6210  131.6421  153.6830 C   0  0  0  0  0  0  0  0  0  0  0  0
  149.5440  130.4459  153.7111 C   0  0  0  0  0  0  0  0  0  0  0  0
  150.5964  130.8879  154.7235 C   0  0  0  0  0  0  0  0  0  0  0  0
  150.6385  132.3113  154.6565 O   0  0  0  0  0  0  0  0  0  0  0  0
  149.4094  138.1269  154.6626 S   0  0  0  0  0  0  0  0  0  0  0  0
  145.8966  141.9076  153.2596 H   0  0  0  0  0  0  0  0  0  0  0  0
  146.9309  142.9055  154.2785 H   0  0  0  0  0  0  0  0  0  0  0  0
  146.0445  141.5508  154.9785 H   0  0  0  0  0  0  0  0  0  0  0  0
  147.4021  139.9550  153.5838 H   0  0  0  0  0  0  0  0  0  0  0  0
  148.2803  141.2984  152.8935 H   0  0  0  0  0  0  0  0  0  0  0  0
  149.2864  141.8548  155.0680 H   0  0  0  0  0  0  0  0  0  0  0  0
  148.2627  140.7029  155.8948 H   0  0  0  0  0  0  0  0  0  0  0  0
  149.6576  135.8289  153.2965 H   0  0  0  0  0  0  0  0  0  0  0  0
  148.0616  134.2776  153.8409 H   0  0  0  0  0  0  0  0  0  0  0  0
  148.0596  133.2197  156.0970 H   0  0  0  0  0  0  0  0  0  0  0  0
  148.3169  134.9530  156.2351 H   0  0  0  0  0  0  0  0  0  0  0  0
  149.6761  133.8459  156.4116 H   0  0  0  0  0  0  0  0  0  0  0  0
  150.0617  132.9778  152.8145 H   0  0  0  0  0  0  0  0  0  0  0  0
  147.9559  131.6207  154.5478 H   0  0  0  0  0  0  0  0  0  0  0  0
  148.0090  131.6883  152.7817 H   0  0  0  0  0  0  0  0  0  0  0  0
  149.0413  129.5209  153.9939 H   0  0  0  0  0  0  0  0  0  0  0  0
  150.0001  130.3031  152.7306 H   0  0  0  0  0  0  0  0  0  0  0  0
  150.2999  130.5990  155.7325 H   0  0  0  0  0  0  0  0  0  0  0  0
  151.5745  130.4515  154.5202 H   0  0  0  0  0  0  0  0  0  0  0  0
  1  2  1  0  0  0  0
  1 20  1  0  0  0  0
  1 21  1  0  0  0  0
  1 22  1  0  0  0  0
  2  3  1  0  0  0  0
  2 23  1  0  0  0  0
  2 24  1  0  0  0  0
  3  4  1  0  0  0  0
  3 25  1  0  0  0  0
  3 26  1  0  0  0  0
  4 19  1  0  0  0  0
  4  5  2  0  0  0  0
  5  6  1  0  0  0  0
  6  7  2  0  0  0  0
  7  8  1  0  0  0  0
  7 19  1  0  0  0  0
  8  9  1  0  0  0  0
  9 10  2  0  0  0  0
  9 11  1  0  0  0  0
 11 12  1  0  0  0  0
 11 27  1  0  0  0  0
 12 13  1  0  0  0  0
 12 14  1  0  0  0  0
 12 28  1  0  0  0  0
 13 29  1  0  0  0  0
 13 30  1  0  0  0  0
 13 31  1  0  0  0  0
 14 18  1  0  0  0  0
 14 15  1  0  0  0  0
 14 32  1  0  0  0  0
 15 16  1  0  0  0  0
 15 33  1  0  0  0  0
 15 34  1  0  0  0  0
 16 17  1  0  0  0  0
 16 35  1  0  0  0  0
 16 36  1  0  0  0  0
 17 18  1  0  0  0  0
 17 37  1  0  0  0  0
 17 38  1  0  0  0  0
M  CHG  1   8  -1
M  END
> <s_m_source_file>
AV-unprocessed.smi

> <i_m_source_file_index>
1251

> <i_lp_mmshare_version>
43012

> <i_f3d_flags>
0

> <s_epik_input>
W0NIM11bQ0gyXVtDSDJdYzFubmMoczEpW05IXUMoPU8pW05IXVtDQEhdKFtDSDNdKVtDQEBIXTJbQ0gyXVtDSDJdW0NIMl1PMg==

> <s_epik_cmdline>
J2VwaWtfcHl0aG9uJywgJy1waCcsICc3LjAnLCAnLXRuJywgJzgnLCAnLW1hJywgJzIwMCcsICctbWV0YWxfYmluZGluZycsICctaW1hZScsICc8aW5maWxlLm1hZT4nLCAnLW9tYWUnLCAnPG91dGZpbGUubWFlPic=

> <r_lp_tautomer_probability>
1

> <r_epik_Ionization_Penalty>
4.22551

> <r_epik_Ionization_Penalty_Charging>
4.21437

> <r_epik_Ionization_Penalty_Neutral>
0.0111434

> <r_epik_State_Penalty>
4.21389

> <r_epik_Charging_Adjusted_Penalty>
8.42826

> <i_epik_Tot_Q>
-1

> <i_epik_Tot_abs_Q>
1

> <r_epik_Metal_State_Penalty>
0.69377

> <b_epik_Metal_Only>
1

> <s_lp_Force_Field>
OPLS_2005

> <r_lp_Energy>
11.2841

> <b_lp_Chiralities_Consistent>
1

> <s_lp_Variant>
AV-unprocessed.smi:1251-5

> <Gold.Version>
5.8.1

> <Gold.Id.Protein>
6NUR|6NUR_protein|mol2

> <Gold.PLP.Fitness>
41.8230

> <Gold.PLP.PLP>
-32.3043

> <Gold.PLP.part.hbond>
-3.2811

> <Gold.PLP.part.metal>
0.0000

> <Gold.PLP.part.buried>
-4.7709

> <Gold.PLP.part.nonpolar>
-25.4089

> <Gold.PLP.part.repulsive>
0.3349

> <Gold.PLP.ligand.clash>
0.0000

> <Gold.PLP.ligand.torsion>
1.2737

> <Gold.PLP.Chemscore.Hbond>
4.0000

> <Gold.PLP.Chemscore.CHOScore>
0.0000

> <Gold.PLP.Chemscore.Metal>
0.0000

> <Gold.Chemscore.Hbonds>
donor molecule, donor type, donor heavy atom, donor atom, acceptor molecule, acceptor atom, score
      L1  H    11    27       P1  7948  0.70
      P1  H  7989  7998       L1     5  0.69
      P1  H 10752 10764       L1     8  0.40

> <Gold.PLP.Chemscore.Internal.Correction>
0.0660

> <Gold.Rescore>
     Score         DG    S(hbond)    S(metal)    S(lipo)     H(rot)  DE(clash)    DE(int)     intcor
     11.73     -16.60       2.72        0.00      51.27       1.55       0.11       4.76       ----

> <Gold.Chemscore.Fitness>
11.7261

> <Gold.Chemscore.DG>
-16.5992

> <Gold.Chemscore.ZeroCoef>
-5.4800

> <Gold.Chemscore.Hbond>
2.7187

> <Gold.Chemscore.Metal>
0.0000

> <Gold.Chemscore.Lipo>
51.2717

> <Gold.Chemscore.Internal_Hbond>
0.0000

> <Gold.Chemscore.DEClash>
0.1117

> <Gold.Chemscore.DEInternal>
4.7614

> <Gold.Chemscore.Rot>
1.5469

> <Gold.Chemscore.Internal.Correction>
   9.000000E+99

> <Gold.Chemscore.Hbonds>
donor molecule, donor type, donor heavy atom, donor atom, acceptor molecule, acceptor atom, score
      L1  H    11    27       P1  7948  0.07
      P1  H  7989  7998       L1     5  0.14

> <Gold.Chemscore.Hbond.Weighted>
-9.0804

> <Gold.Chemscore.Metal.Weighted>
-0.0000

> <Gold.Chemscore.Lipo.Weighted>
-5.9988

> <Gold.Chemscore.Internal_Hbond.Weighted>
0.0000

> <Gold.Chemscore.DEClash.Weighted>
0.1117

> <Gold.Chemscore.DEInternal.Weighted>
4.7614

> <Gold.Chemscore.Rot.Weighted>
3.9600

> <Gold.Chemscore.Internal.Correction.Weighted>
   9.000000E+99

> <Gold.Protein.RotatedTorsions>
[ 6907 6896 6895 6894 ] final   98.86 input  -60.11 | X-H torsion
[ 7974 7965 7964 7962 ] final  -95.21 input  175.53 | X-H torsion
[ 8008 7997 7996 7995 ] final -175.72 input   59.86 | X-H torsion
[ 10167 10162 10161 10158 ] final  165.69 input  -65.29 | X-H torsion
[ 10718 10713 10712 10709 ] final   59.80 input   66.30 | X-H torsion
[ 10763 10752 10751 10750 ] final  -80.22 input  -60.55 | X-H torsion
[ 11005 11000 10999 10996 ] final   14.88 input  -57.11 | X-H torsion

> <Gold.Protein.ActiveResidues>
 VAL166  LYS551  ARG553  GLY616  TRP617  ASP618  TYR619  PRO620  LYS621  CYS622 
 ASP623  PHE694  ASN695  SER759  ASP760  ASP761  ALA762  ILE779  LEU786  VAL792 
 PHE793  MET794  SER795  GLU796  ALA797  LYS798  CYS799  TRP800  GLU811  SER814 

> <Gold.Protein.RotatedAtoms>
  152.5402  134.0516  159.8112 H   0  0  0  0  0  0  0  0  0  0  0  0  # atno 6907 bound_to 6896
  151.0657  133.5500  159.2638 H   0  0  0  0  0  0  0  0  0  0  0  0  # atno 6908 bound_to 6896
  151.2382  135.0587  159.9068 H   0  0  0  0  0  0  0  0  0  0  0  0  # atno 6909 bound_to 6896
  145.3631  140.9494  143.2489 H   0  0  0  0  0  0  0  0  0  0  0  0  # atno 7974 bound_to 7965
  155.9861  140.1191  157.0682 H   0  0  0  0  0  0  0  0  0  0  0  0  # atno 8008 bound_to 7997
  154.4197  140.1135  156.5569 H   0  0  0  0  0  0  0  0  0  0  0  0  # atno 8009 bound_to 7997
  155.6406  140.3473  155.4716 H   0  0  0  0  0  0  0  0  0  0  0  0  # atno 8010 bound_to 7997
  139.4910  144.4105  151.9305 H   0  0  0  0  0  0  0  0  0  0  0  0  # atno 10167 bound_to 10162
  157.5704  130.8903  149.9257 H   0  0  0  0  0  0  0  0  0  0  0  0  # atno 10718 bound_to 10713
  154.5484  135.5669  153.6900 H   0  0  0  0  0  0  0  0  0  0  0  0  # atno 10763 bound_to 10752
  152.9983  135.6245  154.2407 H   0  0  0  0  0  0  0  0  0  0  0  0  # atno 10764 bound_to 10752
  154.2341  135.2865  155.2858 H   0  0  0  0  0  0  0  0  0  0  0  0  # atno 10765 bound_to 10752
  140.4646  134.1093  155.7722 H   0  0  0  0  0  0  0  0  0  0  0  0  # atno 11005 bound_to 11000
  144.8632  139.5147  143.6802 LP  0  0  0  0  0  0  0  0  0  0  0  0  # atno 17320 bound_to 7965
  146.2918  139.7163  142.9155 LP  0  0  0  0  0  0  0  0  0  0  0  0  # atno 17321 bound_to 7965
  140.3546  144.3047  150.5943 LP  0  0  0  0  0  0  0  0  0  0  0  0  # atno 17342 bound_to 10162
  140.5455  143.2215  151.8014 LP  0  0  0  0  0  0  0  0  0  0  0  0  # atno 17343 bound_to 10162
  156.0750  130.3680  150.0697 LP  0  0  0  0  0  0  0  0  0  0  0  0  # atno 17370 bound_to 10713
  156.8851  130.9569  151.3595 LP  0  0  0  0  0  0  0  0  0  0  0  0  # atno 17371 bound_to 10713
  141.1605  133.8801  157.1860 LP  0  0  0  0  0  0  0  0  0  0  0  0  # atno 17394 bound_to 11000
  139.9924  135.0060  157.0005 LP  0  0  0  0  0  0  0  0  0  0  0  0  # atno 17395 bound_to 11000

$$$$
