#       Name:                AV-unprocessed.smi:1389
#       Creating user name   scv26
#       Creation time:       Fri Mar 27 05:27:37 2020


#       File generated by GOLD software.
#

@<TRIPOS>MOLECULE
AV-unprocessed.smi:1389
    58    60     1
SMALL
NO_CHARGES


@<TRIPOS>ATOM
      1 ****        -2.4520  -0.3143  -3.2699 C.3            1 S1                 0.0000
      2 ****        -1.7887  -1.6075  -2.7475 C.3            1 S1                 0.0000
      3 ****        -0.2600  -1.3885  -2.5910 C.3            1 S1                 0.0000
      4 ****         0.1057  -0.6080  -1.4087 N.am           1 S1                 0.0000
      5 ****         0.3224   0.7153  -1.3928 C.2            1 S1                 0.0000
      6 ****         0.1762   1.4405  -2.3760 O.2            1 S1                 0.0000
      7 ****         0.7367   1.1316  -0.1841 N.am           1 S1                 0.0000
      8 ****         1.1373   2.4460   0.1913 C.ar           1 S1                 0.0000
      9 ****         0.4948   3.5896  -0.3494 C.ar           1 S1                 0.0000
     10 ****         0.9251   4.8783   0.0184 C.ar           1 S1                 0.0000
     11 ****         1.9898   5.0059   0.9264 C.ar           1 S1                 0.0000
     12 ****         2.5669   3.8998   1.4393 N.pl3          1 S1                 1.0000
     13 ****         2.1887   2.6327   1.1360 C.ar           1 S1                 0.0000
     14 ****         2.8802   1.5707   1.7623 N.3            1 S1                 0.0000
     15 ****         4.0845   1.8324   2.5421 C.3            1 S1                 0.0000
     16 ****         4.3306   0.5500   3.3321 C.3            1 S1                 0.0000
     17 ****         2.9127   0.0748   3.6340 C.3            1 S1                 0.0000
     18 ****         2.1144   0.5031   2.3978 C.3            1 S1                 0.0000
     19 ****        -2.4413  -2.1216  -1.4989 N.4            1 S1                 1.0000
     20 ****        -3.9188  -2.2723  -1.6125 C.3            1 S1                 0.0000
     21 ****        -4.5329  -2.7979  -0.3041 C.3            1 S1                 0.0000
     22 ****        -3.9252  -4.0300   0.0515 O.3            1 S1                 0.0000
     23 ****        -2.5342  -3.8725   0.2836 C.3            1 S1                 0.0000
     24 ****        -1.8457  -3.3943  -1.0056 C.3            1 S1                 0.0000
     25 ****        -1.8811   0.1141  -4.0942 H              1 S1                 0.0000
     26 ****        -2.5238   0.4446  -2.4904 H              1 S1                 0.0000
     27 ****        -3.4536  -0.4955  -3.6594 H              1 S1                 0.0000
     28 ****        -1.9242  -2.3647  -3.5215 H              1 S1                 0.0000
     29 ****         0.2511  -2.3484  -2.5213 H              1 S1                 0.0000
     30 ****         0.1500  -0.9304  -3.4928 H              1 S1                 0.0000
     31 ****         0.2595  -1.1243  -0.5549 H              1 S1                 0.0000
     32 ****         0.9087   0.4105   0.5009 H              1 S1                 0.0000
     33 ****        -0.3282   3.4970  -1.0421 H              1 S1                 0.0000
     34 ****         0.4462   5.7552  -0.3925 H              1 S1                 0.0000
     35 ****         2.3899   5.9516   1.2631 H              1 S1                 0.0000
     36 ****         4.9300   2.0810   1.9000 H              1 S1                 0.0000
     37 ****         3.9202   2.6609   3.2324 H              1 S1                 0.0000
     38 ****         4.8438  -0.1822   2.7072 H              1 S1                 0.0000
     39 ****         4.9288   0.7110   4.2293 H              1 S1                 0.0000
     40 ****         2.8542  -0.9969   3.8266 H              1 S1                 0.0000
     41 ****         2.5339   0.5948   4.5151 H              1 S1                 0.0000
     42 ****         1.1069   0.8226   2.6675 H              1 S1                 0.0000
     43 ****         2.0328  -0.3313   1.7007 H              1 S1                 0.0000
     44 ****        -4.3925  -1.3177  -1.8362 H              1 S1                 0.0000
     45 ****        -4.1543  -2.9515  -2.4333 H              1 S1                 0.0000
     46 ****        -4.4150  -2.0718   0.5019 H              1 S1                 0.0000
     47 ****        -5.6036  -2.9585  -0.4317 H              1 S1                 0.0000
     48 ****        -2.3635  -3.1705   1.1016 H              1 S1                 0.0000
     49 ****        -2.1193  -4.8310   0.5963 H              1 S1                 0.0000
     50 ****        -1.9310  -4.1605  -1.7778 H              1 S1                 0.0000
     51 ****        -0.7854  -3.2720  -0.7911 H              1 S1                 0.0000
     52 ****        -2.2797  -1.4282  -0.7826 H              1 S1                 0.0000
     53 ****         3.3311   4.0258   2.1032 H              1 S1                 0.0000
     54 ****        -0.1194   1.0483  -3.2470 LP             1 S1                 0.0000
     55 ****         0.3530   2.4222  -2.3040 LP             1 S1                 0.0000
     56 ****         3.1969   1.2354   0.8751 LP             1 S1                 0.0000
     57 ****        -4.0590  -4.6854  -0.6918 LP             1 S1                 0.0000
     58 ****        -4.3568  -4.3774   0.8840 LP             1 S1                 0.0000
@<TRIPOS>BOND
    1    1    2 1     
    2    1   25 1     
    3    1   26 1     
    4    1   27 1     
    5    2    3 1     
    6    2   19 1     
    7    2   28 1     
    8    3    4 1     
    9    3   29 1     
   10    3   30 1     
   11    4    5 am    
   12    4   31 1     
   13    5    6 2     
   14    5    7 am    
   15    7    8 1     
   16    7   32 1     
   17    8   13 ar    
   18    8    9 ar    
   19    9   10 ar    
   20    9   33 1     
   21   10   11 ar    
   22   10   34 1     
   23   11   12 ar    
   24   11   35 1     
   25   12   13 ar    
   26   12   53 1     
   27   13   14 1     
   28   14   18 1     
   29   14   15 1     
   30   15   16 1     
   31   15   36 1     
   32   15   37 1     
   33   16   17 1     
   34   16   38 1     
   35   16   39 1     
   36   17   18 1     
   37   17   40 1     
   38   17   41 1     
   39   18   42 1     
   40   18   43 1     
   41   19   24 1     
   42   19   20 1     
   43   19   52 1     
   44   20   21 1     
   45   20   44 1     
   46   20   45 1     
   47   21   22 1     
   48   21   46 1     
   49   21   47 1     
   50   22   23 1     
   51   23   24 1     
   52   23   48 1     
   53   23   49 1     
   54   24   50 1     
   55   24   51 1     
   56    6   54 1     
   57    6   55 1     
   58   14   56 1     
   59   22   57 1     
   60   22   58 1     
@<TRIPOS>SUBSTRUCTURE
      1 S1             1
@<TRIPOS>SET
LONE_PAIRS      STATIC     ATOMS    <user>   **** ""
5 54 55 56 57 58
DONOR_HYDROGENS      STATIC     ATOMS    <user>   **** ""
4 31 32 53 52
ATOM$BLUE        STATIC     ATOMS    COLORGROUP SYSTEM
5 54 55 56 57 58
ATOM$RED        STATIC     ATOMS    COLORGROUP SYSTEM
4 31 32 53 52
