#       Name:                AV-unprocessed.smi:3112
#       Creating user name   scv26
#       Creation time:       Fri Mar 27 17:21:21 2020


#       File generated by GOLD software.
#

@<TRIPOS>MOLECULE
AV-unprocessed.smi:3112
    40    40     1
SMALL
NO_CHARGES


@<TRIPOS>ATOM
      1 ****        -3.6209   3.2230   0.9646 C.3            1 S1                 0.0000
      2 ****        -3.1075   1.7769   1.0000 C.3            1 S1                 0.0000
      3 ****        -1.5729   1.6726   1.0660 C.3            1 S1                 0.0000
      4 ****        -1.1317   2.1914   2.3053 O.3            1 S1                 0.0000
      5 ****        -1.0896   0.2174   0.9488 C.3            1 S1                 0.0000
      6 ****         0.3840   0.1550   0.8443 N.4            1 S1                 1.0000
      7 ****         0.9745  -1.2039   0.8199 C.3            1 S1                 0.0000
      8 ****         2.4493  -1.1028   1.2509 C.3            1 S1                 0.0000
      9 ****         0.7549  -1.9035  -0.5531 C.3            1 S1                 0.0000
     10 ****         1.1574  -3.3914  -0.5392 C.3            1 S1                 0.0000
     11 ****         1.3746  -1.1827  -1.6623 N.pl3          1 S1                 0.0000
     12 ****         0.7859  -0.2584  -2.5019 C.2            1 S1                 0.0000
     13 ****         1.7448   0.1812  -3.3684 C.2            1 S1                 0.0000
     14 ****         2.9087  -0.5350  -2.9747 C.2            1 S1                 0.0000
     15 ****         2.6860  -1.3439  -1.9520 N.2            1 S1                 0.0000
     16 ****        -4.7077   3.2447   0.8817 H              1 S1                 0.0000
     17 ****        -3.2127   3.7661   0.1118 H              1 S1                 0.0000
     18 ****        -3.3497   3.7661   1.8702 H              1 S1                 0.0000
     19 ****        -3.5550   1.2498   1.8439 H              1 S1                 0.0000
     20 ****        -3.4626   1.2682   0.1028 H              1 S1                 0.0000
     21 ****        -1.1370   2.2664   0.2612 H              1 S1                 0.0000
     22 ****        -1.4266   3.0870   2.3789 H              1 S1                 0.0000
     23 ****        -1.4276  -0.3653   1.8072 H              1 S1                 0.0000
     24 ****        -1.5303  -0.2360   0.0615 H              1 S1                 0.0000
     25 ****         0.6836   0.6574   0.0210 H              1 S1                 0.0000
     26 ****         0.4642  -1.7921   1.5841 H              1 S1                 0.0000
     27 ****         2.9336  -2.0785   1.2740 H              1 S1                 0.0000
     28 ****         2.5291  -0.6846   2.2549 H              1 S1                 0.0000
     29 ****         3.0251  -0.4572   0.5878 H              1 S1                 0.0000
     30 ****        -0.3155  -1.9085  -0.7575 H              1 S1                 0.0000
     31 ****         0.6254  -3.9320   0.2439 H              1 S1                 0.0000
     32 ****         2.2248  -3.5328  -0.3700 H              1 S1                 0.0000
     33 ****         0.9115  -3.8686  -1.4884 H              1 S1                 0.0000
     34 ****        -0.2574   0.0078  -2.4147 H              1 S1                 0.0000
     35 ****         1.6323   0.9048  -4.1623 H              1 S1                 0.0000
     36 ****         3.9021  -0.4894  -3.3959 H              1 S1                 0.0000
     37 ****         0.7520   0.6307   1.6561 H              1 S1                 0.0000
     38 ****        -0.1330   2.1608   2.3472 LP             1 S1                 0.0000
     39 ****        -1.5134   1.6483   3.0532 LP             1 S1                 0.0000
     40 ****         3.3428  -1.9429  -1.4938 LP             1 S1                 0.0000
@<TRIPOS>BOND
    1    1    2 1     
    2    1   16 1     
    3    1   17 1     
    4    1   18 1     
    5    2    3 1     
    6    2   19 1     
    7    2   20 1     
    8    3    4 1     
    9    3    5 1     
   10    3   21 1     
   11    4   22 1     
   12    5    6 1     
   13    5   23 1     
   14    5   24 1     
   15    6    7 1     
   16    6   25 1     
   17    6   37 1     
   18    7    8 1     
   19    7    9 1     
   20    7   26 1     
   21    8   27 1     
   22    8   28 1     
   23    8   29 1     
   24    9   10 1     
   25    9   11 1     
   26    9   30 1     
   27   10   31 1     
   28   10   32 1     
   29   10   33 1     
   30   11   15 1     
   31   11   12 1     
   32   12   13 2     
   33   12   34 1     
   34   13   14 1     
   35   13   35 1     
   36   14   15 2     
   37   14   36 1     
   38    4   38 1     
   39    4   39 1     
   40   15   40 1     
@<TRIPOS>SUBSTRUCTURE
      1 S1             1
@<TRIPOS>SET
LONE_PAIRS      STATIC     ATOMS    <user>   **** ""
3 38 39 40
DONOR_HYDROGENS      STATIC     ATOMS    <user>   **** ""
3 22 25 37
ATOM$BLUE        STATIC     ATOMS    COLORGROUP SYSTEM
3 38 39 40
ATOM$RED        STATIC     ATOMS    COLORGROUP SYSTEM
3 22 25 37
