AV-unprocessed.smi:1060|AV-procd|sdf|4658|dock10
  -GOLD-   22720 3173D 1   1.00000     0.00000
 Structure written by MMmdl.
 36 37  0  0  0  0  0  0  0  0  2 V2000
  153.3458  139.2558  155.6282 O   0  0  0  0  0  0  0  0  0  0  0  0
  152.1314  139.1201  155.7739 C   0  0  0  0  0  0  0  0  0  0  0  0
  151.3267  138.3330  154.7377 C   0  0  0  0  0  0  0  0  0  0  0  0
  149.9860  138.1915  155.1825 O   0  0  0  0  0  0  0  0  0  0  0  0
  149.0503  138.8076  154.3148 C   0  0  0  0  0  0  0  0  0  0  0  0
  147.8033  139.1865  155.1229 C   0  0  2  0  0  0  0  0  0  0  0  0
  146.6399  139.6805  154.2682 C   0  0  0  0  0  0  0  0  0  0  0  0
  145.8121  140.4844  155.2556 C   0  0  0  0  0  0  0  0  0  0  0  0
  146.8114  140.8571  156.3558 C   0  0  0  0  0  0  0  0  0  0  0  0
  148.0604  140.3154  155.9431 O   0  0  0  0  0  0  0  0  0  0  0  0
  151.4037  139.6149  156.7946 N   0  0  0  0  0  0  0  0  0  0  0  0
  151.7979  140.3835  157.9050 C   0  0  0  0  0  0  0  0  0  0  0  0
  151.3254  141.6238  158.2135 C   0  0  0  0  0  0  0  0  0  0  0  0
  151.7774  142.3625  159.3859 C   0  0  0  0  0  0  0  0  0  0  0  0
  151.3399  143.7801  159.7105 C   0  0  0  0  0  0  0  0  0  0  0  0
  151.8377  144.6264  158.8101 F   0  0  0  0  0  0  0  0  0  0  0  0
  150.0111  143.8870  159.6905 F   0  0  0  0  0  0  0  0  0  0  0  0
  151.7732  144.1516  160.9151 F   0  0  0  0  0  0  0  0  0  0  0  0
  152.7284  141.6694  160.1086 C   0  0  0  0  0  0  0  0  0  0  0  0
  153.2339  140.4369  159.8856 N   0  5  0  0  0  0  0  0  0  0  0  0
  152.8019  139.7535  158.7886 C   0  0  0  0  0  0  0  0  0  0  0  0
  153.2282  138.6290  158.5230 O   0  0  0  0  0  0  0  0  0  0  0  0
  151.3519  138.8561  153.7802 H   0  0  0  0  0  0  0  0  0  0  0  0
  151.7871  137.3535  154.5997 H   0  0  0  0  0  0  0  0  0  0  0  0
  149.4810  139.6880  153.8350 H   0  0  0  0  0  0  0  0  0  0  0  0
  148.7778  138.1027  153.5279 H   0  0  0  0  0  0  0  0  0  0  0  0
  147.4762  138.3490  155.7423 H   0  0  0  0  0  0  0  0  0  0  0  0
  147.0059  140.3361  153.4767 H   0  0  0  0  0  0  0  0  0  0  0  0
  146.0793  138.8686  153.8039 H   0  0  0  0  0  0  0  0  0  0  0  0
  145.3648  141.3613  154.7866 H   0  0  0  0  0  0  0  0  0  0  0  0
  145.0069  139.8765  155.6695 H   0  0  0  0  0  0  0  0  0  0  0  0
  146.8925  141.9353  156.4942 H   0  0  0  0  0  0  0  0  0  0  0  0
  146.5183  140.4134  157.3078 H   0  0  0  0  0  0  0  0  0  0  0  0
  150.4165  139.4033  156.7748 H   0  0  0  0  0  0  0  0  0  0  0  0
  150.5869  142.1100  157.6002 H   0  0  0  0  0  0  0  0  0  0  0  0
  153.1492  142.1853  160.9980 H   0  0  0  0  0  0  0  0  0  0  0  0
  1  2  2  0  0  0  0
  2  3  1  0  0  0  0
  2 11  1  0  0  0  0
  3  4  1  0  0  0  0
  3 23  1  0  0  0  0
  3 24  1  0  0  0  0
  4  5  1  0  0  0  0
  5  6  1  0  0  0  0
  5 25  1  0  0  0  0
  5 26  1  0  0  0  0
  6 10  1  0  0  0  0
  6  7  1  0  0  0  0
  6 27  1  0  0  0  0
  7  8  1  0  0  0  0
  7 28  1  0  0  0  0
  7 29  1  0  0  0  0
  8  9  1  0  0  0  0
  8 30  1  0  0  0  0
  8 31  1  0  0  0  0
  9 10  1  0  0  0  0
  9 32  1  0  0  0  0
  9 33  1  0  0  0  0
 11 12  1  0  0  0  0
 11 34  1  0  0  0  0
 12 21  1  0  0  0  0
 12 13  2  0  0  0  0
 13 14  1  0  0  0  0
 13 35  1  0  0  0  0
 14 15  1  0  0  0  0
 14 19  2  0  0  0  0
 15 16  1  0  0  0  0
 15 17  1  0  0  0  0
 15 18  1  0  0  0  0
 19 20  1  0  0  0  0
 19 36  1  0  0  0  0
 20 21  1  0  0  0  0
 21 22  2  0  0  0  0
M  CHG  1  20  -1
M  END
> <s_m_source_file>
AV-unprocessed.smi

> <i_m_source_file_index>
1060

> <i_lp_mmshare_version>
43012

> <i_f3d_flags>
0

> <s_epik_input>
Tz1jMVtuSF1bY0hdYyhDKEYpKEYpRilbY0hdYzFbTkhdQyg9TylbQ0gyXU9bQ0gyXVtDQEBIXTJbQ0gyXVtDSDJdW0NIMl1PMg==

> <s_epik_cmdline>
J2VwaWtfcHl0aG9uJywgJy1waCcsICc3LjAnLCAnLXRuJywgJzgnLCAnLW1hJywgJzIwMCcsICctbWV0YWxfYmluZGluZycsICctaW1hZScsICc8aW5maWxlLm1hZT4nLCAnLW9tYWUnLCAnPG91dGZpbGUubWFlPic=

> <r_epik_Ionization_Penalty>
2.50578

> <r_epik_Ionization_Penalty_Charging>
0.0523173

> <r_epik_Ionization_Penalty_Neutral>
2.45346

> <r_epik_State_Penalty>
2.61512

> <r_epik_Charging_Adjusted_Penalty>
2.66744

> <i_epik_Tot_Q>
-1

> <i_epik_Tot_abs_Q>
1

> <r_epik_Metal_State_Penalty>
0.513209

> <b_epik_Metal_Only>
0

> <s_lp_Force_Field>
OPLS_2005

> <r_lp_Energy>
34.3401

> <b_lp_Chiralities_Consistent>
1

> <s_lp_Variant>
AV-unprocessed.smi:1060-3

> <Gold.Version>
5.8.1

> <Gold.Id.Protein>
6NUR|6NUR_protein|mol2

> <Gold.PLP.Fitness>
44.3886

> <Gold.PLP.PLP>
-44.3095

> <Gold.PLP.part.hbond>
-1.0000

> <Gold.PLP.part.metal>
0.0000

> <Gold.PLP.part.buried>
-3.7064

> <Gold.PLP.part.nonpolar>
-40.1525

> <Gold.PLP.part.repulsive>
0.3490

> <Gold.PLP.ligand.clash>
0.0000

> <Gold.PLP.ligand.torsion>
1.5012

> <Gold.PLP.Chemscore.Hbond>
1.0000

> <Gold.PLP.Chemscore.CHOScore>
0.0000

> <Gold.PLP.Chemscore.Metal>
0.0000

> <Gold.Chemscore.Hbonds>
donor molecule, donor type, donor heavy atom, donor atom, acceptor molecule, acceptor atom, score
      P1  H  7997  8008       L1     1  0.81

> <Gold.PLP.Chemscore.Internal.Correction>
0.0814

> <Gold.Rescore>
     Score         DG    S(hbond)    S(metal)    S(lipo)     H(rot)  DE(clash)    DE(int)     intcor
     12.19     -13.93       0.98        0.00      86.27       1.92       0.16       1.59       ----

> <Gold.Chemscore.Fitness>
12.1855

> <Gold.Chemscore.DG>
-13.9306

> <Gold.Chemscore.ZeroCoef>
-5.4800

> <Gold.Chemscore.Hbond>
0.9789

> <Gold.Chemscore.Metal>
0.0000

> <Gold.Chemscore.Lipo>
86.2712

> <Gold.Chemscore.Internal_Hbond>
0.0000

> <Gold.Chemscore.DEClash>
0.1552

> <Gold.Chemscore.DEInternal>
1.5899

> <Gold.Chemscore.Rot>
1.9190

> <Gold.Chemscore.Internal.Correction>
   9.000000E+99

> <Gold.Chemscore.Hbonds>
donor molecule, donor type, donor heavy atom, donor atom, acceptor molecule, acceptor atom, score
      P1  H  7997  8008       L1     1  0.80

> <Gold.Chemscore.Hbond.Weighted>
-3.2695

> <Gold.Chemscore.Metal.Weighted>
-0.0000

> <Gold.Chemscore.Lipo.Weighted>
-10.0937

> <Gold.Chemscore.Internal_Hbond.Weighted>
0.0000

> <Gold.Chemscore.DEClash.Weighted>
0.1552

> <Gold.Chemscore.DEInternal.Weighted>
1.5899

> <Gold.Chemscore.Rot.Weighted>
4.9126

> <Gold.Chemscore.Internal.Correction.Weighted>
   9.000000E+99

> <Gold.Protein.RotatedTorsions>
[ 6907 6896 6895 6894 ] final  137.26 input  -60.11 | X-H torsion
[ 7974 7965 7964 7962 ] final  168.09 input  175.53 | X-H torsion
[ 8008 7997 7996 7995 ] final  -36.93 input   59.86 | X-H torsion
[ 10167 10162 10161 10158 ] final -163.54 input  -65.29 | X-H torsion
[ 10718 10713 10712 10709 ] final -170.41 input   66.30 | X-H torsion
[ 10763 10752 10751 10750 ] final -148.48 input  -60.55 | X-H torsion
[ 11005 11000 10999 10996 ] final  -69.28 input  -57.11 | X-H torsion

> <Gold.Protein.ActiveResidues>
 VAL166  LYS551  ARG553  GLY616  TRP617  ASP618  TYR619  PRO620  LYS621  CYS622 
 ASP623  PHE694  ASN695  SER759  ASP760  ASP761  ALA762  ILE779  LEU786  VAL792 
 PHE793  MET794  SER795  GLU796  ALA797  LYS798  CYS799  TRP800  GLU811  SER814 

> <Gold.Protein.RotatedAtoms>
  152.2801  133.5462  159.5492 H   0  0  0  0  0  0  0  0  0  0  0  0  # atno 6907 bound_to 6896
  150.7192  134.0576  159.3829 H   0  0  0  0  0  0  0  0  0  0  0  0  # atno 6908 bound_to 6896
  151.8487  135.0565  160.0507 H   0  0  0  0  0  0  0  0  0  0  0  0  # atno 6909 bound_to 6896
  144.7401  139.8857  143.6399 H   0  0  0  0  0  0  0  0  0  0  0  0  # atno 7974 bound_to 7965
  154.4063  140.1617  156.2454 H   0  0  0  0  0  0  0  0  0  0  0  0  # atno 8008 bound_to 7997
  155.9165  140.3424  155.6117 H   0  0  0  0  0  0  0  0  0  0  0  0  # atno 8009 bound_to 7997
  155.7273  140.0776  157.2295 H   0  0  0  0  0  0  0  0  0  0  0  0  # atno 8010 bound_to 7997
  139.6314  144.0433  152.2018 H   0  0  0  0  0  0  0  0  0  0  0  0  # atno 10167 bound_to 10162
  156.7257  130.9287  151.3101 H   0  0  0  0  0  0  0  0  0  0  0  0  # atno 10718 bound_to 10713
  154.8230  135.3333  154.6980 H   0  0  0  0  0  0  0  0  0  0  0  0  # atno 10763 bound_to 10752
  153.7610  135.6932  153.4930 H   0  0  0  0  0  0  0  0  0  0  0  0  # atno 10764 bound_to 10752
  153.2110  135.4482  155.0329 H   0  0  0  0  0  0  0  0  0  0  0  0  # atno 10765 bound_to 10752
  141.1550  133.6760  156.6575 H   0  0  0  0  0  0  0  0  0  0  0  0  # atno 11005 bound_to 11000
  146.1179  139.4192  143.0247 LP  0  0  0  0  0  0  0  0  0  0  0  0  # atno 17320 bound_to 7965
  145.7348  141.0029  143.1332 LP  0  0  0  0  0  0  0  0  0  0  0  0  # atno 17321 bound_to 7965
  140.0099  144.6231  150.7656 LP  0  0  0  0  0  0  0  0  0  0  0  0  # atno 17342 bound_to 10162
  140.7441  143.2855  151.3474 LP  0  0  0  0  0  0  0  0  0  0  0  0  # atno 17343 bound_to 10162
  157.6879  130.9204  150.0436 LP  0  0  0  0  0  0  0  0  0  0  0  0  # atno 17370 bound_to 10713
  156.1563  130.3643  149.9364 LP  0  0  0  0  0  0  0  0  0  0  0  0  # atno 17371 bound_to 10713
  140.3272  134.7958  157.4299 LP  0  0  0  0  0  0  0  0  0  0  0  0  # atno 17394 bound_to 11000
  140.1047  134.5426  155.8321 LP  0  0  0  0  0  0  0  0  0  0  0  0  # atno 17395 bound_to 11000

$$$$
