AV-unprocessed.smi:2091|AV-procd|sdf|8539|dock5
  -GOLD-   2272011263D 1   1.00000     0.00000
 Structure written by MMmdl.
 36 37  0  0  0  0  0  0  0  0  1 V2000
  150.9715  140.3889  155.1969 O   0  0  0  0  0  0  0  0  0  0  0  0
  149.9535  141.0549  155.3901 C   0  0  0  0  0  0  0  0  0  0  0  0
  148.7228  140.8827  154.4891 C   0  0  0  0  0  0  0  0  0  0  0  0
  147.4688  141.2480  155.1636 N   0  0  0  0  0  0  0  0  0  0  0  0
  146.5834  142.1340  154.5665 C   0  0  0  0  0  0  0  0  0  0  0  0
  145.4072  142.5030  155.1267 C   0  0  0  0  0  0  0  0  0  0  0  0
  145.0063  141.9681  156.4234 C   0  0  0  0  0  0  0  0  0  0  0  0
  143.9631  142.2428  157.0120 O   0  0  0  0  0  0  0  0  0  0  0  0
  145.9223  141.0782  156.9905 N   0  0  0  0  0  0  0  0  0  0  0  0
  147.1353  140.6924  156.4181 C   0  0  0  0  0  0  0  0  0  0  0  0
  147.8694  139.8966  157.0026 O   0  0  0  0  0  0  0  0  0  0  0  0
  149.8493  141.9712  156.3659 N   0  0  0  0  0  0  0  0  0  0  0  0
  150.8840  142.2802  157.3552 C   0  0  1  0  0  0  0  0  0  0  0  0
  150.4064  143.5079  158.1640 C   0  0  0  0  0  0  0  0  0  0  0  0
  151.5465  144.2813  158.8498 C   0  0  0  0  0  0  0  0  0  0  0  0
  152.2954  143.5029  159.9424 C   0  0  0  0  0  0  0  0  0  0  0  0
  153.0180  142.2482  159.4232 C   0  0  0  0  0  0  0  0  0  0  0  0
  152.0994  141.1384  159.2052 N   0  0  0  0  0  0  0  0  0  0  0  0
  151.0943  141.0873  158.3178 C   0  0  0  0  0  0  0  0  0  0  0  0
  150.3506  140.1073  158.2775 O   0  0  0  0  0  0  0  0  0  0  0  0
  145.6863  140.6790  157.8872 H   0  0  0  0  0  0  0  0  0  0  0  0
  148.8415  141.4716  153.5771 H   0  0  0  0  0  0  0  0  0  0  0  0
  148.6887  139.8438  154.1585 H   0  0  0  0  0  0  0  0  0  0  0  0
  146.8368  142.5521  153.6027 H   0  0  0  0  0  0  0  0  0  0  0  0
  144.7586  143.1969  154.6118 H   0  0  0  0  0  0  0  0  0  0  0  0
  148.9760  142.4700  156.4530 H   0  0  0  0  0  0  0  0  0  0  0  0
  151.8155  142.5119  156.8353 H   0  0  0  0  0  0  0  0  0  0  0  0
  149.9098  144.2067  157.4887 H   0  0  0  0  0  0  0  0  0  0  0  0
  149.6484  143.2237  158.8964 H   0  0  0  0  0  0  0  0  0  0  0  0
  152.2574  144.6205  158.0955 H   0  0  0  0  0  0  0  0  0  0  0  0
  151.1324  145.1871  159.2938 H   0  0  0  0  0  0  0  0  0  0  0  0
  153.0366  144.1695  160.3842 H   0  0  0  0  0  0  0  0  0  0  0  0
  151.6136  143.2373  160.7519 H   0  0  0  0  0  0  0  0  0  0  0  0
  153.5827  142.4632  158.5150 H   0  0  0  0  0  0  0  0  0  0  0  0
  153.7458  141.9204  160.1657 H   0  0  0  0  0  0  0  0  0  0  0  0
  152.2155  140.3392  159.8112 H   0  0  0  0  0  0  0  0  0  0  0  0
  1  2  2  0  0  0  0
  2  3  1  0  0  0  0
  2 12  1  0  0  0  0
  3  4  1  0  0  0  0
  3 22  1  0  0  0  0
  3 23  1  0  0  0  0
  4 10  1  0  0  0  0
  4  5  1  0  0  0  0
  5  6  2  0  0  0  0
  5 24  1  0  0  0  0
  6  7  1  0  0  0  0
  6 25  1  0  0  0  0
  7  8  2  0  0  0  0
  7  9  1  0  0  0  0
  9 21  1  0  0  0  0
  9 10  1  0  0  0  0
 10 11  2  0  0  0  0
 12 13  1  0  0  0  0
 12 26  1  0  0  0  0
 13 19  1  0  0  0  0
 13 14  1  0  0  0  0
 13 27  1  0  0  0  0
 14 15  1  0  0  0  0
 14 28  1  0  0  0  0
 14 29  1  0  0  0  0
 15 16  1  0  0  0  0
 15 30  1  0  0  0  0
 15 31  1  0  0  0  0
 16 17  1  0  0  0  0
 16 32  1  0  0  0  0
 16 33  1  0  0  0  0
 17 18  1  0  0  0  0
 17 34  1  0  0  0  0
 17 35  1  0  0  0  0
 18 19  1  0  0  0  0
 18 36  1  0  0  0  0
 19 20  2  0  0  0  0
M  END
> <s_m_source_file>
AV-unprocessed.smi

> <i_m_source_file_index>
2091

> <i_lp_mmshare_version>
43012

> <i_f3d_flags>
0

> <s_epik_input>
Tz1jMVtuSF1jKD1PKVtjSF1bY0hdbjFbQ0gyXUMoPU8pW05IXVtDQEBIXTJbQ0gyXVtDSDJdW0NIMl1bQ0gyXVtOSF1DMj1P

> <s_epik_cmdline>
J2VwaWtfcHl0aG9uJywgJy1waCcsICc3LjAnLCAnLXRuJywgJzgnLCAnLW1hJywgJzIwMCcsICctbWV0YWxfYmluZGluZycsICctaW1hZScsICc8aW5maWxlLm1hZT4nLCAnLW9tYWUnLCAnPG91dGZpbGUubWFlPic=

> <r_lp_tautomer_probability>
0.999537

> <r_epik_Ionization_Penalty>
0.00356328

> <r_epik_Ionization_Penalty_Charging>
0.00356323

> <r_epik_Ionization_Penalty_Neutral>
5.33217e-08

> <r_epik_State_Penalty>
0.00253125

> <r_epik_Charging_Adjusted_Penalty>
0.00609448

> <i_epik_Tot_Q>
0

> <i_epik_Tot_abs_Q>
0

> <r_epik_Metal_State_Penalty>
0.368636

> <b_epik_Metal_Only>
0

> <s_lp_Force_Field>
OPLS_2005

> <r_lp_Energy>
10.1396

> <b_lp_Chiralities_Consistent>
1

> <s_lp_Variant>
AV-unprocessed.smi:2091-2

> <Gold.Version>
5.8.1

> <Gold.Id.Protein>
6NUR|6NUR_protein|mol2

> <Gold.PLP.Fitness>
42.5361

> <Gold.PLP.PLP>
-38.6859

> <Gold.PLP.part.hbond>
-2.0000

> <Gold.PLP.part.metal>
0.0000

> <Gold.PLP.part.buried>
-3.1328

> <Gold.PLP.part.nonpolar>
-33.8114

> <Gold.PLP.part.repulsive>
0.3493

> <Gold.PLP.ligand.clash>
0.0000

> <Gold.PLP.ligand.torsion>
0.4788

> <Gold.PLP.Chemscore.Hbond>
1.6020

> <Gold.PLP.Chemscore.CHOScore>
0.0000

> <Gold.PLP.Chemscore.Metal>
0.0000

> <Gold.Chemscore.Hbonds>
donor molecule, donor type, donor heavy atom, donor atom, acceptor molecule, acceptor atom, score
      L1  H    12    26       P1  8028  0.04
      P1  H  7989  7998       L1     1  1.00

> <Gold.PLP.Chemscore.Internal.Correction>
0.0018

> <Gold.Rescore>
     Score         DG    S(hbond)    S(metal)    S(lipo)     H(rot)  DE(clash)    DE(int)     intcor
      7.21     -13.63       1.36        0.00      72.17       1.88       0.21       6.21       ----

> <Gold.Chemscore.Fitness>
7.2133

> <Gold.Chemscore.DG>
-13.6262

> <Gold.Chemscore.ZeroCoef>
-5.4800

> <Gold.Chemscore.Hbond>
1.3552

> <Gold.Chemscore.Metal>
0.0000

> <Gold.Chemscore.Lipo>
72.1696

> <Gold.Chemscore.Internal_Hbond>
0.0000

> <Gold.Chemscore.DEClash>
0.2063

> <Gold.Chemscore.DEInternal>
6.2066

> <Gold.Chemscore.Rot>
1.8844

> <Gold.Chemscore.Internal.Correction>
   9.000000E+99

> <Gold.Chemscore.Hbonds>
donor molecule, donor type, donor heavy atom, donor atom, acceptor molecule, acceptor atom, score
      L1  H    12    26       P1  8028  0.05
      P1  H  7989  7998       L1     1  0.58

> <Gold.Chemscore.Hbond.Weighted>
-4.5265

> <Gold.Chemscore.Metal.Weighted>
-0.0000

> <Gold.Chemscore.Lipo.Weighted>
-8.4438

> <Gold.Chemscore.Internal_Hbond.Weighted>
0.0000

> <Gold.Chemscore.DEClash.Weighted>
0.2063

> <Gold.Chemscore.DEInternal.Weighted>
6.2066

> <Gold.Chemscore.Rot.Weighted>
4.8242

> <Gold.Chemscore.Internal.Correction.Weighted>
   9.000000E+99

> <Gold.Protein.RotatedTorsions>
[ 6907 6896 6895 6894 ] final   56.64 input  -60.11 | X-H torsion
[ 7974 7965 7964 7962 ] final  111.65 input  175.53 | X-H torsion
[ 8008 7997 7996 7995 ] final  -25.96 input   59.86 | X-H torsion
[ 10167 10162 10161 10158 ] final  -28.73 input  -65.29 | X-H torsion
[ 10718 10713 10712 10709 ] final   28.56 input   66.30 | X-H torsion
[ 10763 10752 10751 10750 ] final  160.43 input  -60.55 | X-H torsion
[ 11005 11000 10999 10996 ] final -111.67 input  -57.11 | X-H torsion

> <Gold.Protein.ActiveResidues>
 VAL166  LYS551  ARG553  GLY616  TRP617  ASP618  TYR619  PRO620  LYS621  CYS622 
 ASP623  PHE694  ASN695  SER759  ASP760  ASP761  ALA762  ILE779  LEU786  VAL792 
 PHE793  MET794  SER795  GLU796  ALA797  LYS798  CYS799  TRP800  GLU811  SER814 

> <Gold.Protein.RotatedAtoms>
  152.3655  134.6810  160.0192 H   0  0  0  0  0  0  0  0  0  0  0  0  # atno 6907 bound_to 6896
  151.7119  133.3307  159.3301 H   0  0  0  0  0  0  0  0  0  0  0  0  # atno 6908 bound_to 6896
  150.7635  134.6459  159.6306 H   0  0  0  0  0  0  0  0  0  0  0  0  # atno 6909 bound_to 6896
  145.2396  139.2784  143.4125 H   0  0  0  0  0  0  0  0  0  0  0  0  # atno 7974 bound_to 7965
  154.4449  140.1912  156.0700 H   0  0  0  0  0  0  0  0  0  0  0  0  # atno 8008 bound_to 7997
  156.0518  140.3307  155.7333 H   0  0  0  0  0  0  0  0  0  0  0  0  # atno 8009 bound_to 7997
  155.5545  140.0598  157.2833 H   0  0  0  0  0  0  0  0  0  0  0  0  # atno 8010 bound_to 7997
  140.7267  143.3986  151.1304 H   0  0  0  0  0  0  0  0  0  0  0  0  # atno 10167 bound_to 10162
  157.2351  130.7042  149.6331 H   0  0  0  0  0  0  0  0  0  0  0  0  # atno 10718 bound_to 10713
  154.2473  135.2772  155.2830 H   0  0  0  0  0  0  0  0  0  0  0  0  # atno 10763 bound_to 10752
  154.5495  135.5679  153.6913 H   0  0  0  0  0  0  0  0  0  0  0  0  # atno 10764 bound_to 10752
  152.9987  135.6271  154.2619 H   0  0  0  0  0  0  0  0  0  0  0  0  # atno 10765 bound_to 10752
  141.0720  133.9363  157.2465 H   0  0  0  0  0  0  0  0  0  0  0  0  # atno 11005 bound_to 11000
  146.3332  140.2755  142.8608 LP  0  0  0  0  0  0  0  0  0  0  0  0  # atno 17320 bound_to 7965
  144.9601  140.8267  143.5518 LP  0  0  0  0  0  0  0  0  0  0  0  0  # atno 17321 bound_to 7965
  139.7602  143.8646  152.3098 LP  0  0  0  0  0  0  0  0  0  0  0  0  # atno 17342 bound_to 10162
  139.8530  144.7155  150.9191 LP  0  0  0  0  0  0  0  0  0  0  0  0  # atno 17343 bound_to 10162
  155.9673  130.4476  150.5588 LP  0  0  0  0  0  0  0  0  0  0  0  0  # atno 17370 bound_to 10713
  157.3438  131.0721  151.1767 LP  0  0  0  0  0  0  0  0  0  0  0  0  # atno 17371 bound_to 10713
  139.9533  135.0171  156.9057 LP  0  0  0  0  0  0  0  0  0  0  0  0  # atno 17394 bound_to 11000
  140.5653  134.0496  155.7412 LP  0  0  0  0  0  0  0  0  0  0  0  0  # atno 17395 bound_to 11000

$$$$
