AV-unprocessed.smi:2338|AV-procd|sdf|9335|dock8
  -GOLD-   2272012553D 1   1.00000     0.00000
 Structure written by MMmdl.
 31 32  0  0  0  0  0  0  0  0  1 V2000
  149.9424  137.8980  158.7407 N   0  0  0  0  0  0  0  0  0  0  0  0
  151.2004  137.5262  158.4908 C   0  0  0  0  0  0  0  0  0  0  0  0
  151.9332  137.0694  159.3668 O   0  0  0  0  0  0  0  0  0  0  0  0
  151.7109  137.7091  157.0498 C   0  0  1  0  0  0  0  0  0  0  0  0
  151.3208  136.4584  156.2282 C   0  0  0  0  0  0  0  0  0  0  0  0
  151.7704  136.5866  154.8839 O   0  0  0  0  0  0  0  0  0  0  0  0
  151.1672  137.6971  154.2325 C   0  0  0  0  0  0  0  0  0  0  0  0
  151.5721  138.9877  154.9595 C   0  0  0  0  0  0  0  0  0  0  0  0
  151.2094  138.9133  156.3716 N   0  0  0  0  0  0  0  0  0  0  0  0
  151.4155  140.1494  157.0162 C   0  0  0  0  0  0  0  0  0  0  0  0
  152.2908  140.1890  158.0510 N   0  0  0  0  0  0  0  0  0  0  0  0
  152.4995  141.3659  158.6777 C   0  0  0  0  0  0  0  0  0  0  0  0
  151.8605  142.5677  158.3064 C   0  0  0  0  0  0  0  0  0  0  0  0
  152.1181  143.8663  159.0530 C   0  0  0  0  0  0  0  0  0  0  0  0
  152.7595  144.7316  158.2674 F   0  0  0  0  0  0  0  0  0  0  0  0
  150.9537  144.3996  159.4201 F   0  0  0  0  0  0  0  0  0  0  0  0
  152.8586  143.6598  160.1423 F   0  0  0  0  0  0  0  0  0  0  0  0
  150.9544  142.5255  157.2273 C   0  0  0  0  0  0  0  0  0  0  0  0
  150.7278  141.3023  156.5670 C   0  0  0  0  0  0  0  0  0  0  0  0
  149.6109  141.2373  155.2486 Cl  0  0  0  0  0  0  0  0  0  0  0  0
  149.5632  137.7882  159.6699 H   0  0  0  0  0  0  0  0  0  0  0  0
  149.3724  138.2793  157.9996 H   0  0  0  0  0  0  0  0  0  0  0  0
  152.8012  137.7647  157.0725 H   0  0  0  0  0  0  0  0  0  0  0  0
  151.7758  135.5647  156.6564 H   0  0  0  0  0  0  0  0  0  0  0  0
  150.2407  136.2976  156.2387 H   0  0  0  0  0  0  0  0  0  0  0  0
  151.5031  137.7271  153.1959 H   0  0  0  0  0  0  0  0  0  0  0  0
  150.0821  137.5819  154.2139 H   0  0  0  0  0  0  0  0  0  0  0  0
  152.6483  139.1433  154.8668 H   0  0  0  0  0  0  0  0  0  0  0  0
  151.0841  139.8406  154.4852 H   0  0  0  0  0  0  0  0  0  0  0  0
  153.1957  141.3397  159.5030 H   0  0  0  0  0  0  0  0  0  0  0  0
  150.4343  143.4183  156.9121 H   0  0  0  0  0  0  0  0  0  0  0  0
  1  2  1  0  0  0  0
  1 21  1  0  0  0  0
  1 22  1  0  0  0  0
  2  3  2  0  0  0  0
  2  4  1  0  0  0  0
  4  9  1  0  0  0  0
  4  5  1  0  0  0  0
  4 23  1  0  0  0  0
  5  6  1  0  0  0  0
  5 24  1  0  0  0  0
  5 25  1  0  0  0  0
  6  7  1  0  0  0  0
  7  8  1  0  0  0  0
  7 26  1  0  0  0  0
  7 27  1  0  0  0  0
  8  9  1  0  0  0  0
  8 28  1  0  0  0  0
  8 29  1  0  0  0  0
  9 10  1  0  0  0  0
 10 19  1  0  0  0  0
 10 11  2  0  0  0  0
 11 12  1  0  0  0  0
 12 13  2  0  0  0  0
 12 30  1  0  0  0  0
 13 14  1  0  0  0  0
 13 18  1  0  0  0  0
 14 15  1  0  0  0  0
 14 16  1  0  0  0  0
 14 17  1  0  0  0  0
 18 19  2  0  0  0  0
 18 31  1  0  0  0  0
 19 20  1  0  0  0  0
M  END
> <s_m_source_file>
AV-unprocessed.smi

> <i_m_source_file_index>
2338

> <i_lp_mmshare_version>
43012

> <i_f3d_flags>
0

> <s_epik_input>
W05IMl1DKD1PKVtDQEBIXTFbQ0gyXU9bQ0gyXVtDSDJdTjFjMm5bY0hdYyhDKEYpKEYpRilbY0hdYzJDbA==

> <s_epik_cmdline>
J2VwaWtfcHl0aG9uJywgJy1waCcsICc3LjAnLCAnLXRuJywgJzgnLCAnLW1hJywgJzIwMCcsICctbWV0YWxfYmluZGluZycsICctaW1hZScsICc8aW5maWxlLm1hZT4nLCAnLW9tYWUnLCAnPG91dGZpbGUubWFlPic=

> <r_lp_tautomer_probability>
1

> <r_epik_Ionization_Penalty>
1.71167e-07

> <r_epik_Ionization_Penalty_Charging>
0

> <r_epik_Ionization_Penalty_Neutral>
1.71167e-07

> <r_epik_State_Penalty>
-0

> <r_epik_Charging_Adjusted_Penalty>
0

> <i_epik_Tot_Q>
0

> <i_epik_Tot_abs_Q>
0

> <r_epik_Metal_State_Penalty>
-0

> <b_epik_Metal_Only>
0

> <s_lp_Force_Field>
OPLS_2005

> <r_lp_Energy>
18.2769

> <b_lp_Chiralities_Consistent>
1

> <s_lp_Variant>
AV-unprocessed.smi:2338-2

> <Gold.Version>
5.8.1

> <Gold.Id.Protein>
6NUR|6NUR_protein|mol2

> <Gold.PLP.Fitness>
45.5175

> <Gold.PLP.PLP>
-41.2721

> <Gold.PLP.part.hbond>
-2.0000

> <Gold.PLP.part.metal>
0.0000

> <Gold.PLP.part.buried>
-5.2962

> <Gold.PLP.part.nonpolar>
-34.5637

> <Gold.PLP.part.repulsive>
0.3046

> <Gold.PLP.ligand.clash>
0.2301

> <Gold.PLP.ligand.torsion>
1.0280

> <Gold.PLP.Chemscore.Hbond>
2.0000

> <Gold.PLP.Chemscore.CHOScore>
0.0000

> <Gold.PLP.Chemscore.Metal>
0.0000

> <Gold.Chemscore.Hbonds>
donor molecule, donor type, donor heavy atom, donor atom, acceptor molecule, acceptor atom, score
      P1  H  6896  6908       L1     3  0.93
      P1  H 10752 10763       L1     6  1.00

> <Gold.PLP.Chemscore.Internal.Correction>
0.5315

> <Gold.Rescore>
     Score         DG    S(hbond)    S(metal)    S(lipo)     H(rot)  DE(clash)    DE(int)     intcor
     14.74     -16.90       1.95        0.00      74.93       1.51       0.02       2.14       ----

> <Gold.Chemscore.Fitness>
14.7369

> <Gold.Chemscore.DG>
-16.9027

> <Gold.Chemscore.ZeroCoef>
-5.4800

> <Gold.Chemscore.Hbond>
1.9531

> <Gold.Chemscore.Metal>
0.0000

> <Gold.Chemscore.Lipo>
74.9286

> <Gold.Chemscore.Internal_Hbond>
0.0000

> <Gold.Chemscore.DEClash>
0.0228

> <Gold.Chemscore.DEInternal>
2.1430

> <Gold.Chemscore.Rot>
1.5107

> <Gold.Chemscore.Internal.Correction>
   9.000000E+99

> <Gold.Chemscore.Hbonds>
donor molecule, donor type, donor heavy atom, donor atom, acceptor molecule, acceptor atom, score
      P1  H  6896  6908       L1     3  0.73
      P1  H 10752 10763       L1     6  0.58

> <Gold.Chemscore.Hbond.Weighted>
-6.5234

> <Gold.Chemscore.Metal.Weighted>
-0.0000

> <Gold.Chemscore.Lipo.Weighted>
-8.7666

> <Gold.Chemscore.Internal_Hbond.Weighted>
0.0000

> <Gold.Chemscore.DEClash.Weighted>
0.0228

> <Gold.Chemscore.DEInternal.Weighted>
2.1430

> <Gold.Chemscore.Rot.Weighted>
3.8674

> <Gold.Chemscore.Internal.Correction.Weighted>
   9.000000E+99

> <Gold.Protein.RotatedTorsions>
[ 6907 6896 6895 6894 ] final -130.98 input  -60.11 | X-H torsion
[ 7974 7965 7964 7962 ] final   95.51 input  175.53 | X-H torsion
[ 8008 7997 7996 7995 ] final   90.53 input   59.86 | X-H torsion
[ 10167 10162 10161 10158 ] final    6.90 input  -65.29 | X-H torsion
[ 10718 10713 10712 10709 ] final  111.29 input   66.30 | X-H torsion
[ 10763 10752 10751 10750 ] final   67.09 input  -60.55 | X-H torsion
[ 11005 11000 10999 10996 ] final -100.48 input  -57.11 | X-H torsion

> <Gold.Protein.ActiveResidues>
 VAL166  LYS551  ARG553  GLY616  TRP617  ASP618  TYR619  PRO620  LYS621  CYS622 
 ASP623  PHE694  ASN695  SER759  ASP760  ASP761  ALA762  ILE779  LEU786  VAL792 
 PHE793  MET794  SER795  GLU796  ALA797  LYS798  CYS799  TRP800  GLU811  SER814 

> <Gold.Protein.RotatedAtoms>
  150.9458  133.6604  159.2781 H   0  0  0  0  0  0  0  0  0  0  0  0  # atno 6907 bound_to 6896
  151.3977  135.0965  159.9556 H   0  0  0  0  0  0  0  0  0  0  0  0  # atno 6908 bound_to 6896
  152.5089  133.8959  159.7472 H   0  0  0  0  0  0  0  0  0  0  0  0  # atno 6909 bound_to 6896
  145.4513  139.2293  143.3038 H   0  0  0  0  0  0  0  0  0  0  0  0  # atno 7974 bound_to 7965
  156.0130  140.3348  155.6960 H   0  0  0  0  0  0  0  0  0  0  0  0  # atno 8008 bound_to 7997
  155.6131  140.0667  157.2718 H   0  0  0  0  0  0  0  0  0  0  0  0  # atno 8009 bound_to 7997
  154.4288  140.1790  156.1280 H   0  0  0  0  0  0  0  0  0  0  0  0  # atno 8010 bound_to 7997
  140.6402  143.7792  150.7417 H   0  0  0  0  0  0  0  0  0  0  0  0  # atno 10167 bound_to 10162
  157.6452  131.0948  150.6727 H   0  0  0  0  0  0  0  0  0  0  0  0  # atno 10718 bound_to 10713
  153.0170  135.5296  154.6925 H   0  0  0  0  0  0  0  0  0  0  0  0  # atno 10763 bound_to 10752
  154.6056  135.2873  155.0490 H   0  0  0  0  0  0  0  0  0  0  0  0  # atno 10764 bound_to 10752
  154.1531  135.6559  153.5020 H   0  0  0  0  0  0  0  0  0  0  0  0  # atno 10765 bound_to 10752
  141.1269  133.8402  157.1108 H   0  0  0  0  0  0  0  0  0  0  0  0  # atno 11005 bound_to 11000
  146.2503  140.5272  142.8896 LP  0  0  0  0  0  0  0  0  0  0  0  0  # atno 17320 bound_to 7965
  144.8060  140.6300  143.6447 LP  0  0  0  0  0  0  0  0  0  0  0  0  # atno 17321 bound_to 7965
  140.1422  143.4431  152.2186 LP  0  0  0  0  0  0  0  0  0  0  0  0  # atno 17342 bound_to 10162
  139.5611  144.7406  151.4152 LP  0  0  0  0  0  0  0  0  0  0  0  0  # atno 17343 bound_to 10162
  156.7046  130.4633  149.5563 LP  0  0  0  0  0  0  0  0  0  0  0  0  # atno 17370 bound_to 10713
  156.1772  130.6475  151.0908 LP  0  0  0  0  0  0  0  0  0  0  0  0  # atno 17371 bound_to 10713
  140.0276  134.9916  157.0717 LP  0  0  0  0  0  0  0  0  0  0  0  0  # atno 17394 bound_to 11000
  140.4337  134.1753  155.7169 LP  0  0  0  0  0  0  0  0  0  0  0  0  # atno 17395 bound_to 11000

$$$$
