AV-unprocessed.smi:771|AV-procd|sdf|3682|dock2
  -GOLD-   22720 1 93D 1   1.00000     0.00000
 Structure written by MMmdl.
 41 42  0  0  0  0  0  0  0  0  3 V2000
  147.0636  137.0317  154.8328 O   0  0  0  0  0  0  0  0  0  0  0  0
  146.8714  137.3366  153.6550 C   0  0  0  0  0  0  0  0  0  0  0  0
  147.2726  138.7223  153.1315 C   0  0  0  0  0  0  0  0  0  0  0  0
  148.3012  139.3707  153.9624 N   0  0  0  0  0  0  0  0  0  0  0  0
  149.5068  138.6686  154.1588 C   0  0  0  0  0  0  0  0  0  0  0  0
  150.5156  139.1711  154.8976 C   0  0  0  0  0  0  0  0  0  0  0  0
  151.7479  138.4377  155.0870 N   0  3  0  0  0  0  0  0  0  0  0  0
  152.6894  139.0012  155.6356 O   0  0  0  0  0  0  0  0  0  0  0  0
  151.8157  137.2760  154.6961 O   0  5  0  0  0  0  0  0  0  0  0  0
  150.3266  140.4781  155.4970 C   0  0  0  0  0  0  0  0  0  0  0  0
  149.1768  141.1558  155.3106 C   0  0  0  0  0  0  0  0  0  0  0  0
  148.0806  140.6074  154.5057 C   0  0  0  0  0  0  0  0  0  0  0  0
  147.0282  141.2221  154.3298 O   0  0  0  0  0  0  0  0  0  0  0  0
  146.3061  136.5096  152.7631 N   0  0  0  0  0  0  0  0  0  0  0  0
  145.9003  135.1340  153.0332 C   0  0  0  0  0  0  0  0  0  0  0  0
  145.7518  134.2917  151.7442 C   0  0  1  0  0  0  0  0  0  0  0  0
  145.6414  132.7868  152.0656 C   0  0  0  0  0  0  0  0  0  0  0  0
  145.5687  131.9376  150.7866 C   0  0  0  0  0  0  0  0  0  0  0  0
  144.4034  132.3800  149.8893 C   0  0  0  0  0  0  0  0  0  0  0  0
  144.4940  133.8791  149.5562 C   0  0  0  0  0  0  0  0  0  0  0  0
  144.5925  134.7529  150.8217 C   0  0  1  0  0  0  0  0  0  0  0  0
  143.3539  134.7229  151.5065 O   0  0  0  0  0  0  0  0  0  0  0  0
  147.6281  138.6396  152.1023 H   0  0  0  0  0  0  0  0  0  0  0  0
  146.3727  139.3361  153.0744 H   0  0  0  0  0  0  0  0  0  0  0  0
  149.5526  137.7082  153.6658 H   0  0  0  0  0  0  0  0  0  0  0  0
  151.1055  140.9237  156.0982 H   0  0  0  0  0  0  0  0  0  0  0  0
  149.0579  142.1284  155.7650 H   0  0  0  0  0  0  0  0  0  0  0  0
  146.1751  136.8470  151.8202 H   0  0  0  0  0  0  0  0  0  0  0  0
  146.6211  134.6685  153.7072 H   0  0  0  0  0  0  0  0  0  0  0  0
  144.9550  135.1620  153.5755 H   0  0  0  0  0  0  0  0  0  0  0  0
  146.6738  134.4179  151.1743 H   0  0  0  0  0  0  0  0  0  0  0  0
  146.4986  132.4702  152.6606 H   0  0  0  0  0  0  0  0  0  0  0  0
  144.7584  132.6008  152.6783 H   0  0  0  0  0  0  0  0  0  0  0  0
  146.5068  132.0234  150.2367 H   0  0  0  0  0  0  0  0  0  0  0  0
  145.4582  130.8843  151.0460 H   0  0  0  0  0  0  0  0  0  0  0  0
  144.4008  131.7953  148.9690 H   0  0  0  0  0  0  0  0  0  0  0  0
  143.4573  132.1696  150.3895 H   0  0  0  0  0  0  0  0  0  0  0  0
  145.3750  134.0512  148.9366 H   0  0  0  0  0  0  0  0  0  0  0  0
  143.6368  134.1815  148.9535 H   0  0  0  0  0  0  0  0  0  0  0  0
  144.7605  135.7841  150.5091 H   0  0  0  0  0  0  0  0  0  0  0  0
  142.6623  134.6148  150.8721 H   0  0  0  0  0  0  0  0  0  0  0  0
  1  2  2  0  0  0  0
  2  3  1  0  0  0  0
  2 14  1  0  0  0  0
  3  4  1  0  0  0  0
  3 23  1  0  0  0  0
  3 24  1  0  0  0  0
  4 12  1  0  0  0  0
  4  5  1  0  0  0  0
  5  6  2  0  0  0  0
  5 25  1  0  0  0  0
  6  7  1  0  0  0  0
  6 10  1  0  0  0  0
  7  8  2  0  0  0  0
  7  9  1  0  0  0  0
 10 11  2  0  0  0  0
 10 26  1  0  0  0  0
 11 12  1  0  0  0  0
 11 27  1  0  0  0  0
 12 13  2  0  0  0  0
 14 15  1  0  0  0  0
 14 28  1  0  0  0  0
 15 16  1  0  0  0  0
 15 29  1  0  0  0  0
 15 30  1  0  0  0  0
 16 21  1  0  0  0  0
 16 17  1  0  0  0  0
 16 31  1  0  0  0  0
 17 18  1  0  0  0  0
 17 32  1  0  0  0  0
 17 33  1  0  0  0  0
 18 19  1  0  0  0  0
 18 34  1  0  0  0  0
 18 35  1  0  0  0  0
 19 20  1  0  0  0  0
 19 36  1  0  0  0  0
 19 37  1  0  0  0  0
 20 21  1  0  0  0  0
 20 38  1  0  0  0  0
 20 39  1  0  0  0  0
 21 22  1  0  0  0  0
 21 40  1  0  0  0  0
 22 41  1  0  0  0  0
M  CHG  1   7   1
M  CHG  1   9  -1
M  END
> <s_m_source_file>
AV-unprocessed.smi

> <i_m_source_file_index>
771

> <i_lp_mmshare_version>
43012

> <i_f3d_flags>
0

> <s_epik_input>
Tz1jMVtjSF1bY0hdYyhbTitdKD1PKVtPLV0pW2NIXW4xW0NIMl1DKD1PKVtOSF1bQ0gyXVtDQEBIXTJbQ0gyXVtDSDJdW0NIMl1bQ0gyXVtDQEhdMltPSF0=

> <s_epik_cmdline>
J2VwaWtfcHl0aG9uJywgJy1waCcsICc3LjAnLCAnLXRuJywgJzgnLCAnLW1hJywgJzIwMCcsICctbWV0YWxfYmluZGluZycsICctaW1hZScsICc8aW5maWxlLm1hZT4nLCAnLW9tYWUnLCAnPG91dGZpbGUubWFlPic=

> <r_lp_tautomer_probability>
1

> <r_epik_Ionization_Penalty>
3.77175e-07

> <r_epik_Ionization_Penalty_Charging>
7.70067e-11

> <r_epik_Ionization_Penalty_Neutral>
3.77098e-07

> <r_epik_State_Penalty>
-0

> <r_epik_Charging_Adjusted_Penalty>
7.70067e-11

> <i_epik_Tot_Q>
0

> <i_epik_Tot_abs_Q>
2

> <r_epik_Metal_State_Penalty>
-0

> <b_epik_Metal_Only>
0

> <s_lp_Force_Field>
OPLS_2005

> <r_lp_Energy>
25.2575

> <b_lp_Chiralities_Consistent>
1

> <s_lp_Variant>
AV-unprocessed.smi:771-2

> <Gold.Version>
5.8.1

> <Gold.Id.Protein>
6NUR|6NUR_protein|mol2

> <Gold.PLP.Fitness>
44.3010

> <Gold.PLP.PLP>
-35.5318

> <Gold.PLP.part.hbond>
-3.4765

> <Gold.PLP.part.metal>
0.0000

> <Gold.PLP.part.buried>
-1.2746

> <Gold.PLP.part.nonpolar>
-32.2606

> <Gold.PLP.part.repulsive>
0.3718

> <Gold.PLP.ligand.clash>
0.0000

> <Gold.PLP.ligand.torsion>
0.5434

> <Gold.PLP.Chemscore.Hbond>
2.2692

> <Gold.PLP.Chemscore.CHOScore>
1.0000

> <Gold.PLP.Chemscore.Metal>
0.0000

> <Gold.Chemscore.Hbonds>
donor molecule, donor type, donor heavy atom, donor atom, acceptor molecule, acceptor atom, score
      L1  H    22    41       P1 10186  0.60
      P1  H  7997  8008       L1     8  0.83
      P1  H 10752 10765       L1     9  0.87
      L1  C     5    25       P1  7948  1.00

> <Gold.PLP.Chemscore.Internal.Correction>
0.0482

> <Gold.Rescore>
     Score         DG    S(hbond)    S(metal)    S(lipo)     H(rot)  DE(clash)    DE(int)     intcor
     12.10     -14.42       1.81        0.00      79.01       2.48       1.79       0.54       ----

> <Gold.Chemscore.Fitness>
12.0980

> <Gold.Chemscore.DG>
-14.4218

> <Gold.Chemscore.ZeroCoef>
-5.4800

> <Gold.Chemscore.Hbond>
1.8068

> <Gold.Chemscore.Metal>
0.0000

> <Gold.Chemscore.Lipo>
79.0077

> <Gold.Chemscore.Internal_Hbond>
0.0000

> <Gold.Chemscore.DEClash>
1.7869

> <Gold.Chemscore.DEInternal>
0.5369

> <Gold.Chemscore.Rot>
2.4753

> <Gold.Chemscore.Internal.Correction>
   9.000000E+99

> <Gold.Chemscore.Hbonds>
donor molecule, donor type, donor heavy atom, donor atom, acceptor molecule, acceptor atom, score
      L1  H    22    41       P1 10186  0.07
      P1  H  7997  8008       L1     8  0.80
      P1  H 10752 10765       L1     9  0.80

> <Gold.Chemscore.Hbond.Weighted>
-6.0347

> <Gold.Chemscore.Metal.Weighted>
-0.0000

> <Gold.Chemscore.Lipo.Weighted>
-9.2439

> <Gold.Chemscore.Internal_Hbond.Weighted>
0.0000

> <Gold.Chemscore.DEClash.Weighted>
1.7869

> <Gold.Chemscore.DEInternal.Weighted>
0.5369

> <Gold.Chemscore.Rot.Weighted>
6.3369

> <Gold.Chemscore.Internal.Correction.Weighted>
   9.000000E+99

> <Gold.Protein.RotatedTorsions>
[ 6907 6896 6895 6894 ] final -112.54 input  -60.11 | X-H torsion
[ 7974 7965 7964 7962 ] final  177.86 input  175.53 | X-H torsion
[ 8008 7997 7996 7995 ] final  -23.89 input   59.86 | X-H torsion
[ 10167 10162 10161 10158 ] final  140.05 input  -65.29 | X-H torsion
[ 10718 10713 10712 10709 ] final -173.96 input   66.30 | X-H torsion
[ 10763 10752 10751 10750 ] final  152.68 input  -60.55 | X-H torsion
[ 11005 11000 10999 10996 ] final  -40.81 input  -57.11 | X-H torsion

> <Gold.Protein.ActiveResidues>
 VAL166  LYS551  ARG553  GLY616  TRP617  ASP618  TYR619  PRO620  LYS621  CYS622 
 ASP623  PHE694  ASN695  SER759  ASP760  ASP761  ALA762  ILE779  LEU786  VAL792 
 PHE793  MET794  SER795  GLU796  ALA797  LYS798  CYS799  TRP800  GLU811  SER814 

> <Gold.Protein.RotatedAtoms>
  150.7766  133.9075  159.3359 H   0  0  0  0  0  0  0  0  0  0  0  0  # atno 6907 bound_to 6896
  151.6948  135.0938  160.0249 H   0  0  0  0  0  0  0  0  0  0  0  0  # atno 6908 bound_to 6896
  152.3803  133.6499  159.6192 H   0  0  0  0  0  0  0  0  0  0  0  0  # atno 6909 bound_to 6896
  144.7163  140.0310  143.6439 H   0  0  0  0  0  0  0  0  0  0  0  0  # atno 7974 bound_to 7965
  154.4560  140.1968  156.0380 H   0  0  0  0  0  0  0  0  0  0  0  0  # atno 8008 bound_to 7997
  156.0746  140.3280  155.7589 H   0  0  0  0  0  0  0  0  0  0  0  0  # atno 8009 bound_to 7997
  155.5209  140.0570  157.2897 H   0  0  0  0  0  0  0  0  0  0  0  0  # atno 8010 bound_to 7997
  139.5060  144.6258  151.5941 H   0  0  0  0  0  0  0  0  0  0  0  0  # atno 10167 bound_to 10162
  156.7781  130.9473  151.3120 H   0  0  0  0  0  0  0  0  0  0  0  0  # atno 10718 bound_to 10713
  154.1240  135.2831  155.3201 H   0  0  0  0  0  0  0  0  0  0  0  0  # atno 10763 bound_to 10752
  154.6403  135.5405  153.7785 H   0  0  0  0  0  0  0  0  0  0  0  0  # atno 10764 bound_to 10752
  153.0303  135.6484  154.1393 H   0  0  0  0  0  0  0  0  0  0  0  0  # atno 10765 bound_to 10752
  141.0201  133.6867  156.2372 H   0  0  0  0  0  0  0  0  0  0  0  0  # atno 11005 bound_to 11000
  146.0102  139.3163  143.0875 LP  0  0  0  0  0  0  0  0  0  0  0  0  # atno 17320 bound_to 7965
  145.8691  140.9431  143.0660 LP  0  0  0  0  0  0  0  0  0  0  0  0  # atno 17321 bound_to 7965
  140.5974  143.9671  150.6363 LP  0  0  0  0  0  0  0  0  0  0  0  0  # atno 17342 bound_to 10162
  140.2871  143.3349  152.1097 LP  0  0  0  0  0  0  0  0  0  0  0  0  # atno 17343 bound_to 10162
  157.6659  130.9007  149.9932 LP  0  0  0  0  0  0  0  0  0  0  0  0  # atno 17370 bound_to 10713
  156.1235  130.3645  149.9847 LP  0  0  0  0  0  0  0  0  0  0  0  0  # atno 17371 bound_to 10713
  140.6587  134.4990  157.5582 LP  0  0  0  0  0  0  0  0  0  0  0  0  # atno 17394 bound_to 11000
  139.9141  134.8283  156.1427 LP  0  0  0  0  0  0  0  0  0  0  0  0  # atno 17395 bound_to 11000

$$$$
