AV-unprocessed.smi:2750|AV-procd|sdf|10593|dock9
  -GOLD-   2272015 43D 1   1.00000     0.00000
 Structure written by MMmdl.
 24 25  0  0  0  0  0  0  0  0  3 V2000
  151.9130  135.2102  156.3486 O   0  0  0  0  0  0  0  0  0  0  0  0
  150.9221  135.8300  155.9035 C   0  0  0  0  0  0  0  0  0  0  0  0
  149.7933  135.8815  156.4401 O   0  5  0  0  0  0  0  0  0  0  0  0
  151.1101  136.6040  154.5986 C   0  0  0  0  0  0  0  0  0  0  0  0
  150.8909  138.0289  154.7691 N   0  0  0  0  0  0  0  0  0  0  0  0
  149.6946  138.7078  154.8760 C   0  0  0  0  0  0  0  0  0  0  0  0
  150.0793  140.0096  155.0291 C   0  0  0  0  0  0  0  0  0  0  0  0
  149.2243  141.2317  155.2009 C   0  0  0  0  0  0  0  0  0  0  0  0
  148.4934  141.6561  153.9072 C   0  0  2  0  0  0  0  0  0  0  0  0
  147.7680  142.9051  154.0730 N   0  5  0  0  0  0  0  0  0  0  0  0
  146.4603  142.6831  153.8057 C   0  0  0  0  0  0  0  0  0  0  0  0
  145.5395  143.4968  153.8281 O   0  0  0  0  0  0  0  0  0  0  0  0
  146.2524  141.3994  153.4958 N   0  0  0  0  0  0  0  0  0  0  0  0
  147.3791  140.6954  153.5377 C   0  0  0  0  0  0  0  0  0  0  0  0
  147.5159  139.4921  153.3200 O   0  0  0  0  0  0  0  0  0  0  0  0
  151.4732  140.0679  155.0074 N   0  0  0  0  0  0  0  0  0  0  0  0
  151.9481  138.8728  154.8457 N   0  0  0  0  0  0  0  0  0  0  0  0
  152.1232  136.4500  154.2246 H   0  0  0  0  0  0  0  0  0  0  0  0
  150.4300  136.2216  153.8356 H   0  0  0  0  0  0  0  0  0  0  0  0
  148.7282  138.2284  154.8335 H   0  0  0  0  0  0  0  0  0  0  0  0
  148.4885  141.0349  155.9819 H   0  0  0  0  0  0  0  0  0  0  0  0
  149.8289  142.0587  155.5772 H   0  0  0  0  0  0  0  0  0  0  0  0
  149.1996  141.6892  153.0762 H   0  0  0  0  0  0  0  0  0  0  0  0
  145.3490  141.0118  153.2684 H   0  0  0  0  0  0  0  0  0  0  0  0
  1  2  2  0  0  0  0
  2  3  1  0  0  0  0
  2  4  1  0  0  0  0
  4  5  1  0  0  0  0
  4 18  1  0  0  0  0
  4 19  1  0  0  0  0
  5 17  1  0  0  0  0
  5  6  1  0  0  0  0
  6  7  2  0  0  0  0
  6 20  1  0  0  0  0
  7  8  1  0  0  0  0
  7 16  1  0  0  0  0
  8  9  1  0  0  0  0
  8 21  1  0  0  0  0
  8 22  1  0  0  0  0
  9 14  1  0  0  0  0
  9 10  1  0  0  0  0
  9 23  1  0  0  0  0
 10 11  1  0  0  0  0
 11 12  2  0  0  0  0
 11 13  1  0  0  0  0
 13 14  1  0  0  0  0
 13 24  1  0  0  0  0
 14 15  2  0  0  0  0
 16 17  2  0  0  0  0
M  CHG  1   3  -1
M  CHG  1  10  -1
M  END
> <s_m_source_file>
AV-unprocessed.smi

> <i_m_source_file_index>
2750

> <i_lp_mmshare_version>
43012

> <i_f3d_flags>
0

> <s_epik_input>
Tz1DKFtPSF0pW0NIMl1uMVtjSF1jKG5uMSlbQ0gyXVtDQEBIXTJbTkhdQyg9TylbTkhdQzI9Tw==

> <s_epik_cmdline>
J2VwaWtfcHl0aG9uJywgJy1waCcsICc3LjAnLCAnLXRuJywgJzgnLCAnLW1hJywgJzIwMCcsICctbWV0YWxfYmluZGluZycsICctaW1hZScsICc8aW5maWxlLm1hZT4nLCAnLW9tYWUnLCAnPG91dGZpbGUubWFlPic=

> <r_lp_tautomer_probability>
1

> <r_epik_Ionization_Penalty>
5.10791

> <r_epik_Ionization_Penalty_Charging>
5.10788

> <r_epik_Ionization_Penalty_Neutral>
2.55687e-05

> <r_epik_State_Penalty>
5.12334

> <r_epik_Charging_Adjusted_Penalty>
10.2312

> <i_epik_Tot_Q>
-2

> <i_epik_Tot_abs_Q>
2

> <r_epik_Metal_State_Penalty>
1.50935

> <b_epik_Metal_Only>
1

> <s_lp_Force_Field>
OPLS_2005

> <r_lp_Energy>
16.0951

> <b_lp_Chiralities_Consistent>
1

> <s_lp_Variant>
AV-unprocessed.smi:2750-5

> <Gold.Version>
5.8.1

> <Gold.Id.Protein>
6NUR|6NUR_protein|mol2

> <Gold.PLP.Fitness>
36.8103

> <Gold.PLP.PLP>
-23.4747

> <Gold.PLP.part.hbond>
-5.0894

> <Gold.PLP.part.metal>
0.0000

> <Gold.PLP.part.buried>
-2.5372

> <Gold.PLP.part.nonpolar>
-19.7196

> <Gold.PLP.part.repulsive>
3.9775

> <Gold.PLP.ligand.clash>
0.0000

> <Gold.PLP.ligand.torsion>
0.4105

> <Gold.PLP.Chemscore.Hbond>
4.7150

> <Gold.PLP.Chemscore.CHOScore>
0.0000

> <Gold.PLP.Chemscore.Metal>
0.0000

> <Gold.Chemscore.Hbonds>
donor molecule, donor type, donor heavy atom, donor atom, acceptor molecule, acceptor atom, score
      L1  H    13    24       P1 10175  1.00
      P1  H  7989  7998       L1    16  0.90
      P1  H  8022  8030       L1    10  0.72
      P1  H 10752 10763       L1     1  2.00

> <Gold.PLP.Chemscore.Internal.Correction>
0.0117

> <Gold.Rescore>
     Score         DG    S(hbond)    S(metal)    S(lipo)     H(rot)  DE(clash)    DE(int)     intcor
      7.30     -10.68       2.54        0.00      33.00       2.80       1.51       1.87       ----

> <Gold.Chemscore.Fitness>
7.3043

> <Gold.Chemscore.DG>
-10.6800

> <Gold.Chemscore.ZeroCoef>
-5.4800

> <Gold.Chemscore.Hbond>
2.5449

> <Gold.Chemscore.Metal>
0.0000

> <Gold.Chemscore.Lipo>
33.0011

> <Gold.Chemscore.Internal_Hbond>
0.0000

> <Gold.Chemscore.DEClash>
1.5095

> <Gold.Chemscore.DEInternal>
1.8662

> <Gold.Chemscore.Rot>
2.7973

> <Gold.Chemscore.Internal.Correction>
   9.000000E+99

> <Gold.Chemscore.Hbonds>
donor molecule, donor type, donor heavy atom, donor atom, acceptor molecule, acceptor atom, score
      L1  H    13    24       P1 10175  0.45
      P1  H  7989  7998       L1    16  0.11
      P1  H  8022  8030       L1    10  0.66
      P1  H 10752 10763       L1     1  0.73

> <Gold.Chemscore.Hbond.Weighted>
-8.5001

> <Gold.Chemscore.Metal.Weighted>
-0.0000

> <Gold.Chemscore.Lipo.Weighted>
-3.8611

> <Gold.Chemscore.Internal_Hbond.Weighted>
0.0000

> <Gold.Chemscore.DEClash.Weighted>
1.5095

> <Gold.Chemscore.DEInternal.Weighted>
1.8662

> <Gold.Chemscore.Rot.Weighted>
7.1611

> <Gold.Chemscore.Internal.Correction.Weighted>
   9.000000E+99

> <Gold.Protein.RotatedTorsions>
[ 6907 6896 6895 6894 ] final   37.03 input  -60.11 | X-H torsion
[ 7974 7965 7964 7962 ] final  138.26 input  175.53 | X-H torsion
[ 8008 7997 7996 7995 ] final -158.87 input   59.86 | X-H torsion
[ 10167 10162 10161 10158 ] final  -69.05 input  -65.29 | X-H torsion
[ 10718 10713 10712 10709 ] final  -37.79 input   66.30 | X-H torsion
[ 10763 10752 10751 10750 ] final  104.19 input  -60.55 | X-H torsion
[ 11005 11000 10999 10996 ] final -109.56 input  -57.11 | X-H torsion

> <Gold.Protein.ActiveResidues>
 VAL166  LYS551  ARG553  GLY616  TRP617  ASP618  TYR619  PRO620  LYS621  CYS622 
 ASP623  PHE694  ASN695  SER759  ASP760  ASP761  ALA762  ILE779  LEU786  VAL792 
 PHE793  MET794  SER795  GLU796  ALA797  LYS798  CYS799  TRP800  GLU811  SER814 

> <Gold.Protein.RotatedAtoms>
  152.1377  134.9087  160.0555 H   0  0  0  0  0  0  0  0  0  0  0  0  # atno 6907 bound_to 6896
  152.0167  133.3877  159.4249 H   0  0  0  0  0  0  0  0  0  0  0  0  # atno 6908 bound_to 6896
  150.6862  134.3593  159.4987 H   0  0  0  0  0  0  0  0  0  0  0  0  # atno 6909 bound_to 6896
  144.9390  139.4954  143.5581 H   0  0  0  0  0  0  0  0  0  0  0  0  # atno 7974 bound_to 7965
  155.7540  140.0830  157.2187 H   0  0  0  0  0  0  0  0  0  0  0  0  # atno 8008 bound_to 7997
  154.4009  140.1555  156.2813 H   0  0  0  0  0  0  0  0  0  0  0  0  # atno 8009 bound_to 7997
  155.8903  140.3415  155.5954 H   0  0  0  0  0  0  0  0  0  0  0  0  # atno 8010 bound_to 7997
  140.5461  143.2313  151.6999 H   0  0  0  0  0  0  0  0  0  0  0  0  # atno 10167 bound_to 10162
  156.3112  130.4253  149.8048 H   0  0  0  0  0  0  0  0  0  0  0  0  # atno 10718 bound_to 10713
  153.3627  135.3951  155.1730 H   0  0  0  0  0  0  0  0  0  0  0  0  # atno 10763 bound_to 10752
  154.8682  135.3683  154.5079 H   0  0  0  0  0  0  0  0  0  0  0  0  # atno 10764 bound_to 10752
  153.5540  135.7082  153.5638 H   0  0  0  0  0  0  0  0  0  0  0  0  # atno 10765 bound_to 10752
  141.0841  133.9170  157.2225 H   0  0  0  0  0  0  0  0  0  0  0  0  # atno 11005 bound_to 11000
  146.3278  139.8395  142.8893 LP  0  0  0  0  0  0  0  0  0  0  0  0  # atno 17320 bound_to 7965
  145.3022  141.0197  143.3602 LP  0  0  0  0  0  0  0  0  0  0  0  0  # atno 17321 bound_to 7965
  139.5008  144.3893  152.0296 LP  0  0  0  0  0  0  0  0  0  0  0  0  # atno 17342 bound_to 10162
  140.3006  144.3651  150.6061 LP  0  0  0  0  0  0  0  0  0  0  0  0  # atno 17343 bound_to 10162
  156.5391  130.8292  151.3263 LP  0  0  0  0  0  0  0  0  0  0  0  0  # atno 17370 bound_to 10713
  157.7391  130.9826  150.2294 LP  0  0  0  0  0  0  0  0  0  0  0  0  # atno 17371 bound_to 10713
  139.9657  135.0142  156.9381 LP  0  0  0  0  0  0  0  0  0  0  0  0  # atno 17394 bound_to 11000
  140.5403  134.0726  155.7339 LP  0  0  0  0  0  0  0  0  0  0  0  0  # atno 17395 bound_to 11000

$$$$
