AV-unprocessed.smi:1671|AV-procd|sdf|6700|dock8
  -GOLD-   22720 7433D 1   1.00000     0.00000
 Structure written by MMmdl.
 44 45  0  0  0  0  0  0  0  0  1 V2000
  150.8686  132.8289  156.5379 C   0  0  0  0  0  0  0  0  0  0  0  0
  149.8909  133.1536  155.0452 S   0  0  0  0  0  0  0  0  0  0  0  0
  149.3447  134.8600  155.3525 C   0  0  1  0  0  0  0  0  0  0  0  0
  148.5953  134.9446  156.6915 C   0  0  0  0  0  0  0  0  0  0  0  0
  150.5132  135.8522  155.3094 C   0  0  0  0  0  0  0  0  0  0  0  0
  151.4135  135.7918  156.1475 O   0  0  0  0  0  0  0  0  0  0  0  0
  150.4903  136.7607  154.3214 N   0  0  0  0  0  0  0  0  0  0  0  0
  151.5061  137.7859  154.1059 C   0  0  0  0  0  0  0  0  0  0  0  0
  151.5050  138.9015  155.1417 C   0  0  0  0  0  0  0  0  0  0  0  0
  150.5786  139.9647  155.1000 C   0  0  0  0  0  0  0  0  0  0  0  0
  150.6404  140.9645  156.0891 C   0  0  0  0  0  0  0  0  0  0  0  0
  151.6296  140.8796  157.0978 C   0  0  0  0  0  0  0  0  0  0  0  0
  151.7079  141.8684  158.1027 N   0  0  0  0  0  0  0  0  0  0  0  0
  151.8185  143.2645  157.6842 C   0  0  0  0  0  0  0  0  0  0  0  0
  151.5947  144.2017  158.8819 C   0  0  0  0  0  0  0  0  0  0  0  0
  152.4984  143.8648  159.9291 O   0  0  0  0  0  0  0  0  0  0  0  0
  152.3000  142.5355  160.4023 C   0  0  2  0  0  0  0  0  0  0  0  0
  153.2484  142.2985  161.5821 C   0  0  0  0  0  0  0  0  0  0  0  0
  152.5495  141.5417  159.2511 C   0  0  0  0  0  0  0  0  0  0  0  0
  152.5273  139.8636  157.1246 N   0  0  0  0  0  0  0  0  0  0  0  0
  152.4629  138.9072  156.1749 C   0  0  0  0  0  0  0  0  0  0  0  0
  151.3299  131.8437  156.4743 H   0  0  0  0  0  0  0  0  0  0  0  0
  150.2382  132.8543  157.4265 H   0  0  0  0  0  0  0  0  0  0  0  0
  151.6578  133.5727  156.6471 H   0  0  0  0  0  0  0  0  0  0  0  0
  148.6367  135.1195  154.5637 H   0  0  0  0  0  0  0  0  0  0  0  0
  148.2659  135.9634  156.8992 H   0  0  0  0  0  0  0  0  0  0  0  0
  149.2213  134.6198  157.5234 H   0  0  0  0  0  0  0  0  0  0  0  0
  147.7084  134.3107  156.6807 H   0  0  0  0  0  0  0  0  0  0  0  0
  149.7166  136.7395  153.6730 H   0  0  0  0  0  0  0  0  0  0  0  0
  152.4926  137.3205  154.0652 H   0  0  0  0  0  0  0  0  0  0  0  0
  151.3355  138.2312  153.1256 H   0  0  0  0  0  0  0  0  0  0  0  0
  149.8309  140.0230  154.3229 H   0  0  0  0  0  0  0  0  0  0  0  0
  149.9420  141.7871  156.0528 H   0  0  0  0  0  0  0  0  0  0  0  0
  152.8073  143.4361  157.2563 H   0  0  0  0  0  0  0  0  0  0  0  0
  151.0835  143.4875  156.9098 H   0  0  0  0  0  0  0  0  0  0  0  0
  151.7647  145.2366  158.5853 H   0  0  0  0  0  0  0  0  0  0  0  0
  150.5655  144.1380  159.2391 H   0  0  0  0  0  0  0  0  0  0  0  0
  151.2731  142.4327  160.7581 H   0  0  0  0  0  0  0  0  0  0  0  0
  153.1264  141.2938  161.9876 H   0  0  0  0  0  0  0  0  0  0  0  0
  153.0536  143.0076  162.3870 H   0  0  0  0  0  0  0  0  0  0  0  0
  154.2900  142.4144  161.2807 H   0  0  0  0  0  0  0  0  0  0  0  0
  152.3649  140.5306  159.6105 H   0  0  0  0  0  0  0  0  0  0  0  0
  153.5946  141.5805  158.9403 H   0  0  0  0  0  0  0  0  0  0  0  0
  153.1999  138.1208  156.2448 H   0  0  0  0  0  0  0  0  0  0  0  0
  1  2  1  0  0  0  0
  1 22  1  0  0  0  0
  1 23  1  0  0  0  0
  1 24  1  0  0  0  0
  2  3  1  0  0  0  0
  3  4  1  0  0  0  0
  3  5  1  0  0  0  0
  3 25  1  0  0  0  0
  4 26  1  0  0  0  0
  4 27  1  0  0  0  0
  4 28  1  0  0  0  0
  5  6  2  0  0  0  0
  5  7  1  0  0  0  0
  7  8  1  0  0  0  0
  7 29  1  0  0  0  0
  8  9  1  0  0  0  0
  8 30  1  0  0  0  0
  8 31  1  0  0  0  0
  9 21  1  0  0  0  0
  9 10  2  0  0  0  0
 10 11  1  0  0  0  0
 10 32  1  0  0  0  0
 11 12  2  0  0  0  0
 11 33  1  0  0  0  0
 12 13  1  0  0  0  0
 12 20  1  0  0  0  0
 13 19  1  0  0  0  0
 13 14  1  0  0  0  0
 14 15  1  0  0  0  0
 14 34  1  0  0  0  0
 14 35  1  0  0  0  0
 15 16  1  0  0  0  0
 15 36  1  0  0  0  0
 15 37  1  0  0  0  0
 16 17  1  0  0  0  0
 17 18  1  0  0  0  0
 17 19  1  0  0  0  0
 17 38  1  0  0  0  0
 18 39  1  0  0  0  0
 18 40  1  0  0  0  0
 18 41  1  0  0  0  0
 19 42  1  0  0  0  0
 19 43  1  0  0  0  0
 20 21  2  0  0  0  0
 21 44  1  0  0  0  0
M  END
> <s_m_source_file>
AV-unprocessed.smi

> <i_m_source_file_index>
1671

> <i_lp_mmshare_version>
43012

> <i_f3d_flags>
0

> <s_epik_input>
W0NIM11TW0NASF0oW0NIM10pQyg9TylbTkhdW0NIMl1jMVtjSF1bY0hdYyhuW2NIXTEpTjJbQ0gyXVtDSDJdT1tDQEBIXShbQ0gzXSlbQ0gyXTI=

> <s_epik_cmdline>
J2VwaWtfcHl0aG9uJywgJy1waCcsICc3LjAnLCAnLXRuJywgJzgnLCAnLW1hJywgJzIwMCcsICctbWV0YWxfYmluZGluZycsICctaW1hZScsICc8aW5maWxlLm1hZT4nLCAnLW9tYWUnLCAnPG91dGZpbGUubWFlPic=

> <r_lp_tautomer_probability>
1

> <r_epik_Ionization_Penalty>
0.00480033

> <r_epik_Ionization_Penalty_Charging>
0

> <r_epik_Ionization_Penalty_Neutral>
0.00480033

> <r_epik_State_Penalty>
0.00347981

> <r_epik_Charging_Adjusted_Penalty>
0.00347981

> <i_epik_Tot_Q>
0

> <i_epik_Tot_abs_Q>
0

> <r_epik_Metal_State_Penalty>
-0

> <b_epik_Metal_Only>
0

> <s_lp_Force_Field>
OPLS_2005

> <r_lp_Energy>
15.0592

> <b_lp_Chiralities_Consistent>
1

> <s_lp_Variant>
AV-unprocessed.smi:1671-4

> <Gold.Version>
5.8.1

> <Gold.Id.Protein>
6NUR|6NUR_protein|mol2

> <Gold.PLP.Fitness>
49.9246

> <Gold.PLP.PLP>
-43.0986

> <Gold.PLP.part.hbond>
-4.0000

> <Gold.PLP.part.metal>
0.0000

> <Gold.PLP.part.buried>
-4.4642

> <Gold.PLP.part.nonpolar>
-34.7487

> <Gold.PLP.part.repulsive>
0.1171

> <Gold.PLP.ligand.clash>
0.0000

> <Gold.PLP.ligand.torsion>
0.5477

> <Gold.PLP.Chemscore.Hbond>
2.5136

> <Gold.PLP.Chemscore.CHOScore>
0.0000

> <Gold.PLP.Chemscore.Metal>
0.0000

> <Gold.Chemscore.Hbonds>
donor molecule, donor type, donor heavy atom, donor atom, acceptor molecule, acceptor atom, score
      L1  H     7    29       P1  7948  0.98
      P1  H  7997  8008       L1    20  0.55
      P1  H 10752 10763       L1     6  0.88

> <Gold.PLP.Chemscore.Internal.Correction>
0.3807

> <Gold.Rescore>
     Score         DG    S(hbond)    S(metal)    S(lipo)     H(rot)  DE(clash)    DE(int)     intcor
     19.31     -19.98       1.72        0.00     110.30       1.63       0.04       0.63       ----

> <Gold.Chemscore.Fitness>
19.3070

> <Gold.Chemscore.DG>
-19.9804

> <Gold.Chemscore.ZeroCoef>
-5.4800

> <Gold.Chemscore.Hbond>
1.7249

> <Gold.Chemscore.Metal>
0.0000

> <Gold.Chemscore.Lipo>
110.2991

> <Gold.Chemscore.Internal_Hbond>
0.0000

> <Gold.Chemscore.DEClash>
0.0398

> <Gold.Chemscore.DEInternal>
0.6337

> <Gold.Chemscore.Rot>
1.6272

> <Gold.Chemscore.Internal.Correction>
   9.000000E+99

> <Gold.Chemscore.Hbonds>
donor molecule, donor type, donor heavy atom, donor atom, acceptor molecule, acceptor atom, score
      L1  H     7    29       P1  7948  0.54
      P1  H  7997  8008       L1    20  0.03
      P1  H 10752 10763       L1     6  0.47

> <Gold.Chemscore.Hbond.Weighted>
-5.7611

> <Gold.Chemscore.Metal.Weighted>
-0.0000

> <Gold.Chemscore.Lipo.Weighted>
-12.9050

> <Gold.Chemscore.Internal_Hbond.Weighted>
0.0000

> <Gold.Chemscore.DEClash.Weighted>
0.0398

> <Gold.Chemscore.DEInternal.Weighted>
0.6337

> <Gold.Chemscore.Rot.Weighted>
4.1657

> <Gold.Chemscore.Internal.Correction.Weighted>
   9.000000E+99

> <Gold.Protein.RotatedTorsions>
[ 6907 6896 6895 6894 ] final  -58.80 input  -60.11 | X-H torsion
[ 7974 7965 7964 7962 ] final   14.83 input  175.53 | X-H torsion
[ 8008 7997 7996 7995 ] final  -75.41 input   59.86 | X-H torsion
[ 10167 10162 10161 10158 ] final  116.80 input  -65.29 | X-H torsion
[ 10718 10713 10712 10709 ] final  -48.61 input   66.30 | X-H torsion
[ 10763 10752 10751 10750 ] final   93.67 input  -60.55 | X-H torsion
[ 11005 11000 10999 10996 ] final  174.55 input  -57.11 | X-H torsion

> <Gold.Protein.ActiveResidues>
 VAL166  LYS551  ARG553  GLY616  TRP617  ASP618  TYR619  PRO620  LYS621  CYS622 
 ASP623  PHE694  ASN695  SER759  ASP760  ASP761  ALA762  ILE779  LEU786  VAL792 
 PHE793  MET794  SER795  GLU796  ALA797  LYS798  CYS799  TRP800  GLU811  SER814 

> <Gold.Protein.RotatedAtoms>
  150.7979  134.7052  159.6572 H   0  0  0  0  0  0  0  0  0  0  0  0  # atno 6907 bound_to 6896
  152.4093  134.6149  160.0045 H   0  0  0  0  0  0  0  0  0  0  0  0  # atno 6908 bound_to 6896
  151.6396  133.3290  159.3163 H   0  0  0  0  0  0  0  0  0  0  0  0  # atno 6909 bound_to 6896
  146.2294  139.8983  142.8543 H   0  0  0  0  0  0  0  0  0  0  0  0  # atno 7974 bound_to 7965
  154.5414  140.0744  156.8516 H   0  0  0  0  0  0  0  0  0  0  0  0  # atno 8008 bound_to 7997
  155.3173  140.3394  155.4224 H   0  0  0  0  0  0  0  0  0  0  0  0  # atno 8009 bound_to 7997
  156.1878  140.1675  156.8138 H   0  0  0  0  0  0  0  0  0  0  0  0  # atno 8010 bound_to 7997
  139.6222  144.7103  151.2609 H   0  0  0  0  0  0  0  0  0  0  0  0  # atno 10167 bound_to 10162
  156.1971  130.4155  149.9291 H   0  0  0  0  0  0  0  0  0  0  0  0  # atno 10718 bound_to 10713
  153.2329  135.4317  155.0614 H   0  0  0  0  0  0  0  0  0  0  0  0  # atno 10763 bound_to 10752
  154.8305  135.3384  154.6761 H   0  0  0  0  0  0  0  0  0  0  0  0  # atno 10764 bound_to 10752
  153.7188  135.7018  153.5074 H   0  0  0  0  0  0  0  0  0  0  0  0  # atno 10765 bound_to 10752
  140.3525  134.7182  157.4278 H   0  0  0  0  0  0  0  0  0  0  0  0  # atno 11005 bound_to 11000
  145.2349  140.9987  143.3969 LP  0  0  0  0  0  0  0  0  0  0  0  0  # atno 17320 bound_to 7965
  144.9500  139.4093  143.6407 LP  0  0  0  0  0  0  0  0  0  0  0  0  # atno 17321 bound_to 7965
  140.7389  143.6634  150.8144 LP  0  0  0  0  0  0  0  0  0  0  0  0  # atno 17342 bound_to 10162
  140.0246  143.5506  152.2786 LP  0  0  0  0  0  0  0  0  0  0  0  0  # atno 17343 bound_to 10162
  156.7013  130.8934  151.3599 LP  0  0  0  0  0  0  0  0  0  0  0  0  # atno 17370 bound_to 10713
  157.6964  130.9286  150.0657 LP  0  0  0  0  0  0  0  0  0  0  0  0  # atno 17371 bound_to 10713
  140.0691  134.5887  155.8662 LP  0  0  0  0  0  0  0  0  0  0  0  0  # atno 17394 bound_to 11000
  141.2008  133.6614  156.5915 LP  0  0  0  0  0  0  0  0  0  0  0  0  # atno 17395 bound_to 11000

$$$$
