AV-unprocessed.smi:777|AV-procd|sdf|3701|dock5
  -GOLD-   22720 1123D 1   1.00000     0.00000
 Structure written by MMmdl.
 37 38  0  0  0  0  0  0  0  0  2 V2000
  148.3147  136.7140  156.0813 C   0  0  0  0  0  0  0  0  0  0  0  0
  147.9462  135.3636  156.7316 C   0  0  2  0  0  0  0  0  0  0  0  0
  148.0978  135.3809  158.2605 C   0  0  0  0  0  0  0  0  0  0  0  0
  149.2163  135.4629  158.7675 O   0  0  0  0  0  0  0  0  0  0  0  0
  146.9432  135.2895  158.9479 N   0  0  0  0  0  0  0  0  0  0  0  0
  146.6483  135.1946  160.3861 C   0  0  0  0  0  0  0  0  0  0  0  0
  147.1643  136.5322  160.9772 C   0  0  0  0  0  0  0  0  0  0  0  0
  148.1030  136.4868  161.8035 O   0  0  0  0  0  0  0  0  0  0  0  0
  146.5795  137.5850  160.6361 O   0  5  0  0  0  0  0  0  0  0  0  0
  145.1424  134.9665  160.7355 C   0  0  0  0  0  0  0  0  0  0  0  0
  144.8985  134.7219  162.2377 C   0  0  0  0  0  0  0  0  0  0  0  0
  145.7271  133.5333  162.7462 C   0  0  0  0  0  0  0  0  0  0  0  0
  147.2196  133.7253  162.4406 C   0  0  0  0  0  0  0  0  0  0  0  0
  147.4551  133.9849  160.9392 C   0  0  0  0  0  0  0  0  0  0  0  0
  148.6915  134.2400  156.1725 N   0  0  0  0  0  0  0  0  0  0  0  0
  148.7620  133.8488  154.8501 C   0  0  0  0  0  0  0  0  0  0  0  0
  149.5254  132.7182  154.7943 C   0  0  0  0  0  0  0  0  0  0  0  0
  149.8691  132.4767  156.1529 C   0  0  0  0  0  0  0  0  0  0  0  0
  149.3629  133.3808  156.9752 N   0  0  0  0  0  0  0  0  0  0  0  0
  147.6954  137.5197  156.4766 H   0  0  0  0  0  0  0  0  0  0  0  0
  148.1571  136.6813  155.0030 H   0  0  0  0  0  0  0  0  0  0  0  0
  149.3569  136.9854  156.2549 H   0  0  0  0  0  0  0  0  0  0  0  0
  146.8930  135.1842  156.5092 H   0  0  0  0  0  0  0  0  0  0  0  0
  146.1165  135.2237  158.3722 H   0  0  0  0  0  0  0  0  0  0  0  0
  144.5255  135.8006  160.3980 H   0  0  0  0  0  0  0  0  0  0  0  0
  144.7757  134.0870  160.2052 H   0  0  0  0  0  0  0  0  0  0  0  0
  145.1436  135.6156  162.8124 H   0  0  0  0  0  0  0  0  0  0  0  0
  143.8390  134.5317  162.4110 H   0  0  0  0  0  0  0  0  0  0  0  0
  145.5789  133.4066  163.8189 H   0  0  0  0  0  0  0  0  0  0  0  0
  145.3742  132.6154  162.2743 H   0  0  0  0  0  0  0  0  0  0  0  0
  147.6115  134.5536  163.0318 H   0  0  0  0  0  0  0  0  0  0  0  0
  147.7753  132.8408  162.7526 H   0  0  0  0  0  0  0  0  0  0  0  0
  147.1721  133.0880  160.3862 H   0  0  0  0  0  0  0  0  0  0  0  0
  148.5235  134.1082  160.7555 H   0  0  0  0  0  0  0  0  0  0  0  0
  148.2636  134.4007  154.0667 H   0  0  0  0  0  0  0  0  0  0  0  0
  149.7884  132.1457  153.9175 H   0  0  0  0  0  0  0  0  0  0  0  0
  150.4622  131.6733  156.5642 H   0  0  0  0  0  0  0  0  0  0  0  0
  1  2  1  0  0  0  0
  1 20  1  0  0  0  0
  1 21  1  0  0  0  0
  1 22  1  0  0  0  0
  2  3  1  0  0  0  0
  2 15  1  0  0  0  0
  2 23  1  0  0  0  0
  3  4  2  0  0  0  0
  3  5  1  0  0  0  0
  5  6  1  0  0  0  0
  5 24  1  0  0  0  0
  6 14  1  0  0  0  0
  6  7  1  0  0  0  0
  6 10  1  0  0  0  0
  7  8  2  0  0  0  0
  7  9  1  0  0  0  0
 10 11  1  0  0  0  0
 10 25  1  0  0  0  0
 10 26  1  0  0  0  0
 11 12  1  0  0  0  0
 11 27  1  0  0  0  0
 11 28  1  0  0  0  0
 12 13  1  0  0  0  0
 12 29  1  0  0  0  0
 12 30  1  0  0  0  0
 13 14  1  0  0  0  0
 13 31  1  0  0  0  0
 13 32  1  0  0  0  0
 14 33  1  0  0  0  0
 14 34  1  0  0  0  0
 15 19  1  0  0  0  0
 15 16  1  0  0  0  0
 16 17  2  0  0  0  0
 16 35  1  0  0  0  0
 17 18  1  0  0  0  0
 17 36  1  0  0  0  0
 18 19  2  0  0  0  0
 18 37  1  0  0  0  0
M  CHG  1   9  -1
M  END
> <s_m_source_file>
AV-unprocessed.smi

> <i_m_source_file_index>
777

> <i_lp_mmshare_version>
43012

> <i_f3d_flags>
0

> <s_epik_input>
bjFbY0hdW2NIXVtjSF1uMVtDQEhdKFtDSDNdKUMoPU8pW05IXUMyKEMoPU8pW09IXSlbQ0gyXVtDSDJdW0NIMl1bQ0gyXVtDSDJdMg==

> <s_epik_cmdline>
J2VwaWtfcHl0aG9uJywgJy1waCcsICc3LjAnLCAnLXRuJywgJzgnLCAnLW1hJywgJzIwMCcsICctbWV0YWxfYmluZGluZycsICctaW1hZScsICc8aW5maWxlLm1hZT4nLCAnLW9tYWUnLCAnPG91dGZpbGUubWFlPic=

> <r_lp_tautomer_probability>
1

> <r_epik_Ionization_Penalty>
0.000371068

> <r_epik_Ionization_Penalty_Charging>
0.000323848

> <r_epik_Ionization_Penalty_Neutral>
4.72198e-05

> <r_epik_State_Penalty>
0.000195685

> <r_epik_Charging_Adjusted_Penalty>
0.000519533

> <i_epik_Tot_Q>
-1

> <i_epik_Tot_abs_Q>
1

> <r_epik_Metal_State_Penalty>
-0

> <b_epik_Metal_Only>
0

> <s_lp_Force_Field>
OPLS_2005

> <r_lp_Energy>
8.44032

> <b_lp_Chiralities_Consistent>
1

> <s_lp_Variant>
AV-unprocessed.smi:777-1

> <Gold.Version>
5.8.1

> <Gold.Id.Protein>
6NUR|6NUR_protein|mol2

> <Gold.PLP.Fitness>
42.0727

> <Gold.PLP.PLP>
-24.2449

> <Gold.PLP.part.hbond>
-3.0000

> <Gold.PLP.part.metal>
0.0000

> <Gold.PLP.part.buried>
-3.9835

> <Gold.PLP.part.nonpolar>
-17.5607

> <Gold.PLP.part.repulsive>
0.0127

> <Gold.PLP.ligand.clash>
0.0000

> <Gold.PLP.ligand.torsion>
0.1749

> <Gold.PLP.Chemscore.Hbond>
5.0000

> <Gold.PLP.Chemscore.CHOScore>
1.0000

> <Gold.PLP.Chemscore.Metal>
0.0000

> <Gold.Chemscore.Hbonds>
donor molecule, donor type, donor heavy atom, donor atom, acceptor molecule, acceptor atom, score
      P1  H  6896  6909       L1     4  1.00
      P1  H  6931  6943       L1     8  2.00
      P1  H  6934  6947       L1     9  2.00
      L1  C    16    35       P1  7948  0.03

> <Gold.PLP.Chemscore.Internal.Correction>
0.1776

> <Gold.Rescore>
     Score         DG    S(hbond)    S(metal)    S(lipo)     H(rot)  DE(clash)    DE(int)     intcor
     13.63     -16.33       2.84        0.00      55.04       1.98       0.00       2.70       ----

> <Gold.Chemscore.Fitness>
13.6265

> <Gold.Chemscore.DG>
-16.3308

> <Gold.Chemscore.ZeroCoef>
-5.4800

> <Gold.Chemscore.Hbond>
2.8364

> <Gold.Chemscore.Metal>
0.0000

> <Gold.Chemscore.Lipo>
55.0356

> <Gold.Chemscore.Internal_Hbond>
0.0000

> <Gold.Chemscore.DEClash>
0.0000

> <Gold.Chemscore.DEInternal>
2.7043

> <Gold.Chemscore.Rot>
1.9774

> <Gold.Chemscore.Internal.Correction>
   9.000000E+99

> <Gold.Chemscore.Hbonds>
donor molecule, donor type, donor heavy atom, donor atom, acceptor molecule, acceptor atom, score
      P1  H  6896  6909       L1     4  1.00
      P1  H  6931  6943       L1     8  0.76
      P1  H  6934  6947       L1     9  0.97

> <Gold.Chemscore.Hbond.Weighted>
-9.4737

> <Gold.Chemscore.Metal.Weighted>
-0.0000

> <Gold.Chemscore.Lipo.Weighted>
-6.4392

> <Gold.Chemscore.Internal_Hbond.Weighted>
0.0000

> <Gold.Chemscore.DEClash.Weighted>
0.0000

> <Gold.Chemscore.DEInternal.Weighted>
2.7043

> <Gold.Chemscore.Rot.Weighted>
5.0620

> <Gold.Chemscore.Internal.Correction.Weighted>
   9.000000E+99

> <Gold.Protein.RotatedTorsions>
[ 6907 6896 6895 6894 ] final   49.49 input  -60.11 | X-H torsion
[ 7974 7965 7964 7962 ] final -161.76 input  175.53 | X-H torsion
[ 8008 7997 7996 7995 ] final   64.93 input   59.86 | X-H torsion
[ 10167 10162 10161 10158 ] final  -15.40 input  -65.29 | X-H torsion
[ 10718 10713 10712 10709 ] final  130.05 input   66.30 | X-H torsion
[ 10763 10752 10751 10750 ] final  133.11 input  -60.55 | X-H torsion
[ 11005 11000 10999 10996 ] final   -6.53 input  -57.11 | X-H torsion

> <Gold.Protein.ActiveResidues>
 VAL166  LYS551  ARG553  GLY616  TRP617  ASP618  TYR619  PRO620  LYS621  CYS622 
 ASP623  PHE694  ASN695  SER759  ASP760  ASP761  ALA762  ILE779  LEU786  VAL792 
 PHE793  MET794  SER795  GLU796  ALA797  LYS798  CYS799  TRP800  GLU811  SER814 

> <Gold.Protein.RotatedAtoms>
  152.2913  134.7718  160.0376 H   0  0  0  0  0  0  0  0  0  0  0  0  # atno 6907 bound_to 6896
  151.8263  133.3396  159.3607 H   0  0  0  0  0  0  0  0  0  0  0  0  # atno 6908 bound_to 6896
  150.7232  134.5455  159.5813 H   0  0  0  0  0  0  0  0  0  0  0  0  # atno 6909 bound_to 6896
  144.7380  140.3351  143.6145 H   0  0  0  0  0  0  0  0  0  0  0  0  # atno 7974 bound_to 7965
  155.6538  140.3497  155.4758 H   0  0  0  0  0  0  0  0  0  0  0  0  # atno 8008 bound_to 7997
  155.9826  140.1177  157.0736 H   0  0  0  0  0  0  0  0  0  0  0  0  # atno 8009 bound_to 7997
  154.4196  140.1135  156.5442 H   0  0  0  0  0  0  0  0  0  0  0  0  # atno 8010 bound_to 7997
  140.7218  143.5222  150.9620 H   0  0  0  0  0  0  0  0  0  0  0  0  # atno 10167 bound_to 10162
  157.5098  131.1096  150.9309 H   0  0  0  0  0  0  0  0  0  0  0  0  # atno 10718 bound_to 10713
  153.8018  135.3141  155.3391 H   0  0  0  0  0  0  0  0  0  0  0  0  # atno 10763 bound_to 10752
  154.8086  135.4682  154.0459 H   0  0  0  0  0  0  0  0  0  0  0  0  # atno 10764 bound_to 10752
  153.1810  135.6893  153.8566 H   0  0  0  0  0  0  0  0  0  0  0  0  # atno 10765 bound_to 10752
  140.7030  133.8974  155.8696 H   0  0  0  0  0  0  0  0  0  0  0  0  # atno 11005 bound_to 11000
  145.7432  139.1770  143.2364 LP  0  0  0  0  0  0  0  0  0  0  0  0  # atno 17320 bound_to 7965
  146.1118  140.7419  142.9499 LP  0  0  0  0  0  0  0  0  0  0  0  0  # atno 17321 bound_to 7965
  139.8940  143.6918  152.3141 LP  0  0  0  0  0  0  0  0  0  0  0  0  # atno 17342 bound_to 10162
  139.7244  144.7596  151.0903 LP  0  0  0  0  0  0  0  0  0  0  0  0  # atno 17343 bound_to 10162
  156.9954  130.5579  149.5307 LP  0  0  0  0  0  0  0  0  0  0  0  0  # atno 17370 bound_to 10713
  156.0281  130.5374  150.8462 LP  0  0  0  0  0  0  0  0  0  0  0  0  # atno 17371 bound_to 10713
  141.0148  134.0970  157.4183 LP  0  0  0  0  0  0  0  0  0  0  0  0  # atno 17394 bound_to 11000
  139.8892  135.0103  156.6663 LP  0  0  0  0  0  0  0  0  0  0  0  0  # atno 17395 bound_to 11000

$$$$
