AV-unprocessed.smi:3164|AV-procd|sdf|12079|dock8
  -GOLD-   2272017503D 1   1.00000     0.00000
 Structure written by MMmdl.
 40 41  0  0  0  0  0  0  0  0  3 V2000
  147.3992  136.7177  155.0121 C   0  0  0  0  0  0  0  0  0  0  0  0
  148.3733  137.6191  154.3596 N   0  3  1  0  0  0  0  0  0  0  0  0
  147.8691  139.0046  154.2280 C   0  0  0  0  0  0  0  0  0  0  0  0
  148.9078  139.8834  153.5121 C   0  0  0  0  0  0  0  0  0  0  0  0
  150.1419  139.8339  154.2193 O   0  0  0  0  0  0  0  0  0  0  0  0
  150.6894  138.5195  154.2694 C   0  0  1  0  0  0  0  0  0  0  0  0
  152.0504  138.5958  154.9788 C   0  0  0  0  0  0  0  0  0  0  0  0
  151.8978  138.9892  156.3943 N   0  3  0  0  0  0  0  0  0  0  0  0
  151.4698  140.3884  156.5870 C   0  0  0  0  0  0  0  0  0  0  0  0
  151.1933  140.6814  158.0680 C   0  0  0  0  0  0  0  0  0  0  0  0
  151.5210  142.1149  158.4393 C   0  0  0  0  0  0  0  0  0  0  0  0
  152.3482  142.4022  159.5459 C   0  0  0  0  0  0  0  0  0  0  0  0
  152.6168  143.7510  159.8497 C   0  0  0  0  0  0  0  0  0  0  0  0
  152.0494  144.7541  159.0404 C   0  0  0  0  0  0  0  0  0  0  0  0
  151.2355  144.3629  157.9587 C   0  0  0  0  0  0  0  0  0  0  0  0
  150.9712  143.0723  157.6594 N   0  0  0  0  0  0  0  0  0  0  0  0
  149.7004  137.6022  155.0178 C   0  0  0  0  0  0  0  0  0  0  0  0
  147.1971  137.0327  156.0367 H   0  0  0  0  0  0  0  0  0  0  0  0
  147.7772  135.6951  155.0361 H   0  0  0  0  0  0  0  0  0  0  0  0
  146.4563  136.7107  154.4643 H   0  0  0  0  0  0  0  0  0  0  0  0
  146.9324  139.0053  153.6690 H   0  0  0  0  0  0  0  0  0  0  0  0
  147.6536  139.4125  155.2170 H   0  0  0  0  0  0  0  0  0  0  0  0
  149.0513  139.5575  152.4807 H   0  0  0  0  0  0  0  0  0  0  0  0
  148.5634  140.9169  153.4740 H   0  0  0  0  0  0  0  0  0  0  0  0
  150.8355  138.1441  153.2545 H   0  0  0  0  0  0  0  0  0  0  0  0
  152.5636  137.6349  154.9172 H   0  0  0  0  0  0  0  0  0  0  0  0
  152.6849  139.3309  154.4816 H   0  0  0  0  0  0  0  0  0  0  0  0
  151.2151  138.3841  156.8281 H   0  0  0  0  0  0  0  0  0  0  0  0
  152.2475  141.0555  156.2120 H   0  0  0  0  0  0  0  0  0  0  0  0
  150.5714  140.5752  155.9970 H   0  0  0  0  0  0  0  0  0  0  0  0
  150.1461  140.4819  158.2996 H   0  0  0  0  0  0  0  0  0  0  0  0
  151.7797  140.0117  158.6991 H   0  0  0  0  0  0  0  0  0  0  0  0
  152.7688  141.6112  160.1494 H   0  0  0  0  0  0  0  0  0  0  0  0
  153.2458  144.0112  160.6883 H   0  0  0  0  0  0  0  0  0  0  0  0
  152.2341  145.7985  159.2440 H   0  0  0  0  0  0  0  0  0  0  0  0
  150.7844  145.1056  157.3176 H   0  0  0  0  0  0  0  0  0  0  0  0
  149.5960  137.9269  156.0547 H   0  0  0  0  0  0  0  0  0  0  0  0
  150.0821  136.5804  155.0390 H   0  0  0  0  0  0  0  0  0  0  0  0
  152.7856  138.8613  156.8596 H   0  0  0  0  0  0  0  0  0  0  0  0
  148.5067  137.2681  153.4216 H   0  0  0  0  0  0  0  0  0  0  0  0
  1  2  1  0  0  0  0
  1 18  1  0  0  0  0
  1 19  1  0  0  0  0
  1 20  1  0  0  0  0
  2 17  1  0  0  0  0
  2  3  1  0  0  0  0
  2 40  1  0  0  0  0
  3  4  1  0  0  0  0
  3 21  1  0  0  0  0
  3 22  1  0  0  0  0
  4  5  1  0  0  0  0
  4 23  1  0  0  0  0
  4 24  1  0  0  0  0
  5  6  1  0  0  0  0
  6  7  1  0  0  0  0
  6 17  1  0  0  0  0
  6 25  1  0  0  0  0
  7  8  1  0  0  0  0
  7 26  1  0  0  0  0
  7 27  1  0  0  0  0
  8  9  1  0  0  0  0
  8 28  1  0  0  0  0
  8 39  1  0  0  0  0
  9 10  1  0  0  0  0
  9 29  1  0  0  0  0
  9 30  1  0  0  0  0
 10 11  1  0  0  0  0
 10 31  1  0  0  0  0
 10 32  1  0  0  0  0
 11 16  1  0  0  0  0
 11 12  2  0  0  0  0
 12 13  1  0  0  0  0
 12 33  1  0  0  0  0
 13 14  2  0  0  0  0
 13 34  1  0  0  0  0
 14 15  1  0  0  0  0
 14 35  1  0  0  0  0
 15 16  2  0  0  0  0
 15 36  1  0  0  0  0
 17 37  1  0  0  0  0
 17 38  1  0  0  0  0
M  CHG  1   2   1
M  CHG  1   8   1
M  END
> <s_m_source_file>
AV-unprocessed.smi

> <i_m_source_file_index>
3164

> <i_lp_mmshare_version>
43012

> <i_f3d_flags>
0

> <s_epik_input>
W0NIM11OMVtDSDJdW0NIMl1PW0NASF0oW0NIMl0xKVtDSDJdW05IXVtDSDJdW0NIMl1jMltjSF1bY0hdW2NIXVtjSF1uMg==

> <s_epik_cmdline>
J2VwaWtfcHl0aG9uJywgJy1waCcsICc3LjAnLCAnLXRuJywgJzgnLCAnLW1hJywgJzIwMCcsICctbWV0YWxfYmluZGluZycsICctaW1hZScsICc8aW5maWxlLm1hZT4nLCAnLW9tYWUnLCAnPG91dGZpbGUubWFlPic=

> <r_epik_Ionization_Penalty>
0.294944

> <r_epik_Ionization_Penalty_Charging>
0.29381

> <r_epik_Ionization_Penalty_Neutral>
0.00113372

> <r_epik_State_Penalty>
0.271365

> <r_epik_Charging_Adjusted_Penalty>
0.565175

> <i_epik_Tot_Q>
2

> <i_epik_Tot_abs_Q>
2

> <r_epik_Metal_State_Penalty>
0.271365

> <b_epik_Metal_Only>
0

> <s_lp_Force_Field>
OPLS_2005

> <r_lp_Energy>
20.3644

> <b_lp_Chiralities_Consistent>
1

> <s_lp_Variant>
AV-unprocessed.smi:3164-1

> <Gold.Version>
5.8.1

> <Gold.Id.Protein>
6NUR|6NUR_protein|mol2

> <Gold.PLP.Fitness>
44.9914

> <Gold.PLP.PLP>
-33.7406

> <Gold.PLP.part.hbond>
-2.0000

> <Gold.PLP.part.metal>
0.0000

> <Gold.PLP.part.buried>
-1.4887

> <Gold.PLP.part.nonpolar>
-31.7162

> <Gold.PLP.part.repulsive>
0.8379

> <Gold.PLP.ligand.clash>
0.0000

> <Gold.PLP.ligand.torsion>
0.3310

> <Gold.PLP.Chemscore.Hbond>
3.0000

> <Gold.PLP.Chemscore.CHOScore>
0.9633

> <Gold.PLP.Chemscore.Metal>
0.0000

> <Gold.Chemscore.Hbonds>
donor molecule, donor type, donor heavy atom, donor atom, acceptor molecule, acceptor atom, score
      L1  H     2    40       P1  7948  2.00
      P1  H  7989  7998       L1     5  1.00
      L1  C    15    36       P1  8028  0.96

> <Gold.PLP.Chemscore.Internal.Correction>
0.0228

> <Gold.Rescore>
     Score         DG    S(hbond)    S(metal)    S(lipo)     H(rot)  DE(clash)    DE(int)     intcor
     15.99     -19.62       1.68        0.00     108.80       1.65       2.01       1.63       ----

> <Gold.Chemscore.Fitness>
15.9850

> <Gold.Chemscore.DG>
-19.6181

> <Gold.Chemscore.ZeroCoef>
-5.4800

> <Gold.Chemscore.Hbond>
1.6828

> <Gold.Chemscore.Metal>
0.0000

> <Gold.Chemscore.Lipo>
108.8001

> <Gold.Chemscore.Internal_Hbond>
0.0000

> <Gold.Chemscore.DEClash>
2.0079

> <Gold.Chemscore.DEInternal>
1.6251

> <Gold.Chemscore.Rot>
1.6454

> <Gold.Chemscore.Internal.Correction>
   9.000000E+99

> <Gold.Chemscore.Hbonds>
donor molecule, donor type, donor heavy atom, donor atom, acceptor molecule, acceptor atom, score
      L1  H     2    40       P1  7948  1.00
      P1  H  7989  7998       L1     5  0.32

> <Gold.Chemscore.Hbond.Weighted>
-5.6207

> <Gold.Chemscore.Metal.Weighted>
-0.0000

> <Gold.Chemscore.Lipo.Weighted>
-12.7296

> <Gold.Chemscore.Internal_Hbond.Weighted>
0.0000

> <Gold.Chemscore.DEClash.Weighted>
2.0079

> <Gold.Chemscore.DEInternal.Weighted>
1.6251

> <Gold.Chemscore.Rot.Weighted>
4.2122

> <Gold.Chemscore.Internal.Correction.Weighted>
   9.000000E+99

> <Gold.Protein.RotatedTorsions>
[ 6907 6896 6895 6894 ] final -122.48 input  -60.11 | X-H torsion
[ 7974 7965 7964 7962 ] final -117.18 input  175.53 | X-H torsion
[ 8008 7997 7996 7995 ] final -132.94 input   59.86 | X-H torsion
[ 10167 10162 10161 10158 ] final -121.12 input  -65.29 | X-H torsion
[ 10718 10713 10712 10709 ] final  111.24 input   66.30 | X-H torsion
[ 10763 10752 10751 10750 ] final  -55.10 input  -60.55 | X-H torsion
[ 11005 11000 10999 10996 ] final -148.65 input  -57.11 | X-H torsion

> <Gold.Protein.ActiveResidues>
 VAL166  LYS551  ARG553  GLY616  TRP617  ASP618  TYR619  PRO620  LYS621  CYS622 
 ASP623  PHE694  ASN695  SER759  ASP760  ASP761  ALA762  ILE779  LEU786  VAL792 
 PHE793  MET794  SER795  GLU796  ALA797  LYS798  CYS799  TRP800  GLU811  SER814 

> <Gold.Protein.RotatedAtoms>
  150.8579  133.7687  159.3002 H   0  0  0  0  0  0  0  0  0  0  0  0  # atno 6907 bound_to 6896
  151.5338  135.1067  159.9919 H   0  0  0  0  0  0  0  0  0  0  0  0  # atno 6908 bound_to 6896
  152.4604  133.7767  159.6884 H   0  0  0  0  0  0  0  0  0  0  0  0  # atno 6909 bound_to 6896
  145.0882  140.8472  143.3998 H   0  0  0  0  0  0  0  0  0  0  0  0  # atno 7974 bound_to 7965
  155.3372  140.0470  157.3044 H   0  0  0  0  0  0  0  0  0  0  0  0  # atno 8008 bound_to 7997
  154.5296  140.2252  155.8793 H   0  0  0  0  0  0  0  0  0  0  0  0  # atno 8009 bound_to 7997
  156.1775  140.3081  155.9093 H   0  0  0  0  0  0  0  0  0  0  0  0  # atno 8010 bound_to 7997
  140.0285  143.5272  152.2188 H   0  0  0  0  0  0  0  0  0  0  0  0  # atno 10167 bound_to 10162
  157.6455  131.0947  150.6719 H   0  0  0  0  0  0  0  0  0  0  0  0  # atno 10718 bound_to 10713
  154.1854  135.6436  153.5045 H   0  0  0  0  0  0  0  0  0  0  0  0  # atno 10763 bound_to 10752
  153.0048  135.5416  154.6470 H   0  0  0  0  0  0  0  0  0  0  0  0  # atno 10764 bound_to 10752
  154.5845  135.2928  155.0671 H   0  0  0  0  0  0  0  0  0  0  0  0  # atno 10765 bound_to 10752
  140.7590  134.3320  157.5106 H   0  0  0  0  0  0  0  0  0  0  0  0  # atno 11005 bound_to 11000
  145.1097  139.2766  143.5644 LP  0  0  0  0  0  0  0  0  0  0  0  0  # atno 17320 bound_to 7965
  146.3531  140.0689  142.8624 LP  0  0  0  0  0  0  0  0  0  0  0  0  # atno 17321 bound_to 7965
  139.6092  144.7604  151.2991 LP  0  0  0  0  0  0  0  0  0  0  0  0  # atno 17342 bound_to 10162
  140.7312  143.6858  150.7963 LP  0  0  0  0  0  0  0  0  0  0  0  0  # atno 17343 bound_to 10162
  156.7037  130.4631  149.5566 LP  0  0  0  0  0  0  0  0  0  0  0  0  # atno 17370 bound_to 10713
  156.1777  130.6479  151.0914 LP  0  0  0  0  0  0  0  0  0  0  0  0  # atno 17371 bound_to 10713
  139.8774  134.9190  156.3216 LP  0  0  0  0  0  0  0  0  0  0  0  0  # atno 17394 bound_to 11000
  140.9681  133.7345  156.0495 LP  0  0  0  0  0  0  0  0  0  0  0  0  # atno 17395 bound_to 11000

$$$$
