AV-unprocessed.smi:837|AV-procd|sdf|3905|dock4
  -GOLD-   22720 1363D 1   1.00000     0.00000
 Structure written by MMmdl.
 49 51  0  0  0  0  0  0  0  0  3 V2000
  150.5585  141.0127  155.9475 C   0  0  0  0  0  0  0  0  0  0  0  0
  151.5636  141.3442  157.0726 C   0  0  1  0  0  0  0  0  0  0  0  0
  150.9243  142.3308  158.0750 C   0  0  0  0  0  0  0  0  0  0  0  0
  151.9112  142.7548  159.1719 C   0  0  0  0  0  0  0  0  0  0  0  0
  152.4694  141.5365  159.9174 C   0  0  0  0  0  0  0  0  0  0  0  0
  153.1209  140.5428  158.9406 C   0  0  0  0  0  0  0  0  0  0  0  0
  152.1793  140.0959  157.7896 C   0  0  2  0  0  0  0  0  0  0  0  0
  152.9495  139.3019  156.8475 N   0  5  0  0  0  0  0  0  0  0  0  0
  152.4429  138.0485  156.8062 C   0  0  0  0  0  0  0  0  0  0  0  0
  152.8634  137.1093  156.1306 O   0  0  0  0  0  0  0  0  0  0  0  0
  151.3892  137.9241  157.6351 N   0  0  0  0  0  0  0  0  0  0  0  0
  150.6488  136.6776  157.8641 C   0  0  0  0  0  0  0  0  0  0  0  0
  149.9494  136.2192  156.5819 C   0  0  0  0  0  0  0  0  0  0  0  0
  149.0154  136.8714  156.1160 O   0  0  0  0  0  0  0  0  0  0  0  0
  150.4063  135.0833  156.0352 N   0  0  0  0  0  0  0  0  0  0  0  0
  149.8332  134.4069  154.8755 C   0  0  0  0  0  0  0  0  0  0  0  0
  148.4185  133.8390  155.1305 C   0  0  0  0  0  0  0  0  0  0  0  0
  147.6257  133.5302  153.8684 C   0  0  0  0  0  0  0  0  0  0  0  0
  146.4127  134.2044  153.6010 C   0  0  0  0  0  0  0  0  0  0  0  0
  145.6888  133.8921  152.4321 C   0  0  0  0  0  0  0  0  0  0  0  0
  146.1856  132.9023  151.5612 C   0  0  0  0  0  0  0  0  0  0  0  0
  147.3486  132.2778  151.8479 N   0  3  0  0  0  0  0  0  0  0  0  0
  148.0777  132.5566  152.9509 C   0  0  0  0  0  0  0  0  0  0  0  0
  151.1485  139.0758  158.2709 C   0  0  0  0  0  0  0  0  0  0  0  0
  150.2681  139.2950  159.1035 O   0  0  0  0  0  0  0  0  0  0  0  0
  149.6661  140.5178  156.3315 H   0  0  0  0  0  0  0  0  0  0  0  0
  151.0003  140.3644  155.1906 H   0  0  0  0  0  0  0  0  0  0  0  0
  150.2326  141.9205  155.4396 H   0  0  0  0  0  0  0  0  0  0  0  0
  152.3892  141.8764  156.5967 H   0  0  0  0  0  0  0  0  0  0  0  0
  150.5772  143.2193  157.5466 H   0  0  0  0  0  0  0  0  0  0  0  0
  150.0387  141.8874  158.5306 H   0  0  0  0  0  0  0  0  0  0  0  0
  152.7319  143.3187  158.7271 H   0  0  0  0  0  0  0  0  0  0  0  0
  151.4189  143.4268  159.8753 H   0  0  0  0  0  0  0  0  0  0  0  0
  153.2038  141.8610  160.6549 H   0  0  0  0  0  0  0  0  0  0  0  0
  151.6723  141.0497  160.4791 H   0  0  0  0  0  0  0  0  0  0  0  0
  154.0143  141.0073  158.5195 H   0  0  0  0  0  0  0  0  0  0  0  0
  153.4734  139.6768  159.5027 H   0  0  0  0  0  0  0  0  0  0  0  0
  151.3217  135.8875  158.2015 H   0  0  0  0  0  0  0  0  0  0  0  0
  149.9219  136.8095  158.6676 H   0  0  0  0  0  0  0  0  0  0  0  0
  151.1812  134.6243  156.4923 H   0  0  0  0  0  0  0  0  0  0  0  0
  149.8305  135.0724  154.0113 H   0  0  0  0  0  0  0  0  0  0  0  0
  150.5075  133.5867  154.6285 H   0  0  0  0  0  0  0  0  0  0  0  0
  148.5027  132.9274  155.7231 H   0  0  0  0  0  0  0  0  0  0  0  0
  147.8469  134.5383  155.7413 H   0  0  0  0  0  0  0  0  0  0  0  0
  146.0314  134.9472  154.2866 H   0  0  0  0  0  0  0  0  0  0  0  0
  144.7540  134.3887  152.2173 H   0  0  0  0  0  0  0  0  0  0  0  0
  145.6870  132.5876  150.6562 H   0  0  0  0  0  0  0  0  0  0  0  0
  148.9863  131.9853  153.0718 H   0  0  0  0  0  0  0  0  0  0  0  0
  147.6863  131.5600  151.2067 H   0  0  0  0  0  0  0  0  0  0  0  0
  1  2  1  0  0  0  0
  1 26  1  0  0  0  0
  1 27  1  0  0  0  0
  1 28  1  0  0  0  0
  2  7  1  0  0  0  0
  2  3  1  0  0  0  0
  2 29  1  0  0  0  0
  3  4  1  0  0  0  0
  3 30  1  0  0  0  0
  3 31  1  0  0  0  0
  4  5  1  0  0  0  0
  4 32  1  0  0  0  0
  4 33  1  0  0  0  0
  5  6  1  0  0  0  0
  5 34  1  0  0  0  0
  5 35  1  0  0  0  0
  6  7  1  0  0  0  0
  6 36  1  0  0  0  0
  6 37  1  0  0  0  0
  7 24  1  0  0  0  0
  7  8  1  0  0  0  0
  8  9  1  0  0  0  0
  9 10  2  0  0  0  0
  9 11  1  0  0  0  0
 11 12  1  0  0  0  0
 11 24  1  0  0  0  0
 12 13  1  0  0  0  0
 12 38  1  0  0  0  0
 12 39  1  0  0  0  0
 13 14  2  0  0  0  0
 13 15  1  0  0  0  0
 15 16  1  0  0  0  0
 15 40  1  0  0  0  0
 16 17  1  0  0  0  0
 16 41  1  0  0  0  0
 16 42  1  0  0  0  0
 17 18  1  0  0  0  0
 17 43  1  0  0  0  0
 17 44  1  0  0  0  0
 18 23  1  0  0  0  0
 18 19  2  0  0  0  0
 19 20  1  0  0  0  0
 19 45  1  0  0  0  0
 20 21  2  0  0  0  0
 20 46  1  0  0  0  0
 21 22  1  0  0  0  0
 21 47  1  0  0  0  0
 22 23  2  0  0  0  0
 22 49  1  0  0  0  0
 23 48  1  0  0  0  0
 24 25  2  0  0  0  0
M  CHG  1   8  -1
M  CHG  1  22   1
M  END
> <s_m_source_file>
AV-unprocessed.smi

> <i_m_source_file_index>
837

> <i_lp_mmshare_version>
43012

> <i_f3d_flags>
0

> <s_epik_input>
W0NIMl0xW0NIMl1bQ0gyXVtDSDJdW0NAQEhdKFtDSDNdKVtDQEBdMTJbTkhdQyg9TylOKEMyPU8pW0NIMl1DKD1PKVtOSF1bQ0gyXVtDSDJdYzNbY0hdW2NIXVtjSF1uW2NIXTM=

> <s_epik_cmdline>
J2VwaWtfcHl0aG9uJywgJy1waCcsICc3LjAnLCAnLXRuJywgJzgnLCAnLW1hJywgJzIwMCcsICctbWV0YWxfYmluZGluZycsICctaW1hZScsICc8aW5maWxlLm1hZT4nLCAnLW9tYWUnLCAnPG91dGZpbGUubWFlPic=

> <r_lp_tautomer_probability>
1

> <r_epik_Ionization_Penalty>
8.27169

> <r_epik_Ionization_Penalty_Charging>
8.27169

> <r_epik_Ionization_Penalty_Neutral>
1.56557e-07

> <r_epik_State_Penalty>
8.42098

> <r_epik_Charging_Adjusted_Penalty>
16.6927

> <i_epik_Tot_Q>
0

> <i_epik_Tot_abs_Q>
2

> <r_epik_Metal_State_Penalty>
4.38565

> <b_epik_Metal_Only>
1

> <s_lp_Force_Field>
OPLS_2005

> <r_lp_Energy>
12.2851

> <b_lp_Chiralities_Consistent>
1

> <s_lp_Variant>
AV-unprocessed.smi:837-14

> <Gold.Version>
5.8.1

> <Gold.Id.Protein>
6NUR|6NUR_protein|mol2

> <Gold.PLP.Fitness>
44.7817

> <Gold.PLP.PLP>
-33.8970

> <Gold.PLP.part.hbond>
-3.9532

> <Gold.PLP.part.metal>
0.0000

> <Gold.PLP.part.buried>
-3.5209

> <Gold.PLP.part.nonpolar>
-27.1631

> <Gold.PLP.part.repulsive>
0.1936

> <Gold.PLP.ligand.clash>
0.0000

> <Gold.PLP.ligand.torsion>
0.1707

> <Gold.PLP.Chemscore.Hbond>
3.7200

> <Gold.PLP.Chemscore.CHOScore>
0.0000

> <Gold.PLP.Chemscore.Metal>
0.0000

> <Gold.Chemscore.Hbonds>
donor molecule, donor type, donor heavy atom, donor atom, acceptor molecule, acceptor atom, score
      L1  H    22    49       P1 10747  0.99
      P1  H  7997  8010       L1     8  2.00
      P1  H 10752 10764       L1    10  0.72

> <Gold.PLP.Chemscore.Internal.Correction>
0.0662

> <Gold.Rescore>
     Score         DG    S(hbond)    S(metal)    S(lipo)     H(rot)  DE(clash)    DE(int)     intcor
     18.78     -19.20       2.40        0.00      90.64       1.92       0.09       0.33       ----

> <Gold.Chemscore.Fitness>
18.7823

> <Gold.Chemscore.DG>
-19.1990

> <Gold.Chemscore.ZeroCoef>
-5.4800

> <Gold.Chemscore.Hbond>
2.4020

> <Gold.Chemscore.Metal>
0.0000

> <Gold.Chemscore.Lipo>
90.6421

> <Gold.Chemscore.Internal_Hbond>
0.0000

> <Gold.Chemscore.DEClash>
0.0907

> <Gold.Chemscore.DEInternal>
0.3260

> <Gold.Chemscore.Rot>
1.9175

> <Gold.Chemscore.Internal.Correction>
   9.000000E+99

> <Gold.Chemscore.Hbonds>
donor molecule, donor type, donor heavy atom, donor atom, acceptor molecule, acceptor atom, score
      L1  H    22    49       P1 10747  0.94
      P1  H  7997  8010       L1     8  0.55
      P1  H 10752 10764       L1    10  0.71

> <Gold.Chemscore.Hbond.Weighted>
-8.0226

> <Gold.Chemscore.Metal.Weighted>
-0.0000

> <Gold.Chemscore.Lipo.Weighted>
-10.6051

> <Gold.Chemscore.Internal_Hbond.Weighted>
0.0000

> <Gold.Chemscore.DEClash.Weighted>
0.0907

> <Gold.Chemscore.DEInternal.Weighted>
0.3260

> <Gold.Chemscore.Rot.Weighted>
4.9087

> <Gold.Chemscore.Internal.Correction.Weighted>
   9.000000E+99

> <Gold.Protein.RotatedTorsions>
[ 6907 6896 6895 6894 ] final   53.39 input  -60.11 | X-H torsion
[ 7974 7965 7964 7962 ] final -177.09 input  175.53 | X-H torsion
[ 8008 7997 7996 7995 ] final   56.50 input   59.86 | X-H torsion
[ 10167 10162 10161 10158 ] final   17.44 input  -65.29 | X-H torsion
[ 10718 10713 10712 10709 ] final   21.58 input   66.30 | X-H torsion
[ 10763 10752 10751 10750 ] final  -23.72 input  -60.55 | X-H torsion
[ 11005 11000 10999 10996 ] final -135.32 input  -57.11 | X-H torsion

> <Gold.Protein.ActiveResidues>
 VAL166  LYS551  ARG553  GLY616  TRP617  ASP618  TYR619  PRO620  LYS621  CYS622 
 ASP623  PHE694  ASN695  SER759  ASP760  ASP761  ALA762  ILE779  LEU786  VAL792 
 PHE793  MET794  SER795  GLU796  ALA797  LYS798  CYS799  TRP800  GLU811  SER814 

> <Gold.Protein.RotatedAtoms>
  152.3332  134.7232  160.0283 H   0  0  0  0  0  0  0  0  0  0  0  0  # atno 6907 bound_to 6896
  151.7641  133.3330  159.3434 H   0  0  0  0  0  0  0  0  0  0  0  0  # atno 6908 bound_to 6896
  150.7435  134.6010  159.6081 H   0  0  0  0  0  0  0  0  0  0  0  0  # atno 6909 bound_to 6896
  144.7127  140.1071  143.6413 H   0  0  0  0  0  0  0  0  0  0  0  0  # atno 7974 bound_to 7965
  155.5184  140.3479  155.4402 H   0  0  0  0  0  0  0  0  0  0  0  0  # atno 8008 bound_to 7997
  156.0801  140.1384  156.9750 H   0  0  0  0  0  0  0  0  0  0  0  0  # atno 8009 bound_to 7997
  154.4575  140.0948  156.6775 H   0  0  0  0  0  0  0  0  0  0  0  0  # atno 8010 bound_to 7997
  140.5726  143.9133  150.6724 H   0  0  0  0  0  0  0  0  0  0  0  0  # atno 10167 bound_to 10162
  157.1404  130.6630  149.5979 H   0  0  0  0  0  0  0  0  0  0  0  0  # atno 10718 bound_to 10713
  153.6723  135.6971  153.5143 H   0  0  0  0  0  0  0  0  0  0  0  0  # atno 10763 bound_to 10752
  153.2548  135.4263  155.0834 H   0  0  0  0  0  0  0  0  0  0  0  0  # atno 10764 bound_to 10752
  154.8423  135.3540  154.6267 H   0  0  0  0  0  0  0  0  0  0  0  0  # atno 10765 bound_to 10752
  140.8909  134.1813  157.4528 H   0  0  0  0  0  0  0  0  0  0  0  0  # atno 11005 bound_to 11000
  145.9487  139.2718  143.1225 LP  0  0  0  0  0  0  0  0  0  0  0  0  # atno 17320 bound_to 7965
  145.9346  140.9024  143.0338 LP  0  0  0  0  0  0  0  0  0  0  0  0  # atno 17321 bound_to 7965
  140.2612  143.3522  152.1321 LP  0  0  0  0  0  0  0  0  0  0  0  0  # atno 17342 bound_to 10162
  139.5125  144.6918  151.5739 LP  0  0  0  0  0  0  0  0  0  0  0  0  # atno 17343 bound_to 10162
  155.9790  130.4780  150.6687 LP  0  0  0  0  0  0  0  0  0  0  0  0  # atno 17370 bound_to 10713
  157.4312  131.0849  151.1036 LP  0  0  0  0  0  0  0  0  0  0  0  0  # atno 17371 bound_to 10713
  139.8729  134.9858  156.5297 LP  0  0  0  0  0  0  0  0  0  0  0  0  # atno 17394 bound_to 11000
  140.8348  133.8251  155.9018 LP  0  0  0  0  0  0  0  0  0  0  0  0  # atno 17395 bound_to 11000

$$$$
