#       Name:                AV-unprocessed.smi:483
#       Creating user name   scv26
#       Creation time:       Thu Mar 26 23:11:13 2020


#       File generated by GOLD software.
#

@<TRIPOS>MOLECULE
AV-unprocessed.smi:483
    52    52     1
SMALL
NO_CHARGES


@<TRIPOS>ATOM
      1 ****        -5.3670   4.8289   0.1214 C.3            1 S1                 0.0000
      2 ****        -4.6832   3.6493   0.8204 C.3            1 S1                 0.0000
      3 ****        -3.9253   2.7437  -0.1639 C.3            1 S1                 0.0000
      4 ****        -3.2982   1.6168   0.5165 N.am           1 S1                 0.0000
      5 ****        -2.1285   1.6655   1.1721 C.2            1 S1                 0.0000
      6 ****        -1.4557   2.6927   1.2759 O.2            1 S1                 0.0000
      7 ****        -1.6625   0.3540   1.8255 C.3            1 S1                 0.0000
      8 ****        -2.0336   0.4102   3.3168 C.3            1 S1                 0.0000
      9 ****        -0.2100   0.2168   1.7267 N.am           1 S1                 0.0000
     10 ****         0.4523  -0.2662   0.6638 C.2            1 S1                 0.0000
     11 ****        -0.1101  -0.6553  -0.3608 O.2            1 S1                 0.0000
     12 ****         1.9835  -0.2872   0.7753 C.3            1 S1                 0.0000
     13 ****         2.6092  -1.3296  -0.0516 N.am           1 S1                 0.0000
     14 ****         3.1100  -0.8710  -1.2548 N.2            1 S1                 0.0000
     15 ****         3.6738  -1.6718  -2.0984 C.2            1 S1                 0.0000
     16 ****         4.1709  -1.0606  -3.3809 C.3            1 S1                 0.0000
     17 ****         3.7992  -3.0901  -1.7765 C.2            1 S1                 0.0000
     18 ****         4.4750  -3.9868  -2.8050 C.3            1 S1                 0.0000
     19 ****         3.3028  -3.5283  -0.5926 C.2            1 S1                 0.0000
     20 ****         3.3719  -4.8980  -0.1965 C.1            1 S1                 0.0000
     21 ****         3.4395  -6.0128   0.1086 N.1            1 S1                 0.0000
     22 ****         2.6566  -2.6279   0.3649 C.2            1 S1                 0.0000
     23 ****         2.1937  -2.9938   1.4466 O.2            1 S1                 0.0000
     24 ****        -5.8979   5.4521   0.8414 H              1 S1                 0.0000
     25 ****        -6.0904   4.4836  -0.6177 H              1 S1                 0.0000
     26 ****        -4.6383   5.4583  -0.3901 H              1 S1                 0.0000
     27 ****        -3.9964   4.0341   1.5754 H              1 S1                 0.0000
     28 ****        -5.4331   3.0646   1.3548 H              1 S1                 0.0000
     29 ****        -4.6150   2.3462  -0.9090 H              1 S1                 0.0000
     30 ****        -3.1742   3.3163  -0.7110 H              1 S1                 0.0000
     31 ****        -3.7859   0.7332   0.4818 H              1 S1                 0.0000
     32 ****        -2.1544  -0.5007   1.3565 H              1 S1                 0.0000
     33 ****        -3.1119   0.5028   3.4530 H              1 S1                 0.0000
     34 ****        -1.5604   1.2530   3.8235 H              1 S1                 0.0000
     35 ****        -1.7206  -0.4998   3.8299 H              1 S1                 0.0000
     36 ****         0.3301   0.5273   2.5213 H              1 S1                 0.0000
     37 ****         2.3547   0.6977   0.4863 H              1 S1                 0.0000
     38 ****         2.2761  -0.4135   1.8196 H              1 S1                 0.0000
     39 ****         5.2593  -1.0971  -3.4297 H              1 S1                 0.0000
     40 ****         3.8706  -0.0159  -3.4762 H              1 S1                 0.0000
     41 ****         3.7745  -1.5943  -4.2450 H              1 S1                 0.0000
     42 ****         4.6614  -4.9879  -2.4177 H              1 S1                 0.0000
     43 ****         5.4382  -3.5747  -3.1078 H              1 S1                 0.0000
     44 ****         3.8481  -4.0853  -3.6919 H              1 S1                 0.0000
     45 ****        -1.7755   3.5441   0.8601 LP             1 S1                 0.0000
     46 ****        -0.5898   2.6749   1.7759 LP             1 S1                 0.0000
     47 ****        -1.1072  -0.6197  -0.4282 LP             1 S1                 0.0000
     48 ****         0.4305  -1.0067  -1.1252 LP             1 S1                 0.0000
     49 ****         3.0347   0.1010  -1.4778 LP             1 S1                 0.0000
     50 ****         3.4979  -6.9757   0.3721 LP             1 S1                 0.0000
     51 ****         1.7628  -2.3288   2.0566 LP             1 S1                 0.0000
     52 ****         2.2490  -3.9556   1.7144 LP             1 S1                 0.0000
@<TRIPOS>BOND
    1    1    2 1     
    2    1   24 1     
    3    1   25 1     
    4    1   26 1     
    5    2    3 1     
    6    2   27 1     
    7    2   28 1     
    8    3    4 1     
    9    3   29 1     
   10    3   30 1     
   11    4    5 am    
   12    4   31 1     
   13    5    6 2     
   14    5    7 1     
   15    7    8 1     
   16    7    9 1     
   17    7   32 1     
   18    8   33 1     
   19    8   34 1     
   20    8   35 1     
   21    9   10 am    
   22    9   36 1     
   23   10   11 2     
   24   10   12 1     
   25   12   13 1     
   26   12   37 1     
   27   12   38 1     
   28   13   22 am    
   29   13   14 1     
   30   14   15 2     
   31   15   16 1     
   32   15   17 1     
   33   16   39 1     
   34   16   40 1     
   35   16   41 1     
   36   17   18 1     
   37   17   19 2     
   38   18   42 1     
   39   18   43 1     
   40   18   44 1     
   41   19   20 1     
   42   19   22 1     
   43   20   21 3     
   44   22   23 2     
   45    6   45 1     
   46    6   46 1     
   47   11   47 1     
   48   11   48 1     
   49   14   49 1     
   50   21   50 1     
   51   23   51 1     
   52   23   52 1     
@<TRIPOS>SUBSTRUCTURE
      1 S1             1
@<TRIPOS>SET
LONE_PAIRS      STATIC     ATOMS    <user>   **** ""
8 45 46 47 48 49 50 51 52
DONOR_HYDROGENS      STATIC     ATOMS    <user>   **** ""
2 31 36
ATOM$BLUE        STATIC     ATOMS    COLORGROUP SYSTEM
8 45 46 47 48 49 50 51 52
ATOM$RED        STATIC     ATOMS    COLORGROUP SYSTEM
2 31 36
