AV-unprocessed.smi:106|AV-procd|sdf|1012|dock10
  -GOLD-   2262018 13D 1   1.00000     0.00000
 Structure written by MMmdl.
 51 54  0  0  0  0  0  0  0  0  1 V2000
  151.3083  135.8839  158.0394 O   0  0  0  0  0  0  0  0  0  0  0  0
  150.6405  136.9071  158.2042 C   0  0  0  0  0  0  0  0  0  0  0  0
  149.0992  136.8117  158.1591 C   0  0  0  0  0  0  0  0  0  0  0  0
  148.5434  135.7667  159.0479 N   0  0  0  0  0  0  0  0  0  0  0  0
  148.7131  134.4072  158.6862 C   0  0  0  0  0  0  0  0  0  0  0  0
  149.3120  134.0901  157.6574 O   0  0  0  0  0  0  0  0  0  0  0  0
  148.1306  133.4338  159.6029 C   0  0  0  0  0  0  0  0  0  0  0  0
  148.2563  132.1207  159.3466 F   0  0  0  0  0  0  0  0  0  0  0  0
  147.4669  133.8301  160.7082 C   0  0  0  0  0  0  0  0  0  0  0  0
  147.2923  135.1618  161.0398 N   0  0  0  0  0  0  0  0  0  0  0  0
  146.5339  135.5903  162.2783 C   0  0  1  0  0  0  0  0  0  0  0  0
  145.2948  136.4207  161.8945 C   0  0  0  0  0  0  0  0  0  0  0  0
  144.1805  135.7315  162.6566 C   0  0  0  0  0  0  0  0  0  0  0  0
  144.6844  134.2976  162.7224 C   0  0  0  0  0  0  0  0  0  0  0  0
  146.0747  134.4631  162.9690 O   0  0  0  0  0  0  0  0  0  0  0  0
  147.8361  136.1644  160.2078 C   0  0  0  0  0  0  0  0  0  0  0  0
  147.6882  137.3571  160.4839 O   0  0  0  0  0  0  0  0  0  0  0  0
  151.2115  138.1173  158.4199 N   0  0  0  0  0  0  0  0  0  0  0  0
  150.4286  139.3517  158.5914 C   0  0  0  0  0  0  0  0  0  0  0  0
  151.2853  140.6359  158.6349 C   0  0  0  0  0  0  0  0  0  0  0  0
  152.4277  140.5376  159.5594 N   0  0  0  0  0  0  0  0  0  0  0  0
  152.9441  141.6552  160.1315 C   0  0  0  0  0  0  0  0  0  0  0  0
  153.8299  141.6033  160.9870 O   0  0  0  0  0  0  0  0  0  0  0  0
  152.4361  142.9860  159.7134 C   0  0  0  0  0  0  0  0  0  0  0  0
  152.2444  143.5673  158.4829 C   0  0  0  0  0  0  0  0  0  0  0  0
  151.7694  144.9094  158.5624 C   0  0  0  0  0  0  0  0  0  0  0  0
  151.6293  145.3488  159.8516 C   0  0  0  0  0  0  0  0  0  0  0  0
  152.0929  144.1222  160.9984 S   0  0  0  0  0  0  0  0  0  0  0  0
  153.0436  139.2054  159.6702 C   0  0  0  0  0  0  0  0  0  0  0  0
  152.6678  138.2854  158.4969 C   0  0  0  0  0  0  0  0  0  0  0  0
  148.6717  137.7840  158.4083 H   0  0  0  0  0  0  0  0  0  0  0  0
  148.7879  136.6374  157.1285 H   0  0  0  0  0  0  0  0  0  0  0  0
  147.0633  133.0588  161.3459 H   0  0  0  0  0  0  0  0  0  0  0  0
  147.2559  136.1243  162.8986 H   0  0  0  0  0  0  0  0  0  0  0  0
  145.4234  137.4670  162.1725 H   0  0  0  0  0  0  0  0  0  0  0  0
  145.1155  136.3586  160.8198 H   0  0  0  0  0  0  0  0  0  0  0  0
  144.1005  136.1462  163.6625 H   0  0  0  0  0  0  0  0  0  0  0  0
  143.2096  135.8214  162.1689 H   0  0  0  0  0  0  0  0  0  0  0  0
  144.2037  133.7159  163.5092 H   0  0  0  0  0  0  0  0  0  0  0  0
  144.5274  133.7879  161.7709 H   0  0  0  0  0  0  0  0  0  0  0  0
  149.6998  139.4543  157.7867 H   0  0  0  0  0  0  0  0  0  0  0  0
  149.8660  139.2755  159.5231 H   0  0  0  0  0  0  0  0  0  0  0  0
  151.6707  140.8568  157.6384 H   0  0  0  0  0  0  0  0  0  0  0  0
  150.6296  141.4669  158.9009 H   0  0  0  0  0  0  0  0  0  0  0  0
  152.4287  143.0871  157.5338 H   0  0  0  0  0  0  0  0  0  0  0  0
  151.5585  145.5000  157.6830 H   0  0  0  0  0  0  0  0  0  0  0  0
  151.2957  146.3163  160.1964 H   0  0  0  0  0  0  0  0  0  0  0  0
  154.1312  139.2851  159.7020 H   0  0  0  0  0  0  0  0  0  0  0  0
  152.7243  138.7416  160.6038 H   0  0  0  0  0  0  0  0  0  0  0  0
  153.1896  137.3368  158.6305 H   0  0  0  0  0  0  0  0  0  0  0  0
  153.0291  138.6999  157.5546 H   0  0  0  0  0  0  0  0  0  0  0  0
  1  2  2  0  0  0  0
  2  3  1  0  0  0  0
  2 18  1  0  0  0  0
  3  4  1  0  0  0  0
  3 31  1  0  0  0  0
  3 32  1  0  0  0  0
  4 16  1  0  0  0  0
  4  5  1  0  0  0  0
  5  6  2  0  0  0  0
  5  7  1  0  0  0  0
  7  8  1  0  0  0  0
  7  9  2  0  0  0  0
  9 10  1  0  0  0  0
  9 33  1  0  0  0  0
 10 11  1  0  0  0  0
 10 16  1  0  0  0  0
 11 15  1  0  0  0  0
 11 12  1  0  0  0  0
 11 34  1  0  0  0  0
 12 13  1  0  0  0  0
 12 35  1  0  0  0  0
 12 36  1  0  0  0  0
 13 14  1  0  0  0  0
 13 37  1  0  0  0  0
 13 38  1  0  0  0  0
 14 15  1  0  0  0  0
 14 39  1  0  0  0  0
 14 40  1  0  0  0  0
 16 17  2  0  0  0  0
 18 30  1  0  0  0  0
 18 19  1  0  0  0  0
 19 20  1  0  0  0  0
 19 41  1  0  0  0  0
 19 42  1  0  0  0  0
 20 21  1  0  0  0  0
 20 43  1  0  0  0  0
 20 44  1  0  0  0  0
 21 22  1  0  0  0  0
 21 29  1  0  0  0  0
 22 23  2  0  0  0  0
 22 24  1  0  0  0  0
 24 28  1  0  0  0  0
 24 25  2  0  0  0  0
 25 26  1  0  0  0  0
 25 45  1  0  0  0  0
 26 27  2  0  0  0  0
 26 46  1  0  0  0  0
 27 28  1  0  0  0  0
 27 47  1  0  0  0  0
 29 30  1  0  0  0  0
 29 48  1  0  0  0  0
 29 49  1  0  0  0  0
 30 50  1  0  0  0  0
 30 51  1  0  0  0  0
M  END
> <s_m_source_file>
AV-unprocessed.smi

> <i_m_source_file_index>
106

> <i_lp_mmshare_version>
43012

> <i_f3d_flags>
0

> <s_epik_input>
czFbY0hdW2NIXVtjSF1jMUMoPU8pTihbQ0gyXVtDSDJdMilbQ0gyXVtDSDJdTjJDKD1PKVtDSDJdbjNjKD1PKWMoRilbY0hdbihjMz1PKVtDQEBIXTRbQ0gyXVtDSDJdW0NIMl1PNA==

> <s_epik_cmdline>
J2VwaWtfcHl0aG9uJywgJy1waCcsICc3LjAnLCAnLXRuJywgJzgnLCAnLW1hJywgJzIwMCcsICctbWV0YWxfYmluZGluZycsICctaW1hZScsICc8aW5maWxlLm1hZT4nLCAnLW9tYWUnLCAnPG91dGZpbGUubWFlPic=

> <r_lp_tautomer_probability>
1

> <r_epik_Ionization_Penalty>
4.82844e-09

> <r_epik_Ionization_Penalty_Charging>
4.20153e-09

> <r_epik_Ionization_Penalty_Neutral>
6.26919e-10

> <r_epik_State_Penalty>
-0

> <r_epik_Charging_Adjusted_Penalty>
4.20153e-09

> <i_epik_Tot_Q>
0

> <i_epik_Tot_abs_Q>
0

> <r_epik_Metal_State_Penalty>
-0

> <b_epik_Metal_Only>
0

> <s_epik_Chemistry_Notes>
This compound contains an acetal/aminal-like group ( X-CH(R)-Y where X, Y are N, S, or O) that may be acid/base labile, releasing an aldehyde.

> <s_lp_Force_Field>
OPLS_2005

> <r_lp_Energy>
72.1787

> <b_lp_Chiralities_Consistent>
1

> <s_lp_Variant>
AV-unprocessed.smi:106-2

> <Gold.Version>
5.8.1

> <Gold.Id.Protein>
6NUR|6NUR_protein|mol2

> <Gold.PLP.Fitness>
62.8831

> <Gold.PLP.PLP>
-59.7862

> <Gold.PLP.part.hbond>
-4.1471

> <Gold.PLP.part.metal>
0.0000

> <Gold.PLP.part.buried>
-7.9823

> <Gold.PLP.part.nonpolar>
-47.9527

> <Gold.PLP.part.repulsive>
0.0057

> <Gold.PLP.ligand.clash>
0.0000

> <Gold.PLP.ligand.torsion>
1.0599

> <Gold.PLP.Chemscore.Hbond>
1.5282

> <Gold.PLP.Chemscore.CHOScore>
0.0000

> <Gold.PLP.Chemscore.Metal>
0.0000

> <Gold.Chemscore.Hbonds>
donor molecule, donor type, donor heavy atom, donor atom, acceptor molecule, acceptor atom, score
      P1  H  6896  6908       L1     1  0.04
      P1  H  6931  6943       L1    17  0.48
      P1  H  6934  6947       L1    17  0.90

> <Gold.PLP.Chemscore.Internal.Correction>
0.6321

> <Gold.Rescore>
     Score         DG    S(hbond)    S(metal)    S(lipo)     H(rot)  DE(clash)    DE(int)     intcor
     17.57     -19.60       1.52        0.00     112.88       1.63       0.33       1.70       ----

> <Gold.Chemscore.Fitness>
17.5668

> <Gold.Chemscore.DG>
-19.5989

> <Gold.Chemscore.ZeroCoef>
-5.4800

> <Gold.Chemscore.Hbond>
1.5187

> <Gold.Chemscore.Metal>
0.0000

> <Gold.Chemscore.Lipo>
112.8804

> <Gold.Chemscore.Internal_Hbond>
0.0000

> <Gold.Chemscore.DEClash>
0.3319

> <Gold.Chemscore.DEInternal>
1.7002

> <Gold.Chemscore.Rot>
1.6252

> <Gold.Chemscore.Internal.Correction>
   9.000000E+99

> <Gold.Chemscore.Hbonds>
donor molecule, donor type, donor heavy atom, donor atom, acceptor molecule, acceptor atom, score
      P1  H  6896  6908       L1     1  0.04
      P1  H  6931  6943       L1    17  0.47
      P1  H  6934  6947       L1    17  0.88

> <Gold.Chemscore.Hbond.Weighted>
-5.0724

> <Gold.Chemscore.Metal.Weighted>
-0.0000

> <Gold.Chemscore.Lipo.Weighted>
-13.2070

> <Gold.Chemscore.Internal_Hbond.Weighted>
0.0000

> <Gold.Chemscore.DEClash.Weighted>
0.3319

> <Gold.Chemscore.DEInternal.Weighted>
1.7002

> <Gold.Chemscore.Rot.Weighted>
4.1605

> <Gold.Chemscore.Internal.Correction.Weighted>
   9.000000E+99

> <Gold.Protein.RotatedTorsions>
[ 6907 6896 6895 6894 ] final -105.31 input  -60.11 | X-H torsion
[ 7974 7965 7964 7962 ] final -135.03 input  175.53 | X-H torsion
[ 8008 7997 7996 7995 ] final  -53.29 input   59.86 | X-H torsion
[ 10167 10162 10161 10158 ] final  -32.25 input  -65.29 | X-H torsion
[ 10718 10713 10712 10709 ] final   66.13 input   66.30 | X-H torsion
[ 10763 10752 10751 10750 ] final  118.74 input  -60.55 | X-H torsion
[ 11005 11000 10999 10996 ] final   49.64 input  -57.11 | X-H torsion

> <Gold.Protein.ActiveResidues>
 VAL166  LYS551  ARG553  GLY616  TRP617  ASP618  TYR619  PRO620  LYS621  CYS622 
 ASP623  PHE694  ASN695  SER759  ASP760  ASP761  ALA762  ILE779  LEU786  VAL792 
 PHE793  MET794  SER795  GLU796  ALA797  LYS798  CYS799  TRP800  GLU811  SER814 

> <Gold.Protein.RotatedAtoms>
  150.7331  134.0145  159.3680 H   0  0  0  0  0  0  0  0  0  0  0  0  # atno 6907 bound_to 6896
  151.8107  135.0679  160.0422 H   0  0  0  0  0  0  0  0  0  0  0  0  # atno 6908 bound_to 6896
  152.3075  133.5682  159.5695 H   0  0  0  0  0  0  0  0  0  0  0  0  # atno 6909 bound_to 6896
  144.9050  140.6821  143.5061 H   0  0  0  0  0  0  0  0  0  0  0  0  # atno 7974 bound_to 7965
  154.4129  140.1203  156.5130 H   0  0  0  0  0  0  0  0  0  0  0  0  # atno 8008 bound_to 7997
  155.6780  140.3496  155.4825 H   0  0  0  0  0  0  0  0  0  0  0  0  # atno 8009 bound_to 7997
  155.9576  140.1117  157.0913 H   0  0  0  0  0  0  0  0  0  0  0  0  # atno 8010 bound_to 7997
  140.7224  143.3709  151.1780 H   0  0  0  0  0  0  0  0  0  0  0  0  # atno 10167 bound_to 10162
  157.6149  130.9251  150.0068 H   0  0  0  0  0  0  0  0  0  0  0  0  # atno 10718 bound_to 10713
  153.5723  135.3500  155.2843 H   0  0  0  0  0  0  0  0  0  0  0  0  # atno 10763 bound_to 10752
  154.8680  135.4162  154.2711 H   0  0  0  0  0  0  0  0  0  0  0  0  # atno 10764 bound_to 10752
  153.3480  135.7053  153.6882 H   0  0  0  0  0  0  0  0  0  0  0  0  # atno 10765 bound_to 10752
  140.1086  134.4985  155.8698 H   0  0  0  0  0  0  0  0  0  0  0  0  # atno 11005 bound_to 11000
  145.3551  139.1696  143.4413 LP  0  0  0  0  0  0  0  0  0  0  0  0  # atno 17320 bound_to 7965
  146.3129  140.3607  142.8664 LP  0  0  0  0  0  0  0  0  0  0  0  0  # atno 17321 bound_to 7965
  139.7280  143.9118  152.3009 LP  0  0  0  0  0  0  0  0  0  0  0  0  # atno 17342 bound_to 10162
  139.8897  144.6972  150.8784 LP  0  0  0  0  0  0  0  0  0  0  0  0  # atno 17343 bound_to 10162
  156.1268  130.3644  149.9797 LP  0  0  0  0  0  0  0  0  0  0  0  0  # atno 17370 bound_to 10713
  156.7866  130.9241  151.3646 LP  0  0  0  0  0  0  0  0  0  0  0  0  # atno 17371 bound_to 10713
  141.2124  133.6719  156.6659 LP  0  0  0  0  0  0  0  0  0  0  0  0  # atno 17394 bound_to 11000
  140.3122  134.8076  157.4185 LP  0  0  0  0  0  0  0  0  0  0  0  0  # atno 17395 bound_to 11000

$$$$
