#       Name:                AV-unprocessed.smi:2548
#       Creating user name   scv26
#       Creation time:       Fri Mar 27 14:05:33 2020


#       File generated by GOLD software.
#

@<TRIPOS>MOLECULE
AV-unprocessed.smi:2548
    47    48     1
SMALL
NO_CHARGES


@<TRIPOS>ATOM
      1 ****        -4.6315   5.0437  -1.3233 C.3            1 S1                 0.0000
      2 ****        -4.1618   3.7480  -0.7307 C.2            1 S1                 0.0000
      3 ****        -3.7025   2.5830  -1.4122 C.2            1 S1                 0.0000
      4 ****        -3.3972   1.7038  -0.4109 C.2            1 S1                 0.0000
      5 ****        -2.8654   0.3047  -0.4502 C.3            1 S1                 0.0000
      6 ****        -1.3348   0.2562  -0.5266 C.2            1 S1                 0.0000
      7 ****        -0.6526   1.2334  -0.2141 O.2            1 S1                 0.0000
      8 ****        -0.8071  -0.9084  -0.9356 N.am           1 S1                 0.0000
      9 ****         0.6194  -1.1948  -1.0907 C.3            1 S1                 0.0000
     10 ****         1.2291  -2.0287   0.0779 C.3            1 S1                 0.0000
     11 ****         0.3986  -3.3240   0.2406 C.3            1 S1                 0.0000
     12 ****         2.6821  -2.4726  -0.2603 C.3            1 S1                 0.0000
     13 ****         3.7070  -1.3590  -0.5616 C.3            1 S1                 0.0000
     14 ****         4.4164  -0.7478   0.6585 C.3            1 S1                 0.0000
     15 ****         3.5429  -0.4291   1.8832 C.3            1 S1                 0.0000
     16 ****         2.0857  -0.0444   1.5829 C.3            1 S1                 0.0000
     17 ****         1.1668  -1.2716   1.4312 C.3            1 S1                 0.0000
     18 ****        -3.6805   2.3545   0.7690 N.pl3          1 S1                 0.0000
     19 ****        -4.1473   3.6033   0.5859 N.2            1 S1                 0.0000
     20 ****        -3.5566   1.9657   1.6930 H              1 S1                 0.0000
     21 ****        -4.6168   5.0066  -2.4128 H              1 S1                 0.0000
     22 ****        -3.9947   5.8719  -1.0112 H              1 S1                 0.0000
     23 ****        -5.6519   5.2705  -1.0131 H              1 S1                 0.0000
     24 ****        -3.6079   2.4196  -2.4756 H              1 S1                 0.0000
     25 ****        -3.2846  -0.2182  -1.3108 H              1 S1                 0.0000
     26 ****        -3.1877  -0.2437   0.4356 H              1 S1                 0.0000
     27 ****        -1.4438  -1.6580  -1.1640 H              1 S1                 0.0000
     28 ****         0.7316  -1.7466  -2.0246 H              1 S1                 0.0000
     29 ****         1.1554  -0.2593  -1.2422 H              1 S1                 0.0000
     30 ****         0.8364  -3.9861   0.9888 H              1 S1                 0.0000
     31 ****         0.3441  -3.8832  -0.6940 H              1 S1                 0.0000
     32 ****        -0.6241  -3.1189   0.5588 H              1 S1                 0.0000
     33 ****         3.0747  -3.1124   0.5314 H              1 S1                 0.0000
     34 ****         2.6363  -3.1113  -1.1435 H              1 S1                 0.0000
     35 ****         4.4828  -1.7795  -1.2022 H              1 S1                 0.0000
     36 ****         3.2668  -0.5660  -1.1614 H              1 S1                 0.0000
     37 ****         5.2196  -1.4131   0.9774 H              1 S1                 0.0000
     38 ****         4.9125   0.1668   0.3316 H              1 S1                 0.0000
     39 ****         3.5577  -1.2779   2.5678 H              1 S1                 0.0000
     40 ****         4.0186   0.3847   2.4319 H              1 S1                 0.0000
     41 ****         1.7179   0.5307   2.4333 H              1 S1                 0.0000
     42 ****         2.0186   0.6280   0.7278 H              1 S1                 0.0000
     43 ****         0.1414  -0.9551   1.6192 H              1 S1                 0.0000
     44 ****         1.3850  -1.9660   2.2438 H              1 S1                 0.0000
     45 ****        -1.0962   2.0746   0.0951 LP             1 S1                 0.0000
     46 ****         0.3447   1.1853  -0.2696 LP             1 S1                 0.0000
     47 ****        -4.4198   4.2676   1.2820 LP             1 S1                 0.0000
@<TRIPOS>BOND
    1    1   21 1     
    2    1   22 1     
    3    1   23 1     
    4    1    2 1     
    5    2   19 2     
    6    2    3 1     
    7    3    4 2     
    8    3   24 1     
    9    4   18 1     
   10    4    5 1     
   11    5    6 1     
   12    5   25 1     
   13    5   26 1     
   14    6    7 2     
   15    6    8 am    
   16    8    9 1     
   17    8   27 1     
   18    9   10 1     
   19    9   28 1     
   20    9   29 1     
   21   10   17 1     
   22   10   11 1     
   23   10   12 1     
   24   11   30 1     
   25   11   31 1     
   26   11   32 1     
   27   12   13 1     
   28   12   33 1     
   29   12   34 1     
   30   13   14 1     
   31   13   35 1     
   32   13   36 1     
   33   14   15 1     
   34   14   37 1     
   35   14   38 1     
   36   15   16 1     
   37   15   39 1     
   38   15   40 1     
   39   16   17 1     
   40   16   41 1     
   41   16   42 1     
   42   17   43 1     
   43   17   44 1     
   44   18   19 1     
   45   18   20 1     
   46    7   45 1     
   47    7   46 1     
   48   19   47 1     
@<TRIPOS>SUBSTRUCTURE
      1 S1             1
@<TRIPOS>SET
LONE_PAIRS      STATIC     ATOMS    <user>   **** ""
3 45 46 47
DONOR_HYDROGENS      STATIC     ATOMS    <user>   **** ""
2 27 20
ATOM$BLUE        STATIC     ATOMS    COLORGROUP SYSTEM
3 45 46 47
ATOM$RED        STATIC     ATOMS    COLORGROUP SYSTEM
2 27 20
