#       Name:                AV-unprocessed.smi:3112
#       Creating user name   scv26
#       Creation time:       Fri Mar 27 17:22:47 2020


#       File generated by GOLD software.
#

@<TRIPOS>MOLECULE
AV-unprocessed.smi:3112
    40    40     1
SMALL
NO_CHARGES


@<TRIPOS>ATOM
      1 ****        -2.9832   1.1596   1.2003 C.3            1 S1                 0.0000
      2 ****        -3.3947   1.4047  -0.2579 C.3            1 S1                 0.0000
      3 ****        -2.2171   1.5592  -1.2443 C.3            1 S1                 0.0000
      4 ****        -2.7715   1.9534  -2.4825 O.3            1 S1                 0.0000
      5 ****        -1.4176   0.2657  -1.4950 C.3            1 S1                 0.0000
      6 ****        -0.4734  -0.0023  -0.4115 N.3            1 S1                 0.0000
      7 ****         0.2652  -1.2685  -0.4958 C.3            1 S1                 0.0000
      8 ****         1.1265  -1.3405  -1.7736 C.3            1 S1                 0.0000
      9 ****         1.1121  -1.5046   0.7844 C.3            1 S1                 0.0000
     10 ****         0.2711  -1.5224   2.0753 C.3            1 S1                 0.0000
     11 ****         2.2605  -0.6084   0.8953 N.pl3          1 S1                 0.0000
     12 ****         3.5917  -0.9060   0.6843 C.2            1 S1                 0.0000
     13 ****         4.3068   0.2393   0.8864 C.2            1 S1                 0.0000
     14 ****         3.3141   1.2024   1.2174 C.2            1 S1                 0.0000
     15 ****         2.0928   0.6944   1.2202 N.2            1 S1                 0.0000
     16 ****        -3.8520   1.2009   1.8574 H              1 S1                 0.0000
     17 ****        -2.2714   1.9114   1.5424 H              1 S1                 0.0000
     18 ****        -2.5285   0.1777   1.3292 H              1 S1                 0.0000
     19 ****        -4.0564   0.6024  -0.5871 H              1 S1                 0.0000
     20 ****        -3.9933   2.3164  -0.2833 H              1 S1                 0.0000
     21 ****        -1.5521   2.3598  -0.9171 H              1 S1                 0.0000
     22 ****        -2.0660   2.1018  -3.0934 H              1 S1                 0.0000
     23 ****        -2.0977  -0.5762  -1.6300 H              1 S1                 0.0000
     24 ****        -0.8672   0.3748  -2.4299 H              1 S1                 0.0000
     25 ****         0.1786   0.7708  -0.3193 H              1 S1                 0.0000
     26 ****        -0.4598  -2.0818  -0.5489 H              1 S1                 0.0000
     27 ****         1.7446  -2.2385  -1.7759 H              1 S1                 0.0000
     28 ****         1.7925  -0.4811  -1.8610 H              1 S1                 0.0000
     29 ****         0.5129  -1.3794  -2.6733 H              1 S1                 0.0000
     30 ****         1.5274  -2.5094   0.6913 H              1 S1                 0.0000
     31 ****        -0.5381  -2.2495   2.0034 H              1 S1                 0.0000
     32 ****        -0.1766  -0.5506   2.2857 H              1 S1                 0.0000
     33 ****         0.8834  -1.7951   2.9353 H              1 S1                 0.0000
     34 ****         3.9166  -1.8988   0.4096 H              1 S1                 0.0000
     35 ****         5.3759   0.3695   0.8078 H              1 S1                 0.0000
     36 ****         3.4428   2.2485   1.4526 H              1 S1                 0.0000
     37 ****        -3.2975   2.7955  -2.3637 LP             1 S1                 0.0000
     38 ****        -3.3711   1.2318  -2.8285 LP             1 S1                 0.0000
     39 ****        -1.0472  -0.0968   0.4021 LP             1 S1                 0.0000
     40 ****         1.2350   1.1685   1.4187 LP             1 S1                 0.0000
@<TRIPOS>BOND
    1    1    2 1     
    2    1   16 1     
    3    1   17 1     
    4    1   18 1     
    5    2    3 1     
    6    2   19 1     
    7    2   20 1     
    8    3    4 1     
    9    3    5 1     
   10    3   21 1     
   11    4   22 1     
   12    5    6 1     
   13    5   23 1     
   14    5   24 1     
   15    6    7 1     
   16    6   25 1     
   17    7    8 1     
   18    7    9 1     
   19    7   26 1     
   20    8   27 1     
   21    8   28 1     
   22    8   29 1     
   23    9   10 1     
   24    9   11 1     
   25    9   30 1     
   26   10   31 1     
   27   10   32 1     
   28   10   33 1     
   29   11   15 1     
   30   11   12 1     
   31   12   13 2     
   32   12   34 1     
   33   13   14 1     
   34   13   35 1     
   35   14   15 2     
   36   14   36 1     
   37    4   37 1     
   38    4   38 1     
   39    6   39 1     
   40   15   40 1     
@<TRIPOS>SUBSTRUCTURE
      1 S1             1
@<TRIPOS>SET
LONE_PAIRS      STATIC     ATOMS    <user>   **** ""
4 37 38 39 40
DONOR_HYDROGENS      STATIC     ATOMS    <user>   **** ""
2 22 25
ATOM$BLUE        STATIC     ATOMS    COLORGROUP SYSTEM
4 37 38 39 40
ATOM$RED        STATIC     ATOMS    COLORGROUP SYSTEM
2 22 25
