AV-unprocessed.smi:1149|AV-procd|sdf|4890|dock10
  -GOLD-   22720 3463D 1   1.00000     0.00000
 Structure written by MMmdl.
 51 52  0  0  0  0  0  0  0  0  2 V2000
  150.6092  142.1872  157.4793 C   0  0  0  0  0  0  0  0  0  0  0  0
  150.9288  141.7080  156.1777 O   0  0  0  0  0  0  0  0  0  0  0  0
  150.3658  140.5196  155.7603 C   0  0  0  0  0  0  0  0  0  0  0  0
  149.7036  139.7173  156.7107 C   0  0  0  0  0  0  0  0  0  0  0  0
  149.1320  138.4997  156.2953 C   0  0  0  0  0  0  0  0  0  0  0  0
  149.2484  138.1177  154.9377 C   0  0  0  0  0  0  0  0  0  0  0  0
  148.7031  136.9232  154.3945 N   0  0  0  0  0  0  0  0  0  0  0  0
  147.9123  136.0188  154.9973 C   0  0  0  0  0  0  0  0  0  0  0  0
  147.5297  136.0754  156.1655 O   0  0  0  0  0  0  0  0  0  0  0  0
  147.5949  135.0202  154.1610 N   0  0  0  0  0  0  0  0  0  0  0  0
  146.7575  133.8653  154.4883 C   0  0  0  0  0  0  0  0  0  0  0  0
  146.6077  132.8553  153.3106 C   0  0  0  0  0  0  0  0  0  0  0  0
  147.9346  132.8273  152.5150 C   0  0  0  0  0  0  0  0  0  0  0  0
  146.3705  131.4488  153.9177 C   0  0  0  0  0  0  0  0  0  0  0  0
  145.4539  133.2282  152.4476 N   0  0  0  0  0  0  0  0  0  0  0  0
  144.8179  132.1018  151.7436 C   0  0  0  0  0  0  0  0  0  0  0  0
  143.4936  132.5510  151.0940 C   0  0  0  0  0  0  0  0  0  0  0  0
  143.7060  133.6595  150.1361 N   0  3  0  0  0  0  0  0  0  0  0  0
  144.2846  133.2321  148.8411 C   0  0  0  0  0  0  0  0  0  0  0  0
  144.4444  134.7645  150.7889 C   0  0  0  0  0  0  0  0  0  0  0  0
  145.7478  134.2641  151.4431 C   0  0  0  0  0  0  0  0  0  0  0  0
  149.9148  139.0001  154.0626 C   0  0  0  0  0  0  0  0  0  0  0  0
  150.4660  140.1682  154.4543 N   0  0  0  0  0  0  0  0  0  0  0  0
  151.1188  143.1355  157.6496 H   0  0  0  0  0  0  0  0  0  0  0  0
  150.9391  141.4911  158.2520 H   0  0  0  0  0  0  0  0  0  0  0  0
  149.5382  142.3636  157.5887 H   0  0  0  0  0  0  0  0  0  0  0  0
  149.6321  140.0315  157.7415 H   0  0  0  0  0  0  0  0  0  0  0  0
  148.6087  137.8948  157.0192 H   0  0  0  0  0  0  0  0  0  0  0  0
  149.0027  136.6985  153.4570 H   0  0  0  0  0  0  0  0  0  0  0  0
  147.9563  135.0613  153.2196 H   0  0  0  0  0  0  0  0  0  0  0  0
  147.1783  133.3861  155.3714 H   0  0  0  0  0  0  0  0  0  0  0  0
  145.7708  134.1973  154.8164 H   0  0  0  0  0  0  0  0  0  0  0  0
  148.7630  132.5357  153.1619 H   0  0  0  0  0  0  0  0  0  0  0  0
  148.1910  133.8024  152.1010 H   0  0  0  0  0  0  0  0  0  0  0  0
  147.9129  132.1105  151.6945 H   0  0  0  0  0  0  0  0  0  0  0  0
  147.0803  131.2431  154.7197 H   0  0  0  0  0  0  0  0  0  0  0  0
  146.5063  130.6500  153.1890 H   0  0  0  0  0  0  0  0  0  0  0  0
  145.3693  131.3503  154.3387 H   0  0  0  0  0  0  0  0  0  0  0  0
  145.4894  131.6852  150.9927 H   0  0  0  0  0  0  0  0  0  0  0  0
  144.5743  131.2941  152.4304 H   0  0  0  0  0  0  0  0  0  0  0  0
  143.0098  131.7125  150.5918 H   0  0  0  0  0  0  0  0  0  0  0  0
  142.8018  132.8855  151.8686 H   0  0  0  0  0  0  0  0  0  0  0  0
  145.2869  132.8200  148.9575 H   0  0  0  0  0  0  0  0  0  0  0  0
  144.3432  134.0758  148.1530 H   0  0  0  0  0  0  0  0  0  0  0  0
  143.6574  132.4708  148.3762 H   0  0  0  0  0  0  0  0  0  0  0  0
  144.6575  135.5503  150.0633 H   0  0  0  0  0  0  0  0  0  0  0  0
  143.8032  135.2139  151.5488 H   0  0  0  0  0  0  0  0  0  0  0  0
  146.2287  135.1279  151.8963 H   0  0  0  0  0  0  0  0  0  0  0  0
  146.4327  133.8849  150.6846 H   0  0  0  0  0  0  0  0  0  0  0  0
  150.0149  138.7601  153.0140 H   0  0  0  0  0  0  0  0  0  0  0  0
  142.7900  134.0215  149.9126 H   0  0  0  0  0  0  0  0  0  0  0  0
  1  2  1  0  0  0  0
  1 24  1  0  0  0  0
  1 25  1  0  0  0  0
  1 26  1  0  0  0  0
  2  3  1  0  0  0  0
  3 23  1  0  0  0  0
  3  4  2  0  0  0  0
  4  5  1  0  0  0  0
  4 27  1  0  0  0  0
  5  6  2  0  0  0  0
  5 28  1  0  0  0  0
  6  7  1  0  0  0  0
  6 22  1  0  0  0  0
  7  8  1  0  0  0  0
  7 29  1  0  0  0  0
  8  9  2  0  0  0  0
  8 10  1  0  0  0  0
 10 11  1  0  0  0  0
 10 30  1  0  0  0  0
 11 12  1  0  0  0  0
 11 31  1  0  0  0  0
 11 32  1  0  0  0  0
 12 13  1  0  0  0  0
 12 14  1  0  0  0  0
 12 15  1  0  0  0  0
 13 33  1  0  0  0  0
 13 34  1  0  0  0  0
 13 35  1  0  0  0  0
 14 36  1  0  0  0  0
 14 37  1  0  0  0  0
 14 38  1  0  0  0  0
 15 21  1  0  0  0  0
 15 16  1  0  0  0  0
 16 17  1  0  0  0  0
 16 39  1  0  0  0  0
 16 40  1  0  0  0  0
 17 18  1  0  0  0  0
 17 41  1  0  0  0  0
 17 42  1  0  0  0  0
 18 19  1  0  0  0  0
 18 20  1  0  0  0  0
 18 51  1  0  0  0  0
 19 43  1  0  0  0  0
 19 44  1  0  0  0  0
 19 45  1  0  0  0  0
 20 21  1  0  0  0  0
 20 46  1  0  0  0  0
 20 47  1  0  0  0  0
 21 48  1  0  0  0  0
 21 49  1  0  0  0  0
 22 23  2  0  0  0  0
 22 50  1  0  0  0  0
M  CHG  1  18   1
M  END
> <s_m_source_file>
AV-unprocessed.smi

> <i_m_source_file_index>
1149

> <i_lp_mmshare_version>
43012

> <i_f3d_flags>
0

> <s_epik_input>
W0NIM11PYzFbY0hdW2NIXWMoW2NIXW4xKVtOSF1DKD1PKVtOSF1bQ0gyXUMoW0NIM10pKFtDSDNdKU4yW0NIMl1bQ0gyXU4oW0NIM10pW0NIMl1bQ0gyXTI=

> <s_epik_cmdline>
J2VwaWtfcHl0aG9uJywgJy1waCcsICc3LjAnLCAnLXRuJywgJzgnLCAnLW1hJywgJzIwMCcsICctbWV0YWxfYmluZGluZycsICctaW1hZScsICc8aW5maWxlLm1hZT4nLCAnLW9tYWUnLCAnPG91dGZpbGUubWFlPic=

> <r_lp_tautomer_probability>
1

> <r_epik_Ionization_Penalty>
0.0248754

> <r_epik_Ionization_Penalty_Charging>
0.0238192

> <r_epik_Ionization_Penalty_Neutral>
0.00105627

> <r_epik_State_Penalty>
0.139266

> <r_epik_Charging_Adjusted_Penalty>
0.163085

> <i_epik_Tot_Q>
1

> <i_epik_Tot_abs_Q>
1

> <r_epik_Metal_State_Penalty>
0.139265

> <b_epik_Metal_Only>
0

> <s_lp_Force_Field>
OPLS_2005

> <r_lp_Energy>
29.3026

> <b_lp_Chiralities_Consistent>
1

> <s_lp_Variant>
AV-unprocessed.smi:1149-1

> <Gold.Version>
5.8.1

> <Gold.Id.Protein>
6NUR|6NUR_protein|mol2

> <Gold.PLP.Fitness>
45.4604

> <Gold.PLP.PLP>
-30.7509

> <Gold.PLP.part.hbond>
-4.0000

> <Gold.PLP.part.metal>
0.0000

> <Gold.PLP.part.buried>
-1.7871

> <Gold.PLP.part.nonpolar>
-25.1150

> <Gold.PLP.part.repulsive>
0.3018

> <Gold.PLP.ligand.clash>
0.3403

> <Gold.PLP.ligand.torsion>
1.4280

> <Gold.PLP.Chemscore.Hbond>
4.9040

> <Gold.PLP.Chemscore.CHOScore>
1.0499

> <Gold.PLP.Chemscore.Metal>
0.0000

> <Gold.Chemscore.Hbonds>
donor molecule, donor type, donor heavy atom, donor atom, acceptor molecule, acceptor atom, score
      L1  H     7    29       P1  7948  1.00
      L1  H    10    30       P1  7948  0.91
      L1  H    18    51       P1 10186  2.00
      P1  H  7989  7998       L1    23  1.00
      L1  C    22    50       P1  7948  0.01
      L1  C    22    50       P1  7957  1.00

> <Gold.PLP.Chemscore.Internal.Correction>
0.0439

> <Gold.Rescore>
     Score         DG    S(hbond)    S(metal)    S(lipo)     H(rot)  DE(clash)    DE(int)     intcor
     19.37     -22.30       3.71        0.00      75.40       1.72       0.10       2.84       ----

> <Gold.Chemscore.Fitness>
19.3659

> <Gold.Chemscore.DG>
-22.3005

> <Gold.Chemscore.ZeroCoef>
-5.4800

> <Gold.Chemscore.Hbond>
3.7143

> <Gold.Chemscore.Metal>
0.0000

> <Gold.Chemscore.Lipo>
75.3967

> <Gold.Chemscore.Internal_Hbond>
0.0000

> <Gold.Chemscore.DEClash>
0.0965

> <Gold.Chemscore.DEInternal>
2.8381

> <Gold.Chemscore.Rot>
1.7213

> <Gold.Chemscore.Internal.Correction>
   9.000000E+99

> <Gold.Chemscore.Hbonds>
donor molecule, donor type, donor heavy atom, donor atom, acceptor molecule, acceptor atom, score
      L1  H     7    29       P1  7948  0.99
      L1  H    10    30       P1  7948  0.83
      L1  H    18    51       P1 10186  1.00
      P1  H  7989  7998       L1    23  0.94

> <Gold.Chemscore.Hbond.Weighted>
-12.4056

> <Gold.Chemscore.Metal.Weighted>
-0.0000

> <Gold.Chemscore.Lipo.Weighted>
-8.8214

> <Gold.Chemscore.Internal_Hbond.Weighted>
0.0000

> <Gold.Chemscore.DEClash.Weighted>
0.0965

> <Gold.Chemscore.DEInternal.Weighted>
2.8381

> <Gold.Chemscore.Rot.Weighted>
4.4066

> <Gold.Chemscore.Internal.Correction.Weighted>
   9.000000E+99

> <Gold.Protein.RotatedTorsions>
[ 6907 6896 6895 6894 ] final -176.57 input  -60.11 | X-H torsion
[ 7974 7965 7964 7962 ] final  -18.11 input  175.53 | X-H torsion
[ 8008 7997 7996 7995 ] final  -32.46 input   59.86 | X-H torsion
[ 10167 10162 10161 10158 ] final   89.26 input  -65.29 | X-H torsion
[ 10718 10713 10712 10709 ] final   49.41 input   66.30 | X-H torsion
[ 10763 10752 10751 10750 ] final -142.49 input  -60.55 | X-H torsion
[ 11005 11000 10999 10996 ] final  -92.51 input  -57.11 | X-H torsion

> <Gold.Protein.ActiveResidues>
 VAL166  LYS551  ARG553  GLY616  TRP617  ASP618  TYR619  PRO620  LYS621  CYS622 
 ASP623  PHE694  ASN695  SER759  ASP760  ASP761  ALA762  ILE779  LEU786  VAL792 
 PHE793  MET794  SER795  GLU796  ALA797  LYS798  CYS799  TRP800  GLU811  SER814 

> <Gold.Protein.RotatedAtoms>
  151.6068  133.3351  159.3058 H   0  0  0  0  0  0  0  0  0  0  0  0  # atno 6907 bound_to 6896
  150.8178  134.7372  159.6756 H   0  0  0  0  0  0  0  0  0  0  0  0  # atno 6908 bound_to 6896
  152.4273  134.5850  160.0010 H   0  0  0  0  0  0  0  0  0  0  0  0  # atno 6909 bound_to 6896
  146.1908  140.3875  142.8459 H   0  0  0  0  0  0  0  0  0  0  0  0  # atno 7974 bound_to 7965
  154.4179  140.1737  156.1730 H   0  0  0  0  0  0  0  0  0  0  0  0  # atno 8008 bound_to 7997
  155.9745  140.3383  155.6582 H   0  0  0  0  0  0  0  0  0  0  0  0  # atno 8009 bound_to 7997
  155.6582  140.0698  157.2554 H   0  0  0  0  0  0  0  0  0  0  0  0  # atno 8010 bound_to 7997
  139.8591  144.6553  150.9080 H   0  0  0  0  0  0  0  0  0  0  0  0  # atno 10167 bound_to 10162
  157.4784  130.8299  149.8065 H   0  0  0  0  0  0  0  0  0  0  0  0  # atno 10718 bound_to 10713
  154.8507  135.3494  154.6036 H   0  0  0  0  0  0  0  0  0  0  0  0  # atno 10763 bound_to 10752
  153.6644  135.6988  153.5171 H   0  0  0  0  0  0  0  0  0  0  0  0  # atno 10764 bound_to 10752
  153.2792  135.4269  155.1019 H   0  0  0  0  0  0  0  0  0  0  0  0  # atno 10765 bound_to 10752
  141.1520  133.7825  157.0029 H   0  0  0  0  0  0  0  0  0  0  0  0  # atno 11005 bound_to 11000
  144.8483  140.6963  143.6184 LP  0  0  0  0  0  0  0  0  0  0  0  0  # atno 17320 bound_to 7965
  145.3798  139.1639  143.4287 LP  0  0  0  0  0  0  0  0  0  0  0  0  # atno 17321 bound_to 7965
  140.7777  143.3760  151.1562 LP  0  0  0  0  0  0  0  0  0  0  0  0  # atno 17342 bound_to 10162
  139.7391  143.8952  152.3044 LP  0  0  0  0  0  0  0  0  0  0  0  0  # atno 17343 bound_to 10162
  156.0108  130.3834  150.2270 LP  0  0  0  0  0  0  0  0  0  0  0  0  # atno 17370 bound_to 10713
  157.0455  131.0047  151.3270 LP  0  0  0  0  0  0  0  0  0  0  0  0  # atno 17371 bound_to 10713
  140.0928  134.9582  157.1802 LP  0  0  0  0  0  0  0  0  0  0  0  0  # atno 17394 bound_to 11000
  140.3423  134.2690  155.7210 LP  0  0  0  0  0  0  0  0  0  0  0  0  # atno 17395 bound_to 11000

$$$$
