AV-unprocessed.smi:2533|AV-procd|sdf|9972|dock7
  -GOLD-   2272014 23D 1   1.00000     0.00000
 Structure written by MMmdl.
 35 36  0  0  0  0  0  0  0  0  1 V2000
  139.2492  136.4025  154.1411 C   0  0  0  0  0  0  0  0  0  0  0  0
  140.2144  135.3676  154.0225 O   0  0  0  0  0  0  0  0  0  0  0  0
  141.4691  135.6997  153.5567 C   0  0  0  0  0  0  0  0  0  0  0  0
  142.0793  136.9643  153.7517 C   0  0  0  0  0  0  0  0  0  0  0  0
  143.3640  137.2243  153.2376 C   0  0  0  0  0  0  0  0  0  0  0  0
  144.0609  136.2290  152.5216 C   0  0  0  0  0  0  0  0  0  0  0  0
  145.4350  136.5163  151.9323 C   0  0  2  0  0  0  0  0  0  0  0  0
  145.5403  137.8345  151.4345 O   0  0  0  0  0  0  0  0  0  0  0  0
  145.8263  135.5338  150.8050 C   0  0  0  0  0  0  0  0  0  0  0  0
  145.9933  134.1561  151.2899 N   0  0  0  0  0  0  0  0  0  0  0  0
  146.9190  134.0370  152.3124 N   0  0  0  0  0  0  0  0  0  0  0  0
  147.1678  132.8948  152.8673 C   0  0  0  0  0  0  0  0  0  0  0  0
  148.1858  132.8706  153.9805 C   0  0  0  0  0  0  0  0  0  0  0  0
  149.2347  132.1141  153.6562 F   0  0  0  0  0  0  0  0  0  0  0  0
  148.6173  134.1066  154.2339 F   0  0  0  0  0  0  0  0  0  0  0  0
  147.6366  132.3788  155.0913 F   0  0  0  0  0  0  0  0  0  0  0  0
  146.4636  131.7138  152.3976 C   0  0  0  0  0  0  0  0  0  0  0  0
  145.5606  131.8314  151.4010 C   0  0  0  0  0  0  0  0  0  0  0  0
  145.2672  133.1187  150.7767 C   0  0  0  0  0  0  0  0  0  0  0  0
  144.4357  133.2554  149.8799 O   0  0  0  0  0  0  0  0  0  0  0  0
  143.4587  134.9693  152.3281 C   0  0  0  0  0  0  0  0  0  0  0  0
  142.1740  134.7089  152.8413 C   0  0  0  0  0  0  0  0  0  0  0  0
  141.6109  133.4935  152.6397 F   0  0  0  0  0  0  0  0  0  0  0  0
  138.3139  135.9824  154.5111 H   0  0  0  0  0  0  0  0  0  0  0  0
  139.0418  136.8671  153.1761 H   0  0  0  0  0  0  0  0  0  0  0  0
  139.5699  137.1673  154.8495 H   0  0  0  0  0  0  0  0  0  0  0  0
  141.5802  137.7558  154.2897 H   0  0  0  0  0  0  0  0  0  0  0  0
  143.8091  138.1975  153.3852 H   0  0  0  0  0  0  0  0  0  0  0  0
  146.1708  136.4344  152.7334 H   0  0  0  0  0  0  0  0  0  0  0  0
  144.7679  138.0241  150.9242 H   0  0  0  0  0  0  0  0  0  0  0  0
  145.0882  135.5828  150.0027 H   0  0  0  0  0  0  0  0  0  0  0  0
  146.7620  135.8592  150.3467 H   0  0  0  0  0  0  0  0  0  0  0  0
  146.6628  130.7510  152.8444 H   0  0  0  0  0  0  0  0  0  0  0  0
  145.0389  130.9509  151.0555 H   0  0  0  0  0  0  0  0  0  0  0  0
  143.9757  134.1995  151.7740 H   0  0  0  0  0  0  0  0  0  0  0  0
  1  2  1  0  0  0  0
  1 24  1  0  0  0  0
  1 25  1  0  0  0  0
  1 26  1  0  0  0  0
  2  3  1  0  0  0  0
  3 22  1  0  0  0  0
  3  4  2  0  0  0  0
  4  5  1  0  0  0  0
  4 27  1  0  0  0  0
  5  6  2  0  0  0  0
  5 28  1  0  0  0  0
  6  7  1  0  0  0  0
  6 21  1  0  0  0  0
  7  8  1  0  0  0  0
  7  9  1  0  0  0  0
  7 29  1  0  0  0  0
  8 30  1  0  0  0  0
  9 10  1  0  0  0  0
  9 31  1  0  0  0  0
  9 32  1  0  0  0  0
 10 19  1  0  0  0  0
 10 11  1  0  0  0  0
 11 12  2  0  0  0  0
 12 13  1  0  0  0  0
 12 17  1  0  0  0  0
 13 14  1  0  0  0  0
 13 15  1  0  0  0  0
 13 16  1  0  0  0  0
 17 18  2  0  0  0  0
 17 33  1  0  0  0  0
 18 19  1  0  0  0  0
 18 34  1  0  0  0  0
 19 20  2  0  0  0  0
 21 22  2  0  0  0  0
 21 35  1  0  0  0  0
 22 23  1  0  0  0  0
M  END
> <s_m_source_file>
AV-unprocessed.smi

> <i_m_source_file_index>
2533

> <i_lp_mmshare_version>
43012

> <i_f3d_flags>
0

> <s_epik_input>
W0NIM11PYzFbY0hdW2NIXWMoW2NIXWMxRilbQ0BIXShbT0hdKVtDSDJdbjJuYyhDKEYpKEYpRilbY0hdW2NIXWMyPU8=

> <s_epik_cmdline>
J2VwaWtfcHl0aG9uJywgJy1waCcsICc3LjAnLCAnLXRuJywgJzgnLCAnLW1hJywgJzIwMCcsICctbWV0YWxfYmluZGluZycsICctaW1hZScsICc8aW5maWxlLm1hZT4nLCAnLW9tYWUnLCAnPG91dGZpbGUubWFlPic=

> <r_lp_tautomer_probability>
1

> <r_epik_Ionization_Penalty>
5.00966e-08

> <r_epik_Ionization_Penalty_Charging>
3.92872e-09

> <r_epik_Ionization_Penalty_Neutral>
4.61679e-08

> <r_epik_State_Penalty>
-0

> <r_epik_Charging_Adjusted_Penalty>
3.92872e-09

> <i_epik_Tot_Q>
0

> <i_epik_Tot_abs_Q>
0

> <r_epik_Metal_State_Penalty>
-0

> <b_epik_Metal_Only>
0

> <s_lp_Force_Field>
OPLS_2005

> <r_lp_Energy>
31.2936

> <b_lp_Chiralities_Consistent>
1

> <s_lp_Variant>
AV-unprocessed.smi:2533-1

> <Gold.Version>
5.8.1

> <Gold.Id.Protein>
6NUR|6NUR_protein|mol2

> <Gold.PLP.Fitness>
47.4699

> <Gold.PLP.PLP>
-43.4850

> <Gold.PLP.part.hbond>
-2.6071

> <Gold.PLP.part.metal>
0.0000

> <Gold.PLP.part.buried>
-6.8441

> <Gold.PLP.part.nonpolar>
-35.4450

> <Gold.PLP.part.repulsive>
0.4992

> <Gold.PLP.ligand.clash>
0.0000

> <Gold.PLP.ligand.torsion>
1.0252

> <Gold.PLP.Chemscore.Hbond>
2.0000

> <Gold.PLP.Chemscore.CHOScore>
0.0000

> <Gold.PLP.Chemscore.Metal>
0.0000

> <Gold.Chemscore.Hbonds>
donor molecule, donor type, donor heavy atom, donor atom, acceptor molecule, acceptor atom, score
      L1  H     8    30       P1 10171  1.00
      P1  H 11000 11005       L1     2  0.79

> <Gold.PLP.Chemscore.Internal.Correction>
0.0352

> <Gold.Rescore>
     Score         DG    S(hbond)    S(metal)    S(lipo)     H(rot)  DE(clash)    DE(int)     intcor
      9.79     -12.08       1.80        0.00      59.67       2.50       0.06       2.23       ----

> <Gold.Chemscore.Fitness>
9.7908

> <Gold.Chemscore.DG>
-12.0770

> <Gold.Chemscore.ZeroCoef>
-5.4800

> <Gold.Chemscore.Hbond>
1.8036

> <Gold.Chemscore.Metal>
0.0000

> <Gold.Chemscore.Lipo>
59.6660

> <Gold.Chemscore.Internal_Hbond>
0.0000

> <Gold.Chemscore.DEClash>
0.0607

> <Gold.Chemscore.DEInternal>
2.2255

> <Gold.Chemscore.Rot>
2.5031

> <Gold.Chemscore.Internal.Correction>
   9.000000E+99

> <Gold.Chemscore.Hbonds>
donor molecule, donor type, donor heavy atom, donor atom, acceptor molecule, acceptor atom, score
      L1  H     8    30       P1 10171  0.93
      P1  H 11000 11005       L1     2  0.10

> <Gold.Chemscore.Hbond.Weighted>
-6.0240

> <Gold.Chemscore.Metal.Weighted>
-0.0000

> <Gold.Chemscore.Lipo.Weighted>
-6.9809

> <Gold.Chemscore.Internal_Hbond.Weighted>
0.0000

> <Gold.Chemscore.DEClash.Weighted>
0.0607

> <Gold.Chemscore.DEInternal.Weighted>
2.2255

> <Gold.Chemscore.Rot.Weighted>
6.4079

> <Gold.Chemscore.Internal.Correction.Weighted>
   9.000000E+99

> <Gold.Protein.RotatedTorsions>
[ 6907 6896 6895 6894 ] final -150.90 input  -60.11 | X-H torsion
[ 7974 7965 7964 7962 ] final   50.06 input  175.53 | X-H torsion
[ 8008 7997 7996 7995 ] final   99.52 input   59.86 | X-H torsion
[ 10167 10162 10161 10158 ] final   47.55 input  -65.29 | X-H torsion
[ 10718 10713 10712 10709 ] final   79.33 input   66.30 | X-H torsion
[ 10763 10752 10751 10750 ] final -129.23 input  -60.55 | X-H torsion
[ 11005 11000 10999 10996 ] final   63.11 input  -57.11 | X-H torsion

> <Gold.Protein.ActiveResidues>
 VAL166  LYS551  ARG553  GLY616  TRP617  ASP618  TYR619  PRO620  LYS621  CYS622 
 ASP623  PHE694  ASN695  SER759  ASP760  ASP761  ALA762  ILE779  LEU786  VAL792 
 PHE793  MET794  SER795  GLU796  ALA797  LYS798  CYS799  TRP800  GLU811  SER814 

> <Gold.Protein.RotatedAtoms>
  151.2052  133.4587  159.2596 H   0  0  0  0  0  0  0  0  0  0  0  0  # atno 6907 bound_to 6896
  151.1030  134.9983  159.8468 H   0  0  0  0  0  0  0  0  0  0  0  0  # atno 6908 bound_to 6896
  152.5445  134.1978  159.8753 H   0  0  0  0  0  0  0  0  0  0  0  0  # atno 6909 bound_to 6896
  146.0049  139.4479  142.9992 H   0  0  0  0  0  0  0  0  0  0  0  0  # atno 7974 bound_to 7965
  156.1113  140.3227  155.8076 H   0  0  0  0  0  0  0  0  0  0  0  0  # atno 8008 bound_to 7997
  155.4668  140.0543  157.3001 H   0  0  0  0  0  0  0  0  0  0  0  0  # atno 8009 bound_to 7997
  154.4762  140.2033  155.9888 H   0  0  0  0  0  0  0  0  0  0  0  0  # atno 8010 bound_to 7997
  140.3025  144.2917  150.6216 H   0  0  0  0  0  0  0  0  0  0  0  0  # atno 10167 bound_to 10162
  157.6773  130.9909  150.1917 H   0  0  0  0  0  0  0  0  0  0  0  0  # atno 10718 bound_to 10713
  154.8757  135.3902  154.3885 H   0  0  0  0  0  0  0  0  0  0  0  0  # atno 10763 bound_to 10752
  153.4624  135.7029  153.6047 H   0  0  0  0  0  0  0  0  0  0  0  0  # atno 10764 bound_to 10752
  153.4540  135.3827  155.2269 H   0  0  0  0  0  0  0  0  0  0  0  0  # atno 10765 bound_to 10752
  140.0046  134.6389  155.9875 H   0  0  0  0  0  0  0  0  0  0  0  0  # atno 11005 bound_to 11000
  145.7432  141.0000  143.1290 LP  0  0  0  0  0  0  0  0  0  0  0  0  # atno 17320 bound_to 7965
  144.6932  139.9124  143.7464 LP  0  0  0  0  0  0  0  0  0  0  0  0  # atno 17321 bound_to 7965
  140.5639  143.2188  151.7717 LP  0  0  0  0  0  0  0  0  0  0  0  0  # atno 17342 bound_to 10162
  139.4912  144.4311  151.9871 LP  0  0  0  0  0  0  0  0  0  0  0  0  # atno 17343 bound_to 10162
  156.2627  130.3712  149.8113 LP  0  0  0  0  0  0  0  0  0  0  0  0  # atno 17370 bound_to 10713
  156.5854  130.8483  151.3394 LP  0  0  0  0  0  0  0  0  0  0  0  0  # atno 17371 bound_to 10713
  141.1668  133.6537  156.4507 LP  0  0  0  0  0  0  0  0  0  0  0  0  # atno 17394 bound_to 11000
  140.4664  134.6794  157.5109 LP  0  0  0  0  0  0  0  0  0  0  0  0  # atno 17395 bound_to 11000

$$$$
