#       Name:                AV-unprocessed.smi:2144
#       Creating user name   scv26
#       Creation time:       Fri Mar 27 11:50:25 2020


#       File generated by GOLD software.
#

@<TRIPOS>MOLECULE
AV-unprocessed.smi:2144
    47    49     1
SMALL
NO_CHARGES


@<TRIPOS>ATOM
      1 ****        -2.5550   2.9153   3.6605 O.3            1 S1                 0.0000
      2 ****        -2.2942   1.8144   2.8147 C.3            1 S1                 0.0000
      3 ****        -2.1853   2.1924   1.3712 C.2            1 S1                 0.0000
      4 ****        -2.5208   3.3960   0.8237 N.pl3          1 S1                 1.0000
      5 ****        -2.2873   3.3737  -0.5516 C.ar           1 S1                 0.0000
      6 ****        -2.4726   4.3512  -1.5242 C.ar           1 S1                 0.0000
      7 ****        -2.1350   3.9986  -2.8475 C.ar           1 S1                 0.0000
      8 ****        -1.6352   2.7180  -3.1617 C.ar           1 S1                 0.0000
      9 ****        -1.4500   1.7357  -2.1663 C.ar           1 S1                 0.0000
     10 ****        -1.7860   2.0929  -0.8608 C.ar           1 S1                 0.0000
     11 ****        -1.7367   1.4008   0.3543 N.pl3          1 S1                 0.0000
     12 ****        -1.2491   0.0123   0.3687 C.3            1 S1                 0.0000
     13 ****         0.2893  -0.0870   0.3268 C.3            1 S1                 0.0000
     14 ****         0.8226   0.6114   1.4346 O.3            1 S1                 0.0000
     15 ****         0.7722  -1.5450   0.3851 C.3            1 S1                 0.0000
     16 ****         2.0835  -1.6135  -0.1595 O.3            1 S1                 0.0000
     17 ****         2.7116  -2.8401  -0.2071 C.ar           1 S1                 0.0000
     18 ****         2.1302  -4.0503   0.2502 C.ar           1 S1                 0.0000
     19 ****         2.8434  -5.2621   0.1634 C.ar           1 S1                 0.0000
     20 ****         4.1414  -5.2815  -0.3792 C.ar           1 S1                 0.0000
     21 ****         4.7265  -4.0861  -0.8353 C.ar           1 S1                 0.0000
     22 ****         4.0145  -2.8739  -0.7494 C.ar           1 S1                 0.0000
     23 ****         4.5892  -1.7305  -1.1931 F              1 S1                 0.0000
     24 ****        -2.6053   2.6040   4.5518 H              1 S1                 0.0000
     25 ****        -1.3666   1.3393   3.1345 H              1 S1                 0.0000
     26 ****        -3.0923   1.0806   2.9308 H              1 S1                 0.0000
     27 ****        -2.8558   5.3326  -1.2857 H              1 S1                 0.0000
     28 ****        -2.2625   4.7248  -3.6374 H              1 S1                 0.0000
     29 ****        -1.3881   2.4842  -4.1872 H              1 S1                 0.0000
     30 ****        -1.0655   0.7579  -2.4166 H              1 S1                 0.0000
     31 ****        -1.6355  -0.4673   1.2689 H              1 S1                 0.0000
     32 ****        -1.6969  -0.5160  -0.4741 H              1 S1                 0.0000
     33 ****         0.6542   0.3789  -0.5893 H              1 S1                 0.0000
     34 ****         0.5866   1.5229   1.3559 H              1 S1                 0.0000
     35 ****         0.7370  -1.9250   1.4078 H              1 S1                 0.0000
     36 ****         0.1152  -2.1669  -0.2253 H              1 S1                 0.0000
     37 ****         1.1373  -4.0768   0.6723 H              1 S1                 0.0000
     38 ****         2.3928  -6.1788   0.5142 H              1 S1                 0.0000
     39 ****         4.6874  -6.2111  -0.4453 H              1 S1                 0.0000
     40 ****         5.7230  -4.0976  -1.2513 H              1 S1                 0.0000
     41 ****        -2.8834   4.1735   1.3605 H              1 S1                 0.0000
     42 ****        -3.4224   3.3407   3.4024 LP             1 S1                 0.0000
     43 ****        -1.8175   3.5856   3.5785 LP             1 S1                 0.0000
     44 ****         1.8184   0.5202   1.4433 LP             1 S1                 0.0000
     45 ****         0.4462   0.2374   2.2822 LP             1 S1                 0.0000
     46 ****         2.6618  -1.0064   0.3854 LP             1 S1                 0.0000
     47 ****         2.0320  -1.2714  -1.0978 LP             1 S1                 0.0000
@<TRIPOS>BOND
    1    1    2 1     
    2    1   24 1     
    3    2    3 1     
    4    2   25 1     
    5    2   26 1     
    6    3   11 1     
    7    3    4 2     
    8    4    5 1     
    9    4   41 1     
   10    5   10 ar    
   11    5    6 ar    
   12    6    7 ar    
   13    6   27 1     
   14    7    8 ar    
   15    7   28 1     
   16    8    9 ar    
   17    8   29 1     
   18    9   10 ar    
   19    9   30 1     
   20   10   11 1     
   21   11   12 1     
   22   12   13 1     
   23   12   31 1     
   24   12   32 1     
   25   13   14 1     
   26   13   15 1     
   27   13   33 1     
   28   14   34 1     
   29   15   16 1     
   30   15   35 1     
   31   15   36 1     
   32   16   17 1     
   33   17   22 ar    
   34   17   18 ar    
   35   18   19 ar    
   36   18   37 1     
   37   19   20 ar    
   38   19   38 1     
   39   20   21 ar    
   40   20   39 1     
   41   21   22 ar    
   42   21   40 1     
   43   22   23 1     
   44    1   42 1     
   45    1   43 1     
   46   14   44 1     
   47   14   45 1     
   48   16   46 1     
   49   16   47 1     
@<TRIPOS>SUBSTRUCTURE
      1 S1             1
@<TRIPOS>SET
LONE_PAIRS      STATIC     ATOMS    <user>   **** ""
6 42 43 44 45 46 47
DONOR_HYDROGENS      STATIC     ATOMS    <user>   **** ""
3 24 41 34
ATOM$BLUE        STATIC     ATOMS    COLORGROUP SYSTEM
6 42 43 44 45 46 47
ATOM$RED        STATIC     ATOMS    COLORGROUP SYSTEM
3 24 41 34
