AV-unprocessed.smi:3031|AV-procd|sdf|11548|dock5
  -GOLD-   2272016503D 1   1.00000     0.00000
 Structure written by MMmdl.
 47 48  0  0  0  0  0  0  0  0  2 V2000
  151.7526  143.4568  158.7124 C   0  0  0  0  0  0  0  0  0  0  0  0
  151.3207  142.3050  157.8516 C   0  0  0  0  0  0  0  0  0  0  0  0
  151.1470  140.9447  158.2348 C   0  0  0  0  0  0  0  0  0  0  0  0
  150.7493  140.1754  157.2349 N   0  0  0  0  0  0  0  0  0  0  0  0
  150.6513  141.0154  156.1815 N   0  0  0  0  0  0  0  0  0  0  0  0
  150.2266  140.5077  154.8895 C   0  0  0  0  0  0  0  0  0  0  0  0
  148.6952  140.3265  154.7523 C   0  0  1  0  0  0  0  0  0  0  0  0
  148.0055  141.6977  154.7569 C   0  0  0  0  0  0  0  0  0  0  0  0
  148.3277  139.6162  153.5232 N   0  0  0  0  0  0  0  0  0  0  0  0
  146.9092  139.6776  153.1598 C   0  0  0  0  0  0  0  0  0  0  0  0
  146.4669  138.4566  152.3347 C   0  0  1  0  0  0  0  0  0  0  0  0
  147.4785  138.1301  151.4024 O   0  0  0  0  0  0  0  0  0  0  0  0
  146.1105  137.2305  153.2029 C   0  0  0  0  0  0  0  0  0  0  0  0
  145.9985  135.9824  152.4074 N   0  3  0  0  0  0  0  0  0  0  0  0
  145.8290  134.7802  153.2577 C   0  0  0  0  0  0  0  0  0  0  0  0
  145.7781  133.5107  152.3908 C   0  0  0  0  0  0  0  0  0  0  0  0
  144.7265  133.6227  151.4399 O   0  0  0  0  0  0  0  0  0  0  0  0
  144.9190  134.7241  150.5611 C   0  0  0  0  0  0  0  0  0  0  0  0
  144.9396  136.0325  151.3688 C   0  0  0  0  0  0  0  0  0  0  0  0
  151.0000  142.3047  156.5235 C   0  0  0  0  0  0  0  0  0  0  0  0
  152.2823  143.1200  159.6036 H   0  0  0  0  0  0  0  0  0  0  0  0
  150.8999  144.0466  159.0490 H   0  0  0  0  0  0  0  0  0  0  0  0
  152.4214  144.1322  158.1783 H   0  0  0  0  0  0  0  0  0  0  0  0
  151.2953  140.4964  159.2061 H   0  0  0  0  0  0  0  0  0  0  0  0
  150.5814  141.2125  154.1364 H   0  0  0  0  0  0  0  0  0  0  0  0
  150.7395  139.5654  154.6878 H   0  0  0  0  0  0  0  0  0  0  0  0
  148.3206  139.7774  155.6175 H   0  0  0  0  0  0  0  0  0  0  0  0
  148.2232  142.2442  155.6747 H   0  0  0  0  0  0  0  0  0  0  0  0
  146.9221  141.5935  154.6891 H   0  0  0  0  0  0  0  0  0  0  0  0
  148.3342  142.3128  153.9182 H   0  0  0  0  0  0  0  0  0  0  0  0
  148.8841  139.9666  152.7495 H   0  0  0  0  0  0  0  0  0  0  0  0
  146.2842  139.7238  154.0476 H   0  0  0  0  0  0  0  0  0  0  0  0
  146.7069  140.5945  152.6051 H   0  0  0  0  0  0  0  0  0  0  0  0
  145.5959  138.7655  151.7580 H   0  0  0  0  0  0  0  0  0  0  0  0
  148.0911  137.5417  151.8172 H   0  0  0  0  0  0  0  0  0  0  0  0
  146.8794  137.1057  153.9669 H   0  0  0  0  0  0  0  0  0  0  0  0
  145.1758  137.4002  153.7400 H   0  0  0  0  0  0  0  0  0  0  0  0
  146.6559  134.7057  153.9648 H   0  0  0  0  0  0  0  0  0  0  0  0
  144.9125  134.8714  153.8432 H   0  0  0  0  0  0  0  0  0  0  0  0
  146.7295  133.3475  151.8821 H   0  0  0  0  0  0  0  0  0  0  0  0
  145.5975  132.6361  153.0160 H   0  0  0  0  0  0  0  0  0  0  0  0
  145.8453  134.5990  149.9979 H   0  0  0  0  0  0  0  0  0  0  0  0
  144.1054  134.7435  149.8354 H   0  0  0  0  0  0  0  0  0  0  0  0
  143.9692  136.1906  151.8423 H   0  0  0  0  0  0  0  0  0  0  0  0
  145.1034  136.8703  150.6922 H   0  0  0  0  0  0  0  0  0  0  0  0
  150.9834  143.1084  155.8021 H   0  0  0  0  0  0  0  0  0  0  0  0
  146.8823  135.8696  151.9309 H   0  0  0  0  0  0  0  0  0  0  0  0
  1  2  1  0  0  0  0
  1 21  1  0  0  0  0
  1 22  1  0  0  0  0
  1 23  1  0  0  0  0
  2 20  2  0  0  0  0
  2  3  1  0  0  0  0
  3  4  2  0  0  0  0
  3 24  1  0  0  0  0
  4  5  1  0  0  0  0
  5  6  1  0  0  0  0
  5 20  1  0  0  0  0
  6  7  1  0  0  0  0
  6 25  1  0  0  0  0
  6 26  1  0  0  0  0
  7  8  1  0  0  0  0
  7  9  1  0  0  0  0
  7 27  1  0  0  0  0
  8 28  1  0  0  0  0
  8 29  1  0  0  0  0
  8 30  1  0  0  0  0
  9 10  1  0  0  0  0
  9 31  1  0  0  0  0
 10 11  1  0  0  0  0
 10 32  1  0  0  0  0
 10 33  1  0  0  0  0
 11 12  1  0  0  0  0
 11 13  1  0  0  0  0
 11 34  1  0  0  0  0
 12 35  1  0  0  0  0
 13 14  1  0  0  0  0
 13 36  1  0  0  0  0
 13 37  1  0  0  0  0
 14 19  1  0  0  0  0
 14 15  1  0  0  0  0
 14 47  1  0  0  0  0
 15 16  1  0  0  0  0
 15 38  1  0  0  0  0
 15 39  1  0  0  0  0
 16 17  1  0  0  0  0
 16 40  1  0  0  0  0
 16 41  1  0  0  0  0
 17 18  1  0  0  0  0
 18 19  1  0  0  0  0
 18 42  1  0  0  0  0
 18 43  1  0  0  0  0
 19 44  1  0  0  0  0
 19 45  1  0  0  0  0
 20 46  1  0  0  0  0
M  CHG  1  14   1
M  END
> <s_m_source_file>
AV-unprocessed.smi

> <i_m_source_file_index>
3031

> <i_lp_mmshare_version>
43012

> <i_f3d_flags>
0

> <s_epik_input>
W0NIM11jMVtjSF1ubihbY0hdMSlbQ0gyXVtDQEhdKFtDSDNdKVtOSF1bQ0gyXVtDQEhdKFtPSF0pW0NIMl1OMltDSDJdW0NIMl1PW0NIMl1bQ0gyXTI=

> <s_epik_cmdline>
J2VwaWtfcHl0aG9uJywgJy1waCcsICc3LjAnLCAnLXRuJywgJzgnLCAnLW1hJywgJzIwMCcsICctbWV0YWxfYmluZGluZycsICctaW1hZScsICc8aW5maWxlLm1hZT4nLCAnLW9tYWUnLCAnPG91dGZpbGUubWFlPic=

> <r_epik_Ionization_Penalty>
0.467051

> <r_epik_Ionization_Penalty_Charging>
0.202493

> <r_epik_Ionization_Penalty_Neutral>
0.264558

> <r_epik_State_Penalty>
1.34287

> <r_epik_Charging_Adjusted_Penalty>
1.54537

> <i_epik_Tot_Q>
1

> <i_epik_Tot_abs_Q>
1

> <r_epik_Metal_State_Penalty>
1.34281

> <b_epik_Metal_Only>
0

> <s_lp_Force_Field>
OPLS_2005

> <r_lp_Energy>
30.2263

> <b_lp_Chiralities_Consistent>
1

> <s_lp_Variant>
AV-unprocessed.smi:3031-8

> <Gold.Version>
5.8.1

> <Gold.Id.Protein>
6NUR|6NUR_protein|mol2

> <Gold.PLP.Fitness>
51.7199

> <Gold.PLP.PLP>
-37.2974

> <Gold.PLP.part.hbond>
-4.5710

> <Gold.PLP.part.metal>
0.0000

> <Gold.PLP.part.buried>
-1.9578

> <Gold.PLP.part.nonpolar>
-31.2322

> <Gold.PLP.part.repulsive>
0.1179

> <Gold.PLP.ligand.clash>
0.0000

> <Gold.PLP.ligand.torsion>
0.9231

> <Gold.PLP.Chemscore.Hbond>
4.5500

> <Gold.PLP.Chemscore.CHOScore>
0.8384

> <Gold.PLP.Chemscore.Metal>
0.0000

> <Gold.Chemscore.Hbonds>
donor molecule, donor type, donor heavy atom, donor atom, acceptor molecule, acceptor atom, score
      L1  H     9    31       P1  7957  1.00
      L1  H    12    35       P1  7948  1.00
      L1  H    14    47       P1  7948  1.79
      P1  H  7954  7966       L1    12  0.55
      L1  C    20    46       P1  8028  0.60

> <Gold.PLP.Chemscore.Internal.Correction>
0.1037

> <Gold.Rescore>
     Score         DG    S(hbond)    S(metal)    S(lipo)     H(rot)  DE(clash)    DE(int)     intcor
     17.89     -19.09       2.92        0.00      90.97       2.65       0.58       0.62       ----

> <Gold.Chemscore.Fitness>
17.8911

> <Gold.Chemscore.DG>
-19.0914

> <Gold.Chemscore.ZeroCoef>
-5.4800

> <Gold.Chemscore.Hbond>
2.9214

> <Gold.Chemscore.Metal>
0.0000

> <Gold.Chemscore.Lipo>
90.9686

> <Gold.Chemscore.Internal_Hbond>
0.0000

> <Gold.Chemscore.DEClash>
0.5815

> <Gold.Chemscore.DEInternal>
0.6188

> <Gold.Chemscore.Rot>
2.6521

> <Gold.Chemscore.Internal.Correction>
   9.000000E+99

> <Gold.Chemscore.Hbonds>
donor molecule, donor type, donor heavy atom, donor atom, acceptor molecule, acceptor atom, score
      L1  H     9    31       P1  7957  0.99
      L1  H    12    35       P1  7948  0.89
      L1  H    14    47       P1  7948  0.82
      P1  H  7954  7966       L1    12  0.03

> <Gold.Chemscore.Hbond.Weighted>
-9.7574

> <Gold.Chemscore.Metal.Weighted>
-0.0000

> <Gold.Chemscore.Lipo.Weighted>
-10.6433

> <Gold.Chemscore.Internal_Hbond.Weighted>
0.0000

> <Gold.Chemscore.DEClash.Weighted>
0.5815

> <Gold.Chemscore.DEInternal.Weighted>
0.6188

> <Gold.Chemscore.Rot.Weighted>
6.7894

> <Gold.Chemscore.Internal.Correction.Weighted>
   9.000000E+99

> <Gold.Protein.RotatedTorsions>
[ 6907 6896 6895 6894 ] final  179.72 input  -60.11 | X-H torsion
[ 7974 7965 7964 7962 ] final -113.63 input  175.53 | X-H torsion
[ 8008 7997 7996 7995 ] final  -68.66 input   59.86 | X-H torsion
[ 10167 10162 10161 10158 ] final  -19.66 input  -65.29 | X-H torsion
[ 10718 10713 10712 10709 ] final  -70.29 input   66.30 | X-H torsion
[ 10763 10752 10751 10750 ] final  -44.93 input  -60.55 | X-H torsion
[ 11005 11000 10999 10996 ] final -132.36 input  -57.11 | X-H torsion

> <Gold.Protein.ActiveResidues>
 VAL166  LYS551  ARG553  GLY616  TRP617  ASP618  TYR619  PRO620  LYS621  CYS622 
 ASP623  PHE694  ASN695  SER759  ASP760  ASP761  ALA762  ILE779  LEU786  VAL792 
 PHE793  MET794  SER795  GLU796  ALA797  LYS798  CYS799  TRP800  GLU811  SER814 

> <Gold.Protein.RotatedAtoms>
  151.6671  133.3315  159.3187 H   0  0  0  0  0  0  0  0  0  0  0  0  # atno 6907 bound_to 6896
  150.7885  134.6894  159.6498 H   0  0  0  0  0  0  0  0  0  0  0  0  # atno 6908 bound_to 6896
  152.3960  134.6367  160.0141 H   0  0  0  0  0  0  0  0  0  0  0  0  # atno 6909 bound_to 6896
  145.1297  140.8717  143.3765 H   0  0  0  0  0  0  0  0  0  0  0  0  # atno 7974 bound_to 7965
  154.4883  140.0868  156.7538 H   0  0  0  0  0  0  0  0  0  0  0  0  # atno 8008 bound_to 7997
  155.4293  140.3449  155.4260 H   0  0  0  0  0  0  0  0  0  0  0  0  # atno 8009 bound_to 7997
  156.1294  140.1497  156.9076 H   0  0  0  0  0  0  0  0  0  0  0  0  # atno 8010 bound_to 7997
  140.7270  143.4797  151.0135 H   0  0  0  0  0  0  0  0  0  0  0  0  # atno 10167 bound_to 10162
  156.0415  130.4328  150.2273 H   0  0  0  0  0  0  0  0  0  0  0  0  # atno 10718 bound_to 10713
  154.0202  135.6670  153.4772 H   0  0  0  0  0  0  0  0  0  0  0  0  # atno 10763 bound_to 10752
  153.0583  135.5042  154.8030 H   0  0  0  0  0  0  0  0  0  0  0  0  # atno 10764 bound_to 10752
  154.6942  135.3067  154.9400 H   0  0  0  0  0  0  0  0  0  0  0  0  # atno 10765 bound_to 10752
  140.9177  134.1485  157.4339 H   0  0  0  0  0  0  0  0  0  0  0  0  # atno 11005 bound_to 11000
  145.0649  139.3077  143.5862 LP  0  0  0  0  0  0  0  0  0  0  0  0  # atno 17320 bound_to 7965
  146.3515  140.0103  142.8668 LP  0  0  0  0  0  0  0  0  0  0  0  0  # atno 17321 bound_to 7965
  139.8494  143.7458  152.3178 LP  0  0  0  0  0  0  0  0  0  0  0  0  # atno 17342 bound_to 10162
  139.7635  144.7499  151.0329 LP  0  0  0  0  0  0  0  0  0  0  0  0  # atno 17343 bound_to 10162
  157.0367  131.0023  151.3296 LP  0  0  0  0  0  0  0  0  0  0  0  0  # atno 17370 bound_to 10713
  157.5238  130.8015  149.7839 LP  0  0  0  0  0  0  0  0  0  0  0  0  # atno 17371 bound_to 10713
  139.8769  134.9959  156.5770 LP  0  0  0  0  0  0  0  0  0  0  0  0  # atno 17394 bound_to 11000
  140.8029  133.8491  155.8742 LP  0  0  0  0  0  0  0  0  0  0  0  0  # atno 17395 bound_to 11000

$$$$
