AV-unprocessed.smi:2807|AV-procd|sdf|10818|dock5
  -GOLD-   2272015253D 1   1.00000     0.00000
 Structure written by MMmdl.
 32 33  0  0  0  0  0  0  0  0  1 V2000
  152.5752  140.4649  155.1448 O   0  0  0  0  0  0  0  0  0  0  0  0
  151.7585  139.9872  155.9333 C   0  0  0  0  0  0  0  0  0  0  0  0
  151.7266  140.3029  157.2390 N   0  0  0  0  0  0  0  0  0  0  0  0
  152.6289  141.2344  157.9176 C   0  0  2  0  0  0  0  0  0  0  0  0
  153.1267  140.6320  159.2468 C   0  0  0  0  0  0  0  0  0  0  0  0
  152.9017  141.7034  160.3169 C   0  0  0  0  0  0  0  0  0  0  0  0
  151.7183  142.5142  159.7994 C   0  0  0  0  0  0  0  0  0  0  0  0
  151.9517  142.5771  158.2889 C   0  0  2  0  0  0  0  0  0  0  0  0
  150.7467  142.8600  157.6025 O   0  0  0  0  0  0  0  0  0  0  0  0
  150.7111  138.9759  155.4435 C   0  0  0  0  0  0  0  0  0  0  0  0
  151.2872  138.1278  154.5875 F   0  0  0  0  0  0  0  0  0  0  0  0
  150.2758  138.2668  156.4877 F   0  0  0  0  0  0  0  0  0  0  0  0
  149.5471  139.6993  154.7714 C   0  0  0  0  0  0  0  0  0  0  0  0
  148.5305  138.9782  154.1046 C   0  0  0  0  0  0  0  0  0  0  0  0
  147.4726  139.6935  153.5114 C   0  0  0  0  0  0  0  0  0  0  0  0
  147.4651  141.0977  153.6067 C   0  0  0  0  0  0  0  0  0  0  0  0
  148.5201  141.7271  154.2958 C   0  0  0  0  0  0  0  0  0  0  0  0
  149.5391  141.0510  154.8680 N   0  0  0  0  0  0  0  0  0  0  0  0
  151.0257  139.8538  157.8109 H   0  0  0  0  0  0  0  0  0  0  0  0
  153.4920  141.4423  157.2824 H   0  0  0  0  0  0  0  0  0  0  0  0
  152.5497  139.7431  159.5074 H   0  0  0  0  0  0  0  0  0  0  0  0
  154.1728  140.3285  159.1930 H   0  0  0  0  0  0  0  0  0  0  0  0
  152.7207  141.2785  161.3046 H   0  0  0  0  0  0  0  0  0  0  0  0
  153.7816  142.3446  160.3863 H   0  0  0  0  0  0  0  0  0  0  0  0
  150.7915  141.9813  160.0186 H   0  0  0  0  0  0  0  0  0  0  0  0
  151.6519  143.5022  160.2565 H   0  0  0  0  0  0  0  0  0  0  0  0
  152.6529  143.3868  158.0814 H   0  0  0  0  0  0  0  0  0  0  0  0
  150.0734  143.0393  158.2408 H   0  0  0  0  0  0  0  0  0  0  0  0
  148.5549  137.8998  154.0501 H   0  0  0  0  0  0  0  0  0  0  0  0
  146.6800  139.1735  152.9938 H   0  0  0  0  0  0  0  0  0  0  0  0
  146.6692  141.6782  153.1642 H   0  0  0  0  0  0  0  0  0  0  0  0
  148.5464  142.8026  154.3903 H   0  0  0  0  0  0  0  0  0  0  0  0
  1  2  2  0  0  0  0
  2  3  1  0  0  0  0
  2 10  1  0  0  0  0
  3  4  1  0  0  0  0
  3 19  1  0  0  0  0
  4  8  1  0  0  0  0
  4  5  1  0  0  0  0
  4 20  1  0  0  0  0
  5  6  1  0  0  0  0
  5 21  1  0  0  0  0
  5 22  1  0  0  0  0
  6  7  1  0  0  0  0
  6 23  1  0  0  0  0
  6 24  1  0  0  0  0
  7  8  1  0  0  0  0
  7 25  1  0  0  0  0
  7 26  1  0  0  0  0
  8  9  1  0  0  0  0
  8 27  1  0  0  0  0
  9 28  1  0  0  0  0
 10 11  1  0  0  0  0
 10 12  1  0  0  0  0
 10 13  1  0  0  0  0
 13 18  1  0  0  0  0
 13 14  2  0  0  0  0
 14 15  1  0  0  0  0
 14 29  1  0  0  0  0
 15 16  2  0  0  0  0
 15 30  1  0  0  0  0
 16 17  1  0  0  0  0
 16 31  1  0  0  0  0
 17 18  2  0  0  0  0
 17 32  1  0  0  0  0
M  END
> <s_m_source_file>
AV-unprocessed.smi

> <i_m_source_file_index>
2807

> <i_lp_mmshare_version>
43012

> <i_f3d_flags>
0

> <s_epik_input>
bjFbY0hdW2NIXVtjSF1bY0hdYzFDKEYpKEYpQyg9TylbTkhdW0NAQEhdMltDSDJdW0NIMl1bQ0gyXVtDQEhdMltPSF0=

> <s_epik_cmdline>
J2VwaWtfcHl0aG9uJywgJy1waCcsICc3LjAnLCAnLXRuJywgJzgnLCAnLW1hJywgJzIwMCcsICctbWV0YWxfYmluZGluZycsICctaW1hZScsICc8aW5maWxlLm1hZT4nLCAnLW9tYWUnLCAnPG91dGZpbGUubWFlPic=

> <r_lp_tautomer_probability>
1

> <r_epik_Ionization_Penalty>
4.08325e-05

> <r_epik_Ionization_Penalty_Charging>
0

> <r_epik_Ionization_Penalty_Neutral>
4.08325e-05

> <r_epik_State_Penalty>
-0

> <r_epik_Charging_Adjusted_Penalty>
0

> <i_epik_Tot_Q>
0

> <i_epik_Tot_abs_Q>
0

> <r_epik_Metal_State_Penalty>
0.034564

> <b_epik_Metal_Only>
0

> <s_lp_Force_Field>
OPLS_2005

> <r_lp_Energy>
28.2651

> <b_lp_Chiralities_Consistent>
1

> <s_lp_Variant>
AV-unprocessed.smi:2807-3

> <Gold.Version>
5.8.1

> <Gold.Id.Protein>
6NUR|6NUR_protein|mol2

> <Gold.PLP.Fitness>
33.4075

> <Gold.PLP.PLP>
-28.3936

> <Gold.PLP.part.hbond>
-3.1351

> <Gold.PLP.part.metal>
0.0000

> <Gold.PLP.part.buried>
-1.5085

> <Gold.PLP.part.nonpolar>
-22.4748

> <Gold.PLP.part.repulsive>
0.2054

> <Gold.PLP.ligand.clash>
0.0000

> <Gold.PLP.ligand.torsion>
1.1988

> <Gold.PLP.Chemscore.Hbond>
1.4664

> <Gold.PLP.Chemscore.CHOScore>
1.0000

> <Gold.PLP.Chemscore.Metal>
0.0000

> <Gold.Chemscore.Hbonds>
donor molecule, donor type, donor heavy atom, donor atom, acceptor molecule, acceptor atom, score
      P1  H  7989  7998       L1     1  0.40
      P1  H  7997  8009       L1     1  1.00
      L1  C    17    32       P1  8028  1.00

> <Gold.PLP.Chemscore.Internal.Correction>
0.0122

> <Gold.Rescore>
     Score         DG    S(hbond)    S(metal)    S(lipo)     H(rot)  DE(clash)    DE(int)     intcor
     12.20     -14.11       1.25        0.00      82.88       2.05       0.71       1.20       ----

> <Gold.Chemscore.Fitness>
12.1993

> <Gold.Chemscore.DG>
-14.1081

> <Gold.Chemscore.ZeroCoef>
-5.4800

> <Gold.Chemscore.Hbond>
1.2480

> <Gold.Chemscore.Metal>
0.0000

> <Gold.Chemscore.Lipo>
82.8794

> <Gold.Chemscore.Internal_Hbond>
0.0000

> <Gold.Chemscore.DEClash>
0.7131

> <Gold.Chemscore.DEInternal>
1.1957

> <Gold.Chemscore.Rot>
2.0457

> <Gold.Chemscore.Internal.Correction>
   9.000000E+99

> <Gold.Chemscore.Hbonds>
donor molecule, donor type, donor heavy atom, donor atom, acceptor molecule, acceptor atom, score
      P1  H  7989  7998       L1     1  0.28
      P1  H  7997  8009       L1     1  0.55

> <Gold.Chemscore.Hbond.Weighted>
-4.1683

> <Gold.Chemscore.Metal.Weighted>
-0.0000

> <Gold.Chemscore.Lipo.Weighted>
-9.6969

> <Gold.Chemscore.Internal_Hbond.Weighted>
0.0000

> <Gold.Chemscore.DEClash.Weighted>
0.7131

> <Gold.Chemscore.DEInternal.Weighted>
1.1957

> <Gold.Chemscore.Rot.Weighted>
5.2371

> <Gold.Chemscore.Internal.Correction.Weighted>
   9.000000E+99

> <Gold.Protein.RotatedTorsions>
[ 6907 6896 6895 6894 ] final   11.68 input  -60.11 | X-H torsion
[ 7974 7965 7964 7962 ] final  135.41 input  175.53 | X-H torsion
[ 8008 7997 7996 7995 ] final -141.78 input   59.86 | X-H torsion
[ 10167 10162 10161 10158 ] final   92.72 input  -65.29 | X-H torsion
[ 10718 10713 10712 10709 ] final   32.81 input   66.30 | X-H torsion
[ 10763 10752 10751 10750 ] final  -40.10 input  -60.55 | X-H torsion
[ 11005 11000 10999 10996 ] final -141.49 input  -57.11 | X-H torsion

> <Gold.Protein.ActiveResidues>
 VAL166  LYS551  ARG553  GLY616  TRP617  ASP618  TYR619  PRO620  LYS621  CYS622 
 ASP623  PHE694  ASN695  SER759  ASP760  ASP761  ALA762  ILE779  LEU786  VAL792 
 PHE793  MET794  SER795  GLU796  ALA797  LYS798  CYS799  TRP800  GLU811  SER814 

> <Gold.Protein.RotatedAtoms>
  151.7583  135.0816  160.0341 H   0  0  0  0  0  0  0  0  0  0  0  0  # atno 6907 bound_to 6896
  152.3370  133.6019  159.5858 H   0  0  0  0  0  0  0  0  0  0  0  0  # atno 6908 bound_to 6896
  150.7456  133.9696  159.3583 H   0  0  0  0  0  0  0  0  0  0  0  0  # atno 6909 bound_to 6896
  144.9666  139.4651  143.5453 H   0  0  0  0  0  0  0  0  0  0  0  0  # atno 7974 bound_to 7965
  155.4834  140.0562  157.2964 H   0  0  0  0  0  0  0  0  0  0  0  0  # atno 8008 bound_to 7997
  154.4651  140.2015  156.0092 H   0  0  0  0  0  0  0  0  0  0  0  0  # atno 8009 bound_to 7997
  156.0960  140.3226  155.7883 H   0  0  0  0  0  0  0  0  0  0  0  0  # atno 8010 bound_to 7997
  139.8249  144.6714  150.9471 H   0  0  0  0  0  0  0  0  0  0  0  0  # atno 10167 bound_to 10162
  157.2899  130.7297  149.6605 H   0  0  0  0  0  0  0  0  0  0  0  0  # atno 10718 bound_to 10713
  153.9403  135.6762  153.4744 H   0  0  0  0  0  0  0  0  0  0  0  0  # atno 10763 bound_to 10752
  153.0935  135.4863  154.8731 H   0  0  0  0  0  0  0  0  0  0  0  0  # atno 10764 bound_to 10752
  154.7380  135.3154  154.8735 H   0  0  0  0  0  0  0  0  0  0  0  0  # atno 10765 bound_to 10752
  140.8319  134.2507  157.4853 H   0  0  0  0  0  0  0  0  0  0  0  0  # atno 11005 bound_to 11000
  146.3369  139.8851  142.8818 LP  0  0  0  0  0  0  0  0  0  0  0  0  # atno 17320 bound_to 7965
  145.2621  141.0080  143.3820 LP  0  0  0  0  0  0  0  0  0  0  0  0  # atno 17321 bound_to 7965
  140.7811  143.4055  151.1077 LP  0  0  0  0  0  0  0  0  0  0  0  0  # atno 17342 bound_to 10162
  139.7713  143.8490  152.3121 LP  0  0  0  0  0  0  0  0  0  0  0  0  # atno 17343 bound_to 10162
  155.9667  130.4312  150.4909 LP  0  0  0  0  0  0  0  0  0  0  0  0  # atno 17370 bound_to 10713
  157.2870  131.0618  151.2159 LP  0  0  0  0  0  0  0  0  0  0  0  0  # atno 17371 bound_to 10713
  139.8705  134.9590  156.4319 LP  0  0  0  0  0  0  0  0  0  0  0  0  # atno 17394 bound_to 11000
  140.8989  133.7794  155.9657 LP  0  0  0  0  0  0  0  0  0  0  0  0  # atno 17395 bound_to 11000

$$$$
