AV-unprocessed.smi:1965|AV-procd|sdf|7942|dock9
  -GOLD-   2272010113D 1   1.00000     0.00000
 Structure written by MMmdl.
 36 38  0  0  0  0  0  0  0  0  3 V2000
  149.3157  137.7666  157.8414 O   0  0  0  0  0  0  0  0  0  0  0  0
  149.1271  136.6263  158.2629 C   0  0  0  0  0  0  0  0  0  0  0  0
  149.4181  136.2388  159.5320 N   0  5  0  0  0  0  0  0  0  0  0  0
  148.4676  136.0339  160.4626 C   0  0  0  0  0  0  0  0  0  0  0  0
  148.1518  136.9354  161.3997 N   0  0  0  0  0  0  0  0  0  0  0  0
  147.1342  136.5122  162.2566 C   0  0  0  0  0  0  0  0  0  0  0  0
  146.6662  135.2581  161.9666 C   0  0  0  0  0  0  0  0  0  0  0  0
  147.4966  134.5659  160.6027 S   0  0  0  0  0  0  0  0  0  0  0  0
  148.6043  135.7051  157.4325 N   0  0  0  0  0  0  0  0  0  0  0  0
  148.2570  135.9117  156.0325 C   0  0  2  0  0  0  0  0  0  0  0  0
  146.8552  136.5109  155.8070 C   0  0  0  0  0  0  0  0  0  0  0  0
  146.3066  135.8009  154.5532 C   0  0  0  0  0  0  0  0  0  0  0  0
  147.4028  134.9301  154.0861 N   0  3  2  0  0  0  0  0  0  0  0  0
  147.0302  133.7458  153.2822 C   0  0  0  0  0  0  0  0  0  0  0  0
  148.3102  133.0110  152.8337 C   0  0  0  0  0  0  0  0  0  0  0  0
  149.2315  132.6818  154.0267 C   0  0  0  0  0  0  0  0  0  0  0  0
  149.5111  133.9375  154.8751 C   0  0  0  0  0  0  0  0  0  0  0  0
  148.1783  134.5832  155.2857 C   0  0  1  0  0  0  0  0  0  0  0  0
  146.8052  137.1692  163.0481 H   0  0  0  0  0  0  0  0  0  0  0  0
  145.8909  134.7004  162.4701 H   0  0  0  0  0  0  0  0  0  0  0  0
  148.4505  134.7811  157.8091 H   0  0  0  0  0  0  0  0  0  0  0  0
  149.0056  136.5486  155.5567 H   0  0  0  0  0  0  0  0  0  0  0  0
  146.1993  136.3174  156.6573 H   0  0  0  0  0  0  0  0  0  0  0  0
  146.9077  137.5921  155.6736 H   0  0  0  0  0  0  0  0  0  0  0  0
  145.4343  135.2005  154.8160 H   0  0  0  0  0  0  0  0  0  0  0  0
  146.0124  136.5031  153.7726 H   0  0  0  0  0  0  0  0  0  0  0  0
  146.3947  133.0823  153.8709 H   0  0  0  0  0  0  0  0  0  0  0  0
  146.4519  134.0605  152.4129 H   0  0  0  0  0  0  0  0  0  0  0  0
  148.0490  132.0969  152.2998 H   0  0  0  0  0  0  0  0  0  0  0  0
  148.8538  133.6364  152.1241 H   0  0  0  0  0  0  0  0  0  0  0  0
  148.7597  131.9209  154.6500 H   0  0  0  0  0  0  0  0  0  0  0  0
  150.1686  132.2519  153.6714 H   0  0  0  0  0  0  0  0  0  0  0  0
  150.0912  133.6726  155.7599 H   0  0  0  0  0  0  0  0  0  0  0  0
  150.1134  134.6457  154.3045 H   0  0  0  0  0  0  0  0  0  0  0  0
  147.5985  133.8725  155.8799 H   0  0  0  0  0  0  0  0  0  0  0  0
  148.0050  135.5070  153.5165 H   0  0  0  0  0  0  0  0  0  0  0  0
  1  2  2  0  0  0  0
  2  3  1  0  0  0  0
  2  9  1  0  0  0  0
  3  4  1  0  0  0  0
  4  8  1  0  0  0  0
  4  5  2  0  0  0  0
  5  6  1  0  0  0  0
  6  7  2  0  0  0  0
  6 19  1  0  0  0  0
  7  8  1  0  0  0  0
  7 20  1  0  0  0  0
  9 10  1  0  0  0  0
  9 21  1  0  0  0  0
 10 18  1  0  0  0  0
 10 11  1  0  0  0  0
 10 22  1  0  0  0  0
 11 12  1  0  0  0  0
 11 23  1  0  0  0  0
 11 24  1  0  0  0  0
 12 13  1  0  0  0  0
 12 25  1  0  0  0  0
 12 26  1  0  0  0  0
 13 18  1  0  0  0  0
 13 14  1  0  0  0  0
 13 36  1  0  0  0  0
 14 15  1  0  0  0  0
 14 27  1  0  0  0  0
 14 28  1  0  0  0  0
 15 16  1  0  0  0  0
 15 29  1  0  0  0  0
 15 30  1  0  0  0  0
 16 17  1  0  0  0  0
 16 31  1  0  0  0  0
 16 32  1  0  0  0  0
 17 18  1  0  0  0  0
 17 33  1  0  0  0  0
 17 34  1  0  0  0  0
 18 35  1  0  0  0  0
M  CHG  1   3  -1
M  CHG  1  13   1
M  END
> <s_m_source_file>
AV-unprocessed.smi

> <i_m_source_file_index>
1965

> <i_lp_mmshare_version>
43012

> <i_f3d_flags>
0

> <s_epik_input>
czFbY0hdW2NIXW5jMVtOSF1DKD1PKVtOSF1bQ0BIXShbQ0gyXVtDSDJdMilbQ0BASF0oTjIzKVtDSDJdW0NIMl1bQ0gyXVtDSDJdMw==

> <s_epik_cmdline>
J2VwaWtfcHl0aG9uJywgJy1waCcsICc3LjAnLCAnLXRuJywgJzgnLCAnLW1hJywgJzIwMCcsICctbWV0YWxfYmluZGluZycsICctaW1hZScsICc8aW5maWxlLm1hZT4nLCAnLW9tYWUnLCAnPG91dGZpbGUubWFlPic=

> <r_lp_tautomer_probability>
1

> <r_epik_Ionization_Penalty>
7.4116

> <r_epik_Ionization_Penalty_Charging>
6.13869

> <r_epik_Ionization_Penalty_Neutral>
1.27291

> <r_epik_State_Penalty>
6.13761

> <r_epik_Charging_Adjusted_Penalty>
12.2763

> <i_epik_Tot_Q>
0

> <i_epik_Tot_abs_Q>
2

> <r_epik_Metal_State_Penalty>
2.08142

> <b_epik_Metal_Only>
1

> <s_lp_Force_Field>
OPLS_2005

> <r_lp_Energy>
26.2692

> <b_lp_Chiralities_Consistent>
1

> <s_lp_Variant>
AV-unprocessed.smi:1965-11

> <Gold.Version>
5.8.1

> <Gold.Id.Protein>
6NUR|6NUR_protein|mol2

> <Gold.PLP.Fitness>
38.8693

> <Gold.PLP.PLP>
-26.7102

> <Gold.PLP.part.hbond>
-3.9625

> <Gold.PLP.part.metal>
0.0000

> <Gold.PLP.part.buried>
-3.8610

> <Gold.PLP.part.nonpolar>
-19.8628

> <Gold.PLP.part.repulsive>
0.0481

> <Gold.PLP.ligand.clash>
0.0000

> <Gold.PLP.ligand.torsion>
1.7439

> <Gold.PLP.Chemscore.Hbond>
5.2122

> <Gold.PLP.Chemscore.CHOScore>
0.0000

> <Gold.PLP.Chemscore.Metal>
0.0000

> <Gold.Chemscore.Hbonds>
donor molecule, donor type, donor heavy atom, donor atom, acceptor molecule, acceptor atom, score
      L1  H    13    36       P1  7948  2.00
      P1  H  6896  6909       L1     3  2.00
      P1  H  6931  6943       L1     5  1.00
      P1  H  6934  6947       L1     5  0.12

> <Gold.PLP.Chemscore.Internal.Correction>
0.0103

> <Gold.Rescore>
     Score         DG    S(hbond)    S(metal)    S(lipo)     H(rot)  DE(clash)    DE(int)     intcor
     16.53     -18.26       2.76        0.00      52.37       1.00       0.00       1.73       ----

> <Gold.Chemscore.Fitness>
16.5251

> <Gold.Chemscore.DG>
-18.2581

> <Gold.Chemscore.ZeroCoef>
-5.4800

> <Gold.Chemscore.Hbond>
2.7578

> <Gold.Chemscore.Metal>
0.0000

> <Gold.Chemscore.Lipo>
52.3669

> <Gold.Chemscore.Internal_Hbond>
0.0000

> <Gold.Chemscore.DEClash>
0.0004

> <Gold.Chemscore.DEInternal>
1.7326

> <Gold.Chemscore.Rot>
1.0000

> <Gold.Chemscore.Internal.Correction>
   9.000000E+99

> <Gold.Chemscore.Hbonds>
donor molecule, donor type, donor heavy atom, donor atom, acceptor molecule, acceptor atom, score
      L1  H    13    36       P1  7948  0.93
      P1  H  6896  6909       L1     3  0.68
      P1  H  6931  6943       L1     5  0.92
      P1  H  6934  6947       L1     5  0.02

> <Gold.Chemscore.Hbond.Weighted>
-9.2112

> <Gold.Chemscore.Metal.Weighted>
-0.0000

> <Gold.Chemscore.Lipo.Weighted>
-6.1269

> <Gold.Chemscore.Internal_Hbond.Weighted>
0.0000

> <Gold.Chemscore.DEClash.Weighted>
0.0004

> <Gold.Chemscore.DEInternal.Weighted>
1.7326

> <Gold.Chemscore.Rot.Weighted>
2.5600

> <Gold.Chemscore.Internal.Correction.Weighted>
   9.000000E+99

> <Gold.Protein.RotatedTorsions>
[ 6907 6896 6895 6894 ] final   78.79 input  -60.11 | X-H torsion
[ 7974 7965 7964 7962 ] final    9.26 input  175.53 | X-H torsion
[ 8008 7997 7996 7995 ] final   11.28 input   59.86 | X-H torsion
[ 10167 10162 10161 10158 ] final  123.39 input  -65.29 | X-H torsion
[ 10718 10713 10712 10709 ] final  175.82 input   66.30 | X-H torsion
[ 10763 10752 10751 10750 ] final  115.41 input  -60.55 | X-H torsion
[ 11005 11000 10999 10996 ] final  131.12 input  -57.11 | X-H torsion

> <Gold.Protein.ActiveResidues>
 VAL166  LYS551  ARG553  GLY616  TRP617  ASP618  TYR619  PRO620  LYS621  CYS622 
 ASP623  PHE694  ASN695  SER759  ASP760  ASP761  ALA762  ILE779  LEU786  VAL792 
 PHE793  MET794  SER795  GLU796  ALA797  LYS798  CYS799  TRP800  GLU811  SER814 

> <Gold.Protein.RotatedAtoms>
  152.5173  134.3610  159.9284 H   0  0  0  0  0  0  0  0  0  0  0  0  # atno 6907 bound_to 6896
  151.3562  133.3900  159.2693 H   0  0  0  0  0  0  0  0  0  0  0  0  # atno 6908 bound_to 6896
  150.9688  134.9083  159.7833 H   0  0  0  0  0  0  0  0  0  0  0  0  # atno 6909 bound_to 6896
  146.2406  139.9811  142.8436 H   0  0  0  0  0  0  0  0  0  0  0  0  # atno 7974 bound_to 7965
  154.8048  140.2858  155.5896 H   0  0  0  0  0  0  0  0  0  0  0  0  # atno 8008 bound_to 7997
  156.2981  140.2579  156.2853 H   0  0  0  0  0  0  0  0  0  0  0  0  # atno 8009 bound_to 7997
  154.9516  140.0379  157.2136 H   0  0  0  0  0  0  0  0  0  0  0  0  # atno 8010 bound_to 7997
  139.5802  144.6983  151.3547 H   0  0  0  0  0  0  0  0  0  0  0  0  # atno 10167 bound_to 10162
  156.9292  130.9965  151.2990 H   0  0  0  0  0  0  0  0  0  0  0  0  # atno 10718 bound_to 10713
  153.5218  135.3596  155.2635 H   0  0  0  0  0  0  0  0  0  0  0  0  # atno 10763 bound_to 10752
  154.8734  135.4047  154.3251 H   0  0  0  0  0  0  0  0  0  0  0  0  # atno 10764 bound_to 10752
  153.3923  135.7072  153.6553 H   0  0  0  0  0  0  0  0  0  0  0  0  # atno 10765 bound_to 10752
  139.9711  134.9577  156.9392 H   0  0  0  0  0  0  0  0  0  0  0  0  # atno 11005 bound_to 11000
  145.1591  140.9663  143.4388 LP  0  0  0  0  0  0  0  0  0  0  0  0  # atno 17320 bound_to 7965
  145.0133  139.3490  143.6109 LP  0  0  0  0  0  0  0  0  0  0  0  0  # atno 17321 bound_to 7965
  140.7081  143.7461  150.7518 LP  0  0  0  0  0  0  0  0  0  0  0  0  # atno 17342 bound_to 10162
  140.0991  143.4804  152.2435 LP  0  0  0  0  0  0  0  0  0  0  0  0  # atno 17343 bound_to 10162
  157.5858  130.8408  149.8587 LP  0  0  0  0  0  0  0  0  0  0  0  0  # atno 17370 bound_to 10713
  156.0455  130.3729  150.1329 LP  0  0  0  0  0  0  0  0  0  0  0  0  # atno 17371 bound_to 10713
  140.5291  134.0831  155.7311 LP  0  0  0  0  0  0  0  0  0  0  0  0  # atno 17394 bound_to 11000
  141.1391  133.9170  157.2367 LP  0  0  0  0  0  0  0  0  0  0  0  0  # atno 17395 bound_to 11000

$$$$
