AV-unprocessed.smi:1398|AV-procd|sdf|5680|dock7
  -GOLD-   22720 5303D 1   1.00000     0.00000
 Structure written by MMmdl.
 41 42  0  0  0  0  0  0  0  0  1 V2000
  147.4026  136.8289  162.6650 C   0  0  0  0  0  0  0  0  0  0  0  0
  147.8886  137.2775  161.4046 O   0  0  0  0  0  0  0  0  0  0  0  0
  147.9483  136.3738  160.3609 C   0  0  0  0  0  0  0  0  0  0  0  0
  147.4847  135.1158  160.5689 N   0  0  0  0  0  0  0  0  0  0  0  0
  147.5394  134.2341  159.5496 C   0  0  0  0  0  0  0  0  0  0  0  0
  148.0476  134.5567  158.2779 C   0  0  0  0  0  0  0  0  0  0  0  0
  148.5299  135.8603  158.0599 C   0  0  0  0  0  0  0  0  0  0  0  0
  148.4936  136.7924  159.1248 C   0  0  0  0  0  0  0  0  0  0  0  0
  148.9369  138.1377  159.0038 N   0  0  0  0  0  0  0  0  0  0  0  0
  149.5660  138.7171  157.9676 C   0  0  0  0  0  0  0  0  0  0  0  0
  149.8712  138.1553  156.9156 O   0  0  0  0  0  0  0  0  0  0  0  0
  149.8510  139.9998  158.2316 N   0  0  0  0  0  0  0  0  0  0  0  0
  150.5692  140.9005  157.3374 C   0  0  0  0  0  0  0  0  0  0  0  0
  151.7461  141.5868  158.0602 C   0  0  0  0  0  0  0  0  0  0  0  0
  152.7530  140.6028  158.6783 C   0  0  0  0  0  0  0  0  0  0  0  0
  153.0454  139.5664  158.0802 O   0  0  0  0  0  0  0  0  0  0  0  0
  153.2955  140.9162  159.8733 N   0  0  0  0  0  0  0  0  0  0  0  0
  154.2882  140.1210  160.5959 C   0  0  0  0  0  0  0  0  0  0  0  0
  154.7517  140.9960  161.7613 C   0  0  0  0  0  0  0  0  0  0  0  0
  153.5845  141.9423  162.0059 C   0  0  0  0  0  0  0  0  0  0  0  0
  152.9530  142.1220  160.6252 C   0  0  0  0  0  0  0  0  0  0  0  0
  147.4220  137.6567  163.3736 H   0  0  0  0  0  0  0  0  0  0  0  0
  148.0250  136.0310  163.0723 H   0  0  0  0  0  0  0  0  0  0  0  0
  146.3718  136.4791  162.5937 H   0  0  0  0  0  0  0  0  0  0  0  0
  147.1603  133.2434  159.7522 H   0  0  0  0  0  0  0  0  0  0  0  0
  148.0619  133.8224  157.4863 H   0  0  0  0  0  0  0  0  0  0  0  0
  148.9022  136.1236  157.0819 H   0  0  0  0  0  0  0  0  0  0  0  0
  148.8375  138.7009  159.8359 H   0  0  0  0  0  0  0  0  0  0  0  0
  149.5633  140.3774  159.1226 H   0  0  0  0  0  0  0  0  0  0  0  0
  150.9178  140.3557  156.4581 H   0  0  0  0  0  0  0  0  0  0  0  0
  149.8573  141.6463  156.9812 H   0  0  0  0  0  0  0  0  0  0  0  0
  152.2751  142.2247  157.3512 H   0  0  0  0  0  0  0  0  0  0  0  0
  151.3641  142.2351  158.8494 H   0  0  0  0  0  0  0  0  0  0  0  0
  153.8155  139.2112  160.9683 H   0  0  0  0  0  0  0  0  0  0  0  0
  155.1302  139.8357  159.9640 H   0  0  0  0  0  0  0  0  0  0  0  0
  155.0190  140.4161  162.6453 H   0  0  0  0  0  0  0  0  0  0  0  0
  155.6292  141.5702  161.4608 H   0  0  0  0  0  0  0  0  0  0  0  0
  152.8666  141.4692  162.6774 H   0  0  0  0  0  0  0  0  0  0  0  0
  153.8920  142.8861  162.4569 H   0  0  0  0  0  0  0  0  0  0  0  0
  153.3789  142.9892  160.1181 H   0  0  0  0  0  0  0  0  0  0  0  0
  151.8741  142.2681  160.6995 H   0  0  0  0  0  0  0  0  0  0  0  0
  1  2  1  0  0  0  0
  1 22  1  0  0  0  0
  1 23  1  0  0  0  0
  1 24  1  0  0  0  0
  2  3  1  0  0  0  0
  3  8  1  0  0  0  0
  3  4  2  0  0  0  0
  4  5  1  0  0  0  0
  5  6  2  0  0  0  0
  5 25  1  0  0  0  0
  6  7  1  0  0  0  0
  6 26  1  0  0  0  0
  7  8  2  0  0  0  0
  7 27  1  0  0  0  0
  8  9  1  0  0  0  0
  9 10  1  0  0  0  0
  9 28  1  0  0  0  0
 10 11  2  0  0  0  0
 10 12  1  0  0  0  0
 12 13  1  0  0  0  0
 12 29  1  0  0  0  0
 13 14  1  0  0  0  0
 13 30  1  0  0  0  0
 13 31  1  0  0  0  0
 14 15  1  0  0  0  0
 14 32  1  0  0  0  0
 14 33  1  0  0  0  0
 15 16  2  0  0  0  0
 15 17  1  0  0  0  0
 17 21  1  0  0  0  0
 17 18  1  0  0  0  0
 18 19  1  0  0  0  0
 18 34  1  0  0  0  0
 18 35  1  0  0  0  0
 19 20  1  0  0  0  0
 19 36  1  0  0  0  0
 19 37  1  0  0  0  0
 20 21  1  0  0  0  0
 20 38  1  0  0  0  0
 20 39  1  0  0  0  0
 21 40  1  0  0  0  0
 21 41  1  0  0  0  0
M  END
> <s_m_source_file>
AV-unprocessed.smi

> <i_m_source_file_index>
1398

> <i_lp_mmshare_version>
43012

> <i_f3d_flags>
0

> <s_epik_input>
W0NIM11PYzFuW2NIXVtjSF1bY0hdYzFbTkhdQyg9TylbTkhdW0NIMl1bQ0gyXUMoPU8pTjJbQ0gyXVtDSDJdW0NIMl1bQ0gyXTI=

> <s_epik_cmdline>
J2VwaWtfcHl0aG9uJywgJy1waCcsICc3LjAnLCAnLXRuJywgJzgnLCAnLW1hJywgJzIwMCcsICctbWV0YWxfYmluZGluZycsICctaW1hZScsICc8aW5maWxlLm1hZT4nLCAnLW9tYWUnLCAnPG91dGZpbGUubWFlPic=

> <r_lp_tautomer_probability>
1

> <r_epik_Ionization_Penalty>
8.61088e-05

> <r_epik_Ionization_Penalty_Charging>
0

> <r_epik_Ionization_Penalty_Neutral>
8.61088e-05

> <r_epik_State_Penalty>
-0

> <r_epik_Charging_Adjusted_Penalty>
0

> <i_epik_Tot_Q>
0

> <i_epik_Tot_abs_Q>
0

> <r_epik_Metal_State_Penalty>
-0

> <b_epik_Metal_Only>
0

> <s_lp_Force_Field>
OPLS_2005

> <r_lp_Energy>
29.8369

> <b_lp_Chiralities_Consistent>
1

> <s_lp_Variant>
AV-unprocessed.smi:1398-1

> <Gold.Version>
5.8.1

> <Gold.Id.Protein>
6NUR|6NUR_protein|mol2

> <Gold.PLP.Fitness>
43.4310

> <Gold.PLP.PLP>
-36.0777

> <Gold.PLP.part.hbond>
-3.0000

> <Gold.PLP.part.metal>
0.0000

> <Gold.PLP.part.buried>
-2.3194

> <Gold.PLP.part.nonpolar>
-30.4966

> <Gold.PLP.part.repulsive>
0.3998

> <Gold.PLP.ligand.clash>
0.0000

> <Gold.PLP.ligand.torsion>
0.3650

> <Gold.PLP.Chemscore.Hbond>
2.6840

> <Gold.PLP.Chemscore.CHOScore>
0.0000

> <Gold.PLP.Chemscore.Metal>
0.0000

> <Gold.Chemscore.Hbonds>
donor molecule, donor type, donor heavy atom, donor atom, acceptor molecule, acceptor atom, score
      P1  H  6931  6943       L1     2  0.95
      P1  H  6934  6947       L1     2  0.69
      P1  H  7997  8009       L1    16  1.00

> <Gold.PLP.Chemscore.Internal.Correction>
0.0313

> <Gold.Rescore>
     Score         DG    S(hbond)    S(metal)    S(lipo)     H(rot)  DE(clash)    DE(int)     intcor
     12.91     -14.53       1.48        0.00      75.16       1.83       0.02       1.60       ----

> <Gold.Chemscore.Fitness>
12.9088

> <Gold.Chemscore.DG>
-14.5296

> <Gold.Chemscore.ZeroCoef>
-5.4800

> <Gold.Chemscore.Hbond>
1.4762

> <Gold.Chemscore.Metal>
0.0000

> <Gold.Chemscore.Lipo>
75.1583

> <Gold.Chemscore.Internal_Hbond>
0.0000

> <Gold.Chemscore.DEClash>
0.0248

> <Gold.Chemscore.DEInternal>
1.5960

> <Gold.Chemscore.Rot>
1.8260

> <Gold.Chemscore.Internal.Correction>
   9.000000E+99

> <Gold.Chemscore.Hbonds>
donor molecule, donor type, donor heavy atom, donor atom, acceptor molecule, acceptor atom, score
      P1  H  6931  6943       L1     2  0.20
      P1  H  6934  6947       L1     2  0.52
      P1  H  7997  8009       L1    16  0.43

> <Gold.Chemscore.Hbond.Weighted>
-4.9305

> <Gold.Chemscore.Metal.Weighted>
-0.0000

> <Gold.Chemscore.Lipo.Weighted>
-8.7935

> <Gold.Chemscore.Internal_Hbond.Weighted>
0.0000

> <Gold.Chemscore.DEClash.Weighted>
0.0248

> <Gold.Chemscore.DEInternal.Weighted>
1.5960

> <Gold.Chemscore.Rot.Weighted>
4.6744

> <Gold.Chemscore.Internal.Correction.Weighted>
   9.000000E+99

> <Gold.Protein.RotatedTorsions>
[ 6907 6896 6895 6894 ] final  -91.18 input  -60.11 | X-H torsion
[ 7974 7965 7964 7962 ] final  129.09 input  175.53 | X-H torsion
[ 8008 7997 7996 7995 ] final  144.63 input   59.86 | X-H torsion
[ 10167 10162 10161 10158 ] final   57.37 input  -65.29 | X-H torsion
[ 10718 10713 10712 10709 ] final  115.84 input   66.30 | X-H torsion
[ 10763 10752 10751 10750 ] final  169.14 input  -60.55 | X-H torsion
[ 11005 11000 10999 10996 ] final  160.24 input  -57.11 | X-H torsion

> <Gold.Protein.ActiveResidues>
 VAL166  LYS551  ARG553  GLY616  TRP617  ASP618  TYR619  PRO620  LYS621  CYS622 
 ASP623  PHE694  ASN695  SER759  ASP760  ASP761  ALA762  ILE779  LEU786  VAL792 
 PHE793  MET794  SER795  GLU796  ALA797  LYS798  CYS799  TRP800  GLU811  SER814 

> <Gold.Protein.RotatedAtoms>
  150.6889  134.2318  159.4437 H   0  0  0  0  0  0  0  0  0  0  0  0  # atno 6907 bound_to 6896
  152.0268  134.9789  160.0581 H   0  0  0  0  0  0  0  0  0  0  0  0  # atno 6908 bound_to 6896
  152.1344  133.4392  159.4773 H   0  0  0  0  0  0  0  0  0  0  0  0  # atno 6909 bound_to 6896
  145.0324  139.4034  143.5143 H   0  0  0  0  0  0  0  0  0  0  0  0  # atno 7974 bound_to 7965
  156.2903  140.2231  156.5084 H   0  0  0  0  0  0  0  0  0  0  0  0  # atno 8008 bound_to 7997
  154.7630  140.0472  157.1011 H   0  0  0  0  0  0  0  0  0  0  0  0  # atno 8009 bound_to 7997
  154.9967  140.3097  155.4887 H   0  0  0  0  0  0  0  0  0  0  0  0  # atno 8010 bound_to 7997
  140.1987  144.4010  150.6538 H   0  0  0  0  0  0  0  0  0  0  0  0  # atno 10167 bound_to 10162
  157.6197  131.1018  150.7388 H   0  0  0  0  0  0  0  0  0  0  0  0  # atno 10718 bound_to 10713
  154.3788  135.2753  155.2223 H   0  0  0  0  0  0  0  0  0  0  0  0  # atno 10763 bound_to 10752
  154.4339  135.5970  153.6090 H   0  0  0  0  0  0  0  0  0  0  0  0  # atno 10764 bound_to 10752
  152.9835  135.6002  154.4028 H   0  0  0  0  0  0  0  0  0  0  0  0  # atno 10765 bound_to 10752
  140.2040  134.8316  157.3049 H   0  0  0  0  0  0  0  0  0  0  0  0  # atno 11005 bound_to 11000
  146.3500  139.9881  142.8688 LP  0  0  0  0  0  0  0  0  0  0  0  0  # atno 17320 bound_to 7965
  145.1753  140.9741  143.4298 LP  0  0  0  0  0  0  0  0  0  0  0  0  # atno 17321 bound_to 7965
  140.6405  143.2203  151.6300 LP  0  0  0  0  0  0  0  0  0  0  0  0  # atno 17342 bound_to 10162
  139.5226  144.3158  152.0953 LP  0  0  0  0  0  0  0  0  0  0  0  0  # atno 17343 bound_to 10162
  156.7748  130.4840  149.5412 LP  0  0  0  0  0  0  0  0  0  0  0  0  # atno 17370 bound_to 10713
  156.1336  130.6195  151.0369 LP  0  0  0  0  0  0  0  0  0  0  0  0  # atno 17371 bound_to 10713
  140.2023  134.4240  155.7656 LP  0  0  0  0  0  0  0  0  0  0  0  0  # atno 17394 bound_to 11000
  141.2227  133.7078  156.8203 LP  0  0  0  0  0  0  0  0  0  0  0  0  # atno 17395 bound_to 11000

$$$$
