#       Name:                AV-unprocessed.smi:283
#       Creating user name   scv26
#       Creation time:       Thu Mar 26 21:47:26 2020


#       File generated by GOLD software.
#

@<TRIPOS>MOLECULE
AV-unprocessed.smi:283
    59    62     1
SMALL
NO_CHARGES


@<TRIPOS>ATOM
      1 ****        -5.3367  -0.2665  -1.1076 C.3            1 S1                 0.0000
      2 ****        -3.8245  -0.2985  -0.8483 C.3            1 S1                 0.0000
      3 ****        -3.2546   1.0256  -1.0903 N.pl3          1 S1                 0.0000
      4 ****        -1.9338   1.2523  -0.9167 C.ar           1 S1                 0.0000
      5 ****        -1.5961   2.5177  -0.5724 N.ar           1 S1                 0.0000
      6 ****        -0.3176   2.8332  -0.3501 C.ar           1 S1                 0.0000
      7 ****         0.7585   2.0479  -0.4186 N.ar           1 S1                 0.0000
      8 ****         0.4304   0.7746  -0.7824 C.ar           1 S1                 0.0000
      9 ****        -0.8837   0.2972  -1.0551 C.ar           1 S1                 0.0000
     10 ****        -0.8186  -1.0449  -1.4112 N.2            1 S1                 0.0000
     11 ****         0.4495  -1.3409  -1.3353 C.2            1 S1                 0.0000
     12 ****         1.2723  -0.3053  -0.9567 N.pl3          1 S1                 0.0000
     13 ****         2.7541  -0.3432  -0.7728 C.3            1 S1                 0.0000
     14 ****         3.2951   0.8031  -1.3509 O.3            1 S1                 0.0000
     15 ****         4.3700   1.2972  -0.5592 C.3            1 S1                 0.0000
     16 ****         5.6806   0.6284  -1.0174 C.3            1 S1                 0.0000
     17 ****         6.1692   1.2714  -2.1747 O.3            1 S1                 0.0000
     18 ****         3.9735   0.9116   0.8728 C.3            1 S1                 0.0000
     19 ****         3.2228   1.9632   1.4466 O.3            1 S1                 0.0000
     20 ****         3.1208  -0.3457   0.7201 C.3            1 S1                 0.0000
     21 ****         3.8938  -1.4827   1.0495 O.3            1 S1                 0.0000
     22 ****        -3.5359  -0.8764   0.5406 C.ar           1 S1                 0.0000
     23 ****        -3.5143  -0.0225   1.6684 C.ar           1 S1                 0.0000
     24 ****        -3.2452  -0.5331   2.9520 C.ar           1 S1                 0.0000
     25 ****        -3.0035  -1.9076   3.1246 C.ar           1 S1                 0.0000
     26 ****        -3.0385  -2.7695   2.0130 C.ar           1 S1                 0.0000
     27 ****        -3.3076  -2.2637   0.7254 C.ar           1 S1                 0.0000
     28 ****        -3.3536  -3.3733  -0.6000 Cl             1 S1                 0.0000
     29 ****         3.0826  -1.2346  -1.3096 H              1 S1                 0.0000
     30 ****         4.4583   2.3802  -0.6630 H              1 S1                 0.0000
     31 ****         4.8424   0.7549   1.5140 H              1 S1                 0.0000
     32 ****         2.2298  -0.3249   1.3505 H              1 S1                 0.0000
     33 ****        -5.7701  -1.2634  -1.0211 H              1 S1                 0.0000
     34 ****        -5.5568   0.1006  -2.1106 H              1 S1                 0.0000
     35 ****        -5.8483   0.3814  -0.3951 H              1 S1                 0.0000
     36 ****        -3.3923  -0.9528  -1.6031 H              1 S1                 0.0000
     37 ****        -3.9261   1.7794  -1.0776 H              1 S1                 0.0000
     38 ****        -0.1301   3.8603  -0.0737 H              1 S1                 0.0000
     39 ****         0.8205  -2.3325  -1.5508 H              1 S1                 0.0000
     40 ****         6.4449   0.7295  -0.2465 H              1 S1                 0.0000
     41 ****         5.5524  -0.4380  -1.2041 H              1 S1                 0.0000
     42 ****         5.5186   1.1956  -2.8562 H              1 S1                 0.0000
     43 ****         2.4727   2.1300   0.8947 H              1 S1                 0.0000
     44 ****         3.3568  -2.2525   0.9393 H              1 S1                 0.0000
     45 ****        -3.7008   1.0352   1.5549 H              1 S1                 0.0000
     46 ****        -3.2252   0.1308   3.8037 H              1 S1                 0.0000
     47 ****        -2.7966  -2.3017   4.1087 H              1 S1                 0.0000
     48 ****        -2.8598  -3.8259   2.1504 H              1 S1                 0.0000
     49 ****        -2.3053   3.2171  -0.4844 LP             1 S1                 0.0000
     50 ****         1.6908   2.3547  -0.2269 LP             1 S1                 0.0000
     51 ****        -1.5740  -1.6479  -1.6678 LP             1 S1                 0.0000
     52 ****         2.5857   1.5046  -1.4181 LP             1 S1                 0.0000
     53 ****         3.6337   0.5826  -2.2656 LP             1 S1                 0.0000
     54 ****         7.0194   0.8353  -2.4696 LP             1 S1                 0.0000
     55 ****         6.3407   2.2366  -1.9776 LP             1 S1                 0.0000
     56 ****         3.7869   2.7866   1.5079 LP             1 S1                 0.0000
     57 ****         2.9171   1.6998   2.3616 LP             1 S1                 0.0000
     58 ****         4.2006  -1.4185   1.9992 LP             1 S1                 0.0000
     59 ****         4.6888  -1.5367   0.4454 LP             1 S1                 0.0000
@<TRIPOS>BOND
    1    1    2 1     
    2    1   33 1     
    3    1   34 1     
    4    1   35 1     
    5    2    3 1     
    6    2   22 1     
    7    2   36 1     
    8    3    4 1     
    9    3   37 1     
   10    4    9 ar    
   11    4    5 ar    
   12    5    6 ar    
   13    6    7 ar    
   14    6   38 1     
   15    7    8 ar    
   16    8   12 1     
   17    8    9 ar    
   18    9   10 1     
   19   10   11 2     
   20   11   12 1     
   21   11   39 1     
   22   12   13 1     
   23   13   29 1     
   24   13   20 1     
   25   13   14 1     
   26   14   15 1     
   27   15   30 1     
   28   15   16 1     
   29   15   18 1     
   30   16   17 1     
   31   16   40 1     
   32   16   41 1     
   33   17   42 1     
   34   18   31 1     
   35   18   19 1     
   36   18   20 1     
   37   19   43 1     
   38   20   32 1     
   39   20   21 1     
   40   21   44 1     
   41   22   27 ar    
   42   22   23 ar    
   43   23   24 ar    
   44   23   45 1     
   45   24   25 ar    
   46   24   46 1     
   47   25   26 ar    
   48   25   47 1     
   49   26   27 ar    
   50   26   48 1     
   51   27   28 1     
   52    5   49 1     
   53    7   50 1     
   54   10   51 1     
   55   14   52 1     
   56   14   53 1     
   57   17   54 1     
   58   17   55 1     
   59   19   56 1     
   60   19   57 1     
   61   21   58 1     
   62   21   59 1     
@<TRIPOS>SUBSTRUCTURE
      1 S1             1
@<TRIPOS>SET
LONE_PAIRS      STATIC     ATOMS    <user>   **** ""
11 49 50 51 52 53 54 55 56 57 58 59
DONOR_HYDROGENS      STATIC     ATOMS    <user>   **** ""
4 37 42 43 44
ATOM$BLUE        STATIC     ATOMS    COLORGROUP SYSTEM
11 49 50 51 52 53 54 55 56 57 58 59
ATOM$RED        STATIC     ATOMS    COLORGROUP SYSTEM
4 37 42 43 44
