AV-unprocessed.smi:1450|AV-procd|sdf|5898|dock9
  -GOLD-   22720 5583D 1   1.00000     0.00000
 Structure written by MMmdl.
 31 32  0  0  0  0  0  0  0  0  1 V2000
  144.7438  136.7849  152.2668 O   0  0  0  0  0  0  0  0  0  0  0  0
  145.9489  136.5725  152.1365 C   0  0  0  0  0  0  0  0  0  0  0  0
  146.8941  137.4721  152.4432 N   0  0  0  0  0  0  0  0  0  0  0  0
  146.6395  138.8193  152.9429 C   0  0  0  0  0  0  0  0  0  0  0  0
  147.9248  139.6674  153.0024 C   0  0  1  0  0  0  0  0  0  0  0  0
  147.7038  141.0939  153.4882 C   0  0  0  0  0  0  0  0  0  0  0  0
  148.9680  141.4212  154.2916 C   0  0  0  0  0  0  0  0  0  0  0  0
  149.8138  140.2859  154.1617 O   0  0  0  0  0  0  0  0  0  0  0  0
  148.9865  139.1515  153.9712 C   0  0  0  0  0  0  0  0  0  0  0  0
  146.4959  135.4282  151.6918 N   0  0  0  0  0  0  0  0  0  0  0  0
  145.8449  134.2496  151.2355 C   0  0  0  0  0  0  0  0  0  0  0  0
  144.4350  134.2311  151.2445 C   0  0  0  0  0  0  0  0  0  0  0  0
  143.7599  133.0724  150.8165 C   0  0  0  0  0  0  0  0  0  0  0  0
  144.5263  131.9666  150.4011 C   0  0  0  0  0  0  0  0  0  0  0  0
  145.8757  131.9610  150.3989 N   0  0  0  0  0  0  0  0  0  0  0  0
  146.5171  133.0766  150.8093 C   0  0  0  0  0  0  0  0  0  0  0  0
  147.8606  137.2107  152.3135 H   0  0  0  0  0  0  0  0  0  0  0  0
  145.8897  139.3112  152.3212 H   0  0  0  0  0  0  0  0  0  0  0  0
  146.2028  138.7305  153.9382 H   0  0  0  0  0  0  0  0  0  0  0  0
  148.3727  139.7186  152.0086 H   0  0  0  0  0  0  0  0  0  0  0  0
  147.5606  141.7792  152.6520 H   0  0  0  0  0  0  0  0  0  0  0  0
  146.8262  141.1676  154.1321 H   0  0  0  0  0  0  0  0  0  0  0  0
  149.4710  142.3179  153.9289 H   0  0  0  0  0  0  0  0  0  0  0  0
  148.7241  141.5712  155.3442 H   0  0  0  0  0  0  0  0  0  0  0  0
  148.5459  138.8539  154.9243 H   0  0  0  0  0  0  0  0  0  0  0  0
  149.5502  138.3084  153.5711 H   0  0  0  0  0  0  0  0  0  0  0  0
  147.5039  135.3809  151.7178 H   0  0  0  0  0  0  0  0  0  0  0  0
  143.8744  135.0946  151.5720 H   0  0  0  0  0  0  0  0  0  0  0  0
  142.6808  133.0314  150.8079 H   0  0  0  0  0  0  0  0  0  0  0  0
  144.0425  131.0607  150.0671 H   0  0  0  0  0  0  0  0  0  0  0  0
  147.5929  132.9998  150.8083 H   0  0  0  0  0  0  0  0  0  0  0  0
  1  2  2  0  0  0  0
  2  3  1  0  0  0  0
  2 10  1  0  0  0  0
  3  4  1  0  0  0  0
  3 17  1  0  0  0  0
  4  5  1  0  0  0  0
  4 18  1  0  0  0  0
  4 19  1  0  0  0  0
  5  9  1  0  0  0  0
  5  6  1  0  0  0  0
  5 20  1  0  0  0  0
  6  7  1  0  0  0  0
  6 21  1  0  0  0  0
  6 22  1  0  0  0  0
  7  8  1  0  0  0  0
  7 23  1  0  0  0  0
  7 24  1  0  0  0  0
  8  9  1  0  0  0  0
  9 25  1  0  0  0  0
  9 26  1  0  0  0  0
 10 11  1  0  0  0  0
 10 27  1  0  0  0  0
 11 16  1  0  0  0  0
 11 12  2  0  0  0  0
 12 13  1  0  0  0  0
 12 28  1  0  0  0  0
 13 14  2  0  0  0  0
 13 29  1  0  0  0  0
 14 15  1  0  0  0  0
 14 30  1  0  0  0  0
 15 16  2  0  0  0  0
 16 31  1  0  0  0  0
M  END
> <s_m_source_file>
AV-unprocessed.smi

> <i_m_source_file_index>
1450

> <i_lp_mmshare_version>
43012

> <i_f3d_flags>
0

> <s_epik_input>
W2NIXTFuW2NIXVtjSF1bY0hdYzFbTkhdQyg9TylbTkhdW0NIMl1bQ0BASF0yW0NIMl1bQ0gyXU9bQ0gyXTI=

> <s_epik_cmdline>
J2VwaWtfcHl0aG9uJywgJy1waCcsICc3LjAnLCAnLXRuJywgJzgnLCAnLW1hJywgJzIwMCcsICctbWV0YWxfYmluZGluZycsICctaW1hZScsICc8aW5maWxlLm1hZT4nLCAnLW9tYWUnLCAnPG91dGZpbGUubWFlPic=

> <r_epik_Ionization_Penalty>
0.00478342

> <r_epik_Ionization_Penalty_Charging>
0

> <r_epik_Ionization_Penalty_Neutral>
0.00478342

> <r_epik_State_Penalty>
0.0034384

> <r_epik_Charging_Adjusted_Penalty>
0.0034384

> <i_epik_Tot_Q>
0

> <i_epik_Tot_abs_Q>
0

> <r_epik_Metal_State_Penalty>
-0

> <b_epik_Metal_Only>
0

> <s_lp_Force_Field>
OPLS_2005

> <r_lp_Energy>
21.9504

> <b_lp_Chiralities_Consistent>
1

> <s_lp_Variant>
AV-unprocessed.smi:1450-2

> <Gold.Version>
5.8.1

> <Gold.Id.Protein>
6NUR|6NUR_protein|mol2

> <Gold.PLP.Fitness>
38.8586

> <Gold.PLP.PLP>
-28.2755

> <Gold.PLP.part.hbond>
-2.7971

> <Gold.PLP.part.metal>
0.0000

> <Gold.PLP.part.buried>
0.6582

> <Gold.PLP.part.nonpolar>
-26.5788

> <Gold.PLP.part.repulsive>
0.8004

> <Gold.PLP.ligand.clash>
0.0000

> <Gold.PLP.ligand.torsion>
0.0374

> <Gold.PLP.Chemscore.Hbond>
2.7743

> <Gold.PLP.Chemscore.CHOScore>
0.7775

> <Gold.PLP.Chemscore.Metal>
0.0000

> <Gold.Chemscore.Hbonds>
donor molecule, donor type, donor heavy atom, donor atom, acceptor molecule, acceptor atom, score
      L1  H     3    17       P1  7948  0.98
      L1  H    10    27       P1  7948  0.96
      P1  H  7989  7998       L1     8  0.82
      L1  C    16    31       P1 10747  0.78

> <Gold.PLP.Chemscore.Internal.Correction>
0.0023

> <Gold.Rescore>
     Score         DG    S(hbond)    S(metal)    S(lipo)     H(rot)  DE(clash)    DE(int)     intcor
     16.00     -18.89       2.49        0.00      70.53       1.24       1.38       1.51       ----

> <Gold.Chemscore.Fitness>
16.0005

> <Gold.Chemscore.DG>
-18.8917

> <Gold.Chemscore.ZeroCoef>
-5.4800

> <Gold.Chemscore.Hbond>
2.4945

> <Gold.Chemscore.Metal>
0.0000

> <Gold.Chemscore.Lipo>
70.5281

> <Gold.Chemscore.Internal_Hbond>
0.0000

> <Gold.Chemscore.DEClash>
1.3808

> <Gold.Chemscore.DEInternal>
1.5104

> <Gold.Chemscore.Rot>
1.2390

> <Gold.Chemscore.Internal.Correction>
   9.000000E+99

> <Gold.Chemscore.Hbonds>
donor molecule, donor type, donor heavy atom, donor atom, acceptor molecule, acceptor atom, score
      L1  H     3    17       P1  7948  0.89
      L1  H    10    27       P1  7948  0.88
      P1  H  7989  7998       L1     8  0.54

> <Gold.Chemscore.Hbond.Weighted>
-8.3317

> <Gold.Chemscore.Metal.Weighted>
-0.0000

> <Gold.Chemscore.Lipo.Weighted>
-8.2518

> <Gold.Chemscore.Internal_Hbond.Weighted>
0.0000

> <Gold.Chemscore.DEClash.Weighted>
1.3808

> <Gold.Chemscore.DEInternal.Weighted>
1.5104

> <Gold.Chemscore.Rot.Weighted>
3.1718

> <Gold.Chemscore.Internal.Correction.Weighted>
   9.000000E+99

> <Gold.Protein.RotatedTorsions>
[ 6907 6896 6895 6894 ] final  -26.50 input  -60.11 | X-H torsion
[ 7974 7965 7964 7962 ] final  -33.58 input  175.53 | X-H torsion
[ 8008 7997 7996 7995 ] final    6.51 input   59.86 | X-H torsion
[ 10167 10162 10161 10158 ] final  -90.80 input  -65.29 | X-H torsion
[ 10718 10713 10712 10709 ] final  150.75 input   66.30 | X-H torsion
[ 10763 10752 10751 10750 ] final -165.38 input  -60.55 | X-H torsion
[ 11005 11000 10999 10996 ] final -175.52 input  -57.11 | X-H torsion

> <Gold.Protein.ActiveResidues>
 VAL166  LYS551  ARG553  GLY616  TRP617  ASP618  TYR619  PRO620  LYS621  CYS622 
 ASP623  PHE694  ASN695  SER759  ASP760  ASP761  ALA762  ILE779  LEU786  VAL792 
 PHE793  MET794  SER795  GLU796  ALA797  LYS798  CYS799  TRP800  GLU811  SER814 

> <Gold.Protein.RotatedAtoms>
  151.1601  135.0269  159.8706 H   0  0  0  0  0  0  0  0  0  0  0  0  # atno 6907 bound_to 6896
  152.5451  134.1289  159.8441 H   0  0  0  0  0  0  0  0  0  0  0  0  # atno 6908 bound_to 6896
  151.1384  133.4942  159.2630 H   0  0  0  0  0  0  0  0  0  0  0  0  # atno 6909 bound_to 6896
  146.0899  140.5934  142.8869 H   0  0  0  0  0  0  0  0  0  0  0  0  # atno 7974 bound_to 7965
  154.7420  140.2750  155.6365 H   0  0  0  0  0  0  0  0  0  0  0  0  # atno 8008 bound_to 7997
  156.2876  140.2695  156.2076 H   0  0  0  0  0  0  0  0  0  0  0  0  # atno 8009 bound_to 7997
  155.0246  140.0371  157.2440 H   0  0  0  0  0  0  0  0  0  0  0  0  # atno 8010 bound_to 7997
  140.3513  143.2890  151.9723 H   0  0  0  0  0  0  0  0  0  0  0  0  # atno 10167 bound_to 10162
  157.2795  131.0832  151.1542 H   0  0  0  0  0  0  0  0  0  0  0  0  # atno 10718 bound_to 10713
  154.6938  135.2975  154.9442 H   0  0  0  0  0  0  0  0  0  0  0  0  # atno 10763 bound_to 10752
  154.0396  135.6659  153.4792 H   0  0  0  0  0  0  0  0  0  0  0  0  # atno 10764 bound_to 10752
  153.0631  135.5104  154.8044 H   0  0  0  0  0  0  0  0  0  0  0  0  # atno 10765 bound_to 10752
  140.4624  134.6242  157.4848 H   0  0  0  0  0  0  0  0  0  0  0  0  # atno 11005 bound_to 11000
  144.7352  140.4788  143.6909 LP  0  0  0  0  0  0  0  0  0  0  0  0  # atno 17320 bound_to 7965
  145.6059  139.1508  143.3103 LP  0  0  0  0  0  0  0  0  0  0  0  0  # atno 17321 bound_to 7965
  139.4826  144.6074  151.7497 LP  0  0  0  0  0  0  0  0  0  0  0  0  # atno 17342 bound_to 10162
  140.5216  144.0869  150.6024 LP  0  0  0  0  0  0  0  0  0  0  0  0  # atno 17343 bound_to 10162
  157.2982  130.6829  149.6150 LP  0  0  0  0  0  0  0  0  0  0  0  0  # atno 17370 bound_to 10713
  155.9664  130.4400  150.5282 LP  0  0  0  0  0  0  0  0  0  0  0  0  # atno 17371 bound_to 10713
  139.9937  134.6945  155.9646 LP  0  0  0  0  0  0  0  0  0  0  0  0  # atno 17394 bound_to 11000
  141.1615  133.6538  156.4335 LP  0  0  0  0  0  0  0  0  0  0  0  0  # atno 17395 bound_to 11000

$$$$
