AV-unprocessed.smi:942|AV-procd|sdf|4225|dock2
  -GOLD-   22720 2133D 1   1.00000     0.00000
 Structure written by MMmdl.
 42 44  0  0  0  0  0  0  0  0  1 V2000
  151.3900  141.1739  159.2172 O   0  0  0  0  0  0  0  0  0  0  0  0
  151.7017  141.9232  158.2917 C   0  0  0  0  0  0  0  0  0  0  0  0
  151.3007  141.7211  157.0272 N   0  0  0  0  0  0  0  0  0  0  0  0
  150.4481  140.6226  156.5807 C   0  0  2  0  0  0  0  0  0  0  0  0
  151.1716  139.2632  156.6837 C   0  0  0  0  0  0  0  0  0  0  0  0
  151.3523  138.7591  155.2496 C   0  0  0  0  0  0  0  0  0  0  0  0
  150.2003  139.3925  154.4760 C   0  0  0  0  0  0  0  0  0  0  0  0
  150.0786  140.7908  155.0914 C   0  0  1  0  0  0  0  0  0  0  0  0
  148.7762  141.4061  154.8880 N   0  0  0  0  0  0  0  0  0  0  0  0
  148.1612  141.7235  153.6817 C   0  0  0  0  0  0  0  0  0  0  0  0
  146.9375  142.2711  153.9939 C   0  0  0  0  0  0  0  0  0  0  0  0
  146.7740  142.2946  155.3765 N   0  0  0  0  0  0  0  0  0  0  0  0
  147.8997  141.7645  155.8368 C   0  0  0  0  0  0  0  0  0  0  0  0
  152.5882  143.1593  158.5348 C   0  0  0  0  0  0  0  0  0  0  0  0
  152.9688  143.3368  160.0241 C   0  0  0  0  0  0  0  0  0  0  0  0
  151.8339  143.9223  160.8853 C   0  0  0  0  0  0  0  0  0  0  0  0
  151.3014  145.2340  160.2896 C   0  0  0  0  0  0  0  0  0  0  0  0
  150.8411  145.0397  158.8370 C   0  0  0  0  0  0  0  0  0  0  0  0
  151.9696  144.4581  157.9644 C   0  0  0  0  0  0  0  0  0  0  0  0
  151.6007  142.3807  156.3241 H   0  0  0  0  0  0  0  0  0  0  0  0
  149.5455  140.5871  157.1940 H   0  0  0  0  0  0  0  0  0  0  0  0
  152.1244  139.3171  157.2126 H   0  0  0  0  0  0  0  0  0  0  0  0
  150.5420  138.5644  157.2362 H   0  0  0  0  0  0  0  0  0  0  0  0
  152.3026  139.1179  154.8516 H   0  0  0  0  0  0  0  0  0  0  0  0
  151.3538  137.6707  155.1850 H   0  0  0  0  0  0  0  0  0  0  0  0
  150.3827  139.4218  153.4014 H   0  0  0  0  0  0  0  0  0  0  0  0
  149.2934  138.8103  154.6444 H   0  0  0  0  0  0  0  0  0  0  0  0
  150.8270  141.4202  154.6048 H   0  0  0  0  0  0  0  0  0  0  0  0
  148.6306  141.5372  152.7268 H   0  0  0  0  0  0  0  0  0  0  0  0
  146.1667  142.6431  153.3350 H   0  0  0  0  0  0  0  0  0  0  0  0
  148.0898  141.6327  156.8921 H   0  0  0  0  0  0  0  0  0  0  0  0
  153.5175  142.9857  157.9893 H   0  0  0  0  0  0  0  0  0  0  0  0
  153.2949  142.3851  160.4461 H   0  0  0  0  0  0  0  0  0  0  0  0
  153.8329  143.9995  160.0873 H   0  0  0  0  0  0  0  0  0  0  0  0
  151.0201  143.2036  160.9791 H   0  0  0  0  0  0  0  0  0  0  0  0
  152.1964  144.0997  161.8982 H   0  0  0  0  0  0  0  0  0  0  0  0
  150.4751  145.6083  160.8947 H   0  0  0  0  0  0  0  0  0  0  0  0
  152.0818  145.9951  160.3268 H   0  0  0  0  0  0  0  0  0  0  0  0
  149.9685  144.3871  158.8120 H   0  0  0  0  0  0  0  0  0  0  0  0
  150.5141  145.9946  158.4247 H   0  0  0  0  0  0  0  0  0  0  0  0
  152.7569  145.2067  157.8669 H   0  0  0  0  0  0  0  0  0  0  0  0
  151.5986  144.2867  156.9530 H   0  0  0  0  0  0  0  0  0  0  0  0
  1  2  2  0  0  0  0
  2  3  1  0  0  0  0
  2 14  1  0  0  0  0
  3  4  1  0  0  0  0
  3 20  1  0  0  0  0
  4  8  1  0  0  0  0
  4  5  1  0  0  0  0
  4 21  1  0  0  0  0
  5  6  1  0  0  0  0
  5 22  1  0  0  0  0
  5 23  1  0  0  0  0
  6  7  1  0  0  0  0
  6 24  1  0  0  0  0
  6 25  1  0  0  0  0
  7  8  1  0  0  0  0
  7 26  1  0  0  0  0
  7 27  1  0  0  0  0
  8  9  1  0  0  0  0
  8 28  1  0  0  0  0
  9 13  1  0  0  0  0
  9 10  1  0  0  0  0
 10 11  2  0  0  0  0
 10 29  1  0  0  0  0
 11 12  1  0  0  0  0
 11 30  1  0  0  0  0
 12 13  2  0  0  0  0
 13 31  1  0  0  0  0
 14 19  1  0  0  0  0
 14 15  1  0  0  0  0
 14 32  1  0  0  0  0
 15 16  1  0  0  0  0
 15 33  1  0  0  0  0
 15 34  1  0  0  0  0
 16 17  1  0  0  0  0
 16 35  1  0  0  0  0
 16 36  1  0  0  0  0
 17 18  1  0  0  0  0
 17 37  1  0  0  0  0
 17 38  1  0  0  0  0
 18 19  1  0  0  0  0
 18 39  1  0  0  0  0
 18 40  1  0  0  0  0
 19 41  1  0  0  0  0
 19 42  1  0  0  0  0
M  END
> <s_m_source_file>
AV-unprocessed.smi

> <i_m_source_file_index>
942

> <i_lp_mmshare_version>
43012

> <i_f3d_flags>
0

> <s_epik_input>
W0NIMl0xW0NIMl1bQ0gyXVtDSDJdW0NIMl1bQ0hdMUMoPU8pW05IXVtDQEBIXTJbQ0gyXVtDSDJdW0NIMl1bQ0BIXTJuM1tjSF1bY0hdbltjSF0z

> <s_epik_cmdline>
J2VwaWtfcHl0aG9uJywgJy1waCcsICc3LjAnLCAnLXRuJywgJzgnLCAnLW1hJywgJzIwMCcsICctbWV0YWxfYmluZGluZycsICctaW1hZScsICc8aW5maWxlLm1hZT4nLCAnLW9tYWUnLCAnPG91dGZpbGUubWFlPic=

> <r_lp_tautomer_probability>
1

> <r_epik_Ionization_Penalty>
0.778458

> <r_epik_Ionization_Penalty_Charging>
0.778458

> <r_epik_Ionization_Penalty_Neutral>
2.79355e-08

> <r_epik_State_Penalty>
0.807804

> <r_epik_Charging_Adjusted_Penalty>
1.58626

> <i_epik_Tot_Q>
0

> <i_epik_Tot_abs_Q>
0

> <r_epik_Metal_State_Penalty>
0.343007

> <b_epik_Metal_Only>
0

> <s_lp_Force_Field>
OPLS_2005

> <r_lp_Energy>
30.2661

> <b_lp_Chiralities_Consistent>
1

> <s_lp_Variant>
AV-unprocessed.smi:942-5

> <Gold.Version>
5.8.1

> <Gold.Id.Protein>
6NUR|6NUR_protein|mol2

> <Gold.PLP.Fitness>
47.5992

> <Gold.PLP.PLP>
-44.8405

> <Gold.PLP.part.hbond>
0.0000

> <Gold.PLP.part.metal>
0.0000

> <Gold.PLP.part.buried>
-3.4391

> <Gold.PLP.part.nonpolar>
-41.0304

> <Gold.PLP.part.repulsive>
0.2254

> <Gold.PLP.ligand.clash>
0.0000

> <Gold.PLP.ligand.torsion>
0.1272

> <Gold.PLP.Chemscore.Hbond>
0.0000

> <Gold.PLP.Chemscore.CHOScore>
0.9884

> <Gold.PLP.Chemscore.Metal>
0.0000

> <Gold.Chemscore.Hbonds>
donor molecule, donor type, donor heavy atom, donor atom, acceptor molecule, acceptor atom, score
      L1  C    10    29       P1  7957  1.00

> <Gold.PLP.Chemscore.Internal.Correction>
0.0479

> <Gold.Rescore>
     Score         DG    S(hbond)    S(metal)    S(lipo)     H(rot)  DE(clash)    DE(int)     intcor
     15.50     -15.63       0.00        0.00     118.23       1.44       0.04       0.09       ----

> <Gold.Chemscore.Fitness>
15.4950

> <Gold.Chemscore.DG>
-15.6276

> <Gold.Chemscore.ZeroCoef>
-5.4800

> <Gold.Chemscore.Hbond>
0.0000

> <Gold.Chemscore.Metal>
0.0000

> <Gold.Chemscore.Lipo>
118.2291

> <Gold.Chemscore.Internal_Hbond>
0.0000

> <Gold.Chemscore.DEClash>
0.0447

> <Gold.Chemscore.DEInternal>
0.0878

> <Gold.Chemscore.Rot>
1.4395

> <Gold.Chemscore.Internal.Correction>
   9.000000E+99

> <Gold.Chemscore.Hbond.Weighted>
-0.0000

> <Gold.Chemscore.Metal.Weighted>
-0.0000

> <Gold.Chemscore.Lipo.Weighted>
-13.8328

> <Gold.Chemscore.Internal_Hbond.Weighted>
0.0000

> <Gold.Chemscore.DEClash.Weighted>
0.0447

> <Gold.Chemscore.DEInternal.Weighted>
0.0878

> <Gold.Chemscore.Rot.Weighted>
3.6852

> <Gold.Chemscore.Internal.Correction.Weighted>
   9.000000E+99

> <Gold.Protein.RotatedTorsions>
[ 6907 6896 6895 6894 ] final -149.94 input  -60.11 | X-H torsion
[ 7974 7965 7964 7962 ] final  -81.95 input  175.53 | X-H torsion
[ 8008 7997 7996 7995 ] final   96.81 input   59.86 | X-H torsion
[ 10167 10162 10161 10158 ] final   70.19 input  -65.29 | X-H torsion
[ 10718 10713 10712 10709 ] final   14.19 input   66.30 | X-H torsion
[ 10763 10752 10751 10750 ] final  -64.79 input  -60.55 | X-H torsion
[ 11005 11000 10999 10996 ] final  -22.68 input  -57.11 | X-H torsion

> <Gold.Protein.ActiveResidues>
 VAL166  LYS551  ARG553  GLY616  TRP617  ASP618  TYR619  PRO620  LYS621  CYS622 
 ASP623  PHE694  ASN695  SER759  ASP760  ASP761  ALA762  ILE779  LEU786  VAL792 
 PHE793  MET794  SER795  GLU796  ALA797  LYS798  CYS799  TRP800  GLU811  SER814 

> <Gold.Protein.RotatedAtoms>
  151.1913  133.4665  159.2594 H   0  0  0  0  0  0  0  0  0  0  0  0  # atno 6907 bound_to 6896
  151.1161  135.0053  159.8527 H   0  0  0  0  0  0  0  0  0  0  0  0  # atno 6908 bound_to 6896
  152.5453  134.1828  159.8695 H   0  0  0  0  0  0  0  0  0  0  0  0  # atno 6909 bound_to 6896
  145.5398  140.9511  143.1557 H   0  0  0  0  0  0  0  0  0  0  0  0  # atno 7974 bound_to 7965
  156.0836  140.3267  155.7725 H   0  0  0  0  0  0  0  0  0  0  0  0  # atno 8008 bound_to 7997
  155.5113  140.0577  157.2940 H   0  0  0  0  0  0  0  0  0  0  0  0  # atno 8009 bound_to 7997
  154.4596  140.1960  156.0298 H   0  0  0  0  0  0  0  0  0  0  0  0  # atno 8010 bound_to 7997
  140.0596  144.5244  150.7304 H   0  0  0  0  0  0  0  0  0  0  0  0  # atno 10167 bound_to 10162
  157.0356  130.6210  149.5742 H   0  0  0  0  0  0  0  0  0  0  0  0  # atno 10718 bound_to 10713
  154.3354  135.6168  153.5571 H   0  0  0  0  0  0  0  0  0  0  0  0  # atno 10763 bound_to 10752
  152.9808  135.5756  154.4914 H   0  0  0  0  0  0  0  0  0  0  0  0  # atno 10764 bound_to 10752
  154.4608  135.2856  155.1691 H   0  0  0  0  0  0  0  0  0  0  0  0  # atno 10765 bound_to 10752
  140.8680  133.7741  156.0153 H   0  0  0  0  0  0  0  0  0  0  0  0  # atno 11005 bound_to 11000
  144.7583  139.7019  143.7245 LP  0  0  0  0  0  0  0  0  0  0  0  0  # atno 17320 bound_to 7965
  146.1989  139.5272  142.9756 LP  0  0  0  0  0  0  0  0  0  0  0  0  # atno 17321 bound_to 7965
  140.7178  143.2560  151.4378 LP  0  0  0  0  0  0  0  0  0  0  0  0  # atno 17342 bound_to 10162
  139.5902  144.1516  152.2078 LP  0  0  0  0  0  0  0  0  0  0  0  0  # atno 17343 bound_to 10162
  156.0055  130.5141  150.7814 LP  0  0  0  0  0  0  0  0  0  0  0  0  # atno 17370 bound_to 10713
  157.5144  131.0927  151.0158 LP  0  0  0  0  0  0  0  0  0  0  0  0  # atno 17371 bound_to 10713
  140.8606  134.2845  157.5236 LP  0  0  0  0  0  0  0  0  0  0  0  0  # atno 17394 bound_to 11000
  139.8710  134.9516  156.4090 LP  0  0  0  0  0  0  0  0  0  0  0  0  # atno 17395 bound_to 11000

$$$$
