AV-unprocessed.smi:1815|AV-procd|sdf|7363|dock5
  -GOLD-   22720 9 23D 1   1.00000     0.00000
 Structure written by MMmdl.
 39 40  0  0  0  0  0  0  0  0  3 V2000
  153.3797  138.6681  154.5543 C   0  0  0  0  0  0  0  0  0  0  0  0
  151.8463  138.5840  154.4493 C   0  0  1  0  0  0  0  0  0  0  0  0
  151.2162  137.5727  155.4274 C   0  0  0  0  0  0  0  0  0  0  0  0
  151.2336  138.0882  156.8169 N   0  3  2  0  0  0  0  0  0  0  0  0
  150.6934  137.1082  157.7911 C   0  0  0  0  0  0  0  0  0  0  0  0
  149.1739  136.9283  157.6541 C   0  0  0  0  0  0  0  0  0  0  0  0
  148.5047  137.3068  158.8904 N   0  0  0  0  0  0  0  0  0  0  0  0
  148.2967  136.4921  159.9329 C   0  0  0  0  0  0  0  0  0  0  0  0
  148.6894  135.3239  159.8859 O   0  0  0  0  0  0  0  0  0  0  0  0
  147.6481  137.0818  160.9618 N   0  5  0  0  0  0  0  0  0  0  0  0
  146.6529  136.4335  161.5889 C   0  0  0  0  0  0  0  0  0  0  0  0
  145.4780  137.0053  161.8766 N   0  0  0  0  0  0  0  0  0  0  0  0
  144.5917  136.1517  162.5359 C   0  0  0  0  0  0  0  0  0  0  0  0
  145.1071  134.9033  162.7633 C   0  0  0  0  0  0  0  0  0  0  0  0
  146.7304  134.7616  162.1520 S   0  0  0  0  0  0  0  0  0  0  0  0
  150.5739  139.4147  156.8804 C   0  0  0  0  0  0  0  0  0  0  0  0
  151.2514  140.3986  155.9099 C   0  0  2  0  0  0  0  0  0  0  0  0
  150.5416  141.7568  155.8804 C   0  0  0  0  0  0  0  0  0  0  0  0
  151.2234  139.8608  154.5901 O   0  0  0  0  0  0  0  0  0  0  0  0
  153.8358  137.7084  154.3108 H   0  0  0  0  0  0  0  0  0  0  0  0
  153.7134  138.9394  155.5556 H   0  0  0  0  0  0  0  0  0  0  0  0
  153.7767  139.4063  153.8572 H   0  0  0  0  0  0  0  0  0  0  0  0
  151.6198  138.2495  153.4364 H   0  0  0  0  0  0  0  0  0  0  0  0
  150.1832  137.3745  155.1359 H   0  0  0  0  0  0  0  0  0  0  0  0
  151.7477  136.6218  155.3707 H   0  0  0  0  0  0  0  0  0  0  0  0
  151.2102  136.1530  157.6838 H   0  0  0  0  0  0  0  0  0  0  0  0
  150.9013  137.4604  158.8030 H   0  0  0  0  0  0  0  0  0  0  0  0
  148.7965  137.5431  156.8351 H   0  0  0  0  0  0  0  0  0  0  0  0
  148.9194  135.8929  157.4271 H   0  0  0  0  0  0  0  0  0  0  0  0
  148.1688  138.2560  158.9664 H   0  0  0  0  0  0  0  0  0  0  0  0
  143.6131  136.5178  162.8081 H   0  0  0  0  0  0  0  0  0  0  0  0
  144.6351  134.0637  163.2507 H   0  0  0  0  0  0  0  0  0  0  0  0
  149.5161  139.3078  156.6343 H   0  0  0  0  0  0  0  0  0  0  0  0
  150.6258  139.8174  157.8915 H   0  0  0  0  0  0  0  0  0  0  0  0
  152.2837  140.5649  156.2188 H   0  0  0  0  0  0  0  0  0  0  0  0
  150.5414  142.2211  156.8668 H   0  0  0  0  0  0  0  0  0  0  0  0
  149.5048  141.6550  155.5582 H   0  0  0  0  0  0  0  0  0  0  0  0
  151.0382  142.4410  155.1921 H   0  0  0  0  0  0  0  0  0  0  0  0
  152.2051  138.2250  157.0574 H   0  0  0  0  0  0  0  0  0  0  0  0
  1  2  1  0  0  0  0
  1 20  1  0  0  0  0
  1 21  1  0  0  0  0
  1 22  1  0  0  0  0
  2 19  1  0  0  0  0
  2  3  1  0  0  0  0
  2 23  1  0  0  0  0
  3  4  1  0  0  0  0
  3 24  1  0  0  0  0
  3 25  1  0  0  0  0
  4  5  1  0  0  0  0
  4 16  1  0  0  0  0
  4 39  1  0  0  0  0
  5  6  1  0  0  0  0
  5 26  1  0  0  0  0
  5 27  1  0  0  0  0
  6  7  1  0  0  0  0
  6 28  1  0  0  0  0
  6 29  1  0  0  0  0
  7  8  1  0  0  0  0
  7 30  1  0  0  0  0
  8  9  2  0  0  0  0
  8 10  1  0  0  0  0
 10 11  1  0  0  0  0
 11 15  1  0  0  0  0
 11 12  2  0  0  0  0
 12 13  1  0  0  0  0
 13 14  2  0  0  0  0
 13 31  1  0  0  0  0
 14 15  1  0  0  0  0
 14 32  1  0  0  0  0
 16 17  1  0  0  0  0
 16 33  1  0  0  0  0
 16 34  1  0  0  0  0
 17 18  1  0  0  0  0
 17 19  1  0  0  0  0
 17 35  1  0  0  0  0
 18 36  1  0  0  0  0
 18 37  1  0  0  0  0
 18 38  1  0  0  0  0
M  CHG  1   4   1
M  CHG  1  10  -1
M  END
> <s_m_source_file>
AV-unprocessed.smi

> <i_m_source_file_index>
1815

> <i_lp_mmshare_version>
43012

> <i_f3d_flags>
0

> <s_epik_input>
W0NIM11bQ0BASF0xW0NIMl1OKFtDSDJdW0NASF0oTzEpW0NIM10pW0NIMl1bQ0gyXVtOSF1DKD1PKVtOSF1jMm5bY0hdW2NIXXMy

> <s_epik_cmdline>
J2VwaWtfcHl0aG9uJywgJy1waCcsICc3LjAnLCAnLXRuJywgJzgnLCAnLW1hJywgJzIwMCcsICctbWV0YWxfYmluZGluZycsICctaW1hZScsICc8aW5maWxlLm1hZT4nLCAnLW9tYWUnLCAnPG91dGZpbGUubWFlPic=

> <r_lp_tautomer_probability>
0.999

> <r_epik_Ionization_Penalty>
6.71699

> <r_epik_Ionization_Penalty_Charging>
5.88592

> <r_epik_Ionization_Penalty_Neutral>
0.831074

> <r_epik_State_Penalty>
6.08365

> <r_epik_Charging_Adjusted_Penalty>
11.9696

> <i_epik_Tot_Q>
0

> <i_epik_Tot_abs_Q>
2

> <r_epik_Metal_State_Penalty>
2.0947

> <b_epik_Metal_Only>
1

> <s_lp_Force_Field>
OPLS_2005

> <r_lp_Energy>
8.63778

> <b_lp_Chiralities_Consistent>
1

> <s_lp_Variant>
AV-unprocessed.smi:1815-14

> <Gold.Version>
5.8.1

> <Gold.Id.Protein>
6NUR|6NUR_protein|mol2

> <Gold.PLP.Fitness>
45.7665

> <Gold.PLP.PLP>
-31.4404

> <Gold.PLP.part.hbond>
-4.0000

> <Gold.PLP.part.metal>
0.0000

> <Gold.PLP.part.buried>
-4.3984

> <Gold.PLP.part.nonpolar>
-23.4416

> <Gold.PLP.part.repulsive>
0.2854

> <Gold.PLP.ligand.clash>
0.0000

> <Gold.PLP.ligand.torsion>
1.3559

> <Gold.PLP.Chemscore.Hbond>
5.6644

> <Gold.PLP.Chemscore.CHOScore>
0.0000

> <Gold.PLP.Chemscore.Metal>
0.0000

> <Gold.Chemscore.Hbonds>
donor molecule, donor type, donor heavy atom, donor atom, acceptor molecule, acceptor atom, score
      P1  H  6896  6908       L1     9  0.73
      P1  H  6931  6943       L1    10  1.81
      P1  H  6934  6947       L1    10  1.89
      P1  H  7989  7998       L1    19  1.00

> <Gold.PLP.Chemscore.Internal.Correction>
0.0446

> <Gold.Rescore>
     Score         DG    S(hbond)    S(metal)    S(lipo)     H(rot)  DE(clash)    DE(int)     intcor
     17.19     -19.61       2.95        0.00      71.77       1.61       0.12       2.30       ----

> <Gold.Chemscore.Fitness>
17.1901

> <Gold.Chemscore.DG>
-19.6120

> <Gold.Chemscore.ZeroCoef>
-5.4800

> <Gold.Chemscore.Hbond>
2.9479

> <Gold.Chemscore.Metal>
0.0000

> <Gold.Chemscore.Lipo>
71.7722

> <Gold.Chemscore.Internal_Hbond>
0.0000

> <Gold.Chemscore.DEClash>
0.1242

> <Gold.Chemscore.DEInternal>
2.2977

> <Gold.Chemscore.Rot>
1.6060

> <Gold.Chemscore.Internal.Correction>
   9.000000E+99

> <Gold.Chemscore.Hbonds>
donor molecule, donor type, donor heavy atom, donor atom, acceptor molecule, acceptor atom, score
      P1  H  6896  6908       L1     9  0.70
      P1  H  6931  6943       L1    10  0.45
      P1  H  6934  6947       L1    10  0.57
      P1  H  7989  7998       L1    19  0.71

> <Gold.Chemscore.Hbond.Weighted>
-9.8459

> <Gold.Chemscore.Metal.Weighted>
-0.0000

> <Gold.Chemscore.Lipo.Weighted>
-8.3973

> <Gold.Chemscore.Internal_Hbond.Weighted>
0.0000

> <Gold.Chemscore.DEClash.Weighted>
0.1242

> <Gold.Chemscore.DEInternal.Weighted>
2.2977

> <Gold.Chemscore.Rot.Weighted>
4.1112

> <Gold.Chemscore.Internal.Correction.Weighted>
   9.000000E+99

> <Gold.Protein.RotatedTorsions>
[ 6907 6896 6895 6894 ] final  175.37 input  -60.11 | X-H torsion
[ 7974 7965 7964 7962 ] final  103.33 input  175.53 | X-H torsion
[ 8008 7997 7996 7995 ] final   79.80 input   59.86 | X-H torsion
[ 10167 10162 10161 10158 ] final  160.72 input  -65.29 | X-H torsion
[ 10718 10713 10712 10709 ] final -161.69 input   66.30 | X-H torsion
[ 10763 10752 10751 10750 ] final   80.96 input  -60.55 | X-H torsion
[ 11005 11000 10999 10996 ] final -150.01 input  -57.11 | X-H torsion

> <Gold.Protein.ActiveResidues>
 VAL166  LYS551  ARG553  GLY616  TRP617  ASP618  TYR619  PRO620  LYS621  CYS622 
 ASP623  PHE694  ASN695  SER759  ASP760  ASP761  ALA762  ILE779  LEU786  VAL792 
 PHE793  MET794  SER795  GLU796  ALA797  LYS798  CYS799  TRP800  GLU811  SER814 

> <Gold.Protein.RotatedAtoms>
  151.7373  133.3320  159.3356 H   0  0  0  0  0  0  0  0  0  0  0  0  # atno 6907 bound_to 6896
  150.7588  134.6309  159.6195 H   0  0  0  0  0  0  0  0  0  0  0  0  # atno 6908 bound_to 6896
  152.3553  134.6951  160.0275 H   0  0  0  0  0  0  0  0  0  0  0  0  # atno 6909 bound_to 6896
  145.3474  139.2447  143.3577 H   0  0  0  0  0  0  0  0  0  0  0  0  # atno 7974 bound_to 7965
  155.8747  140.3447  155.5845 H   0  0  0  0  0  0  0  0  0  0  0  0  # atno 8008 bound_to 7997
  155.7788  140.0855  157.2089 H   0  0  0  0  0  0  0  0  0  0  0  0  # atno 8009 bound_to 7997
  154.4020  140.1504  156.3015 H   0  0  0  0  0  0  0  0  0  0  0  0  # atno 8010 bound_to 7997
  139.4842  144.4607  151.8709 H   0  0  0  0  0  0  0  0  0  0  0  0  # atno 10167 bound_to 10162
  156.5999  130.8806  151.2911 H   0  0  0  0  0  0  0  0  0  0  0  0  # atno 10718 bound_to 10713
  153.1077  135.4783  154.8980 H   0  0  0  0  0  0  0  0  0  0  0  0  # atno 10763 bound_to 10752
  154.7447  135.3091  154.8667 H   0  0  0  0  0  0  0  0  0  0  0  0  # atno 10764 bound_to 10752
  153.9265  135.6849  153.4800 H   0  0  0  0  0  0  0  0  0  0  0  0  # atno 10765 bound_to 10752
  140.7447  134.3475  157.5140 H   0  0  0  0  0  0  0  0  0  0  0  0  # atno 11005 bound_to 11000
  146.2982  140.4083  142.8714 LP  0  0  0  0  0  0  0  0  0  0  0  0  # atno 17320 bound_to 7965
  144.8744  140.7316  143.6026 LP  0  0  0  0  0  0  0  0  0  0  0  0  # atno 17321 bound_to 7965
  140.4069  144.2420  150.5890 LP  0  0  0  0  0  0  0  0  0  0  0  0  # atno 17342 bound_to 10162
  140.5004  143.2320  151.8687 LP  0  0  0  0  0  0  0  0  0  0  0  0  # atno 17343 bound_to 10162
  157.7282  130.9654  150.1733 LP  0  0  0  0  0  0  0  0  0  0  0  0  # atno 17370 bound_to 10713
  156.2478  130.3697  149.8266 LP  0  0  0  0  0  0  0  0  0  0  0  0  # atno 17371 bound_to 10713
  139.8799  134.9103  156.3011 LP  0  0  0  0  0  0  0  0  0  0  0  0  # atno 17394 bound_to 11000
  140.9805  133.7270  156.0665 LP  0  0  0  0  0  0  0  0  0  0  0  0  # atno 17395 bound_to 11000

$$$$
