#       Name:                AV-unprocessed.smi:1454
#       Creating user name   scv26
#       Creation time:       Fri Mar 27 05:59:49 2020


#       File generated by GOLD software.
#

@<TRIPOS>MOLECULE
AV-unprocessed.smi:1454
    49    50     1
SMALL
NO_CHARGES


@<TRIPOS>ATOM
      1 ****        -1.9645   1.8978  -0.7152 O.2            1 S1                 0.0000
      2 ****        -1.3332   1.0955  -0.0264 C.2            1 S1                 0.0000
      3 ****         0.1925   1.1866   0.0847 C.3            1 S1                 0.0000
      4 ****         0.8494   1.8982  -1.1149 C.3            1 S1                 0.0000
      5 ****         2.2974   1.9839  -0.9628 N.am           1 S1                 0.0000
      6 ****         3.1624   0.9918  -1.2240 C.2            1 S1                 0.0000
      7 ****         2.8116  -0.1213  -1.6177 O.2            1 S1                 0.0000
      8 ****         4.6511   1.3079  -1.0042 C.3            1 S1                 0.0000
      9 ****         5.4702   1.1776  -2.3101 C.3            1 S1                 0.0000
     10 ****         6.5332   0.0987  -2.0667 C.3            1 S1                 0.0000
     11 ****         6.0188  -0.7134  -0.8817 C.3            1 S1                 0.0000
     12 ****         5.3026   0.3216  -0.0157 C.3            1 S1                 0.0000
     13 ****        -1.9189   0.1108   0.6700 N.am           1 S1                 0.0000
     14 ****        -3.3554  -0.1266   0.7070 C.3            1 S1                 0.0000
     15 ****        -3.6903  -1.2800   1.6620 C.3            1 S1                 0.0000
     16 ****        -5.1823  -1.5360   1.7450 C.ar           1 S1                 0.0000
     17 ****        -5.8130  -2.4383   0.8638 C.ar           1 S1                 0.0000
     18 ****        -7.2025  -2.6369   0.9767 C.ar           1 S1                 0.0000
     19 ****        -7.9038  -1.9219   1.9682 C.ar           1 S1                 0.0000
     20 ****        -7.3104  -1.0554   2.8173 N.ar           1 S1                 0.0000
     21 ****        -5.9776  -0.8711   2.7024 C.ar           1 S1                 0.0000
     22 ****         0.4356   1.7136   1.0079 H              1 S1                 0.0000
     23 ****         0.5990   0.1790   0.1834 H              1 S1                 0.0000
     24 ****         0.6025   1.3900  -2.0487 H              1 S1                 0.0000
     25 ****         0.4690   2.9163  -1.2050 H              1 S1                 0.0000
     26 ****         2.6708   2.8662  -0.6435 H              1 S1                 0.0000
     27 ****         4.7426   2.3210  -0.6089 H              1 S1                 0.0000
     28 ****         4.8431   0.8902  -3.1562 H              1 S1                 0.0000
     29 ****         5.9384   2.1248  -2.5797 H              1 S1                 0.0000
     30 ****         6.7137  -0.5178  -2.9480 H              1 S1                 0.0000
     31 ****         7.4779   0.5733  -1.7977 H              1 S1                 0.0000
     32 ****         5.3083  -1.4653  -1.2276 H              1 S1                 0.0000
     33 ****         6.8172  -1.2288  -0.3475 H              1 S1                 0.0000
     34 ****         6.0324   0.8523   0.5971 H              1 S1                 0.0000
     35 ****         4.5915  -0.1443   0.6684 H              1 S1                 0.0000
     36 ****        -1.3333  -0.5088   1.2114 H              1 S1                 0.0000
     37 ****        -3.8640   0.7835   1.0293 H              1 S1                 0.0000
     38 ****        -3.7095  -0.3562  -0.2993 H              1 S1                 0.0000
     39 ****        -3.1903  -2.1935   1.3373 H              1 S1                 0.0000
     40 ****        -3.3134  -1.0603   2.6620 H              1 S1                 0.0000
     41 ****        -5.2444  -2.9671   0.1129 H              1 S1                 0.0000
     42 ****        -7.7192  -3.3196   0.3185 H              1 S1                 0.0000
     43 ****        -8.9703  -2.0485   2.0814 H              1 S1                 0.0000
     44 ****        -5.5337  -0.1698   3.3937 H              1 S1                 0.0000
     45 ****        -1.4817   2.6199  -1.2106 LP             1 S1                 0.0000
     46 ****        -2.9600   1.8272  -0.7791 LP             1 S1                 0.0000
     47 ****         1.8414  -0.3195  -1.7569 LP             1 S1                 0.0000
     48 ****         3.4970  -0.8268  -1.7981 LP             1 S1                 0.0000
     49 ****        -7.8412  -0.5658   3.5092 LP             1 S1                 0.0000
@<TRIPOS>BOND
    1    1    2 2     
    2    2    3 1     
    3    2   13 am    
    4    3    4 1     
    5    3   22 1     
    6    3   23 1     
    7    4    5 1     
    8    4   24 1     
    9    4   25 1     
   10    5    6 am    
   11    5   26 1     
   12    6    7 2     
   13    6    8 1     
   14    8   12 1     
   15    8    9 1     
   16    8   27 1     
   17    9   10 1     
   18    9   28 1     
   19    9   29 1     
   20   10   11 1     
   21   10   30 1     
   22   10   31 1     
   23   11   12 1     
   24   11   32 1     
   25   11   33 1     
   26   12   34 1     
   27   12   35 1     
   28   13   14 1     
   29   13   36 1     
   30   14   15 1     
   31   14   37 1     
   32   14   38 1     
   33   15   16 1     
   34   15   39 1     
   35   15   40 1     
   36   16   21 ar    
   37   16   17 ar    
   38   17   18 ar    
   39   17   41 1     
   40   18   19 ar    
   41   18   42 1     
   42   19   20 ar    
   43   19   43 1     
   44   20   21 ar    
   45   21   44 1     
   46    1   45 1     
   47    1   46 1     
   48    7   47 1     
   49    7   48 1     
   50   20   49 1     
@<TRIPOS>SUBSTRUCTURE
      1 S1             1
@<TRIPOS>SET
LONE_PAIRS      STATIC     ATOMS    <user>   **** ""
5 45 46 47 48 49
DONOR_HYDROGENS      STATIC     ATOMS    <user>   **** ""
2 26 36
ATOM$BLUE        STATIC     ATOMS    COLORGROUP SYSTEM
5 45 46 47 48 49
ATOM$RED        STATIC     ATOMS    COLORGROUP SYSTEM
2 26 36
