AV-unprocessed.smi:37|AV-procd|sdf|309|dock3
  -GOLD-   2262016123D 1   1.00000     0.00000
 Structure written by MMmdl.
 44 45  0  0  0  0  0  0  0  0  1 V2000
  149.6055  134.8138  154.8568 C   0  0  0  0  0  0  0  0  0  0  0  0
  148.7368  134.2121  155.9695 C   0  0  0  0  0  0  0  0  0  0  0  0
  149.2809  134.5258  157.3612 C   0  0  0  0  0  0  0  0  0  0  0  0
  149.5758  133.6280  158.1506 O   0  0  0  0  0  0  0  0  0  0  0  0
  149.3752  135.8465  157.5935 O   0  0  0  0  0  0  0  0  0  0  0  0
  149.7237  136.3233  158.8843 C   0  0  0  0  0  0  0  0  0  0  0  0
  149.8800  137.8487  158.8323 C   0  0  2  0  0  0  0  0  0  0  0  0
  148.9087  138.3620  157.9221 O   0  0  0  0  0  0  0  0  0  0  0  0
  149.5382  139.1192  156.9380 C   0  0  2  0  0  0  0  0  0  0  0  0
  148.7685  139.0500  155.6353 N   0  0  0  0  0  0  0  0  0  0  0  0
  147.5738  138.3454  155.5925 C   0  0  0  0  0  0  0  0  0  0  0  0
  146.8296  138.2159  154.4689 C   0  0  0  0  0  0  0  0  0  0  0  0
  145.6780  137.5248  154.5121 F   0  0  0  0  0  0  0  0  0  0  0  0
  147.2661  138.8193  153.2139 C   0  0  0  0  0  0  0  0  0  0  0  0
  146.6611  138.7596  152.1455 O   0  0  0  0  0  0  0  0  0  0  0  0
  148.4803  139.5060  153.2968 N   0  0  0  0  0  0  0  0  0  0  0  0
  149.2583  139.6462  154.4473 C   0  0  0  0  0  0  0  0  0  0  0  0
  150.3195  140.2653  154.3890 O   0  0  0  0  0  0  0  0  0  0  0  0
  151.0067  138.6771  156.8638 C   0  0  2  0  0  0  0  0  0  0  0  0
  151.3671  137.0878  155.7102 Br  0  0  0  0  0  0  0  0  0  0  0  0
  151.2601  138.2943  158.3135 C   0  0  1  0  0  0  0  0  0  0  0  0
  151.6856  139.4241  159.0685 O   0  0  0  0  0  0  0  0  0  0  0  0
  152.9278  139.9171  158.9137 C   0  0  0  0  0  0  0  0  0  0  0  0
  153.7523  139.5365  158.0808 O   0  0  0  0  0  0  0  0  0  0  0  0
  153.2231  141.0447  159.9046 C   0  0  0  0  0  0  0  0  0  0  0  0
  152.1537  142.1470  159.9179 C   0  0  0  0  0  0  0  0  0  0  0  0
  148.8269  139.9339  152.4505 H   0  0  0  0  0  0  0  0  0  0  0  0
  149.2018  134.5600  153.8767 H   0  0  0  0  0  0  0  0  0  0  0  0
  150.6264  134.4328  154.9018 H   0  0  0  0  0  0  0  0  0  0  0  0
  149.6471  135.9015  154.9239 H   0  0  0  0  0  0  0  0  0  0  0  0
  147.7187  134.5950  155.8964 H   0  0  0  0  0  0  0  0  0  0  0  0
  148.6769  133.1301  155.8489 H   0  0  0  0  0  0  0  0  0  0  0  0
  148.9767  136.0541  159.6316 H   0  0  0  0  0  0  0  0  0  0  0  0
  150.6621  135.8579  159.1866 H   0  0  0  0  0  0  0  0  0  0  0  0
  149.6824  138.2603  159.8233 H   0  0  0  0  0  0  0  0  0  0  0  0
  149.4591  140.1576  157.2655 H   0  0  0  0  0  0  0  0  0  0  0  0
  147.2052  137.8832  156.4973 H   0  0  0  0  0  0  0  0  0  0  0  0
  151.6367  139.4917  156.5048 H   0  0  0  0  0  0  0  0  0  0  0  0
  151.9975  137.4947  158.4004 H   0  0  0  0  0  0  0  0  0  0  0  0
  153.3177  140.6135  160.9016 H   0  0  0  0  0  0  0  0  0  0  0  0
  154.1921  141.4778  159.6553 H   0  0  0  0  0  0  0  0  0  0  0  0
  152.4170  142.9283  160.6309 H   0  0  0  0  0  0  0  0  0  0  0  0
  151.1788  141.7525  160.2067 H   0  0  0  0  0  0  0  0  0  0  0  0
  152.0529  142.6160  158.9384 H   0  0  0  0  0  0  0  0  0  0  0  0
  1  2  1  0  0  0  0
  1 28  1  0  0  0  0
  1 29  1  0  0  0  0
  1 30  1  0  0  0  0
  2  3  1  0  0  0  0
  2 31  1  0  0  0  0
  2 32  1  0  0  0  0
  3  4  2  0  0  0  0
  3  5  1  0  0  0  0
  5  6  1  0  0  0  0
  6  7  1  0  0  0  0
  6 33  1  0  0  0  0
  6 34  1  0  0  0  0
  7 21  1  0  0  0  0
  7  8  1  0  0  0  0
  7 35  1  0  0  0  0
  8  9  1  0  0  0  0
  9 10  1  0  0  0  0
  9 19  1  0  0  0  0
  9 36  1  0  0  0  0
 10 17  1  0  0  0  0
 10 11  1  0  0  0  0
 11 12  2  0  0  0  0
 11 37  1  0  0  0  0
 12 13  1  0  0  0  0
 12 14  1  0  0  0  0
 14 15  2  0  0  0  0
 14 16  1  0  0  0  0
 16 27  1  0  0  0  0
 16 17  1  0  0  0  0
 17 18  2  0  0  0  0
 19 20  1  0  0  0  0
 19 21  1  0  0  0  0
 19 38  1  0  0  0  0
 21 22  1  0  0  0  0
 21 39  1  0  0  0  0
 22 23  1  0  0  0  0
 23 24  2  0  0  0  0
 23 25  1  0  0  0  0
 25 26  1  0  0  0  0
 25 40  1  0  0  0  0
 25 41  1  0  0  0  0
 26 42  1  0  0  0  0
 26 43  1  0  0  0  0
 26 44  1  0  0  0  0
M  END
> <s_m_source_file>
AV-unprocessed.smi

> <i_m_source_file_index>
37

> <i_lp_mmshare_version>
43012

> <i_f3d_flags>
0

> <s_epik_input>
W0NIM11bQ0gyXUMoPU8pT1tDSDJdW0NAQEhdMU9bQ0BASF0objJbY0hdYyhGKWMoPU8pW25IXWMyPU8pW0NAQEhdKEJyKVtDQEhdMU9DKD1PKVtDSDJdW0NIM10=

> <s_epik_cmdline>
J2VwaWtfcHl0aG9uJywgJy1waCcsICc3LjAnLCAnLXRuJywgJzgnLCAnLW1hJywgJzIwMCcsICctbWV0YWxfYmluZGluZycsICctaW1hZScsICc8aW5maWxlLm1hZT4nLCAnLW9tYWUnLCAnPG91dGZpbGUubWFlPic=

> <r_lp_tautomer_probability>
0.999537

> <r_epik_Ionization_Penalty>
0.104106

> <r_epik_Ionization_Penalty_Charging>
0.104106

> <r_epik_Ionization_Penalty_Neutral>
3.94675e-16

> <r_epik_State_Penalty>
0.0940182

> <r_epik_Charging_Adjusted_Penalty>
0.198124

> <i_epik_Tot_Q>
0

> <i_epik_Tot_abs_Q>
0

> <r_epik_Metal_State_Penalty>
3.05314

> <b_epik_Metal_Only>
0

> <s_epik_Chemistry_Notes>
This compound has an ester and may undergo hydrolysis at high or low pH. This compound contains an acetal/aminal-like group ( X-CH(R)-Y where X, Y are N, S, or O) that may be acid/base labile, releasing an aldehyde.

> <s_lp_Force_Field>
OPLS_2005

> <r_lp_Energy>
23.3394

> <b_lp_Chiralities_Consistent>
1

> <s_lp_Variant>
AV-unprocessed.smi:37-7

> <Gold.Version>
5.8.1

> <Gold.Id.Protein>
6NUR|6NUR_protein|mol2

> <Gold.PLP.Fitness>
38.1964

> <Gold.PLP.PLP>
-27.1171

> <Gold.PLP.part.hbond>
-3.7159

> <Gold.PLP.part.metal>
0.0000

> <Gold.PLP.part.buried>
-6.2363

> <Gold.PLP.part.nonpolar>
-18.7464

> <Gold.PLP.part.repulsive>
0.5528

> <Gold.PLP.ligand.clash>
0.0000

> <Gold.PLP.ligand.torsion>
0.5202

> <Gold.PLP.Chemscore.Hbond>
3.9833

> <Gold.PLP.Chemscore.CHOScore>
0.0000

> <Gold.PLP.Chemscore.Metal>
0.0000

> <Gold.Chemscore.Hbonds>
donor molecule, donor type, donor heavy atom, donor atom, acceptor molecule, acceptor atom, score
      L1  H    16    27       P1  7957  0.94
      P1  H  6896  6909       L1     4  1.00
      P1  H  7989  7998       L1    18  1.00
      P1  H  7997  8010       L1    24  0.83

> <Gold.PLP.Chemscore.Internal.Correction>
0.1700

> <Gold.Rescore>
     Score         DG    S(hbond)    S(metal)    S(lipo)     H(rot)  DE(clash)    DE(int)     intcor
     14.60     -15.61       3.92        0.00      47.46       3.33       0.00       1.01       ----

> <Gold.Chemscore.Fitness>
14.5991

> <Gold.Chemscore.DG>
-15.6148

> <Gold.Chemscore.ZeroCoef>
-5.4800

> <Gold.Chemscore.Hbond>
3.9243

> <Gold.Chemscore.Metal>
0.0000

> <Gold.Chemscore.Lipo>
47.4619

> <Gold.Chemscore.Internal_Hbond>
0.0000

> <Gold.Chemscore.DEClash>
0.0021

> <Gold.Chemscore.DEInternal>
1.0136

> <Gold.Chemscore.Rot>
3.3303

> <Gold.Chemscore.Internal.Correction>
   9.000000E+99

> <Gold.Chemscore.Hbonds>
donor molecule, donor type, donor heavy atom, donor atom, acceptor molecule, acceptor atom, score
      L1  H    16    27       P1  7957  0.89
      P1  H  6896  6909       L1     4  0.99
      P1  H  7989  7998       L1    18  0.97
      P1  H  7997  8010       L1    24  0.82

> <Gold.Chemscore.Hbond.Weighted>
-13.1073

> <Gold.Chemscore.Metal.Weighted>
-0.0000

> <Gold.Chemscore.Lipo.Weighted>
-5.5530

> <Gold.Chemscore.Internal_Hbond.Weighted>
0.0000

> <Gold.Chemscore.DEClash.Weighted>
0.0021

> <Gold.Chemscore.DEInternal.Weighted>
1.0136

> <Gold.Chemscore.Rot.Weighted>
8.5256

> <Gold.Chemscore.Internal.Correction.Weighted>
   9.000000E+99

> <Gold.Protein.RotatedTorsions>
[ 6907 6896 6895 6894 ] final    0.44 input  -60.11 | X-H torsion
[ 7974 7965 7964 7962 ] final -155.48 input  175.53 | X-H torsion
[ 8008 7997 7996 7995 ] final   15.60 input   59.86 | X-H torsion
[ 10167 10162 10161 10158 ] final   -7.78 input  -65.29 | X-H torsion
[ 10718 10713 10712 10709 ] final -160.96 input   66.30 | X-H torsion
[ 10763 10752 10751 10750 ] final  -46.43 input  -60.55 | X-H torsion
[ 11005 11000 10999 10996 ] final  -59.52 input  -57.11 | X-H torsion

> <Gold.Protein.ActiveResidues>
 VAL166  LYS551  ARG553  GLY616  TRP617  ASP618  TYR619  PRO620  LYS621  CYS622 
 ASP623  PHE694  ASN695  SER759  ASP760  ASP761  ALA762  ILE779  LEU786  VAL792 
 PHE793  MET794  SER795  GLU796  ALA797  LYS798  CYS799  TRP800  GLU811  SER814 

> <Gold.Protein.RotatedAtoms>
  151.5765  135.1060  160.0007 H   0  0  0  0  0  0  0  0  0  0  0  0  # atno 6907 bound_to 6896
  152.4375  133.7383  159.6637 H   0  0  0  0  0  0  0  0  0  0  0  0  # atno 6908 bound_to 6896
  150.8275  133.8077  159.3136 H   0  0  0  0  0  0  0  0  0  0  0  0  # atno 6909 bound_to 6896
  144.7638  140.4243  143.5957 H   0  0  0  0  0  0  0  0  0  0  0  0  # atno 7974 bound_to 7965
  154.8649  140.2950  155.5516 H   0  0  0  0  0  0  0  0  0  0  0  0  # atno 8008 bound_to 7997
  156.3020  140.2471  156.3562 H   0  0  0  0  0  0  0  0  0  0  0  0  # atno 8009 bound_to 7997
  154.8878  140.0395  157.1810 H   0  0  0  0  0  0  0  0  0  0  0  0  # atno 8010 bound_to 7997
  140.7039  143.6042  150.8767 H   0  0  0  0  0  0  0  0  0  0  0  0  # atno 10167 bound_to 10162
  156.5895  130.8764  151.2886 H   0  0  0  0  0  0  0  0  0  0  0  0  # atno 10718 bound_to 10713
  154.0449  135.6639  153.4794 H   0  0  0  0  0  0  0  0  0  0  0  0  # atno 10763 bound_to 10752
  153.0487  135.5098  154.7807 H   0  0  0  0  0  0  0  0  0  0  0  0  # atno 10764 bound_to 10752
  154.6795  135.3042  154.9599 H   0  0  0  0  0  0  0  0  0  0  0  0  # atno 10765 bound_to 10752
  141.1251  133.6617  156.5083 H   0  0  0  0  0  0  0  0  0  0  0  0  # atno 11005 bound_to 11000
  145.6535  139.1569  143.2848 LP  0  0  0  0  0  0  0  0  0  0  0  0  # atno 17320 bound_to 7965
  146.1726  140.6622  142.9226 LP  0  0  0  0  0  0  0  0  0  0  0  0  # atno 17321 bound_to 7965
  139.9766  143.5997  152.2956 LP  0  0  0  0  0  0  0  0  0  0  0  0  # atno 17342 bound_to 10162
  139.6603  144.7662  151.1975 LP  0  0  0  0  0  0  0  0  0  0  0  0  # atno 17343 bound_to 10162
  157.7307  130.9689  150.1845 LP  0  0  0  0  0  0  0  0  0  0  0  0  # atno 17370 bound_to 10713
  156.2562  130.3706  149.8179 LP  0  0  0  0  0  0  0  0  0  0  0  0  # atno 17371 bound_to 10713
  140.4389  134.7033  157.4981 LP  0  0  0  0  0  0  0  0  0  0  0  0  # atno 17394 bound_to 11000
  140.0242  134.6501  155.9196 LP  0  0  0  0  0  0  0  0  0  0  0  0  # atno 17395 bound_to 11000

$$$$
