#       Name:                AV-unprocessed.smi:2784
#       Creating user name   scv26
#       Creation time:       Fri Mar 27 15:16:44 2020


#       File generated by GOLD software.
#

@<TRIPOS>MOLECULE
AV-unprocessed.smi:2784
    38    39     1
SMALL
NO_CHARGES


@<TRIPOS>ATOM
      1 ****        -1.3930   1.1878  -2.4738 C.3            1 S1                 0.0000
      2 ****        -0.8824   0.0783  -1.7523 O.3            1 S1                 0.0000
      3 ****         0.5080  -0.1530  -1.9635 C.3            1 S1                 0.0000
      4 ****         0.6813  -1.0699  -3.1791 C.3            1 S1                 0.0000
      5 ****         0.4366  -2.4713  -2.6262 C.3            1 S1                 0.0000
      6 ****         1.0426  -2.4485  -1.2200 C.3            1 S1                 0.0000
      7 ****         1.0943  -0.9693  -0.7888 C.3            1 S1                 0.0000
      8 ****         0.3829  -0.7568   0.4701 N.am           1 S1                 0.0000
      9 ****         0.4784   0.3472   1.2249 C.2            1 S1                 0.0000
     10 ****         1.1943   1.3070   0.9369 O.2            1 S1                 0.0000
     11 ****        -0.3024   0.2625   2.3147 N.am           1 S1                 0.0000
     12 ****        -0.4753   1.2359   3.3306 C.2            1 S1                 0.0000
     13 ****         0.1019   2.4373   3.3873 N.2            1 S1                 0.0000
     14 ****        -0.3828   3.0032   4.5577 C.2            1 S1                 0.0000
     15 ****        -1.2333   2.1035   5.1473 C.2            1 S1                 0.0000
     16 ****        -1.3027   0.9739   4.3768 O.3            1 S1                 0.0000
     17 ****        -2.4606   1.2880  -2.2795 H              1 S1                 0.0000
     18 ****        -1.2573   1.0699  -3.5489 H              1 S1                 0.0000
     19 ****        -0.9087   2.1134  -2.1600 H              1 S1                 0.0000
     20 ****         1.0443   0.7911  -2.0771 H              1 S1                 0.0000
     21 ****         0.0195  -0.8262  -4.0101 H              1 S1                 0.0000
     22 ****         1.7065  -0.9983  -3.5447 H              1 S1                 0.0000
     23 ****        -0.6368  -2.6534  -2.5596 H              1 S1                 0.0000
     24 ****         0.8666  -3.2511  -3.2552 H              1 S1                 0.0000
     25 ****         0.4641  -3.0718  -0.5366 H              1 S1                 0.0000
     26 ****         2.0539  -2.8564  -1.2446 H              1 S1                 0.0000
     27 ****         2.1431  -0.6964  -0.6559 H              1 S1                 0.0000
     28 ****        -0.2345  -1.4947   0.7751 H              1 S1                 0.0000
     29 ****        -0.8340  -0.5876   2.4286 H              1 S1                 0.0000
     30 ****        -0.0876   3.9918   4.8768 H              1 S1                 0.0000
     31 ****        -1.8256   2.1125   6.0504 H              1 S1                 0.0000
     32 ****        -1.3847  -0.7393  -2.0339 LP             1 S1                 0.0000
     33 ****        -1.0306   0.2411  -0.7769 LP             1 S1                 0.0000
     34 ****         1.7438   1.2881   0.1016 LP             1 S1                 0.0000
     35 ****         1.2260   2.1054   1.5383 LP             1 S1                 0.0000
     36 ****         0.7412   2.8402   2.7323 LP             1 S1                 0.0000
     37 ****        -0.9864   0.1751   4.8884 LP             1 S1                 0.0000
     38 ****        -2.2380   0.8175   4.0593 LP             1 S1                 0.0000
@<TRIPOS>BOND
    1    1    2 1     
    2    1   17 1     
    3    1   18 1     
    4    1   19 1     
    5    2    3 1     
    6    3    7 1     
    7    3    4 1     
    8    3   20 1     
    9    4    5 1     
   10    4   21 1     
   11    4   22 1     
   12    5    6 1     
   13    5   23 1     
   14    5   24 1     
   15    6    7 1     
   16    6   25 1     
   17    6   26 1     
   18    7    8 1     
   19    7   27 1     
   20    8    9 am    
   21    8   28 1     
   22    9   10 2     
   23    9   11 am    
   24   11   12 1     
   25   11   29 1     
   26   12   16 1     
   27   12   13 2     
   28   13   14 1     
   29   14   15 2     
   30   14   30 1     
   31   15   16 1     
   32   15   31 1     
   33    2   32 1     
   34    2   33 1     
   35   10   34 1     
   36   10   35 1     
   37   13   36 1     
   38   16   37 1     
   39   16   38 1     
@<TRIPOS>SUBSTRUCTURE
      1 S1             1
@<TRIPOS>SET
LONE_PAIRS      STATIC     ATOMS    <user>   **** ""
7 32 33 34 35 36 37 38
DONOR_HYDROGENS      STATIC     ATOMS    <user>   **** ""
2 28 29
ATOM$BLUE        STATIC     ATOMS    COLORGROUP SYSTEM
7 32 33 34 35 36 37 38
ATOM$RED        STATIC     ATOMS    COLORGROUP SYSTEM
2 28 29
