AV-unprocessed.smi:1491|AV-procd|sdf|6032|dock4
  -GOLD-   22720 6133D 1   1.00000     0.00000
 Structure written by MMmdl.
 39 40  0  0  0  0  0  0  0  0  2 V2000
  144.9515  136.2409  153.6510 O   0  0  0  0  0  0  0  0  0  0  0  0
  146.0554  136.2364  153.1067 C   0  0  0  0  0  0  0  0  0  0  0  0
  146.9852  137.1844  153.2878 N   0  0  0  0  0  0  0  0  0  0  0  0
  146.8392  138.3556  154.1481 C   0  0  0  0  0  0  0  0  0  0  0  0
  147.0191  139.6871  153.3913 C   0  0  0  0  0  0  0  0  0  0  0  0
  148.0376  140.5498  153.9962 N   0  0  0  0  0  0  0  0  0  0  0  0
  149.2478  140.1661  154.5148 C   0  0  0  0  0  0  0  0  0  0  0  0
  149.8596  141.3078  154.9643 C   0  0  0  0  0  0  0  0  0  0  0  0
  148.9967  142.3383  154.7026 N   0  3  0  0  0  0  0  0  0  0  0  0
  147.8892  141.8753  154.1137 C   0  0  0  0  0  0  0  0  0  0  0  0
  146.4804  135.2758  152.2744 N   0  0  0  0  0  0  0  0  0  0  0  0
  145.7126  134.0940  151.8940 C   0  0  2  0  0  0  0  0  0  0  0  0
  146.3157  133.4338  150.6362 C   0  0  0  0  0  0  0  0  0  0  0  0
  145.4778  132.2285  150.1793 C   0  0  0  0  0  0  0  0  0  0  0  0
  144.0115  132.6289  149.9433 C   0  0  1  0  0  0  0  0  0  0  0  0
  143.2596  131.4856  149.5956 O   0  0  0  0  0  0  0  0  0  0  0  0
  143.4064  133.2801  151.1986 C   0  0  0  0  0  0  0  0  0  0  0  0
  144.2429  134.4870  151.6532 C   0  0  0  0  0  0  0  0  0  0  0  0
  147.8588  137.0922  152.7899 H   0  0  0  0  0  0  0  0  0  0  0  0
  145.8500  138.3190  154.6055 H   0  0  0  0  0  0  0  0  0  0  0  0
  147.5581  138.2931  154.9665 H   0  0  0  0  0  0  0  0  0  0  0  0
  147.3122  139.4951  152.3582 H   0  0  0  0  0  0  0  0  0  0  0  0
  146.0845  140.2478  153.3498 H   0  0  0  0  0  0  0  0  0  0  0  0
  149.5750  139.1360  154.5219 H   0  0  0  0  0  0  0  0  0  0  0  0
  150.8183  141.4598  155.4381 H   0  0  0  0  0  0  0  0  0  0  0  0
  147.0427  142.4577  153.7957 H   0  0  0  0  0  0  0  0  0  0  0  0
  147.4035  135.3645  151.8756 H   0  0  0  0  0  0  0  0  0  0  0  0
  145.7390  133.3758  152.7161 H   0  0  0  0  0  0  0  0  0  0  0  0
  146.3717  134.1627  149.8264 H   0  0  0  0  0  0  0  0  0  0  0  0
  147.3388  133.1114  150.8323 H   0  0  0  0  0  0  0  0  0  0  0  0
  145.9036  131.8075  149.2678 H   0  0  0  0  0  0  0  0  0  0  0  0
  145.5312  131.4452  150.9367 H   0  0  0  0  0  0  0  0  0  0  0  0
  143.9580  133.3311  149.1103 H   0  0  0  0  0  0  0  0  0  0  0  0
  142.3604  131.6290  149.8485 H   0  0  0  0  0  0  0  0  0  0  0  0
  142.3814  133.5958  151.0004 H   0  0  0  0  0  0  0  0  0  0  0  0
  143.3551  132.5505  152.0080 H   0  0  0  0  0  0  0  0  0  0  0  0
  143.8144  134.9076  152.5637 H   0  0  0  0  0  0  0  0  0  0  0  0
  144.1876  135.2699  150.8953 H   0  0  0  0  0  0  0  0  0  0  0  0
  149.1691  143.3113  154.9235 H   0  0  0  0  0  0  0  0  0  0  0  0
  1  2  2  0  0  0  0
  2  3  1  0  0  0  0
  2 11  1  0  0  0  0
  3  4  1  0  0  0  0
  3 19  1  0  0  0  0
  4  5  1  0  0  0  0
  4 20  1  0  0  0  0
  4 21  1  0  0  0  0
  5  6  1  0  0  0  0
  5 22  1  0  0  0  0
  5 23  1  0  0  0  0
  6 10  1  0  0  0  0
  6  7  1  0  0  0  0
  7  8  2  0  0  0  0
  7 24  1  0  0  0  0
  8  9  1  0  0  0  0
  8 25  1  0  0  0  0
  9 10  2  0  0  0  0
  9 39  1  0  0  0  0
 10 26  1  0  0  0  0
 11 12  1  0  0  0  0
 11 27  1  0  0  0  0
 12 18  1  0  0  0  0
 12 13  1  0  0  0  0
 12 28  1  0  0  0  0
 13 14  1  0  0  0  0
 13 29  1  0  0  0  0
 13 30  1  0  0  0  0
 14 15  1  0  0  0  0
 14 31  1  0  0  0  0
 14 32  1  0  0  0  0
 15 16  1  0  0  0  0
 15 17  1  0  0  0  0
 15 33  1  0  0  0  0
 16 34  1  0  0  0  0
 17 18  1  0  0  0  0
 17 35  1  0  0  0  0
 17 36  1  0  0  0  0
 18 37  1  0  0  0  0
 18 38  1  0  0  0  0
M  CHG  1   9   1
M  END
> <s_m_source_file>
AV-unprocessed.smi

> <i_m_source_file_index>
1491

> <i_lp_mmshare_version>
43012

> <i_f3d_flags>
0

> <s_epik_input>
W0NIMl0xW0NIMl1bQ0BIXShbT0hdKVtDSDJdW0NIMl1bQ0BIXTFbTkhdQyg9TylbTkhdW0NIMl1bQ0gyXW4yW2NIXVtjSF1uW2NIXTI=

> <s_epik_cmdline>
J2VwaWtfcHl0aG9uJywgJy1waCcsICc3LjAnLCAnLXRuJywgJzgnLCAnLW1hJywgJzIwMCcsICctbWV0YWxfYmluZGluZycsICctaW1hZScsICc8aW5maWxlLm1hZT4nLCAnLW9tYWUnLCAnPG91dGZpbGUubWFlPic=

> <r_lp_tautomer_probability>
1

> <r_epik_Ionization_Penalty>
0.254652

> <r_epik_Ionization_Penalty_Charging>
0

> <r_epik_Ionization_Penalty_Neutral>
0.254652

> <r_epik_State_Penalty>
0.246077

> <r_epik_Charging_Adjusted_Penalty>
0.246077

> <i_epik_Tot_Q>
1

> <i_epik_Tot_abs_Q>
1

> <r_epik_Metal_State_Penalty>
0.536042

> <b_epik_Metal_Only>
0

> <s_lp_Force_Field>
OPLS_2005

> <r_lp_Energy>
9.33043

> <b_lp_Chiralities_Consistent>
1

> <s_lp_Variant>
AV-unprocessed.smi:1491-1

> <Gold.Version>
5.8.1

> <Gold.Id.Protein>
6NUR|6NUR_protein|mol2

> <Gold.PLP.Fitness>
49.7014

> <Gold.PLP.PLP>
-34.7699

> <Gold.PLP.part.hbond>
-4.9993

> <Gold.PLP.part.metal>
0.0000

> <Gold.PLP.part.buried>
-3.9769

> <Gold.PLP.part.nonpolar>
-26.4516

> <Gold.PLP.part.repulsive>
0.9733

> <Gold.PLP.ligand.clash>
0.0000

> <Gold.PLP.ligand.torsion>
0.8837

> <Gold.PLP.Chemscore.Hbond>
5.5600

> <Gold.PLP.Chemscore.CHOScore>
0.0000

> <Gold.PLP.Chemscore.Metal>
0.0000

> <Gold.Chemscore.Hbonds>
donor molecule, donor type, donor heavy atom, donor atom, acceptor molecule, acceptor atom, score
      L1  H     3    19       P1  7948  1.00
      L1  H     9    39       P1  8028  2.00
      L1  H    11    27       P1  7948  0.99
      L1  H    16    34       P1 10952  0.54
      P1  H 10785 10796       L1    16  1.00

> <Gold.PLP.Chemscore.Internal.Correction>
0.0190

> <Gold.Rescore>
     Score         DG    S(hbond)    S(metal)    S(lipo)     H(rot)  DE(clash)    DE(int)     intcor
     17.90     -20.08       4.05        0.00      67.38       2.65       0.04       2.14       ----

> <Gold.Chemscore.Fitness>
17.8979

> <Gold.Chemscore.DG>
-20.0825

> <Gold.Chemscore.ZeroCoef>
-5.4800

> <Gold.Chemscore.Hbond>
4.0458

> <Gold.Chemscore.Metal>
0.0000

> <Gold.Chemscore.Lipo>
67.3753

> <Gold.Chemscore.Internal_Hbond>
0.0000

> <Gold.Chemscore.DEClash>
0.0402

> <Gold.Chemscore.DEInternal>
2.1444

> <Gold.Chemscore.Rot>
2.6536

> <Gold.Chemscore.Internal.Correction>
   9.000000E+99

> <Gold.Chemscore.Hbonds>
donor molecule, donor type, donor heavy atom, donor atom, acceptor molecule, acceptor atom, score
      L1  H     3    19       P1  7948  0.97
      L1  H     9    39       P1  8028  0.97
      L1  H    11    27       P1  7948  0.93
      L1  H    16    34       P1 10952  0.50
      P1  H 10785 10796       L1    16  0.44

> <Gold.Chemscore.Hbond.Weighted>
-13.5129

> <Gold.Chemscore.Metal.Weighted>
-0.0000

> <Gold.Chemscore.Lipo.Weighted>
-7.8829

> <Gold.Chemscore.Internal_Hbond.Weighted>
0.0000

> <Gold.Chemscore.DEClash.Weighted>
0.0402

> <Gold.Chemscore.DEInternal.Weighted>
2.1444

> <Gold.Chemscore.Rot.Weighted>
6.7933

> <Gold.Chemscore.Internal.Correction.Weighted>
   9.000000E+99

> <Gold.Protein.RotatedTorsions>
[ 6907 6896 6895 6894 ] final -130.52 input  -60.11 | X-H torsion
[ 7974 7965 7964 7962 ] final  -39.56 input  175.53 | X-H torsion
[ 8008 7997 7996 7995 ] final  -29.72 input   59.86 | X-H torsion
[ 10167 10162 10161 10158 ] final -131.87 input  -65.29 | X-H torsion
[ 10718 10713 10712 10709 ] final  -22.20 input   66.30 | X-H torsion
[ 10763 10752 10751 10750 ] final -113.55 input  -60.55 | X-H torsion
[ 11005 11000 10999 10996 ] final -103.88 input  -57.11 | X-H torsion

> <Gold.Protein.ActiveResidues>
 VAL166  LYS551  ARG553  GLY616  TRP617  ASP618  TYR619  PRO620  LYS621  CYS622 
 ASP623  PHE694  ASN695  SER759  ASP760  ASP761  ALA762  ILE779  LEU786  VAL792 
 PHE793  MET794  SER795  GLU796  ALA797  LYS798  CYS799  TRP800  GLU811  SER814 

> <Gold.Protein.RotatedAtoms>
  150.9406  133.6661  159.2791 H   0  0  0  0  0  0  0  0  0  0  0  0  # atno 6907 bound_to 6896
  151.4051  135.0975  159.9577 H   0  0  0  0  0  0  0  0  0  0  0  0  # atno 6908 bound_to 6896
  152.5067  133.8892  159.7440 H   0  0  0  0  0  0  0  0  0  0  0  0  # atno 6909 bound_to 6896
  146.0385  140.6639  142.9098 H   0  0  0  0  0  0  0  0  0  0  0  0  # atno 7974 bound_to 7965
  154.4278  140.1810  156.1293 H   0  0  0  0  0  0  0  0  0  0  0  0  # atno 8008 bound_to 7997
  156.0081  140.3353  155.6887 H   0  0  0  0  0  0  0  0  0  0  0  0  # atno 8009 bound_to 7997
  155.6149  140.0654  157.2686 H   0  0  0  0  0  0  0  0  0  0  0  0  # atno 8010 bound_to 7997
  139.9144  143.6456  152.2568 H   0  0  0  0  0  0  0  0  0  0  0  0  # atno 10167 bound_to 10162
  156.5078  130.4603  149.6665 H   0  0  0  0  0  0  0  0  0  0  0  0  # atno 10718 bound_to 10713
  154.8401  135.4450  154.1366 H   0  0  0  0  0  0  0  0  0  0  0  0  # atno 10763 bound_to 10752
  153.2563  135.6931  153.7632 H   0  0  0  0  0  0  0  0  0  0  0  0  # atno 10764 bound_to 10752
  153.6926  135.3385  155.3181 H   0  0  0  0  0  0  0  0  0  0  0  0  # atno 10765 bound_to 10752
  141.1126  133.8677  157.1542 H   0  0  0  0  0  0  0  0  0  0  0  0  # atno 11005 bound_to 11000
  144.7063  140.3865  143.7115 LP  0  0  0  0  0  0  0  0  0  0  0  0  # atno 17320 bound_to 7965
  145.6923  139.1642  143.2639 LP  0  0  0  0  0  0  0  0  0  0  0  0  # atno 17321 bound_to 7965
  139.6915  144.7646  151.1431 LP  0  0  0  0  0  0  0  0  0  0  0  0  # atno 17342 bound_to 10162
  140.7677  143.5583  150.9127 LP  0  0  0  0  0  0  0  0  0  0  0  0  # atno 17343 bound_to 10162
  156.3270  130.7311  151.2233 LP  0  0  0  0  0  0  0  0  0  0  0  0  # atno 17370 bound_to 10713
  157.7454  131.0440  150.4772 LP  0  0  0  0  0  0  0  0  0  0  0  0  # atno 17371 bound_to 10713
  140.0028  135.0021  157.0227 LP  0  0  0  0  0  0  0  0  0  0  0  0  # atno 17394 bound_to 11000
  140.4735  134.1362  155.7206 LP  0  0  0  0  0  0  0  0  0  0  0  0  # atno 17395 bound_to 11000

$$$$
