AV-unprocessed.smi:1817|AV-procd|sdf|7377|dock1
  -GOLD-   22720 9 43D 1   1.00000     0.00000
 Structure written by MMmdl.
 42 43  0  0  0  0  0  0  0  0  3 V2000
  144.0048  132.1821  149.7944 C   0  0  0  0  0  0  0  0  0  0  0  0
  144.2017  133.3075  150.8208 C   0  0  0  0  0  0  0  0  0  0  0  0
  145.3659  134.1393  150.5068 N   0  0  0  0  0  0  0  0  0  0  0  0
  145.4081  135.4318  151.2003 C   0  0  0  0  0  0  0  0  0  0  0  0
  145.6847  135.2773  152.7107 C   0  0  0  0  0  0  0  0  0  0  0  0
  146.9602  134.5511  152.9264 N   0  3  0  0  0  0  0  0  0  0  0  0
  147.4056  134.5240  154.3492 C   0  0  1  0  0  0  0  0  0  0  0  0
  146.4271  133.7727  155.2784 C   0  0  0  0  0  0  0  0  0  0  0  0
  148.8538  133.9924  154.4516 C   0  0  0  0  0  0  0  0  0  0  0  0
  149.8474  135.0587  154.3799 N   0  0  0  0  0  0  0  0  0  0  0  0
  150.1595  135.9032  155.3729 C   0  0  0  0  0  0  0  0  0  0  0  0
  149.5676  135.8275  156.4521 O   0  0  0  0  0  0  0  0  0  0  0  0
  151.1412  136.7763  155.0560 N   0  5  0  0  0  0  0  0  0  0  0  0
  150.9052  138.0980  155.1038 C   0  0  0  0  0  0  0  0  0  0  0  0
  151.8074  139.0023  154.6906 N   0  0  0  0  0  0  0  0  0  0  0  0
  151.3678  140.3124  154.8232 N   0  0  0  0  0  0  0  0  0  0  0  0
  150.1351  140.3625  155.3275 C   0  0  0  0  0  0  0  0  0  0  0  0
  149.3984  138.8141  155.6827 S   0  0  0  0  0  0  0  0  0  0  0  0
  146.9296  133.2379  152.2323 C   0  0  0  0  0  0  0  0  0  0  0  0
  146.6328  133.4370  150.7310 C   0  0  0  0  0  0  0  0  0  0  0  0
  143.2194  131.5014  150.1231 H   0  0  0  0  0  0  0  0  0  0  0  0
  144.9157  131.5959  149.6685 H   0  0  0  0  0  0  0  0  0  0  0  0
  143.7092  132.5647  148.8179 H   0  0  0  0  0  0  0  0  0  0  0  0
  143.2929  133.9021  150.9067 H   0  0  0  0  0  0  0  0  0  0  0  0
  144.3617  132.8462  151.7960 H   0  0  0  0  0  0  0  0  0  0  0  0
  146.1980  136.0350  150.7506 H   0  0  0  0  0  0  0  0  0  0  0  0
  144.4842  135.9856  151.0381 H   0  0  0  0  0  0  0  0  0  0  0  0
  145.7504  136.2699  153.1574 H   0  0  0  0  0  0  0  0  0  0  0  0
  144.8619  134.7663  153.2106 H   0  0  0  0  0  0  0  0  0  0  0  0
  147.4305  135.5619  154.6841 H   0  0  0  0  0  0  0  0  0  0  0  0
  146.7001  133.9085  156.3252 H   0  0  0  0  0  0  0  0  0  0  0  0
  146.4260  132.7002  155.0838 H   0  0  0  0  0  0  0  0  0  0  0  0
  145.4059  134.1365  155.1687 H   0  0  0  0  0  0  0  0  0  0  0  0
  149.0063  133.4749  155.3982 H   0  0  0  0  0  0  0  0  0  0  0  0
  149.0484  133.2596  153.6665 H   0  0  0  0  0  0  0  0  0  0  0  0
  150.3524  135.1584  153.5111 H   0  0  0  0  0  0  0  0  0  0  0  0
  149.6554  141.3164  155.4879 H   0  0  0  0  0  0  0  0  0  0  0  0
  147.8917  132.7381  152.3384 H   0  0  0  0  0  0  0  0  0  0  0  0
  146.1852  132.5802  152.6815 H   0  0  0  0  0  0  0  0  0  0  0  0
  146.6173  132.4754  150.2165 H   0  0  0  0  0  0  0  0  0  0  0  0
  147.4376  134.0147  150.2741 H   0  0  0  0  0  0  0  0  0  0  0  0
  147.6573  135.1019  152.4460 H   0  0  0  0  0  0  0  0  0  0  0  0
  1  2  1  0  0  0  0
  1 21  1  0  0  0  0
  1 22  1  0  0  0  0
  1 23  1  0  0  0  0
  2  3  1  0  0  0  0
  2 24  1  0  0  0  0
  2 25  1  0  0  0  0
  3 20  1  0  0  0  0
  3  4  1  0  0  0  0
  4  5  1  0  0  0  0
  4 26  1  0  0  0  0
  4 27  1  0  0  0  0
  5  6  1  0  0  0  0
  5 28  1  0  0  0  0
  5 29  1  0  0  0  0
  6  7  1  0  0  0  0
  6 19  1  0  0  0  0
  6 42  1  0  0  0  0
  7  8  1  0  0  0  0
  7  9  1  0  0  0  0
  7 30  1  0  0  0  0
  8 31  1  0  0  0  0
  8 32  1  0  0  0  0
  8 33  1  0  0  0  0
  9 10  1  0  0  0  0
  9 34  1  0  0  0  0
  9 35  1  0  0  0  0
 10 11  1  0  0  0  0
 10 36  1  0  0  0  0
 11 12  2  0  0  0  0
 11 13  1  0  0  0  0
 13 14  1  0  0  0  0
 14 18  1  0  0  0  0
 14 15  2  0  0  0  0
 15 16  1  0  0  0  0
 16 17  2  0  0  0  0
 17 18  1  0  0  0  0
 17 37  1  0  0  0  0
 19 20  1  0  0  0  0
 19 38  1  0  0  0  0
 19 39  1  0  0  0  0
 20 40  1  0  0  0  0
 20 41  1  0  0  0  0
M  CHG  1   6   1
M  CHG  1  13  -1
M  END
> <s_m_source_file>
AV-unprocessed.smi

> <i_m_source_file_index>
1817

> <i_lp_mmshare_version>
43012

> <i_f3d_flags>
0

> <s_epik_input>
W0NIM11bQ0gyXU4xW0NIMl1bQ0gyXU4oW0NIMl1bQ0gyXTEpW0NASF0oW0NIM10pW0NIMl1bTkhdQyg9TylbTkhdYzJubltjSF1zMg==

> <s_epik_cmdline>
J2VwaWtfcHl0aG9uJywgJy1waCcsICc3LjAnLCAnLXRuJywgJzgnLCAnLW1hJywgJzIwMCcsICctbWV0YWxfYmluZGluZycsICctaW1hZScsICc8aW5maWxlLm1hZT4nLCAnLW9tYWUnLCAnPG91dGZpbGUubWFlPic=

> <r_epik_Ionization_Penalty>
3.16835

> <r_epik_Ionization_Penalty_Charging>
3.13468

> <r_epik_Ionization_Penalty_Neutral>
0.0336711

> <r_epik_State_Penalty>
3.95884

> <r_epik_Charging_Adjusted_Penalty>
7.09351

> <i_epik_Tot_Q>
0

> <i_epik_Tot_abs_Q>
2

> <r_epik_Metal_State_Penalty>
1.39003

> <b_epik_Metal_Only>
1

> <s_lp_Force_Field>
OPLS_2005

> <r_lp_Energy>
12.939

> <b_lp_Chiralities_Consistent>
1

> <s_lp_Variant>
AV-unprocessed.smi:1817-10

> <Gold.Version>
5.8.1

> <Gold.Id.Protein>
6NUR|6NUR_protein|mol2

> <Gold.PLP.Fitness>
44.4469

> <Gold.PLP.PLP>
-31.7784

> <Gold.PLP.part.hbond>
-4.2048

> <Gold.PLP.part.metal>
0.0000

> <Gold.PLP.part.buried>
-6.1411

> <Gold.PLP.part.nonpolar>
-22.7501

> <Gold.PLP.part.repulsive>
1.1813

> <Gold.PLP.ligand.clash>
0.0000

> <Gold.PLP.ligand.torsion>
1.2676

> <Gold.PLP.Chemscore.Hbond>
4.9920

> <Gold.PLP.Chemscore.CHOScore>
0.0000

> <Gold.PLP.Chemscore.Metal>
0.0000

> <Gold.Chemscore.Hbonds>
donor molecule, donor type, donor heavy atom, donor atom, acceptor molecule, acceptor atom, score
      L1  H     6    42       P1  7948  2.00
      P1  H  7989  7998       L1    16  0.81
      P1  H 10752 10765       L1    13  1.11

> <Gold.PLP.Chemscore.Internal.Correction>
0.2277

> <Gold.Rescore>
     Score         DG    S(hbond)    S(metal)    S(lipo)     H(rot)  DE(clash)    DE(int)     intcor
     15.25     -16.65       2.73        0.00      58.83       1.88       0.07       1.33       ----

> <Gold.Chemscore.Fitness>
15.2470

> <Gold.Chemscore.DG>
-16.6463

> <Gold.Chemscore.ZeroCoef>
-5.4800

> <Gold.Chemscore.Hbond>
2.7253

> <Gold.Chemscore.Metal>
0.0000

> <Gold.Chemscore.Lipo>
58.8283

> <Gold.Chemscore.Internal_Hbond>
0.0000

> <Gold.Chemscore.DEClash>
0.0712

> <Gold.Chemscore.DEInternal>
1.3282

> <Gold.Chemscore.Rot>
1.8825

> <Gold.Chemscore.Internal.Correction>
   9.000000E+99

> <Gold.Chemscore.Hbonds>
donor molecule, donor type, donor heavy atom, donor atom, acceptor molecule, acceptor atom, score
      L1  H     6    42       P1  7948  0.98
      P1  H  7989  7998       L1    16  0.31
      P1  H 10752 10765       L1    13  0.33

> <Gold.Chemscore.Hbond.Weighted>
-9.1026

> <Gold.Chemscore.Metal.Weighted>
-0.0000

> <Gold.Chemscore.Lipo.Weighted>
-6.8829

> <Gold.Chemscore.Internal_Hbond.Weighted>
0.0000

> <Gold.Chemscore.DEClash.Weighted>
0.0712

> <Gold.Chemscore.DEInternal.Weighted>
1.3282

> <Gold.Chemscore.Rot.Weighted>
4.8191

> <Gold.Chemscore.Internal.Correction.Weighted>
   9.000000E+99

> <Gold.Protein.RotatedTorsions>
[ 6907 6896 6895 6894 ] final   -1.00 input  -60.11 | X-H torsion
[ 7974 7965 7964 7962 ] final  -44.61 input  175.53 | X-H torsion
[ 8008 7997 7996 7995 ] final -175.45 input   59.86 | X-H torsion
[ 10167 10162 10161 10158 ] final -171.79 input  -65.29 | X-H torsion
[ 10718 10713 10712 10709 ] final  -56.09 input   66.30 | X-H torsion
[ 10763 10752 10751 10750 ] final -172.89 input  -60.55 | X-H torsion
[ 11005 11000 10999 10996 ] final   78.37 input  -57.11 | X-H torsion

> <Gold.Protein.ActiveResidues>
 VAL166  LYS551  ARG553  GLY616  TRP617  ASP618  TYR619  PRO620  LYS621  CYS622 
 ASP623  PHE694  ASN695  SER759  ASP760  ASP761  ALA762  ILE779  LEU786  VAL792 
 PHE793  MET794  SER795  GLU796  ALA797  LYS798  CYS799  TRP800  GLU811  SER814 

> <Gold.Protein.RotatedAtoms>
  151.5531  135.1067  159.9954 H   0  0  0  0  0  0  0  0  0  0  0  0  # atno 6907 bound_to 6896
  152.4482  133.7573  159.6738 H   0  0  0  0  0  0  0  0  0  0  0  0  # atno 6908 bound_to 6896
  150.8403  133.7880  159.3087 H   0  0  0  0  0  0  0  0  0  0  0  0  # atno 6909 bound_to 6896
  145.9904  140.7187  142.9320 H   0  0  0  0  0  0  0  0  0  0  0  0  # atno 7974 bound_to 7965
  155.9827  140.1185  157.0711 H   0  0  0  0  0  0  0  0  0  0  0  0  # atno 8008 bound_to 7997
  154.4187  140.1141  156.5526 H   0  0  0  0  0  0  0  0  0  0  0  0  # atno 8009 bound_to 7997
  155.6449  140.3473  155.4730 H   0  0  0  0  0  0  0  0  0  0  0  0  # atno 8010 bound_to 7997
  139.5781  144.1485  152.1479 H   0  0  0  0  0  0  0  0  0  0  0  0  # atno 10167 bound_to 10162
  156.1316  130.4159  150.0258 H   0  0  0  0  0  0  0  0  0  0  0  0  # atno 10718 bound_to 10713
  154.6141  135.2868  155.0400 H   0  0  0  0  0  0  0  0  0  0  0  0  # atno 10763 bound_to 10752
  154.1619  135.6487  153.4992 H   0  0  0  0  0  0  0  0  0  0  0  0  # atno 10764 bound_to 10752
  153.0207  135.5380  154.6905 H   0  0  0  0  0  0  0  0  0  0  0  0  # atno 10765 bound_to 10752
  139.9215  134.7758  156.1640 H   0  0  0  0  0  0  0  0  0  0  0  0  # atno 11005 bound_to 11000
  144.6887  140.3060  143.7256 LP  0  0  0  0  0  0  0  0  0  0  0  0  # atno 17320 bound_to 7965
  145.7639  139.1834  143.2251 LP  0  0  0  0  0  0  0  0  0  0  0  0  # atno 17321 bound_to 7965
  140.1032  144.5521  150.6975 LP  0  0  0  0  0  0  0  0  0  0  0  0  # atno 17342 bound_to 10162
  140.7062  143.2470  151.4718 LP  0  0  0  0  0  0  0  0  0  0  0  0  # atno 17343 bound_to 10162
  156.8169  130.9345  151.3642 LP  0  0  0  0  0  0  0  0  0  0  0  0  # atno 17370 bound_to 10713
  157.6493  130.8871  149.9602 LP  0  0  0  0  0  0  0  0  0  0  0  0  # atno 17371 bound_to 10713
  141.0740  133.6784  156.2199 LP  0  0  0  0  0  0  0  0  0  0  0  0  # atno 17394 bound_to 11000
  140.6459  134.5117  157.5573 LP  0  0  0  0  0  0  0  0  0  0  0  0  # atno 17395 bound_to 11000

$$$$
