AV-unprocessed.smi:3161|AV-procd|sdf|12057|dock4
  -GOLD-   2272017483D 1   1.00000     0.00000
 Structure written by MMmdl.
 41 42  0  0  0  0  0  0  0  0  2 V2000
  150.9631  143.1060  158.8441 C   0  0  0  0  0  0  0  0  0  0  0  0
  151.0383  142.0115  157.8188 C   0  0  0  0  0  0  0  0  0  0  0  0
  151.5561  140.6953  157.9828 C   0  0  0  0  0  0  0  0  0  0  0  0
  151.4830  139.9729  156.8769 N   0  0  0  0  0  0  0  0  0  0  0  0
  150.9150  140.7980  155.9715 N   0  0  0  0  0  0  0  0  0  0  0  0
  150.6951  140.3363  154.6116 C   0  0  0  0  0  0  0  0  0  0  0  0
  150.1226  138.9063  154.5714 C   0  0  2  0  0  0  0  0  0  0  0  0
  151.2299  137.8599  154.7735 C   0  0  0  0  0  0  0  0  0  0  0  0
  149.4123  138.6797  153.2928 N   0  3  0  0  0  0  0  0  0  0  0  0
  147.9779  139.0312  153.2939 C   0  0  0  0  0  0  0  0  0  0  0  0
  147.7773  140.4818  153.7530 C   0  0  1  0  0  0  0  0  0  0  0  0
  148.0885  141.4899  152.6300 C   0  0  0  0  0  0  0  0  0  0  0  0
  147.7759  142.9199  153.0860 C   0  0  0  0  0  0  0  0  0  0  0  0
  146.3403  142.9921  153.6172 C   0  0  0  0  0  0  0  0  0  0  0  0
  146.1119  141.9110  154.6849 C   0  0  0  0  0  0  0  0  0  0  0  0
  146.4130  140.6284  154.1440 O   0  0  0  0  0  0  0  0  0  0  0  0
  150.6350  142.0346  156.5134 C   0  0  0  0  0  0  0  0  0  0  0  0
  150.9041  142.7078  159.8573 H   0  0  0  0  0  0  0  0  0  0  0  0
  150.0877  143.7389  158.6974 H   0  0  0  0  0  0  0  0  0  0  0  0
  151.8388  143.7536  158.8036 H   0  0  0  0  0  0  0  0  0  0  0  0
  151.9837  140.2473  158.8678 H   0  0  0  0  0  0  0  0  0  0  0  0
  150.0308  141.0352  154.1000 H   0  0  0  0  0  0  0  0  0  0  0  0
  151.6504  140.3739  154.0862 H   0  0  0  0  0  0  0  0  0  0  0  0
  149.4058  138.8144  155.3892 H   0  0  0  0  0  0  0  0  0  0  0  0
  151.7578  138.0265  155.7128 H   0  0  0  0  0  0  0  0  0  0  0  0
  151.9650  137.9003  153.9690 H   0  0  0  0  0  0  0  0  0  0  0  0
  150.8261  136.8479  154.8057 H   0  0  0  0  0  0  0  0  0  0  0  0
  149.8556  139.2685  152.6007 H   0  0  0  0  0  0  0  0  0  0  0  0
  147.5764  138.8974  152.2892 H   0  0  0  0  0  0  0  0  0  0  0  0
  147.4308  138.3567  153.9538 H   0  0  0  0  0  0  0  0  0  0  0  0
  148.4252  140.6803  154.6090 H   0  0  0  0  0  0  0  0  0  0  0  0
  149.1350  141.4154  152.3326 H   0  0  0  0  0  0  0  0  0  0  0  0
  147.4948  141.2524  151.7463 H   0  0  0  0  0  0  0  0  0  0  0  0
  148.4736  143.2163  153.8702 H   0  0  0  0  0  0  0  0  0  0  0  0
  147.9131  143.6211  152.2623 H   0  0  0  0  0  0  0  0  0  0  0  0
  146.1390  143.9811  154.0300 H   0  0  0  0  0  0  0  0  0  0  0  0
  145.6371  142.8459  152.7963 H   0  0  0  0  0  0  0  0  0  0  0  0
  146.7243  142.0989  155.5681 H   0  0  0  0  0  0  0  0  0  0  0  0
  145.0719  141.9204  155.0117 H   0  0  0  0  0  0  0  0  0  0  0  0
  150.1813  142.8227  155.9305 H   0  0  0  0  0  0  0  0  0  0  0  0
  149.5286  137.7171  153.0100 H   0  0  0  0  0  0  0  0  0  0  0  0
  1  2  1  0  0  0  0
  1 18  1  0  0  0  0
  1 19  1  0  0  0  0
  1 20  1  0  0  0  0
  2 17  2  0  0  0  0
  2  3  1  0  0  0  0
  3  4  2  0  0  0  0
  3 21  1  0  0  0  0
  4  5  1  0  0  0  0
  5  6  1  0  0  0  0
  5 17  1  0  0  0  0
  6  7  1  0  0  0  0
  6 22  1  0  0  0  0
  6 23  1  0  0  0  0
  7  8  1  0  0  0  0
  7  9  1  0  0  0  0
  7 24  1  0  0  0  0
  8 25  1  0  0  0  0
  8 26  1  0  0  0  0
  8 27  1  0  0  0  0
  9 10  1  0  0  0  0
  9 28  1  0  0  0  0
  9 41  1  0  0  0  0
 10 11  1  0  0  0  0
 10 29  1  0  0  0  0
 10 30  1  0  0  0  0
 11 16  1  0  0  0  0
 11 12  1  0  0  0  0
 11 31  1  0  0  0  0
 12 13  1  0  0  0  0
 12 32  1  0  0  0  0
 12 33  1  0  0  0  0
 13 14  1  0  0  0  0
 13 34  1  0  0  0  0
 13 35  1  0  0  0  0
 14 15  1  0  0  0  0
 14 36  1  0  0  0  0
 14 37  1  0  0  0  0
 15 16  1  0  0  0  0
 15 38  1  0  0  0  0
 15 39  1  0  0  0  0
 17 40  1  0  0  0  0
M  CHG  1   9   1
M  END
> <s_m_source_file>
AV-unprocessed.smi

> <i_m_source_file_index>
3161

> <i_lp_mmshare_version>
43012

> <i_f3d_flags>
0

> <s_epik_input>
W0NIM11jMVtjSF1ubihbY0hdMSlbQ0gyXVtDQEhdKFtDSDNdKVtOSF1bQ0gyXVtDQEBIXTJbQ0gyXVtDSDJdW0NIMl1bQ0gyXU8y

> <s_epik_cmdline>
J2VwaWtfcHl0aG9uJywgJy1waCcsICc3LjAnLCAnLXRuJywgJzgnLCAnLW1hJywgJzIwMCcsICctbWV0YWxfYmluZGluZycsICctaW1hZScsICc8aW5maWxlLm1hZT4nLCAnLW9tYWUnLCAnPG91dGZpbGUubWFlPic=

> <r_lp_tautomer_probability>
1

> <r_epik_Ionization_Penalty>
0.00849661

> <r_epik_Ionization_Penalty_Charging>
0.00848754

> <r_epik_Ionization_Penalty_Neutral>
9.06711e-06

> <r_epik_State_Penalty>
0.00639836

> <r_epik_Charging_Adjusted_Penalty>
0.0148859

> <i_epik_Tot_Q>
1

> <i_epik_Tot_abs_Q>
1

> <r_epik_Metal_State_Penalty>
0.00639921

> <b_epik_Metal_Only>
0

> <s_lp_Force_Field>
OPLS_2005

> <r_lp_Energy>
12.1076

> <b_lp_Chiralities_Consistent>
1

> <s_lp_Variant>
AV-unprocessed.smi:3161-3

> <Gold.Version>
5.8.1

> <Gold.Id.Protein>
6NUR|6NUR_protein|mol2

> <Gold.PLP.Fitness>
41.6640

> <Gold.PLP.PLP>
-31.6436

> <Gold.PLP.part.hbond>
-2.0000

> <Gold.PLP.part.metal>
0.0000

> <Gold.PLP.part.buried>
-2.1337

> <Gold.PLP.part.nonpolar>
-27.8602

> <Gold.PLP.part.repulsive>
0.1339

> <Gold.PLP.ligand.clash>
0.0000

> <Gold.PLP.ligand.torsion>
0.9985

> <Gold.PLP.Chemscore.Hbond>
3.0000

> <Gold.PLP.Chemscore.CHOScore>
1.0000

> <Gold.PLP.Chemscore.Metal>
0.0000

> <Gold.Chemscore.Hbonds>
donor molecule, donor type, donor heavy atom, donor atom, acceptor molecule, acceptor atom, score
      L1  H     9    28       P1  7957  0.88
      L1  H     9    41       P1  7948  1.95
      L1  C    17    40       P1  8028  1.00

> <Gold.PLP.Chemscore.Internal.Correction>
0.0174

> <Gold.Rescore>
     Score         DG    S(hbond)    S(metal)    S(lipo)     H(rot)  DE(clash)    DE(int)     intcor
     15.21     -18.35       1.99        0.00      87.66       1.57       1.71       1.42       ----

> <Gold.Chemscore.Fitness>
15.2093

> <Gold.Chemscore.DG>
-18.3467

> <Gold.Chemscore.ZeroCoef>
-5.4800

> <Gold.Chemscore.Hbond>
1.9860

> <Gold.Chemscore.Metal>
0.0000

> <Gold.Chemscore.Lipo>
87.6601

> <Gold.Chemscore.Internal_Hbond>
0.0000

> <Gold.Chemscore.DEClash>
1.7134

> <Gold.Chemscore.DEInternal>
1.4241

> <Gold.Chemscore.Rot>
1.5714

> <Gold.Chemscore.Internal.Correction>
   9.000000E+99

> <Gold.Chemscore.Hbonds>
donor molecule, donor type, donor heavy atom, donor atom, acceptor molecule, acceptor atom, score
      L1  H     9    28       P1  7957  0.80
      L1  H     9    41       P1  7948  0.76

> <Gold.Chemscore.Hbond.Weighted>
-6.6334

> <Gold.Chemscore.Metal.Weighted>
-0.0000

> <Gold.Chemscore.Lipo.Weighted>
-10.2562

> <Gold.Chemscore.Internal_Hbond.Weighted>
0.0000

> <Gold.Chemscore.DEClash.Weighted>
1.7134

> <Gold.Chemscore.DEInternal.Weighted>
1.4241

> <Gold.Chemscore.Rot.Weighted>
4.0228

> <Gold.Chemscore.Internal.Correction.Weighted>
   9.000000E+99

> <Gold.Protein.RotatedTorsions>
[ 6907 6896 6895 6894 ] final  109.36 input  -60.11 | X-H torsion
[ 7974 7965 7964 7962 ] final   90.74 input  175.53 | X-H torsion
[ 8008 7997 7996 7995 ] final  171.02 input   59.86 | X-H torsion
[ 10167 10162 10161 10158 ] final   75.30 input  -65.29 | X-H torsion
[ 10718 10713 10712 10709 ] final  131.22 input   66.30 | X-H torsion
[ 10763 10752 10751 10750 ] final  -44.23 input  -60.55 | X-H torsion
[ 11005 11000 10999 10996 ] final   70.20 input  -57.11 | X-H torsion

> <Gold.Protein.ActiveResidues>
 VAL166  LYS551  ARG553  GLY616  TRP617  ASP618  TYR619  PRO620  LYS621  CYS622 
 ASP623  PHE694  ASN695  SER759  ASP760  ASP761  ALA762  ILE779  LEU786  VAL792 
 PHE793  MET794  SER795  GLU796  ALA797  LYS798  CYS799  TRP800  GLU811  SER814 

> <Gold.Protein.RotatedAtoms>
  152.5071  133.8955  159.7414 H   0  0  0  0  0  0  0  0  0  0  0  0  # atno 6907 bound_to 6896
  150.9384  133.6677  159.2803 H   0  0  0  0  0  0  0  0  0  0  0  0  # atno 6908 bound_to 6896
  151.3997  135.0974  159.9604 H   0  0  0  0  0  0  0  0  0  0  0  0  # atno 6909 bound_to 6896
  145.5150  139.2278  143.2703 H   0  0  0  0  0  0  0  0  0  0  0  0  # atno 7974 bound_to 7965
  156.1311  140.1523  156.9064 H   0  0  0  0  0  0  0  0  0  0  0  0  # atno 8008 bound_to 7997
  154.4910  140.0851  156.7633 H   0  0  0  0  0  0  0  0  0  0  0  0  # atno 8009 bound_to 7997
  155.4255  140.3425  155.4277 H   0  0  0  0  0  0  0  0  0  0  0  0  # atno 8010 bound_to 7997
  140.0045  144.5661  150.7710 H   0  0  0  0  0  0  0  0  0  0  0  0  # atno 10167 bound_to 10162
  157.4988  131.1093  150.9456 H   0  0  0  0  0  0  0  0  0  0  0  0  # atno 10718 bound_to 10713
  154.0086  135.6684  153.4764 H   0  0  0  0  0  0  0  0  0  0  0  0  # atno 10763 bound_to 10752
  153.0631  135.5016  154.8134 H   0  0  0  0  0  0  0  0  0  0  0  0  # atno 10764 bound_to 10752
  154.7009  135.3078  154.9306 H   0  0  0  0  0  0  0  0  0  0  0  0  # atno 10765 bound_to 10752
  139.9611  134.7060  156.0645 H   0  0  0  0  0  0  0  0  0  0  0  0  # atno 11005 bound_to 11000
  146.2142  140.5959  142.9046 LP  0  0  0  0  0  0  0  0  0  0  0  0  # atno 17320 bound_to 7965
  144.7706  140.5630  143.6672 LP  0  0  0  0  0  0  0  0  0  0  0  0  # atno 17321 bound_to 7965
  140.7406  143.2806  151.3609 LP  0  0  0  0  0  0  0  0  0  0  0  0  # atno 17342 bound_to 10162
  139.6248  144.0835  152.2424 LP  0  0  0  0  0  0  0  0  0  0  0  0  # atno 17343 bound_to 10162
  157.0133  130.5645  149.5323 LP  0  0  0  0  0  0  0  0  0  0  0  0  # atno 17370 bound_to 10713
  156.0216  130.5311  150.8292 LP  0  0  0  0  0  0  0  0  0  0  0  0  # atno 17371 bound_to 10713
  141.1288  133.6592  156.3408 LP  0  0  0  0  0  0  0  0  0  0  0  0  # atno 17394 bound_to 11000
  140.5499  134.6038  157.5404 LP  0  0  0  0  0  0  0  0  0  0  0  0  # atno 17395 bound_to 11000

$$$$
