AV-unprocessed.smi:2265|AV-procd|sdf|9145|dock6
  -GOLD-   2272012353D 1   1.00000     0.00000
 Structure written by MMmdl.
 36 37  0  0  0  0  0  0  0  0  1 V2000
  144.7991  144.0130  154.6604 C   0  0  0  0  0  0  0  0  0  0  0  0
  145.8253  143.2662  153.8017 C   0  0  0  0  0  0  0  0  0  0  0  0
  146.3317  141.9828  154.4731 C   0  0  0  0  0  0  0  0  0  0  0  0
  147.3537  141.2510  153.6216 C   0  0  2  0  0  0  0  0  0  0  0  0
  148.0887  140.0489  154.1521 C   0  0  0  0  0  0  0  0  0  0  0  0
  148.8429  141.3372  153.8913 C   0  0  2  0  0  0  0  0  0  0  0  0
  149.3106  142.0612  155.0358 N   0  0  0  0  0  0  0  0  0  0  0  0
  150.2139  141.6604  155.9481 C   0  0  0  0  0  0  0  0  0  0  0  0
  150.7220  140.5412  155.8815 O   0  0  0  0  0  0  0  0  0  0  0  0
  150.4505  142.5703  156.9192 N   0  0  0  0  0  0  0  0  0  0  0  0
  151.3007  142.4601  158.0263 C   0  0  0  0  0  0  0  0  0  0  0  0
  152.0960  141.4452  158.2202 N   0  0  0  0  0  0  0  0  0  0  0  0
  152.9303  141.3699  159.3357 C   0  0  0  0  0  0  0  0  0  0  0  0
  152.9443  142.3523  160.2545 C   0  0  0  0  0  0  0  0  0  0  0  0
  152.1195  143.4770  160.1124 N   0  0  0  0  0  0  0  0  0  0  0  0
  152.1716  144.5142  161.1431 C   0  0  0  0  0  0  0  0  0  0  0  0
  151.2823  143.6017  159.0470 C   0  0  0  0  0  0  0  0  0  0  0  0
  150.5351  144.5682  158.8817 O   0  0  0  0  0  0  0  0  0  0  0  0
  144.4554  144.9166  154.1567 H   0  0  0  0  0  0  0  0  0  0  0  0
  145.2280  144.3085  155.6183 H   0  0  0  0  0  0  0  0  0  0  0  0
  143.9263  143.3913  154.8611 H   0  0  0  0  0  0  0  0  0  0  0  0
  145.3781  143.0216  152.8376 H   0  0  0  0  0  0  0  0  0  0  0  0
  146.6672  143.9272  153.5927 H   0  0  0  0  0  0  0  0  0  0  0  0
  146.7912  142.2200  155.4333 H   0  0  0  0  0  0  0  0  0  0  0  0
  145.4889  141.3230  154.6822 H   0  0  0  0  0  0  0  0  0  0  0  0
  147.0810  141.2131  152.5684 H   0  0  0  0  0  0  0  0  0  0  0  0
  147.9093  139.7637  155.1872 H   0  0  0  0  0  0  0  0  0  0  0  0
  148.2546  139.2212  153.4658 H   0  0  0  0  0  0  0  0  0  0  0  0
  149.4978  141.3114  153.0213 H   0  0  0  0  0  0  0  0  0  0  0  0
  148.8507  142.9421  155.2154 H   0  0  0  0  0  0  0  0  0  0  0  0
  149.9342  143.4338  156.8362 H   0  0  0  0  0  0  0  0  0  0  0  0
  153.5538  140.4918  159.4179 H   0  0  0  0  0  0  0  0  0  0  0  0
  153.5714  142.3381  161.1339 H   0  0  0  0  0  0  0  0  0  0  0  0
  151.2245  144.5609  161.6818 H   0  0  0  0  0  0  0  0  0  0  0  0
  152.3590  145.4927  160.6983 H   0  0  0  0  0  0  0  0  0  0  0  0
  152.9597  144.3347  161.8751 H   0  0  0  0  0  0  0  0  0  0  0  0
  1  2  1  0  0  0  0
  1 19  1  0  0  0  0
  1 20  1  0  0  0  0
  1 21  1  0  0  0  0
  2  3  1  0  0  0  0
  2 22  1  0  0  0  0
  2 23  1  0  0  0  0
  3  4  1  0  0  0  0
  3 24  1  0  0  0  0
  3 25  1  0  0  0  0
  4  6  1  0  0  0  0
  4  5  1  0  0  0  0
  4 26  1  0  0  0  0
  5  6  1  0  0  0  0
  5 27  1  0  0  0  0
  5 28  1  0  0  0  0
  6  7  1  0  0  0  0
  6 29  1  0  0  0  0
  7  8  1  0  0  0  0
  7 30  1  0  0  0  0
  8  9  2  0  0  0  0
  8 10  1  0  0  0  0
 10 11  1  0  0  0  0
 10 31  1  0  0  0  0
 11 17  1  0  0  0  0
 11 12  2  0  0  0  0
 12 13  1  0  0  0  0
 13 14  2  0  0  0  0
 13 32  1  0  0  0  0
 14 15  1  0  0  0  0
 14 33  1  0  0  0  0
 15 16  1  0  0  0  0
 15 17  1  0  0  0  0
 16 34  1  0  0  0  0
 16 35  1  0  0  0  0
 16 36  1  0  0  0  0
 17 18  2  0  0  0  0
M  END
> <s_m_source_file>
AV-unprocessed.smi

> <i_m_source_file_index>
2265

> <i_lp_mmshare_version>
43012

> <i_f3d_flags>
0

> <s_epik_input>
W0NIM11bQ0gyXVtDSDJdW0NAQEhdMVtDSDJdW0NASF0xW05IXUMoPU8pW05IXWMybltjSF1bY0hdbihbQ0gzXSljMj1P

> <s_epik_cmdline>
J2VwaWtfcHl0aG9uJywgJy1waCcsICc3LjAnLCAnLXRuJywgJzgnLCAnLW1hJywgJzIwMCcsICctbWV0YWxfYmluZGluZycsICctaW1hZScsICc8aW5maWxlLm1hZT4nLCAnLW9tYWUnLCAnPG91dGZpbGUubWFlPic=

> <r_lp_tautomer_probability>
1

> <r_epik_Ionization_Penalty>
0.000728552

> <r_epik_Ionization_Penalty_Charging>
1.67739e-07

> <r_epik_Ionization_Penalty_Neutral>
0.000728385

> <r_epik_State_Penalty>
-0

> <r_epik_Charging_Adjusted_Penalty>
1.67739e-07

> <i_epik_Tot_Q>
0

> <i_epik_Tot_abs_Q>
0

> <r_epik_Metal_State_Penalty>
-0

> <b_epik_Metal_Only>
0

> <s_lp_Force_Field>
OPLS_2005

> <r_lp_Energy>
43.9494

> <b_lp_Chiralities_Consistent>
1

> <s_lp_Variant>
AV-unprocessed.smi:2265-3

> <Gold.Version>
5.8.1

> <Gold.Id.Protein>
6NUR|6NUR_protein|mol2

> <Gold.PLP.Fitness>
45.8213

> <Gold.PLP.PLP>
-40.0379

> <Gold.PLP.part.hbond>
-2.0000

> <Gold.PLP.part.metal>
0.0000

> <Gold.PLP.part.buried>
-5.1077

> <Gold.PLP.part.nonpolar>
-33.8824

> <Gold.PLP.part.repulsive>
0.4350

> <Gold.PLP.ligand.clash>
0.0000

> <Gold.PLP.ligand.torsion>
0.3839

> <Gold.PLP.Chemscore.Hbond>
1.9920

> <Gold.PLP.Chemscore.CHOScore>
0.0000

> <Gold.PLP.Chemscore.Metal>
0.0000

> <Gold.Chemscore.Hbonds>
donor molecule, donor type, donor heavy atom, donor atom, acceptor molecule, acceptor atom, score
      L1  H     7    30       P1  8028  1.00
      L1  H    10    31       P1  8028  0.99

> <Gold.PLP.Chemscore.Internal.Correction>
0.5753

> <Gold.Rescore>
     Score         DG    S(hbond)    S(metal)    S(lipo)     H(rot)  DE(clash)    DE(int)     intcor
     14.64     -16.44       1.85        0.00      72.69       1.46       0.10       1.70       ----

> <Gold.Chemscore.Fitness>
14.6399

> <Gold.Chemscore.DG>
-16.4364

> <Gold.Chemscore.ZeroCoef>
-5.4800

> <Gold.Chemscore.Hbond>
1.8535

> <Gold.Chemscore.Metal>
0.0000

> <Gold.Chemscore.Lipo>
72.6869

> <Gold.Chemscore.Internal_Hbond>
0.0000

> <Gold.Chemscore.DEClash>
0.0983

> <Gold.Chemscore.DEInternal>
1.6982

> <Gold.Chemscore.Rot>
1.4604

> <Gold.Chemscore.Internal.Correction>
   9.000000E+99

> <Gold.Chemscore.Hbonds>
donor molecule, donor type, donor heavy atom, donor atom, acceptor molecule, acceptor atom, score
      L1  H     7    30       P1  8028  0.96
      L1  H    10    31       P1  8028  0.87

> <Gold.Chemscore.Hbond.Weighted>
-6.1908

> <Gold.Chemscore.Metal.Weighted>
-0.0000

> <Gold.Chemscore.Lipo.Weighted>
-8.5044

> <Gold.Chemscore.Internal_Hbond.Weighted>
0.0000

> <Gold.Chemscore.DEClash.Weighted>
0.0983

> <Gold.Chemscore.DEInternal.Weighted>
1.6982

> <Gold.Chemscore.Rot.Weighted>
3.7387

> <Gold.Chemscore.Internal.Correction.Weighted>
   9.000000E+99

> <Gold.Protein.RotatedTorsions>
[ 6907 6896 6895 6894 ] final -160.12 input  -60.11 | X-H torsion
[ 7974 7965 7964 7962 ] final   20.08 input  175.53 | X-H torsion
[ 8008 7997 7996 7995 ] final   75.95 input   59.86 | X-H torsion
[ 10167 10162 10161 10158 ] final   57.85 input  -65.29 | X-H torsion
[ 10718 10713 10712 10709 ] final  -40.58 input   66.30 | X-H torsion
[ 10763 10752 10751 10750 ] final   91.21 input  -60.55 | X-H torsion
[ 11005 11000 10999 10996 ] final  160.62 input  -57.11 | X-H torsion

> <Gold.Protein.ActiveResidues>
 VAL166  LYS551  ARG553  GLY616  TRP617  ASP618  TYR619  PRO620  LYS621  CYS622 
 ASP623  PHE694  ASN695  SER759  ASP760  ASP761  ALA762  ILE779  LEU786  VAL792 
 PHE793  MET794  SER795  GLU796  ALA797  LYS798  CYS799  TRP800  GLU811  SER814 

> <Gold.Protein.RotatedAtoms>
  151.3441  133.3951  159.2673 H   0  0  0  0  0  0  0  0  0  0  0  0  # atno 6907 bound_to 6896
  150.9854  134.9201  159.7879 H   0  0  0  0  0  0  0  0  0  0  0  0  # atno 6908 bound_to 6896
  152.5230  134.3406  159.9268 H   0  0  0  0  0  0  0  0  0  0  0  0  # atno 6909 bound_to 6896
  146.2125  139.8221  142.8677 H   0  0  0  0  0  0  0  0  0  0  0  0  # atno 7974 bound_to 7965
  155.8202  140.3470  155.5510 H   0  0  0  0  0  0  0  0  0  0  0  0  # atno 8008 bound_to 7997
  155.8349  140.0933  157.1790 H   0  0  0  0  0  0  0  0  0  0  0  0  # atno 8009 bound_to 7997
  154.4004  140.1405  156.3646 H   0  0  0  0  0  0  0  0  0  0  0  0  # atno 8010 bound_to 7997
  140.1936  144.4061  150.6560 H   0  0  0  0  0  0  0  0  0  0  0  0  # atno 10167 bound_to 10162
  156.2798  130.4216  149.8349 H   0  0  0  0  0  0  0  0  0  0  0  0  # atno 10718 bound_to 10713
  153.2058  135.4406  155.0321 H   0  0  0  0  0  0  0  0  0  0  0  0  # atno 10763 bound_to 10752
  154.8173  135.3321  154.7143 H   0  0  0  0  0  0  0  0  0  0  0  0  # atno 10764 bound_to 10752
  153.7584  135.6993  153.4986 H   0  0  0  0  0  0  0  0  0  0  0  0  # atno 10765 bound_to 10752
  140.2078  134.8290  157.3087 H   0  0  0  0  0  0  0  0  0  0  0  0  # atno 11005 bound_to 11000
  145.3085  141.0213  143.3568 LP  0  0  0  0  0  0  0  0  0  0  0  0  # atno 17320 bound_to 7965
  144.8953  139.4720  143.6658 LP  0  0  0  0  0  0  0  0  0  0  0  0  # atno 17321 bound_to 7965
  140.6439  143.2209  151.6229 LP  0  0  0  0  0  0  0  0  0  0  0  0  # atno 17342 bound_to 10162
  139.5246  144.3099  152.1001 LP  0  0  0  0  0  0  0  0  0  0  0  0  # atno 17343 bound_to 10162
  156.5800  130.8462  151.3380 LP  0  0  0  0  0  0  0  0  0  0  0  0  # atno 17370 bound_to 10713
  157.7311  130.9695  150.1863 LP  0  0  0  0  0  0  0  0  0  0  0  0  # atno 17371 bound_to 10713
  140.1984  134.4285  155.7676 LP  0  0  0  0  0  0  0  0  0  0  0  0  # atno 17394 bound_to 11000
  141.2227  133.7060  156.8143 LP  0  0  0  0  0  0  0  0  0  0  0  0  # atno 17395 bound_to 11000

$$$$
