#       Name:                AV-unprocessed.smi:155
#       Creating user name   scv26
#       Creation time:       Thu Mar 26 18:54:21 2020


#       File generated by GOLD software.
#

@<TRIPOS>MOLECULE
AV-unprocessed.smi:155
    71    74     1
SMALL
NO_CHARGES


@<TRIPOS>ATOM
      1 ****        -7.6363   4.7236   0.8070 C.3            1 S1                 0.0000
      2 ****        -7.1478   3.5404   0.0639 N.4            1 S1                 1.0000
      3 ****        -7.8296   3.4010  -1.2437 C.3            1 S1                 0.0000
      4 ****        -5.6671   3.5196  -0.0374 C.3            1 S1                 0.0000
      5 ****        -5.1214   2.1287  -0.4271 C.3            1 S1                 0.0000
      6 ****        -3.6581   2.0838  -0.3715 N.3            1 S1                 0.0000
      7 ****        -3.2200   1.8840   1.0146 C.3            1 S1                 0.0000
      8 ****        -1.6962   1.9965   1.1976 C.3            1 S1                 0.0000
      9 ****        -0.9398   0.7142   0.8130 C.3            1 S1                 0.0000
     10 ****        -0.7832   0.5315  -0.6304 N.pl3          1 S1                 0.0000
     11 ****         0.4136   0.0633  -1.0737 C.ar           1 S1                 0.0000
     12 ****         0.9794   0.6236  -2.1764 N.ar           1 S1                 0.0000
     13 ****         2.1626   0.1938  -2.6242 C.ar           1 S1                 0.0000
     14 ****         2.9404  -0.7719  -2.1321 N.ar           1 S1                 0.0000
     15 ****         2.3764  -1.3464  -1.0317 C.ar           1 S1                 0.0000
     16 ****         1.1295  -0.9945  -0.4402 C.ar           1 S1                 0.0000
     17 ****         0.8854  -1.8102   0.6600 N.2            1 S1                 0.0000
     18 ****         1.9305  -2.5890   0.7215 C.2            1 S1                 0.0000
     19 ****         2.8758  -2.3770  -0.2550 N.pl3          1 S1                 0.0000
     20 ****         4.1271  -3.0957  -0.4185 C.3            1 S1                 0.0000
     21 ****         5.2047  -2.6349   0.5826 C.3            1 S1                 0.0000
     22 ****         5.4333  -1.2482   0.4177 O.3            1 S1                 0.0000
     23 ****         6.5351  -3.3856   0.3924 C.3            1 S1                 0.0000
     24 ****         7.6168  -3.0240   1.4098 C.3            1 S1                 0.0000
     25 ****         8.5323  -4.2240   1.3202 C.3            1 S1                 0.0000
     26 ****         7.5502  -5.3722   1.0928 C.3            1 S1                 0.0000
     27 ****         6.3525  -4.7838   0.5904 O.3            1 S1                 0.0000
     28 ****        -1.6902   1.1813  -1.5766 C.3            1 S1                 0.0000
     29 ****        -3.1722   0.9889  -1.2140 C.3            1 S1                 0.0000
     30 ****        -7.3745   5.6464   0.2878 H              1 S1                 0.0000
     31 ****        -7.2049   4.7597   1.8082 H              1 S1                 0.0000
     32 ****        -8.7205   4.6899   0.9189 H              1 S1                 0.0000
     33 ****        -7.5554   4.2141  -1.9172 H              1 S1                 0.0000
     34 ****        -8.9124   3.4176  -1.1149 H              1 S1                 0.0000
     35 ****        -7.5799   2.4564  -1.7258 H              1 S1                 0.0000
     36 ****        -5.3337   4.2736  -0.7525 H              1 S1                 0.0000
     37 ****        -5.2653   3.8198   0.9293 H              1 S1                 0.0000
     38 ****        -5.5473   1.3455   0.2025 H              1 S1                 0.0000
     39 ****        -5.4500   1.9191  -1.4449 H              1 S1                 0.0000
     40 ****        -3.6714   2.6452   1.6480 H              1 S1                 0.0000
     41 ****        -3.5776   0.9256   1.3949 H              1 S1                 0.0000
     42 ****        -1.2945   2.8693   0.6810 H              1 S1                 0.0000
     43 ****        -1.5104   2.1741   2.2573 H              1 S1                 0.0000
     44 ****         0.0463   0.7644   1.2766 H              1 S1                 0.0000
     45 ****        -1.4353  -0.1606   1.2352 H              1 S1                 0.0000
     46 ****         2.5408   0.6966  -3.5020 H              1 S1                 0.0000
     47 ****         2.0425  -3.3434   1.4868 H              1 S1                 0.0000
     48 ****         3.9226  -4.1595  -0.2916 H              1 S1                 0.0000
     49 ****         4.4770  -2.9675  -1.4436 H              1 S1                 0.0000
     50 ****         4.8432  -2.7964   1.5990 H              1 S1                 0.0000
     51 ****         5.7089  -1.0935  -0.4730 H              1 S1                 0.0000
     52 ****         6.9191  -3.2333  -0.6182 H              1 S1                 0.0000
     53 ****         8.1222  -2.0852   1.1812 H              1 S1                 0.0000
     54 ****         7.1931  -2.9504   2.4126 H              1 S1                 0.0000
     55 ****         9.1934  -4.1219   0.4587 H              1 S1                 0.0000
     56 ****         9.1493  -4.3600   2.2087 H              1 S1                 0.0000
     57 ****         7.9461  -6.1103   0.3947 H              1 S1                 0.0000
     58 ****         7.3211  -5.8807   2.0296 H              1 S1                 0.0000
     59 ****        -1.4388   2.2374  -1.6826 H              1 S1                 0.0000
     60 ****        -1.5420   0.7329  -2.5600 H              1 S1                 0.0000
     61 ****        -3.3683   0.0104  -0.7718 H              1 S1                 0.0000
     62 ****        -3.7179   1.0119  -2.1579 H              1 S1                 0.0000
     63 ****        -7.4095   2.7366   0.6170 H              1 S1                 0.0000
     64 ****        -3.2846   2.9485  -0.7074 LP             1 S1                 0.0000
     65 ****         0.5062   1.3628  -2.6557 LP             1 S1                 0.0000
     66 ****         3.8224  -1.0396  -2.5199 LP             1 S1                 0.0000
     67 ****         0.0899  -1.8016   1.2659 LP             1 S1                 0.0000
     68 ****         6.1478  -0.9467   1.0490 LP             1 S1                 0.0000
     69 ****         4.5903  -0.7430   0.6025 LP             1 S1                 0.0000
     70 ****         6.1147  -5.2123  -0.2813 LP             1 S1                 0.0000
     71 ****         5.6123  -4.9303   1.2466 LP             1 S1                 0.0000
@<TRIPOS>BOND
    1    1    2 1     
    2    1   30 1     
    3    1   31 1     
    4    1   32 1     
    5    2    3 1     
    6    2    4 1     
    7    2   63 1     
    8    3   33 1     
    9    3   34 1     
   10    3   35 1     
   11    4    5 1     
   12    4   36 1     
   13    4   37 1     
   14    5    6 1     
   15    5   38 1     
   16    5   39 1     
   17    6   29 1     
   18    6    7 1     
   19    7    8 1     
   20    7   40 1     
   21    7   41 1     
   22    8    9 1     
   23    8   42 1     
   24    8   43 1     
   25    9   10 1     
   26    9   44 1     
   27    9   45 1     
   28   10   11 1     
   29   10   28 1     
   30   11   16 ar    
   31   11   12 ar    
   32   12   13 ar    
   33   13   14 ar    
   34   13   46 1     
   35   14   15 ar    
   36   15   19 1     
   37   15   16 ar    
   38   16   17 1     
   39   17   18 2     
   40   18   19 1     
   41   18   47 1     
   42   19   20 1     
   43   20   21 1     
   44   20   48 1     
   45   20   49 1     
   46   21   22 1     
   47   21   23 1     
   48   21   50 1     
   49   22   51 1     
   50   23   27 1     
   51   23   24 1     
   52   23   52 1     
   53   24   25 1     
   54   24   53 1     
   55   24   54 1     
   56   25   26 1     
   57   25   55 1     
   58   25   56 1     
   59   26   27 1     
   60   26   57 1     
   61   26   58 1     
   62   28   29 1     
   63   28   59 1     
   64   28   60 1     
   65   29   61 1     
   66   29   62 1     
   67    6   64 1     
   68   12   65 1     
   69   14   66 1     
   70   17   67 1     
   71   22   68 1     
   72   22   69 1     
   73   27   70 1     
   74   27   71 1     
@<TRIPOS>SUBSTRUCTURE
      1 S1             1
@<TRIPOS>SET
LONE_PAIRS      STATIC     ATOMS    <user>   **** ""
8 64 65 66 67 68 69 70 71
DONOR_HYDROGENS      STATIC     ATOMS    <user>   **** ""
2 63 51
ATOM$BLUE        STATIC     ATOMS    COLORGROUP SYSTEM
8 64 65 66 67 68 69 70 71
ATOM$RED        STATIC     ATOMS    COLORGROUP SYSTEM
2 63 51
