#       Name:                AV-unprocessed.smi:2247
#       Creating user name   scv26
#       Creation time:       Fri Mar 27 12:29:20 2020


#       File generated by GOLD software.
#

@<TRIPOS>MOLECULE
AV-unprocessed.smi:2247
    41    42     1
SMALL
NO_CHARGES


@<TRIPOS>ATOM
      1 ****        -4.0541  -1.7358   1.0164 C.3            1 S1                 0.0000
      2 ****        -3.4328  -1.1766  -0.2740 C.3            1 S1                 0.0000
      3 ****        -3.9759  -1.8503  -1.5433 C.3            1 S1                 0.0000
      4 ****        -1.9646  -1.2215  -0.2473 N.am           1 S1                 0.0000
      5 ****        -1.2380  -2.4560   0.0064 C.3            1 S1                 0.0000
      6 ****         0.2167  -2.0165   0.1957 C.3            1 S1                 0.0000
      7 ****         0.3294  -0.6270  -0.4508 C.3            1 S1                 0.0000
      8 ****         1.1343   0.2553   0.3930 N.am           1 S1                 0.0000
      9 ****         1.7921   1.3485  -0.0227 C.2            1 S1                 0.0000
     10 ****         1.7708   1.7082  -1.2042 O.2            1 S1                 0.0000
     11 ****         2.4766   1.9280   1.0353 N.2            1 S1                 0.0000
     12 ****         3.5100   2.6757   0.7942 C.2            1 S1                 0.0000
     13 ****         4.1589   3.0451  -0.3813 N.pl3          1 S1                 0.0000
     14 ****         5.2151   3.8474  -0.0511 C.2            1 S1                 0.0000
     15 ****         5.2335   3.9800   1.2718 C.2            1 S1                 0.0000
     16 ****         4.2023   3.2747   1.8163 O.3            1 S1                 0.0000
     17 ****        -1.1370  -0.1928  -0.4817 C.2            1 S1                 0.0000
     18 ****        -1.4804   0.9631  -0.7308 O.2            1 S1                 0.0000
     19 ****        -5.1310  -1.5658   1.0315 H              1 S1                 0.0000
     20 ****        -3.6334  -1.2523   1.8987 H              1 S1                 0.0000
     21 ****        -3.8954  -2.8100   1.1115 H              1 S1                 0.0000
     22 ****        -3.7400  -0.1305  -0.3227 H              1 S1                 0.0000
     23 ****        -5.0595  -1.7476  -1.6065 H              1 S1                 0.0000
     24 ****        -3.7435  -2.9154  -1.5602 H              1 S1                 0.0000
     25 ****        -3.5494  -1.4004  -2.4405 H              1 S1                 0.0000
     26 ****        -1.6038  -2.9886   0.8840 H              1 S1                 0.0000
     27 ****        -1.3339  -3.1143  -0.8579 H              1 S1                 0.0000
     28 ****         0.4356  -1.9658   1.2640 H              1 S1                 0.0000
     29 ****         0.9171  -2.7285  -0.2421 H              1 S1                 0.0000
     30 ****         0.7139  -0.6988  -1.4695 H              1 S1                 0.0000
     31 ****         1.1965   0.0145   1.3715 H              1 S1                 0.0000
     32 ****         3.9259   2.7905  -1.3306 H              1 S1                 0.0000
     33 ****         5.8590   4.2483  -0.8201 H              1 S1                 0.0000
     34 ****         5.8850   4.5163   1.9458 H              1 S1                 0.0000
     35 ****         1.2541   1.1803  -1.8783 LP             1 S1                 0.0000
     36 ****         2.2702   2.5272  -1.4866 LP             1 S1                 0.0000
     37 ****         2.1765   1.7711   1.9762 LP             1 S1                 0.0000
     38 ****         4.5592   2.5777   2.4383 LP             1 S1                 0.0000
     39 ****         3.5975   3.8920   2.3194 LP             1 S1                 0.0000
     40 ****        -2.4515   1.1984  -0.7714 LP             1 S1                 0.0000
     41 ****        -0.7882   1.6665  -0.8925 LP             1 S1                 0.0000
@<TRIPOS>BOND
    1    1    2 1     
    2    1   19 1     
    3    1   20 1     
    4    1   21 1     
    5    2    3 1     
    6    2    4 1     
    7    2   22 1     
    8    3   23 1     
    9    3   24 1     
   10    3   25 1     
   11    4   17 am    
   12    4    5 1     
   13    5    6 1     
   14    5   26 1     
   15    5   27 1     
   16    6    7 1     
   17    6   28 1     
   18    6   29 1     
   19    7    8 1     
   20    7   17 1     
   21    7   30 1     
   22    8   31 1     
   23    8    9 am    
   24    9   11 1     
   25    9   10 2     
   26   11   12 2     
   27   12   16 1     
   28   12   13 1     
   29   13   32 1     
   30   13   14 1     
   31   14   33 1     
   32   14   15 2     
   33   15   34 1     
   34   15   16 1     
   35   17   18 2     
   36   10   35 1     
   37   10   36 1     
   38   11   37 1     
   39   16   38 1     
   40   16   39 1     
   41   18   40 1     
   42   18   41 1     
@<TRIPOS>SUBSTRUCTURE
      1 S1             1
@<TRIPOS>SET
LONE_PAIRS      STATIC     ATOMS    <user>   **** ""
7 35 36 37 38 39 40 41
DONOR_HYDROGENS      STATIC     ATOMS    <user>   **** ""
2 31 32
ATOM$BLUE        STATIC     ATOMS    COLORGROUP SYSTEM
7 35 36 37 38 39 40 41
ATOM$RED        STATIC     ATOMS    COLORGROUP SYSTEM
2 31 32
