#       Name:                AV-unprocessed.smi:2568
#       Creating user name   scv26
#       Creation time:       Fri Mar 27 14:11:21 2020


#       File generated by GOLD software.
#

@<TRIPOS>MOLECULE
AV-unprocessed.smi:2568
    29    30     1
SMALL
NO_CHARGES


@<TRIPOS>ATOM
      1 ****        -4.0307  -1.4099   0.2961 C.3            1 S1                 0.0000
      2 ****        -2.5397  -1.4187   0.3203 C.2            1 S1                 0.0000
      3 ****        -1.8377  -2.5528   0.3544 N.pl3          1 S1                 0.0000
      4 ****        -0.5196  -2.2617   0.3649 N.2            1 S1                 0.0000
      5 ****        -0.5283  -0.9293   0.3538 C.2            1 S1                 0.0000
      6 ****         0.7537  -0.1572   0.3137 C.3            1 S1                 0.0000
      7 ****         1.2133   0.1334  -1.1274 C.3            1 S1                 0.0000
      8 ****         2.4253   0.9749  -1.1065 N.4            1 S1                 1.0000
      9 ****         2.2116   2.2109  -0.3274 C.3            1 S1                 0.0000
     10 ****         1.7025   1.8689   1.0845 C.3            1 S1                 0.0000
     11 ****         0.5237   1.0749   0.9942 O.3            1 S1                 0.0000
     12 ****        -1.7633  -0.3407   0.3066 N.2            1 S1                 0.0000
     13 ****        -2.1954  -3.4976   0.3637 H              1 S1                 0.0000
     14 ****        -4.4067  -0.3863   0.2898 H              1 S1                 0.0000
     15 ****        -4.4228  -1.9195   1.1767 H              1 S1                 0.0000
     16 ****        -4.3936  -1.9203  -0.5962 H              1 S1                 0.0000
     17 ****         1.5199  -0.7238   0.8472 H              1 S1                 0.0000
     18 ****         1.4257  -0.7941  -1.6601 H              1 S1                 0.0000
     19 ****         0.4292   0.6516  -1.6815 H              1 S1                 0.0000
     20 ****         3.1763   0.4495  -0.6814 H              1 S1                 0.0000
     21 ****         3.1453   2.7709  -0.2738 H              1 S1                 0.0000
     22 ****         1.4878   2.8405  -0.8465 H              1 S1                 0.0000
     23 ****         2.4662   1.3394   1.6564 H              1 S1                 0.0000
     24 ****         1.4724   2.7826   1.6324 H              1 S1                 0.0000
     25 ****         2.6853   1.2141  -2.0529 H              1 S1                 0.0000
     26 ****         0.2620  -2.8853   0.3777 LP             1 S1                 0.0000
     27 ****         0.1979   0.8762   1.9185 LP             1 S1                 0.0000
     28 ****        -0.1748   1.5910   0.4983 LP             1 S1                 0.0000
     29 ****        -2.0112   0.6275   0.2716 LP             1 S1                 0.0000
@<TRIPOS>BOND
    1    1   14 1     
    2    1   15 1     
    3    1   16 1     
    4    1    2 1     
    5    2   12 2     
    6    2    3 1     
    7    3    4 1     
    8    3   13 1     
    9    4    5 2     
   10    5   12 1     
   11    5    6 1     
   12    6   11 1     
   13    6    7 1     
   14    6   17 1     
   15    7    8 1     
   16    7   18 1     
   17    7   19 1     
   18    8    9 1     
   19    8   20 1     
   20    8   25 1     
   21    9   10 1     
   22    9   21 1     
   23    9   22 1     
   24   10   11 1     
   25   10   23 1     
   26   10   24 1     
   27    4   26 1     
   28   11   27 1     
   29   11   28 1     
   30   12   29 1     
@<TRIPOS>SUBSTRUCTURE
      1 S1             1
@<TRIPOS>SET
LONE_PAIRS      STATIC     ATOMS    <user>   **** ""
4 26 27 28 29
DONOR_HYDROGENS      STATIC     ATOMS    <user>   **** ""
3 13 20 25
ATOM$BLUE        STATIC     ATOMS    COLORGROUP SYSTEM
4 26 27 28 29
ATOM$RED        STATIC     ATOMS    COLORGROUP SYSTEM
3 13 20 25
