AV-unprocessed.smi:2891|AV-procd|sdf|11117|dock6
  -GOLD-   2272015583D 1   1.00000     0.00000
 Structure written by MMmdl.
 35 36  0  0  0  0  0  0  0  0  1 V2000
  153.9851  138.9556  159.4655 C   0  0  0  0  0  0  0  0  0  0  0  0
  153.8384  139.2071  158.0787 O   0  0  0  0  0  0  0  0  0  0  0  0
  153.4998  138.0398  157.3494 C   0  0  0  0  0  0  0  0  0  0  0  0
  153.4626  138.3814  155.8522 C   0  0  0  0  0  0  0  0  0  0  0  0
  152.1765  138.9795  155.4702 N   0  0  0  0  0  0  0  0  0  0  0  0
  151.9127  140.2807  155.9384 C   0  0  0  0  0  0  0  0  0  0  0  0
  150.7765  140.9422  155.6532 C   0  0  0  0  0  0  0  0  0  0  0  0
  150.6277  142.2369  156.1709 N   0  0  0  0  0  0  0  0  0  0  0  0
  151.1977  142.7906  157.2573 C   0  0  0  0  0  0  0  0  0  0  0  0
  151.9771  142.2321  158.0284 O   0  0  0  0  0  0  0  0  0  0  0  0
  150.7988  144.0611  157.4075 N   0  0  0  0  0  0  0  0  0  0  0  0
  151.2007  144.9381  158.4597 C   0  0  0  0  0  0  0  0  0  0  0  0
  152.5559  144.7014  159.0910 C   0  0  0  0  0  0  0  0  0  0  0  0
  151.3063  144.3606  159.8547 C   0  0  0  0  0  0  0  0  0  0  0  0
  149.8014  140.2443  154.8277 C   0  0  0  0  0  0  0  0  0  0  0  0
  150.0494  139.0022  154.3678 C   0  0  0  0  0  0  0  0  0  0  0  0
  151.2980  138.3004  154.6749 C   0  0  0  0  0  0  0  0  0  0  0  0
  151.5383  137.1728  154.2429 O   0  0  0  0  0  0  0  0  0  0  0  0
  154.2459  139.8799  159.9806 H   0  0  0  0  0  0  0  0  0  0  0  0
  154.7783  138.2306  159.6532 H   0  0  0  0  0  0  0  0  0  0  0  0
  153.0570  138.5794  159.8979 H   0  0  0  0  0  0  0  0  0  0  0  0
  154.2361  137.2568  157.5383 H   0  0  0  0  0  0  0  0  0  0  0  0
  152.5286  137.6658  157.6776 H   0  0  0  0  0  0  0  0  0  0  0  0
  154.2879  139.0509  155.6029 H   0  0  0  0  0  0  0  0  0  0  0  0
  153.6455  137.4786  155.2676 H   0  0  0  0  0  0  0  0  0  0  0  0
  152.7022  140.7096  156.5396 H   0  0  0  0  0  0  0  0  0  0  0  0
  149.9988  142.8290  155.6484 H   0  0  0  0  0  0  0  0  0  0  0  0
  150.1568  144.4387  156.7260 H   0  0  0  0  0  0  0  0  0  0  0  0
  150.8807  145.9772  158.3953 H   0  0  0  0  0  0  0  0  0  0  0  0
  153.1563  143.8750  158.7146 H   0  0  0  0  0  0  0  0  0  0  0  0
  153.1188  145.5749  159.4138 H   0  0  0  0  0  0  0  0  0  0  0  0
  151.0336  145.0074  160.6863 H   0  0  0  0  0  0  0  0  0  0  0  0
  151.0737  143.3059  159.9898 H   0  0  0  0  0  0  0  0  0  0  0  0
  148.8564  140.6897  154.5636 H   0  0  0  0  0  0  0  0  0  0  0  0
  149.3070  138.5078  153.7588 H   0  0  0  0  0  0  0  0  0  0  0  0
  1  2  1  0  0  0  0
  1 19  1  0  0  0  0
  1 20  1  0  0  0  0
  1 21  1  0  0  0  0
  2  3  1  0  0  0  0
  3  4  1  0  0  0  0
  3 22  1  0  0  0  0
  3 23  1  0  0  0  0
  4  5  1  0  0  0  0
  4 24  1  0  0  0  0
  4 25  1  0  0  0  0
  5 17  1  0  0  0  0
  5  6  1  0  0  0  0
  6  7  2  0  0  0  0
  6 26  1  0  0  0  0
  7  8  1  0  0  0  0
  7 15  1  0  0  0  0
  8  9  1  0  0  0  0
  8 27  1  0  0  0  0
  9 10  2  0  0  0  0
  9 11  1  0  0  0  0
 11 12  1  0  0  0  0
 11 28  1  0  0  0  0
 12 14  1  0  0  0  0
 12 13  1  0  0  0  0
 12 29  1  0  0  0  0
 13 14  1  0  0  0  0
 13 30  1  0  0  0  0
 13 31  1  0  0  0  0
 14 32  1  0  0  0  0
 14 33  1  0  0  0  0
 15 16  2  0  0  0  0
 15 34  1  0  0  0  0
 16 17  1  0  0  0  0
 16 35  1  0  0  0  0
 17 18  2  0  0  0  0
M  END
> <s_m_source_file>
AV-unprocessed.smi

> <i_m_source_file_index>
2891

> <i_lp_mmshare_version>
43012

> <i_f3d_flags>
0

> <s_epik_input>
W0NIM11PW0NIMl1bQ0gyXW4xW2NIXWMoW2NIXVtjSF1jMT1PKVtOSF1DKD1PKVtOSF1bQ0hdMltDSDJdW0NIMl0y

> <s_epik_cmdline>
J2VwaWtfcHl0aG9uJywgJy1waCcsICc3LjAnLCAnLXRuJywgJzgnLCAnLW1hJywgJzIwMCcsICctbWV0YWxfYmluZGluZycsICctaW1hZScsICc8aW5maWxlLm1hZT4nLCAnLW9tYWUnLCAnPG91dGZpbGUubWFlPic=

> <r_lp_tautomer_probability>
1

> <r_epik_Ionization_Penalty>
2.77726e-05

> <r_epik_Ionization_Penalty_Charging>
5.82689e-06

> <r_epik_Ionization_Penalty_Neutral>
2.19457e-05

> <r_epik_State_Penalty>
-0

> <r_epik_Charging_Adjusted_Penalty>
5.82689e-06

> <i_epik_Tot_Q>
0

> <i_epik_Tot_abs_Q>
0

> <r_epik_Metal_State_Penalty>
-0

> <b_epik_Metal_Only>
0

> <s_lp_Force_Field>
OPLS_2005

> <r_lp_Energy>
28.443

> <b_lp_Chiralities_Consistent>
1

> <s_lp_Variant>
AV-unprocessed.smi:2891-1

> <Gold.Version>
5.8.1

> <Gold.Id.Protein>
6NUR|6NUR_protein|mol2

> <Gold.PLP.Fitness>
46.2640

> <Gold.PLP.PLP>
-37.0702

> <Gold.PLP.part.hbond>
-3.8906

> <Gold.PLP.part.metal>
0.0000

> <Gold.PLP.part.buried>
-1.9822

> <Gold.PLP.part.nonpolar>
-31.0779

> <Gold.PLP.part.repulsive>
0.6810

> <Gold.PLP.ligand.clash>
0.0049

> <Gold.PLP.ligand.torsion>
0.6681

> <Gold.PLP.Chemscore.Hbond>
3.4958

> <Gold.PLP.Chemscore.CHOScore>
0.0000

> <Gold.PLP.Chemscore.Metal>
0.0000

> <Gold.Chemscore.Hbonds>
donor molecule, donor type, donor heavy atom, donor atom, acceptor molecule, acceptor atom, score
      L1  H     8    27       P1  8028  0.55
      L1  H    11    28       P1  8028  1.00
      P1  H  7997  8010       L1     2  0.99
      P1  H 10752 10765       L1    18  0.93

> <Gold.PLP.Chemscore.Internal.Correction>
0.0475

> <Gold.Rescore>
     Score         DG    S(hbond)    S(metal)    S(lipo)     H(rot)  DE(clash)    DE(int)     intcor
     14.97     -20.37       2.89        0.00      81.31       1.67       0.30       5.10       ----

> <Gold.Chemscore.Fitness>
14.9747

> <Gold.Chemscore.DG>
-20.3678

> <Gold.Chemscore.ZeroCoef>
-5.4800

> <Gold.Chemscore.Hbond>
2.8915

> <Gold.Chemscore.Metal>
0.0000

> <Gold.Chemscore.Lipo>
81.3067

> <Gold.Chemscore.Internal_Hbond>
0.0000

> <Gold.Chemscore.DEClash>
0.2968

> <Gold.Chemscore.DEInternal>
5.0963

> <Gold.Chemscore.Rot>
1.6730

> <Gold.Chemscore.Internal.Correction>
   9.000000E+99

> <Gold.Chemscore.Hbonds>
donor molecule, donor type, donor heavy atom, donor atom, acceptor molecule, acceptor atom, score
      L1  H     8    27       P1  8028  0.53
      L1  H    11    28       P1  8028  0.90
      P1  H  7997  8010       L1     2  0.32
      P1  H 10752 10765       L1    18  0.88

> <Gold.Chemscore.Hbond.Weighted>
-9.6578

> <Gold.Chemscore.Metal.Weighted>
-0.0000

> <Gold.Chemscore.Lipo.Weighted>
-9.5129

> <Gold.Chemscore.Internal_Hbond.Weighted>
0.0000

> <Gold.Chemscore.DEClash.Weighted>
0.2968

> <Gold.Chemscore.DEInternal.Weighted>
5.0963

> <Gold.Chemscore.Rot.Weighted>
4.2828

> <Gold.Chemscore.Internal.Correction.Weighted>
   9.000000E+99

> <Gold.Protein.RotatedTorsions>
[ 6907 6896 6895 6894 ] final   -8.86 input  -60.11 | X-H torsion
[ 7974 7965 7964 7962 ] final   25.34 input  175.53 | X-H torsion
[ 8008 7997 7996 7995 ] final   33.19 input   59.86 | X-H torsion
[ 10167 10162 10161 10158 ] final  -16.48 input  -65.29 | X-H torsion
[ 10718 10713 10712 10709 ] final  112.43 input   66.30 | X-H torsion
[ 10763 10752 10751 10750 ] final  163.40 input  -60.55 | X-H torsion
[ 11005 11000 10999 10996 ] final  -43.22 input  -57.11 | X-H torsion

> <Gold.Protein.ActiveResidues>
 VAL166  LYS551  ARG553  GLY616  TRP617  ASP618  TYR619  PRO620  LYS621  CYS622 
 ASP623  PHE694  ASN695  SER759  ASP760  ASP761  ALA762  ILE779  LEU786  VAL792 
 PHE793  MET794  SER795  GLU796  ALA797  LYS798  CYS799  TRP800  GLU811  SER814 

> <Gold.Protein.RotatedAtoms>
  151.4269  135.1005  159.9630 H   0  0  0  0  0  0  0  0  0  0  0  0  # atno 6907 bound_to 6896
  152.4969  133.8654  159.7282 H   0  0  0  0  0  0  0  0  0  0  0  0  # atno 6908 bound_to 6896
  150.9183  133.6854  159.2866 H   0  0  0  0  0  0  0  0  0  0  0  0  # atno 6909 bound_to 6896
  146.1893  139.7479  142.8843 H   0  0  0  0  0  0  0  0  0  0  0  0  # atno 7974 bound_to 7965
  155.1346  140.3260  155.4466 H   0  0  0  0  0  0  0  0  0  0  0  0  # atno 8008 bound_to 7997
  156.2623  140.2004  156.6414 H   0  0  0  0  0  0  0  0  0  0  0  0  # atno 8009 bound_to 7997
  154.6587  140.0550  157.0024 H   0  0  0  0  0  0  0  0  0  0  0  0  # atno 8010 bound_to 7997
  140.7234  143.5112  150.9748 H   0  0  0  0  0  0  0  0  0  0  0  0  # atno 10167 bound_to 10162
  157.6393  131.0967  150.6894 H   0  0  0  0  0  0  0  0  0  0  0  0  # atno 10718 bound_to 10713
  154.2931  135.2760  155.2646 H   0  0  0  0  0  0  0  0  0  0  0  0  # atno 10763 bound_to 10752
  154.5116  135.5781  153.6613 H   0  0  0  0  0  0  0  0  0  0  0  0  # atno 10764 bound_to 10752
  152.9911  135.6182  154.3096 H   0  0  0  0  0  0  0  0  0  0  0  0  # atno 10765 bound_to 10752
  141.0369  133.6796  156.2702 H   0  0  0  0  0  0  0  0  0  0  0  0  # atno 11005 bound_to 11000
  145.3841  141.0363  143.3161 LP  0  0  0  0  0  0  0  0  0  0  0  0  # atno 17320 bound_to 7965
  144.8456  139.5402  143.6880 LP  0  0  0  0  0  0  0  0  0  0  0  0  # atno 17321 bound_to 7965
  139.8825  143.7054  152.3155 LP  0  0  0  0  0  0  0  0  0  0  0  0  # atno 17342 bound_to 10162
  139.7341  144.7575  151.0755 LP  0  0  0  0  0  0  0  0  0  0  0  0  # atno 17343 bound_to 10162
  156.7220  130.4683  149.5520 LP  0  0  0  0  0  0  0  0  0  0  0  0  # atno 17370 bound_to 10713
  156.1659  130.6405  151.0777 LP  0  0  0  0  0  0  0  0  0  0  0  0  # atno 17371 bound_to 10713
  140.6306  134.5268  157.5559 LP  0  0  0  0  0  0  0  0  0  0  0  0  # atno 17394 bound_to 11000
  139.9247  134.8079  156.1105 LP  0  0  0  0  0  0  0  0  0  0  0  0  # atno 17395 bound_to 11000

$$$$
