AV-unprocessed.smi:2307|AV-procd|sdf|9251|dock3
  -GOLD-   2272012473D 1   1.00000     0.00000
 Structure written by MMmdl.
 38 39  0  0  0  0  0  0  0  0  1 V2000
  152.7622  143.3226  161.8593 C   0  0  0  0  0  0  0  0  0  0  0  0
  152.4868  142.4823  160.6249 C   0  0  0  0  0  0  0  0  0  0  0  0
  151.4077  142.8987  159.8398 N   0  0  0  0  0  0  0  0  0  0  0  0
  151.1004  142.2452  158.7672 C   0  0  0  0  0  0  0  0  0  0  0  0
  151.8278  141.1159  158.3581 N   0  0  0  0  0  0  0  0  0  0  0  0
  151.3766  140.4635  157.1176 C   0  0  0  0  0  0  0  0  0  0  0  0
  149.8372  140.3678  157.0326 C   0  0  1  0  0  0  0  0  0  0  0  0
  149.4677  140.2006  155.6777 O   0  0  0  0  0  0  0  0  0  0  0  0
  149.3159  139.2285  157.8951 C   0  0  0  0  0  0  0  0  0  0  0  0
  150.2116  138.4790  158.6843 C   0  0  0  0  0  0  0  0  0  0  0  0
  149.7398  137.4160  159.4776 C   0  0  0  0  0  0  0  0  0  0  0  0
  148.3708  137.0796  159.4979 C   0  0  0  0  0  0  0  0  0  0  0  0
  148.0012  136.0236  160.3060 O   0  0  0  0  0  0  0  0  0  0  0  0
  147.1729  136.2065  161.3701 C   0  0  0  0  0  0  0  0  0  0  0  0
  146.9979  135.0265  162.0124 F   0  0  0  0  0  0  0  0  0  0  0  0
  147.6936  137.0737  162.2744 F   0  0  0  0  0  0  0  0  0  0  0  0
  145.9430  136.6334  160.9878 F   0  0  0  0  0  0  0  0  0  0  0  0
  147.4740  137.8324  158.6985 C   0  0  0  0  0  0  0  0  0  0  0  0
  147.9449  138.8954  157.9036 C   0  0  0  0  0  0  0  0  0  0  0  0
  152.8881  140.6362  159.0707 C   0  0  0  0  0  0  0  0  0  0  0  0
  153.5096  139.6347  158.7101 O   0  0  0  0  0  0  0  0  0  0  0  0
  153.2277  141.3917  160.2874 C   0  0  0  0  0  0  0  0  0  0  0  0
  154.4133  140.8916  161.1033 C   0  0  0  0  0  0  0  0  0  0  0  0
  153.7656  143.7470  161.8163 H   0  0  0  0  0  0  0  0  0  0  0  0
  152.6778  142.7159  162.7612 H   0  0  0  0  0  0  0  0  0  0  0  0
  152.0541  144.1479  161.9449 H   0  0  0  0  0  0  0  0  0  0  0  0
  150.2650  142.5253  158.1232 H   0  0  0  0  0  0  0  0  0  0  0  0
  151.7824  140.9401  156.2227 H   0  0  0  0  0  0  0  0  0  0  0  0
  151.7992  139.4569  157.0985 H   0  0  0  0  0  0  0  0  0  0  0  0
  149.3807  141.2940  157.3841 H   0  0  0  0  0  0  0  0  0  0  0  0
  149.4527  139.2756  155.4842 H   0  0  0  0  0  0  0  0  0  0  0  0
  151.2660  138.7140  158.6825 H   0  0  0  0  0  0  0  0  0  0  0  0
  150.4381  136.8510  160.0775 H   0  0  0  0  0  0  0  0  0  0  0  0
  146.4178  137.6134  158.6757 H   0  0  0  0  0  0  0  0  0  0  0  0
  147.2467  139.4532  157.2968 H   0  0  0  0  0  0  0  0  0  0  0  0
  154.2358  139.8689  161.4381 H   0  0  0  0  0  0  0  0  0  0  0  0
  154.6125  141.4957  161.9869 H   0  0  0  0  0  0  0  0  0  0  0  0
  155.3170  140.8957  160.4930 H   0  0  0  0  0  0  0  0  0  0  0  0
  1  2  1  0  0  0  0
  1 24  1  0  0  0  0
  1 25  1  0  0  0  0
  1 26  1  0  0  0  0
  2 22  2  0  0  0  0
  2  3  1  0  0  0  0
  3  4  2  0  0  0  0
  4  5  1  0  0  0  0
  4 27  1  0  0  0  0
  5  6  1  0  0  0  0
  5 20  1  0  0  0  0
  6  7  1  0  0  0  0
  6 28  1  0  0  0  0
  6 29  1  0  0  0  0
  7  8  1  0  0  0  0
  7  9  1  0  0  0  0
  7 30  1  0  0  0  0
  8 31  1  0  0  0  0
  9 19  1  0  0  0  0
  9 10  2  0  0  0  0
 10 11  1  0  0  0  0
 10 32  1  0  0  0  0
 11 12  2  0  0  0  0
 11 33  1  0  0  0  0
 12 13  1  0  0  0  0
 12 18  1  0  0  0  0
 13 14  1  0  0  0  0
 14 15  1  0  0  0  0
 14 16  1  0  0  0  0
 14 17  1  0  0  0  0
 18 19  2  0  0  0  0
 18 34  1  0  0  0  0
 19 35  1  0  0  0  0
 20 21  2  0  0  0  0
 20 22  1  0  0  0  0
 22 23  1  0  0  0  0
 23 36  1  0  0  0  0
 23 37  1  0  0  0  0
 23 38  1  0  0  0  0
M  END
> <s_m_source_file>
AV-unprocessed.smi

> <i_m_source_file_index>
2307

> <i_lp_mmshare_version>
43012

> <i_f3d_flags>
0

> <s_epik_input>
W0NIM11jMW5bY0hdbihjKD1PKWMxW0NIM10pW0NIMl1bQ0BIXShbT0hdKWMyW2NIXVtjSF1jKE9DKEYpKEYpRilbY0hdW2NIXTI=

> <s_epik_cmdline>
J2VwaWtfcHl0aG9uJywgJy1waCcsICc3LjAnLCAnLXRuJywgJzgnLCAnLW1hJywgJzIwMCcsICctbWV0YWxfYmluZGluZycsICctaW1hZScsICc8aW5maWxlLm1hZT4nLCAnLW9tYWUnLCAnPG91dGZpbGUubWFlPic=

> <r_lp_tautomer_probability>
1

> <r_epik_Ionization_Penalty>
5.07003e-05

> <r_epik_Ionization_Penalty_Charging>
7.56727e-08

> <r_epik_Ionization_Penalty_Neutral>
5.06246e-05

> <r_epik_State_Penalty>
-0

> <r_epik_Charging_Adjusted_Penalty>
7.56727e-08

> <i_epik_Tot_Q>
0

> <i_epik_Tot_abs_Q>
0

> <r_epik_Metal_State_Penalty>
-0

> <b_epik_Metal_Only>
0

> <s_lp_Force_Field>
OPLS_2005

> <r_lp_Energy>
18.0652

> <b_lp_Chiralities_Consistent>
1

> <s_lp_Variant>
AV-unprocessed.smi:2307-2

> <Gold.Version>
5.8.1

> <Gold.Id.Protein>
6NUR|6NUR_protein|mol2

> <Gold.PLP.Fitness>
43.4445

> <Gold.PLP.PLP>
-41.2526

> <Gold.PLP.part.hbond>
-1.7278

> <Gold.PLP.part.metal>
0.0000

> <Gold.PLP.part.buried>
-4.3919

> <Gold.PLP.part.nonpolar>
-34.6880

> <Gold.PLP.part.repulsive>
0.0176

> <Gold.PLP.ligand.clash>
0.0000

> <Gold.PLP.ligand.torsion>
0.4848

> <Gold.PLP.Chemscore.Hbond>
1.0000

> <Gold.PLP.Chemscore.CHOScore>
0.0000

> <Gold.PLP.Chemscore.Metal>
0.0000

> <Gold.Chemscore.Hbonds>
donor molecule, donor type, donor heavy atom, donor atom, acceptor molecule, acceptor atom, score
      P1  H  7997  8010       L1    21  0.91

> <Gold.PLP.Chemscore.Internal.Correction>
0.1615

> <Gold.Rescore>
     Score         DG    S(hbond)    S(metal)    S(lipo)     H(rot)  DE(clash)    DE(int)     intcor
     11.66     -12.65       1.59        0.00      74.73       2.69       0.44       0.56       ----

> <Gold.Chemscore.Fitness>
11.6590

> <Gold.Chemscore.DG>
-12.6517

> <Gold.Chemscore.ZeroCoef>
-5.4800

> <Gold.Chemscore.Hbond>
1.5878

> <Gold.Chemscore.Metal>
0.0000

> <Gold.Chemscore.Lipo>
74.7310

> <Gold.Chemscore.Internal_Hbond>
0.0000

> <Gold.Chemscore.DEClash>
0.4350

> <Gold.Chemscore.DEInternal>
0.5577

> <Gold.Chemscore.Rot>
2.6856

> <Gold.Chemscore.Internal.Correction>
   9.000000E+99

> <Gold.Chemscore.Hbonds>
donor molecule, donor type, donor heavy atom, donor atom, acceptor molecule, acceptor atom, score
      P1  H  7997  8010       L1    21  0.75

> <Gold.Chemscore.Hbond.Weighted>
-5.3033

> <Gold.Chemscore.Metal.Weighted>
-0.0000

> <Gold.Chemscore.Lipo.Weighted>
-8.7435

> <Gold.Chemscore.Internal_Hbond.Weighted>
0.0000

> <Gold.Chemscore.DEClash.Weighted>
0.4350

> <Gold.Chemscore.DEInternal.Weighted>
0.5577

> <Gold.Chemscore.Rot.Weighted>
6.8751

> <Gold.Chemscore.Internal.Correction.Weighted>
   9.000000E+99

> <Gold.Protein.RotatedTorsions>
[ 6907 6896 6895 6894 ] final  148.09 input  -60.11 | X-H torsion
[ 7974 7965 7964 7962 ] final  100.24 input  175.53 | X-H torsion
[ 8008 7997 7996 7995 ] final    8.45 input   59.86 | X-H torsion
[ 10167 10162 10161 10158 ] final   17.45 input  -65.29 | X-H torsion
[ 10718 10713 10712 10709 ] final  -80.78 input   66.30 | X-H torsion
[ 10763 10752 10751 10750 ] final -107.11 input  -60.55 | X-H torsion
[ 11005 11000 10999 10996 ] final  172.99 input  -57.11 | X-H torsion

> <Gold.Protein.ActiveResidues>
 VAL166  LYS551  ARG553  GLY616  TRP617  ASP618  TYR619  PRO620  LYS621  CYS622 
 ASP623  PHE694  ASN695  SER759  ASP760  ASP761  ALA762  ILE779  LEU786  VAL792 
 PHE793  MET794  SER795  GLU796  ALA797  LYS798  CYS799  TRP800  GLU811  SER814 

> <Gold.Protein.RotatedAtoms>
  152.1461  133.4493  159.4790 H   0  0  0  0  0  0  0  0  0  0  0  0  # atno 6907 bound_to 6896
  150.6891  134.2246  159.4419 H   0  0  0  0  0  0  0  0  0  0  0  0  # atno 6908 bound_to 6896
  152.0140  134.9860  160.0619 H   0  0  0  0  0  0  0  0  0  0  0  0  # atno 6909 bound_to 6896
  145.3882  139.2367  143.3366 H   0  0  0  0  0  0  0  0  0  0  0  0  # atno 7974 bound_to 7965
  154.7671  140.2795  155.6168 H   0  0  0  0  0  0  0  0  0  0  0  0  # atno 8008 bound_to 7997
  156.2926  140.2649  156.2391 H   0  0  0  0  0  0  0  0  0  0  0  0  # atno 8009 bound_to 7997
  154.9946  140.0373  157.2324 H   0  0  0  0  0  0  0  0  0  0  0  0  # atno 8010 bound_to 7997
  140.5725  143.9135  150.6724 H   0  0  0  0  0  0  0  0  0  0  0  0  # atno 10167 bound_to 10162
  156.0063  130.4584  150.3852 H   0  0  0  0  0  0  0  0  0  0  0  0  # atno 10718 bound_to 10713
  154.8055  135.4687  154.0381 H   0  0  0  0  0  0  0  0  0  0  0  0  # atno 10763 bound_to 10752
  153.1853  135.6847  153.8430 H   0  0  0  0  0  0  0  0  0  0  0  0  # atno 10764 bound_to 10752
  153.7966  135.3236  155.3362 H   0  0  0  0  0  0  0  0  0  0  0  0  # atno 10765 bound_to 10752
  140.3357  134.7319  157.4166 H   0  0  0  0  0  0  0  0  0  0  0  0  # atno 11005 bound_to 11000
  146.2810  140.4560  142.8776 LP  0  0  0  0  0  0  0  0  0  0  0  0  # atno 17320 bound_to 7965
  144.8459  140.6928  143.6199 LP  0  0  0  0  0  0  0  0  0  0  0  0  # atno 17321 bound_to 7965
  140.2614  143.3521  152.1319 LP  0  0  0  0  0  0  0  0  0  0  0  0  # atno 17342 bound_to 10162
  139.5125  144.6917  151.5741 LP  0  0  0  0  0  0  0  0  0  0  0  0  # atno 17343 bound_to 10162
  157.1929  131.0419  151.2690 LP  0  0  0  0  0  0  0  0  0  0  0  0  # atno 17370 bound_to 10713
  157.4045  130.7351  149.6792 LP  0  0  0  0  0  0  0  0  0  0  0  0  # atno 17371 bound_to 10713
  140.0823  134.5714  155.8528 LP  0  0  0  0  0  0  0  0  0  0  0  0  # atno 17394 bound_to 11000
  141.2052  133.6645  156.6165 LP  0  0  0  0  0  0  0  0  0  0  0  0  # atno 17395 bound_to 11000

$$$$
