AV-unprocessed.smi:2822|AV-procd|sdf|10873|dock1
  -GOLD-   2272015313D 1   1.00000     0.00000
 Structure written by MMmdl.
 40 42  0  0  0  0  0  0  0  0  2 V2000
  149.7925  137.6987  154.8089 Cl  0  0  0  0  0  0  0  0  0  0  0  0
  148.8905  139.1455  154.5196 C   0  0  0  0  0  0  0  0  0  0  0  0
  149.3706  140.3779  155.0088 C   0  0  0  0  0  0  0  0  0  0  0  0
  148.7293  141.5513  154.8270 N   0  0  0  0  0  0  0  0  0  0  0  0
  147.5684  141.5324  154.1400 C   0  0  0  0  0  0  0  0  0  0  0  0
  147.0002  140.3576  153.6079 C   0  0  0  0  0  0  0  0  0  0  0  0
  147.6741  139.1281  153.7986 C   0  0  0  0  0  0  0  0  0  0  0  0
  147.1785  137.9112  153.3051 N   0  0  0  0  0  0  0  0  0  0  0  0
  145.7649  137.7537  152.9999 C   0  0  0  0  0  0  0  0  0  0  0  0
  145.4480  136.3385  152.4966 C   0  0  1  0  0  0  0  0  0  0  0  0
  145.8405  136.1680  151.0118 C   0  0  0  0  0  0  0  0  0  0  0  0
  145.6580  134.7690  150.5553 N   0  3  2  0  0  0  0  0  0  0  0  0
  144.2382  134.4145  150.2838 C   0  0  0  0  0  0  0  0  0  0  0  0
  144.1140  132.9809  149.7477 C   0  0  0  0  0  0  0  0  0  0  0  0
  144.7378  131.9815  150.7281 C   0  0  0  0  0  0  0  0  0  0  0  0
  146.2012  132.3589  150.9947 C   0  0  0  0  0  0  0  0  0  0  0  0
  146.3582  133.8205  151.4652 C   0  0  2  0  0  0  0  0  0  0  0  0
  145.9324  134.0567  152.9296 C   0  0  0  0  0  0  0  0  0  0  0  0
  146.1949  135.4109  153.2791 O   0  0  0  0  0  0  0  0  0  0  0  0
  150.2965  140.4237  155.5630 H   0  0  0  0  0  0  0  0  0  0  0  0
  147.0741  142.4837  154.0105 H   0  0  0  0  0  0  0  0  0  0  0  0
  146.0656  140.4208  153.0716 H   0  0  0  0  0  0  0  0  0  0  0  0
  147.8311  137.2415  152.9226 H   0  0  0  0  0  0  0  0  0  0  0  0
  145.1931  137.9496  153.9078 H   0  0  0  0  0  0  0  0  0  0  0  0
  145.4616  138.4934  152.2578 H   0  0  0  0  0  0  0  0  0  0  0  0
  144.3806  136.1511  152.6241 H   0  0  0  0  0  0  0  0  0  0  0  0
  145.2693  136.8473  150.3778 H   0  0  0  0  0  0  0  0  0  0  0  0
  146.8904  136.4335  150.8798 H   0  0  0  0  0  0  0  0  0  0  0  0
  143.6364  134.5187  151.1865 H   0  0  0  0  0  0  0  0  0  0  0  0
  143.8267  135.1115  149.5530 H   0  0  0  0  0  0  0  0  0  0  0  0
  143.0650  132.7346  149.5807 H   0  0  0  0  0  0  0  0  0  0  0  0
  144.6086  132.9056  148.7782 H   0  0  0  0  0  0  0  0  0  0  0  0
  144.1748  131.9738  151.6619 H   0  0  0  0  0  0  0  0  0  0  0  0
  144.6797  130.9713  150.3216 H   0  0  0  0  0  0  0  0  0  0  0  0
  146.6385  131.6772  151.7250 H   0  0  0  0  0  0  0  0  0  0  0  0
  146.7713  132.2204  150.0749 H   0  0  0  0  0  0  0  0  0  0  0  0
  147.4220  134.0568  151.4061 H   0  0  0  0  0  0  0  0  0  0  0  0
  144.8799  133.8228  153.0934 H   0  0  0  0  0  0  0  0  0  0  0  0
  146.5050  133.4115  153.5962 H   0  0  0  0  0  0  0  0  0  0  0  0
  146.1241  134.6988  149.6617 H   0  0  0  0  0  0  0  0  0  0  0  0
  1  2  1  0  0  0  0
  2  7  1  0  0  0  0
  2  3  2  0  0  0  0
  3  4  1  0  0  0  0
  3 20  1  0  0  0  0
  4  5  2  0  0  0  0
  5  6  1  0  0  0  0
  5 21  1  0  0  0  0
  6  7  2  0  0  0  0
  6 22  1  0  0  0  0
  7  8  1  0  0  0  0
  8  9  1  0  0  0  0
  8 23  1  0  0  0  0
  9 10  1  0  0  0  0
  9 24  1  0  0  0  0
  9 25  1  0  0  0  0
 10 19  1  0  0  0  0
 10 11  1  0  0  0  0
 10 26  1  0  0  0  0
 11 12  1  0  0  0  0
 11 27  1  0  0  0  0
 11 28  1  0  0  0  0
 12 17  1  0  0  0  0
 12 13  1  0  0  0  0
 12 40  1  0  0  0  0
 13 14  1  0  0  0  0
 13 29  1  0  0  0  0
 13 30  1  0  0  0  0
 14 15  1  0  0  0  0
 14 31  1  0  0  0  0
 14 32  1  0  0  0  0
 15 16  1  0  0  0  0
 15 33  1  0  0  0  0
 15 34  1  0  0  0  0
 16 17  1  0  0  0  0
 16 35  1  0  0  0  0
 16 36  1  0  0  0  0
 17 18  1  0  0  0  0
 17 37  1  0  0  0  0
 18 19  1  0  0  0  0
 18 38  1  0  0  0  0
 18 39  1  0  0  0  0
M  CHG  1  12   1
M  END
> <s_m_source_file>
AV-unprocessed.smi

> <i_m_source_file_index>
2822

> <i_lp_mmshare_version>
43012

> <i_f3d_flags>
0

> <s_epik_input>
Q2xjMVtjSF1uW2NIXVtjSF1jMVtOSF1bQ0gyXVtDQEhdKFtDSDJdMilPW0NIMl1bQ0BASF0oTjIzKVtDSDJdW0NIMl1bQ0gyXVtDSDJdMw==

> <s_epik_cmdline>
J2VwaWtfcHl0aG9uJywgJy1waCcsICc3LjAnLCAnLXRuJywgJzgnLCAnLW1hJywgJzIwMCcsICctbWV0YWxfYmluZGluZycsICctaW1hZScsICc8aW5maWxlLm1hZT4nLCAnLW9tYWUnLCAnPG91dGZpbGUubWFlPic=

> <r_lp_tautomer_probability>
0.999999

> <r_epik_Ionization_Penalty>
0.88937

> <r_epik_Ionization_Penalty_Charging>
0.0803403

> <r_epik_Ionization_Penalty_Neutral>
0.80903

> <r_epik_State_Penalty>
0.931884

> <r_epik_Charging_Adjusted_Penalty>
1.01222

> <i_epik_Tot_Q>
1

> <i_epik_Tot_abs_Q>
1

> <r_epik_Metal_State_Penalty>
0.0782275

> <b_epik_Metal_Only>
0

> <s_lp_Force_Field>
OPLS_2005

> <r_lp_Energy>
32.5478

> <b_lp_Chiralities_Consistent>
1

> <s_lp_Variant>
AV-unprocessed.smi:2822-14

> <Gold.Version>
5.8.1

> <Gold.Id.Protein>
6NUR|6NUR_protein|mol2

> <Gold.PLP.Fitness>
41.3805

> <Gold.PLP.PLP>
-35.7987

> <Gold.PLP.part.hbond>
-3.0000

> <Gold.PLP.part.metal>
0.0000

> <Gold.PLP.part.buried>
-0.6911

> <Gold.PLP.part.nonpolar>
-31.5307

> <Gold.PLP.part.repulsive>
0.8872

> <Gold.PLP.ligand.clash>
0.0000

> <Gold.PLP.ligand.torsion>
0.2779

> <Gold.PLP.Chemscore.Hbond>
2.0449

> <Gold.PLP.Chemscore.CHOScore>
0.0000

> <Gold.PLP.Chemscore.Metal>
0.0000

> <Gold.Chemscore.Hbonds>
donor molecule, donor type, donor heavy atom, donor atom, acceptor molecule, acceptor atom, score
      L1  H     8    23       P1  7948  1.00
      L1  H    12    40       P1  7921  1.00

> <Gold.PLP.Chemscore.Internal.Correction>
0.0028

> <Gold.Rescore>
     Score         DG    S(hbond)    S(metal)    S(lipo)     H(rot)  DE(clash)    DE(int)     intcor
     19.67     -20.44       1.85        0.00     100.63       1.17       0.42       0.34       ----

> <Gold.Chemscore.Fitness>
19.6731

> <Gold.Chemscore.DG>
-20.4351

> <Gold.Chemscore.ZeroCoef>
-5.4800

> <Gold.Chemscore.Hbond>
1.8487

> <Gold.Chemscore.Metal>
0.0000

> <Gold.Chemscore.Lipo>
100.6297

> <Gold.Chemscore.Internal_Hbond>
0.0000

> <Gold.Chemscore.DEClash>
0.4238

> <Gold.Chemscore.DEInternal>
0.3383

> <Gold.Chemscore.Rot>
1.1693

> <Gold.Chemscore.Internal.Correction>
   9.000000E+99

> <Gold.Chemscore.Hbonds>
donor molecule, donor type, donor heavy atom, donor atom, acceptor molecule, acceptor atom, score
      L1  H     8    23       P1  7948  1.00
      L1  H    12    40       P1  7921  0.46

> <Gold.Chemscore.Hbond.Weighted>
-6.1748

> <Gold.Chemscore.Metal.Weighted>
-0.0000

> <Gold.Chemscore.Lipo.Weighted>
-11.7737

> <Gold.Chemscore.Internal_Hbond.Weighted>
0.0000

> <Gold.Chemscore.DEClash.Weighted>
0.4238

> <Gold.Chemscore.DEInternal.Weighted>
0.3383

> <Gold.Chemscore.Rot.Weighted>
2.9934

> <Gold.Chemscore.Internal.Correction.Weighted>
   9.000000E+99

> <Gold.Protein.RotatedTorsions>
[ 6907 6896 6895 6894 ] final  100.32 input  -60.11 | X-H torsion
[ 7974 7965 7964 7962 ] final  -11.68 input  175.53 | X-H torsion
[ 8008 7997 7996 7995 ] final   72.53 input   59.86 | X-H torsion
[ 10167 10162 10161 10158 ] final    0.62 input  -65.29 | X-H torsion
[ 10718 10713 10712 10709 ] final  -23.53 input   66.30 | X-H torsion
[ 10763 10752 10751 10750 ] final   78.71 input  -60.55 | X-H torsion
[ 11005 11000 10999 10996 ] final  -59.43 input  -57.11 | X-H torsion

> <Gold.Protein.ActiveResidues>
 VAL166  LYS551  ARG553  GLY616  TRP617  ASP618  TYR619  PRO620  LYS621  CYS622 
 ASP623  PHE694  ASN695  SER759  ASP760  ASP761  ALA762  ILE779  LEU786  VAL792 
 PHE793  MET794  SER795  GLU796  ALA797  LYS798  CYS799  TRP800  GLU811  SER814 

> <Gold.Protein.RotatedAtoms>
  152.5374  134.0294  159.8017 H   0  0  0  0  0  0  0  0  0  0  0  0  # atno 6907 bound_to 6896
  151.0468  133.5651  159.2653 H   0  0  0  0  0  0  0  0  0  0  0  0  # atno 6908 bound_to 6896
  151.2600  135.0658  159.9148 H   0  0  0  0  0  0  0  0  0  0  0  0  # atno 6909 bound_to 6896
  146.2179  140.2946  142.8371 H   0  0  0  0  0  0  0  0  0  0  0  0  # atno 7974 bound_to 7965
  155.7703  140.3484  155.5243 H   0  0  0  0  0  0  0  0  0  0  0  0  # atno 8008 bound_to 7997
  155.8828  140.1005  157.1494 H   0  0  0  0  0  0  0  0  0  0  0  0  # atno 8009 bound_to 7997
  154.4026  140.1319  156.4205 H   0  0  0  0  0  0  0  0  0  0  0  0  # atno 8010 bound_to 7997
  140.6720  143.7021  150.7944 H   0  0  0  0  0  0  0  0  0  0  0  0  # atno 10167 bound_to 10162
  156.4898  130.4564  149.6762 H   0  0  0  0  0  0  0  0  0  0  0  0  # atno 10718 bound_to 10713
  153.0896  135.4866  154.8664 H   0  0  0  0  0  0  0  0  0  0  0  0  # atno 10763 bound_to 10752
  154.7253  135.3048  154.8984 H   0  0  0  0  0  0  0  0  0  0  0  0  # atno 10764 bound_to 10752
  153.9636  135.6809  153.4798 H   0  0  0  0  0  0  0  0  0  0  0  0  # atno 10765 bound_to 10752
  141.1248  133.6616  156.5070 H   0  0  0  0  0  0  0  0  0  0  0  0  # atno 11005 bound_to 11000
  144.9101  140.7747  143.5812 LP  0  0  0  0  0  0  0  0  0  0  0  0  # atno 17320 bound_to 7965
  145.2877  139.1895  143.4757 LP  0  0  0  0  0  0  0  0  0  0  0  0  # atno 17321 bound_to 7965
  140.0708  143.5063  152.2581 LP  0  0  0  0  0  0  0  0  0  0  0  0  # atno 17342 bound_to 10162
  139.5994  144.7577  151.3209 LP  0  0  0  0  0  0  0  0  0  0  0  0  # atno 17343 bound_to 10162
  156.3438  130.7396  151.2345 LP  0  0  0  0  0  0  0  0  0  0  0  0  # atno 17370 bound_to 10713
  157.7475  131.0396  150.4559 LP  0  0  0  0  0  0  0  0  0  0  0  0  # atno 17371 bound_to 10713
  140.4399  134.7025  157.4986 LP  0  0  0  0  0  0  0  0  0  0  0  0  # atno 17394 bound_to 11000
  140.0236  134.6510  155.9204 LP  0  0  0  0  0  0  0  0  0  0  0  0  # atno 17395 bound_to 11000

$$$$
