AV-unprocessed.smi:2229|AV-procd|sdf|9030|dock6
  -GOLD-   2272012233D 1   1.00000     0.00000
 Structure written by MMmdl.
 44 45  0  0  0  0  0  0  0  0  1 V2000
  154.3779  139.2323  159.6144 C   0  0  0  0  0  0  0  0  0  0  0  0
  154.6022  140.4380  160.5427 C   0  0  0  0  0  0  0  0  0  0  0  0
  155.0795  139.9642  161.9243 C   0  0  0  0  0  0  0  0  0  0  0  0
  153.3477  141.3265  160.6745 C   0  0  0  0  0  0  0  0  0  0  0  0
  152.7776  141.8165  159.3302 C   0  0  0  0  0  0  0  0  0  0  0  0
  151.8938  143.0713  159.4619 C   0  0  1  0  0  0  0  0  0  0  0  0
  152.4913  144.1760  160.3414 C   0  0  0  0  0  0  0  0  0  0  0  0
  151.7729  145.4425  159.8898 C   0  0  0  0  0  0  0  0  0  0  0  0
  151.6322  145.2766  158.3768 C   0  0  0  0  0  0  0  0  0  0  0  0
  151.5976  143.7565  158.1094 C   0  0  2  0  0  0  0  0  0  0  0  0
  150.3033  143.3283  157.5842 N   0  0  0  0  0  0  0  0  0  0  0  0
  149.9592  142.0585  157.3220 C   0  0  0  0  0  0  0  0  0  0  0  0
  150.7117  141.1021  157.5130 O   0  0  0  0  0  0  0  0  0  0  0  0
  148.5400  141.8382  156.7832 C   0  0  0  0  0  0  0  0  0  0  0  0
  148.5252  141.4899  155.3615 N   0  0  0  0  0  0  0  0  0  0  0  0
  147.4273  141.6639  154.5457 C   0  0  0  0  0  0  0  0  0  0  0  0
  147.6586  141.2739  153.3386 N   0  0  0  0  0  0  0  0  0  0  0  0
  148.9408  140.8420  153.4092 N   0  0  0  0  0  0  0  0  0  0  0  0
  149.4914  140.9575  154.6186 C   0  0  0  0  0  0  0  0  0  0  0  0
  150.6302  140.6445  154.9613 O   0  0  0  0  0  0  0  0  0  0  0  0
  149.3838  140.4728  152.5801 H   0  0  0  0  0  0  0  0  0  0  0  0
  153.5619  138.6036  159.9720 H   0  0  0  0  0  0  0  0  0  0  0  0
  155.2727  138.6123  159.5577 H   0  0  0  0  0  0  0  0  0  0  0  0
  154.1408  139.5423  158.5972 H   0  0  0  0  0  0  0  0  0  0  0  0
  155.4022  141.0446  160.1162 H   0  0  0  0  0  0  0  0  0  0  0  0
  154.3227  139.3529  162.4169 H   0  0  0  0  0  0  0  0  0  0  0  0
  155.3015  140.8091  162.5769 H   0  0  0  0  0  0  0  0  0  0  0  0
  155.9886  139.3674  161.8439 H   0  0  0  0  0  0  0  0  0  0  0  0
  152.5755  140.7919  161.2292 H   0  0  0  0  0  0  0  0  0  0  0  0
  153.6036  142.1972  161.2789 H   0  0  0  0  0  0  0  0  0  0  0  0
  153.5937  142.0139  158.6340 H   0  0  0  0  0  0  0  0  0  0  0  0
  152.1792  141.0244  158.8807 H   0  0  0  0  0  0  0  0  0  0  0  0
  150.9455  142.7790  159.9177 H   0  0  0  0  0  0  0  0  0  0  0  0
  152.3588  143.9839  161.4065 H   0  0  0  0  0  0  0  0  0  0  0  0
  153.5609  144.2740  160.1504 H   0  0  0  0  0  0  0  0  0  0  0  0
  150.7842  145.4862  160.3482 H   0  0  0  0  0  0  0  0  0  0  0  0
  152.3088  146.3514  160.1646 H   0  0  0  0  0  0  0  0  0  0  0  0
  150.7580  145.8068  157.9959 H   0  0  0  0  0  0  0  0  0  0  0  0
  152.5041  145.7064  157.8822 H   0  0  0  0  0  0  0  0  0  0  0  0
  152.3794  143.5082  157.3886 H   0  0  0  0  0  0  0  0  0  0  0  0
  149.6228  144.0523  157.4040 H   0  0  0  0  0  0  0  0  0  0  0  0
  148.0604  141.0567  157.3748 H   0  0  0  0  0  0  0  0  0  0  0  0
  147.9462  142.7424  156.9285 H   0  0  0  0  0  0  0  0  0  0  0  0
  146.5093  142.0869  154.9571 H   0  0  0  0  0  0  0  0  0  0  0  0
  1  2  1  0  0  0  0
  1 22  1  0  0  0  0
  1 23  1  0  0  0  0
  1 24  1  0  0  0  0
  2  3  1  0  0  0  0
  2  4  1  0  0  0  0
  2 25  1  0  0  0  0
  3 26  1  0  0  0  0
  3 27  1  0  0  0  0
  3 28  1  0  0  0  0
  4  5  1  0  0  0  0
  4 29  1  0  0  0  0
  4 30  1  0  0  0  0
  5  6  1  0  0  0  0
  5 31  1  0  0  0  0
  5 32  1  0  0  0  0
  6 10  1  0  0  0  0
  6  7  1  0  0  0  0
  6 33  1  0  0  0  0
  7  8  1  0  0  0  0
  7 34  1  0  0  0  0
  7 35  1  0  0  0  0
  8  9  1  0  0  0  0
  8 36  1  0  0  0  0
  8 37  1  0  0  0  0
  9 10  1  0  0  0  0
  9 38  1  0  0  0  0
  9 39  1  0  0  0  0
 10 11  1  0  0  0  0
 10 40  1  0  0  0  0
 11 12  1  0  0  0  0
 11 41  1  0  0  0  0
 12 13  2  0  0  0  0
 12 14  1  0  0  0  0
 14 15  1  0  0  0  0
 14 42  1  0  0  0  0
 14 43  1  0  0  0  0
 15 19  1  0  0  0  0
 15 16  1  0  0  0  0
 16 17  2  0  0  0  0
 16 44  1  0  0  0  0
 17 18  1  0  0  0  0
 18 21  1  0  0  0  0
 18 19  1  0  0  0  0
 19 20  2  0  0  0  0
M  END
> <s_m_source_file>
AV-unprocessed.smi

> <i_m_source_file_index>
2229

> <i_lp_mmshare_version>
43012

> <i_f3d_flags>
0

> <s_epik_input>
W0NIM11bQ0hdKFtDSDNdKVtDSDJdW0NIMl1bQ0BASF0xW0NIMl1bQ0gyXVtDSDJdW0NASF0xW05IXUMoPU8pW0NIMl1uMltjSF1uW25IXWMyPU8=

> <s_epik_cmdline>
J2VwaWtfcHl0aG9uJywgJy1waCcsICc3LjAnLCAnLXRuJywgJzgnLCAnLW1hJywgJzIwMCcsICctbWV0YWxfYmluZGluZycsICctaW1hZScsICc8aW5maWxlLm1hZT4nLCAnLW9tYWUnLCAnPG91dGZpbGUubWFlPic=

> <r_lp_tautomer_probability>
1

> <r_epik_Ionization_Penalty>
4.14174e-05

> <r_epik_Ionization_Penalty_Charging>
4.13165e-05

> <r_epik_Ionization_Penalty_Neutral>
1.00911e-07

> <r_epik_State_Penalty>
-0

> <r_epik_Charging_Adjusted_Penalty>
4.13165e-05

> <i_epik_Tot_Q>
0

> <i_epik_Tot_abs_Q>
0

> <r_epik_Metal_State_Penalty>
0.0399369

> <b_epik_Metal_Only>
0

> <s_lp_Force_Field>
OPLS_2005

> <r_lp_Energy>
37.2399

> <b_lp_Chiralities_Consistent>
1

> <s_lp_Variant>
AV-unprocessed.smi:2229-4

> <Gold.Version>
5.8.1

> <Gold.Id.Protein>
6NUR|6NUR_protein|mol2

> <Gold.PLP.Fitness>
51.0512

> <Gold.PLP.PLP>
-44.3447

> <Gold.PLP.part.hbond>
-2.9048

> <Gold.PLP.part.metal>
0.0000

> <Gold.PLP.part.buried>
-6.5909

> <Gold.PLP.part.nonpolar>
-34.8376

> <Gold.PLP.part.repulsive>
0.4615

> <Gold.PLP.ligand.clash>
0.0000

> <Gold.PLP.ligand.torsion>
0.6827

> <Gold.PLP.Chemscore.Hbond>
2.6720

> <Gold.PLP.Chemscore.CHOScore>
0.0000

> <Gold.PLP.Chemscore.Metal>
0.0000

> <Gold.Chemscore.Hbonds>
donor molecule, donor type, donor heavy atom, donor atom, acceptor molecule, acceptor atom, score
      L1  H    11    41       P1  8028  0.62
      L1  H    18    21       P1  7957  0.93
      P1  H  7989  7998       L1    20  0.94

> <Gold.PLP.Chemscore.Internal.Correction>
0.0559

> <Gold.Rescore>
     Score         DG    S(hbond)    S(metal)    S(lipo)     H(rot)  DE(clash)    DE(int)     intcor
     12.59     -17.48       1.96        0.00     104.32       2.64       0.01       4.88       ----

> <Gold.Chemscore.Fitness>
12.5876

> <Gold.Chemscore.DG>
-17.4817

> <Gold.Chemscore.ZeroCoef>
-5.4800

> <Gold.Chemscore.Hbond>
1.9599

> <Gold.Chemscore.Metal>
0.0000

> <Gold.Chemscore.Lipo>
104.3229

> <Gold.Chemscore.Internal_Hbond>
0.0000

> <Gold.Chemscore.DEClash>
0.0149

> <Gold.Chemscore.DEInternal>
4.8793

> <Gold.Chemscore.Rot>
2.6368

> <Gold.Chemscore.Internal.Correction>
   9.000000E+99

> <Gold.Chemscore.Hbonds>
donor molecule, donor type, donor heavy atom, donor atom, acceptor molecule, acceptor atom, score
      L1  H    11    41       P1  8028  0.24
      L1  H    18    21       P1  7957  0.88
      P1  H  7989  7998       L1    20  0.45

> <Gold.Chemscore.Hbond.Weighted>
-6.5460

> <Gold.Chemscore.Metal.Weighted>
-0.0000

> <Gold.Chemscore.Lipo.Weighted>
-12.2058

> <Gold.Chemscore.Internal_Hbond.Weighted>
0.0000

> <Gold.Chemscore.DEClash.Weighted>
0.0149

> <Gold.Chemscore.DEInternal.Weighted>
4.8793

> <Gold.Chemscore.Rot.Weighted>
6.7501

> <Gold.Chemscore.Internal.Correction.Weighted>
   9.000000E+99

> <Gold.Protein.RotatedTorsions>
[ 6907 6896 6895 6894 ] final  -98.68 input  -60.11 | X-H torsion
[ 7974 7965 7964 7962 ] final -140.69 input  175.53 | X-H torsion
[ 8008 7997 7996 7995 ] final  117.98 input   59.86 | X-H torsion
[ 10167 10162 10161 10158 ] final  -67.43 input  -65.29 | X-H torsion
[ 10718 10713 10712 10709 ] final  -68.39 input   66.30 | X-H torsion
[ 10763 10752 10751 10750 ] final  153.94 input  -60.55 | X-H torsion
[ 11005 11000 10999 10996 ] final   67.10 input  -57.11 | X-H torsion

> <Gold.Protein.ActiveResidues>
 VAL166  LYS551  ARG553  GLY616  TRP617  ASP618  TYR619  PRO620  LYS621  CYS622 
 ASP623  PHE694  ASN695  SER759  ASP760  ASP761  ALA762  ILE779  LEU786  VAL792 
 PHE793  MET794  SER795  GLU796  ALA797  LYS798  CYS799  TRP800  GLU811  SER814 

> <Gold.Protein.RotatedAtoms>
  150.7054  134.1157  159.4016 H   0  0  0  0  0  0  0  0  0  0  0  0  # atno 6907 bound_to 6896
  151.9144  135.0323  160.0526 H   0  0  0  0  0  0  0  0  0  0  0  0  # atno 6908 bound_to 6896
  152.2309  133.5022  159.5252 H   0  0  0  0  0  0  0  0  0  0  0  0  # atno 6909 bound_to 6896
  144.8577  140.6169  143.5348 H   0  0  0  0  0  0  0  0  0  0  0  0  # atno 7974 bound_to 7965
  156.2523  140.2884  156.0764 H   0  0  0  0  0  0  0  0  0  0  0  0  # atno 8008 bound_to 7997
  155.1615  140.0399  157.2861 H   0  0  0  0  0  0  0  0  0  0  0  0  # atno 8009 bound_to 7997
  154.6389  140.2517  155.7351 H   0  0  0  0  0  0  0  0  0  0  0  0  # atno 8010 bound_to 7997
  140.5583  143.2312  151.6777 H   0  0  0  0  0  0  0  0  0  0  0  0  # atno 10167 bound_to 10162
  156.0508  130.4294  150.1994 H   0  0  0  0  0  0  0  0  0  0  0  0  # atno 10718 bound_to 10713
  154.1443  135.2819  155.3152 H   0  0  0  0  0  0  0  0  0  0  0  0  # atno 10763 bound_to 10752
  154.6264  135.5450  153.7635 H   0  0  0  0  0  0  0  0  0  0  0  0  # atno 10764 bound_to 10752
  153.0241  135.6451  154.1589 H   0  0  0  0  0  0  0  0  0  0  0  0  # atno 10765 bound_to 10752
  139.9791  134.6773  156.0297 H   0  0  0  0  0  0  0  0  0  0  0  0  # atno 11005 bound_to 11000
  145.4373  139.1540  143.3989 LP  0  0  0  0  0  0  0  0  0  0  0  0  # atno 17320 bound_to 7965
  146.2836  140.4493  142.8766 LP  0  0  0  0  0  0  0  0  0  0  0  0  # atno 17321 bound_to 7965
  139.5058  144.3704  152.0476 LP  0  0  0  0  0  0  0  0  0  0  0  0  # atno 17342 bound_to 10162
  140.2827  144.3841  150.6113 LP  0  0  0  0  0  0  0  0  0  0  0  0  # atno 17343 bound_to 10162
  157.0077  130.9941  151.3374 LP  0  0  0  0  0  0  0  0  0  0  0  0  # atno 17370 bound_to 10713
  157.5431  130.8133  149.8053 LP  0  0  0  0  0  0  0  0  0  0  0  0  # atno 17371 bound_to 10713
  141.1465  133.6555  156.3883 LP  0  0  0  0  0  0  0  0  0  0  0  0  # atno 17394 bound_to 11000
  140.5133  134.6374  157.5292 LP  0  0  0  0  0  0  0  0  0  0  0  0  # atno 17395 bound_to 11000

$$$$
