AV-unprocessed.smi:2310|AV-procd|sdf|9257|dock1
  -GOLD-   2272012473D 1   1.00000     0.00000
 Structure written by MMmdl.
 46 47  0  0  0  0  0  0  0  0  2 V2000
  151.9058  145.1600  160.0325 C   0  0  0  0  0  0  0  0  0  0  0  0
  151.5358  144.7435  158.6013 C   0  0  0  0  0  0  0  0  0  0  0  0
  151.0364  143.2891  158.4839 C   0  0  2  0  0  0  0  0  0  0  0  0
  152.1958  142.2764  158.4389 C   0  0  0  0  0  0  0  0  0  0  0  0
  152.9695  142.2088  159.6887 C   0  0  0  0  0  0  0  0  0  0  0  0
  153.5776  142.1555  160.6713 N   0  0  0  0  0  0  0  0  0  0  0  0
  150.1958  143.1400  157.2975 N   0  0  0  0  0  0  0  0  0  0  0  0
  149.7529  141.9738  156.8068 C   0  0  0  0  0  0  0  0  0  0  0  0
  150.0350  140.8806  157.2967 O   0  0  0  0  0  0  0  0  0  0  0  0
  148.9879  142.1618  155.7175 N   0  0  0  0  0  0  0  0  0  0  0  0
  148.3426  141.1841  154.9086 C   0  0  0  0  0  0  0  0  0  0  0  0
  148.9467  139.9438  154.5797 C   0  0  0  0  0  0  0  0  0  0  0  0
  148.2466  139.0099  153.7904 C   0  0  0  0  0  0  0  0  0  0  0  0
  146.9418  139.3181  153.3457 C   0  0  0  0  0  0  0  0  0  0  0  0
  146.1598  138.4596  152.5602 N   0  0  0  0  0  0  0  0  0  0  0  0
  146.6300  138.2857  151.1960 C   0  0  0  0  0  0  0  0  0  0  0  0
  145.9208  137.0340  150.6716 C   0  0  0  0  0  0  0  0  0  0  0  0
  145.4812  136.2729  151.9281 C   0  0  0  0  0  0  0  0  0  0  0  0
  145.9891  137.1198  153.0972 C   0  0  0  0  0  0  0  0  0  0  0  0
  146.3946  140.5027  153.6914 N   0  3  0  0  0  0  0  0  0  0  0  0
  147.0247  141.4314  154.4452 C   0  0  0  0  0  0  0  0  0  0  0  0
  146.2442  142.7032  154.7345 C   0  0  0  0  0  0  0  0  0  0  0  0
  152.2979  146.1770  160.0483 H   0  0  0  0  0  0  0  0  0  0  0  0
  152.6709  144.5034  160.4475 H   0  0  0  0  0  0  0  0  0  0  0  0
  151.0424  145.1319  160.6975 H   0  0  0  0  0  0  0  0  0  0  0  0
  150.7786  145.4249  158.2116 H   0  0  0  0  0  0  0  0  0  0  0  0
  152.4146  144.8776  157.9703 H   0  0  0  0  0  0  0  0  0  0  0  0
  150.4306  143.0744  159.3665 H   0  0  0  0  0  0  0  0  0  0  0  0
  151.8224  141.2720  158.2379 H   0  0  0  0  0  0  0  0  0  0  0  0
  152.8889  142.5264  157.6352 H   0  0  0  0  0  0  0  0  0  0  0  0
  149.9196  143.9907  156.8291 H   0  0  0  0  0  0  0  0  0  0  0  0
  148.9185  143.1124  155.3846 H   0  0  0  0  0  0  0  0  0  0  0  0
  149.9325  139.6809  154.9307 H   0  0  0  0  0  0  0  0  0  0  0  0
  148.7108  138.0679  153.5377 H   0  0  0  0  0  0  0  0  0  0  0  0
  146.3999  139.1608  150.5876 H   0  0  0  0  0  0  0  0  0  0  0  0
  147.7108  138.1390  151.1790 H   0  0  0  0  0  0  0  0  0  0  0  0
  145.0470  137.3104  150.0800 H   0  0  0  0  0  0  0  0  0  0  0  0
  146.5773  136.4395  150.0355 H   0  0  0  0  0  0  0  0  0  0  0  0
  144.3932  136.2024  151.9565 H   0  0  0  0  0  0  0  0  0  0  0  0
  145.8801  135.2587  151.9619 H   0  0  0  0  0  0  0  0  0  0  0  0
  146.9393  136.7253  153.4591 H   0  0  0  0  0  0  0  0  0  0  0  0
  145.2850  137.1170  153.9297 H   0  0  0  0  0  0  0  0  0  0  0  0
  146.7994  143.4196  155.3386 H   0  0  0  0  0  0  0  0  0  0  0  0
  145.3237  142.4629  155.2670 H   0  0  0  0  0  0  0  0  0  0  0  0
  145.9753  143.1962  153.7998 H   0  0  0  0  0  0  0  0  0  0  0  0
  145.4498  140.7084  153.3655 H   0  0  0  0  0  0  0  0  0  0  0  0
  1  2  1  0  0  0  0
  1 23  1  0  0  0  0
  1 24  1  0  0  0  0
  1 25  1  0  0  0  0
  2  3  1  0  0  0  0
  2 26  1  0  0  0  0
  2 27  1  0  0  0  0
  3  4  1  0  0  0  0
  3  7  1  0  0  0  0
  3 28  1  0  0  0  0
  4  5  1  0  0  0  0
  4 29  1  0  0  0  0
  4 30  1  0  0  0  0
  5  6  3  0  0  0  0
  7  8  1  0  0  0  0
  7 31  1  0  0  0  0
  8  9  2  0  0  0  0
  8 10  1  0  0  0  0
 10 11  1  0  0  0  0
 10 32  1  0  0  0  0
 11 21  1  0  0  0  0
 11 12  2  0  0  0  0
 12 13  1  0  0  0  0
 12 33  1  0  0  0  0
 13 14  2  0  0  0  0
 13 34  1  0  0  0  0
 14 15  1  0  0  0  0
 14 20  1  0  0  0  0
 15 19  1  0  0  0  0
 15 16  1  0  0  0  0
 16 17  1  0  0  0  0
 16 35  1  0  0  0  0
 16 36  1  0  0  0  0
 17 18  1  0  0  0  0
 17 37  1  0  0  0  0
 17 38  1  0  0  0  0
 18 19  1  0  0  0  0
 18 39  1  0  0  0  0
 18 40  1  0  0  0  0
 19 41  1  0  0  0  0
 19 42  1  0  0  0  0
 20 21  2  0  0  0  0
 20 46  1  0  0  0  0
 21 22  1  0  0  0  0
 22 43  1  0  0  0  0
 22 44  1  0  0  0  0
 22 45  1  0  0  0  0
M  CHG  1  20   1
M  END
> <s_m_source_file>
AV-unprocessed.smi

> <i_m_source_file_index>
2310

> <i_lp_mmshare_version>
43012

> <i_f3d_flags>
0

> <s_epik_input>
TiNDW0NIMl1bQ0BASF0oW0NIMl1bQ0gzXSlbTkhdQyg9TylbTkhdYzFbY0hdW2NIXWMobmMxW0NIM10pTjJbQ0gyXVtDSDJdW0NIMl1bQ0gyXTI=

> <s_epik_cmdline>
J2VwaWtfcHl0aG9uJywgJy1waCcsICc3LjAnLCAnLXRuJywgJzgnLCAnLW1hJywgJzIwMCcsICctbWV0YWxfYmluZGluZycsICctaW1hZScsICc8aW5maWxlLm1hZT4nLCAnLW9tYWUnLCAnPG91dGZpbGUubWFlPic=

> <r_lp_tautomer_probability>
0.999994

> <r_epik_Ionization_Penalty>
0.577302

> <r_epik_Ionization_Penalty_Charging>
0.577278

> <r_epik_Ionization_Penalty_Neutral>
2.39253e-05

> <r_epik_State_Penalty>
0.589738

> <r_epik_Charging_Adjusted_Penalty>
1.16702

> <i_epik_Tot_Q>
1

> <i_epik_Tot_abs_Q>
1

> <r_epik_Metal_State_Penalty>
0.784556

> <b_epik_Metal_Only>
0

> <s_lp_Force_Field>
OPLS_2005

> <r_lp_Energy>
39.7138

> <b_lp_Chiralities_Consistent>
1

> <s_lp_Variant>
AV-unprocessed.smi:2310-3

> <Gold.Version>
5.8.1

> <Gold.Id.Protein>
6NUR|6NUR_protein|mol2

> <Gold.PLP.Fitness>
51.1731

> <Gold.PLP.PLP>
-40.8636

> <Gold.PLP.part.hbond>
-2.9963

> <Gold.PLP.part.metal>
0.0000

> <Gold.PLP.part.buried>
1.6742

> <Gold.PLP.part.nonpolar>
-41.6692

> <Gold.PLP.part.repulsive>
0.4720

> <Gold.PLP.ligand.clash>
0.0000

> <Gold.PLP.ligand.torsion>
0.8203

> <Gold.PLP.Chemscore.Hbond>
3.9600

> <Gold.PLP.Chemscore.CHOScore>
0.0000

> <Gold.PLP.Chemscore.Metal>
0.0000

> <Gold.Chemscore.Hbonds>
donor molecule, donor type, donor heavy atom, donor atom, acceptor molecule, acceptor atom, score
      L1  H     7    31       P1  8028  0.96
      L1  H    10    32       P1  8028  1.00
      L1  H    20    46       P1 10175  2.00

> <Gold.PLP.Chemscore.Internal.Correction>
0.0701

> <Gold.Rescore>
     Score         DG    S(hbond)    S(metal)    S(lipo)     H(rot)  DE(clash)    DE(int)     intcor
     17.99     -22.04       2.76        0.00      99.54       1.68       1.34       2.71       ----

> <Gold.Chemscore.Fitness>
17.9891

> <Gold.Chemscore.DG>
-22.0395

> <Gold.Chemscore.ZeroCoef>
-5.4800

> <Gold.Chemscore.Hbond>
2.7599

> <Gold.Chemscore.Metal>
0.0000

> <Gold.Chemscore.Lipo>
99.5391

> <Gold.Chemscore.Internal_Hbond>
0.0000

> <Gold.Chemscore.DEClash>
1.3388

> <Gold.Chemscore.DEInternal>
2.7116

> <Gold.Chemscore.Rot>
1.6815

> <Gold.Chemscore.Internal.Correction>
   9.000000E+99

> <Gold.Chemscore.Hbonds>
donor molecule, donor type, donor heavy atom, donor atom, acceptor molecule, acceptor atom, score
      L1  H     7    31       P1  8028  0.89
      L1  H    10    32       P1  8028  0.95
      L1  H    20    46       P1 10175  0.83

> <Gold.Chemscore.Hbond.Weighted>
-9.2180

> <Gold.Chemscore.Metal.Weighted>
-0.0000

> <Gold.Chemscore.Lipo.Weighted>
-11.6461

> <Gold.Chemscore.Internal_Hbond.Weighted>
0.0000

> <Gold.Chemscore.DEClash.Weighted>
1.3388

> <Gold.Chemscore.DEInternal.Weighted>
2.7116

> <Gold.Chemscore.Rot.Weighted>
4.3045

> <Gold.Chemscore.Internal.Correction.Weighted>
   9.000000E+99

> <Gold.Protein.RotatedTorsions>
[ 6907 6896 6895 6894 ] final   29.11 input  -60.11 | X-H torsion
[ 7974 7965 7964 7962 ] final -109.27 input  175.53 | X-H torsion
[ 8008 7997 7996 7995 ] final -146.38 input   59.86 | X-H torsion
[ 10167 10162 10161 10158 ] final  135.98 input  -65.29 | X-H torsion
[ 10718 10713 10712 10709 ] final   89.61 input   66.30 | X-H torsion
[ 10763 10752 10751 10750 ] final   23.10 input  -60.55 | X-H torsion
[ 11005 11000 10999 10996 ] final  -73.57 input  -57.11 | X-H torsion

> <Gold.Protein.ActiveResidues>
 VAL166  LYS551  ARG553  GLY616  TRP617  ASP618  TYR619  PRO620  LYS621  CYS622 
 ASP623  PHE694  ASN695  SER759  ASP760  ASP761  ALA762  ILE779  LEU786  VAL792 
 PHE793  MET794  SER795  GLU796  ALA797  LYS798  CYS799  TRP800  GLU811  SER814 

> <Gold.Protein.RotatedAtoms>
  152.0268  134.9791  160.0571 H   0  0  0  0  0  0  0  0  0  0  0  0  # atno 6907 bound_to 6896
  152.1284  133.4388  159.4717 H   0  0  0  0  0  0  0  0  0  0  0  0  # atno 6908 bound_to 6896
  150.6854  134.2369  159.4500 H   0  0  0  0  0  0  0  0  0  0  0  0  # atno 6909 bound_to 6896
  145.1826  140.8978  143.3471 H   0  0  0  0  0  0  0  0  0  0  0  0  # atno 7974 bound_to 7965
  155.5585  140.0623  157.2834 H   0  0  0  0  0  0  0  0  0  0  0  0  # atno 8008 bound_to 7997
  154.4398  140.1890  156.0804 H   0  0  0  0  0  0  0  0  0  0  0  0  # atno 8009 bound_to 7997
  156.0464  140.3289  155.7305 H   0  0  0  0  0  0  0  0  0  0  0  0  # atno 8010 bound_to 7997
  139.5197  144.6489  151.5360 H   0  0  0  0  0  0  0  0  0  0  0  0  # atno 10167 bound_to 10162
  157.6956  131.0339  150.3451 H   0  0  0  0  0  0  0  0  0  0  0  0  # atno 10718 bound_to 10713
  153.0864  135.6634  153.9941 H   0  0  0  0  0  0  0  0  0  0  0  0  # atno 10763 bound_to 10752
  153.9549  135.2980  155.3438 H   0  0  0  0  0  0  0  0  0  0  0  0  # atno 10764 bound_to 10752
  154.7272  135.5139  153.8978 H   0  0  0  0  0  0  0  0  0  0  0  0  # atno 10765 bound_to 10752
  141.1624  133.6882  156.7231 H   0  0  0  0  0  0  0  0  0  0  0  0  # atno 11005 bound_to 11000
  145.0121  139.3500  143.6114 LP  0  0  0  0  0  0  0  0  0  0  0  0  # atno 17320 bound_to 7965
  146.3450  139.9388  142.8744 LP  0  0  0  0  0  0  0  0  0  0  0  0  # atno 17321 bound_to 7965
  140.6285  143.9122  150.6585 LP  0  0  0  0  0  0  0  0  0  0  0  0  # atno 17342 bound_to 10162
  140.2418  143.3658  152.1480 LP  0  0  0  0  0  0  0  0  0  0  0  0  # atno 17343 bound_to 10162
  156.3907  130.3897  149.7032 LP  0  0  0  0  0  0  0  0  0  0  0  0  # atno 17370 bound_to 10713
  156.4383  130.7848  151.2869 LP  0  0  0  0  0  0  0  0  0  0  0  0  # atno 17371 bound_to 10713
  140.2801  134.8324  157.3925 LP  0  0  0  0  0  0  0  0  0  0  0  0  # atno 17394 bound_to 11000
  140.1441  134.4933  155.8009 LP  0  0  0  0  0  0  0  0  0  0  0  0  # atno 17395 bound_to 11000

$$$$
