AV-unprocessed.smi:767|AV-procd|sdf|3660|dock1
  -GOLD-   22720 1 73D 1   1.00000     0.00000
 Structure written by MMmdl.
 47 49  0  0  0  0  0  0  0  0  1 V2000
  143.3288  144.8420  156.0788 C   0  0  0  0  0  0  0  0  0  0  0  0
  144.4520  144.0470  155.4468 C   0  0  0  0  0  0  0  0  0  0  0  0
  144.7948  144.2342  154.0912 C   0  0  0  0  0  0  0  0  0  0  0  0
  145.8451  143.4664  153.5531 C   0  0  0  0  0  0  0  0  0  0  0  0
  146.5083  142.5421  154.3864 C   0  0  0  0  0  0  0  0  0  0  0  0
  147.6241  141.6632  153.8484 C   0  0  0  0  0  0  0  0  0  0  0  0
  148.5187  141.0595  154.9485 C   0  0  0  0  0  0  0  0  0  0  0  0
  149.0885  142.0825  155.8222 N   0  0  0  0  0  0  0  0  0  0  0  0
  149.7971  141.8451  156.9355 C   0  0  0  0  0  0  0  0  0  0  0  0
  150.0314  140.7217  157.3814 O   0  0  0  0  0  0  0  0  0  0  0  0
  150.2342  142.9786  157.4986 N   0  0  0  0  0  0  0  0  0  0  0  0
  151.0768  143.0287  158.6886 C   0  0  1  0  0  0  0  0  0  0  0  0
  152.3329  142.1534  158.5592 C   0  0  2  0  0  0  0  0  0  0  0  0
  152.5024  140.9515  159.4477 C   0  0  0  0  0  0  0  0  0  0  0  0
  153.3422  141.4984  160.6057 C   0  0  0  0  0  0  0  0  0  0  0  0
  153.1330  142.9085  160.5715 O   0  0  0  0  0  0  0  0  0  0  0  0
  153.0922  143.3041  159.2025 C   0  0  2  0  0  0  0  0  0  0  0  0
  151.9733  144.2881  158.7993 C   0  0  0  0  0  0  0  0  0  0  0  0
  152.2585  145.0727  157.5105 C   0  0  0  0  0  0  0  0  0  0  0  0
  151.5677  145.3137  159.8589 C   0  0  0  0  0  0  0  0  0  0  0  0
  146.0908  142.4358  155.7299 C   0  0  0  0  0  0  0  0  0  0  0  0
  145.0871  143.1704  156.2555 N   0  0  0  0  0  0  0  0  0  0  0  0
  142.6951  145.2987  155.3181 H   0  0  0  0  0  0  0  0  0  0  0  0
  143.7355  145.6348  156.7068 H   0  0  0  0  0  0  0  0  0  0  0  0
  142.7021  144.1988  156.6977 H   0  0  0  0  0  0  0  0  0  0  0  0
  144.2649  144.9461  153.4757 H   0  0  0  0  0  0  0  0  0  0  0  0
  146.1260  143.5781  152.5163 H   0  0  0  0  0  0  0  0  0  0  0  0
  147.1891  140.8622  153.2492 H   0  0  0  0  0  0  0  0  0  0  0  0
  148.2345  142.2547  153.1651 H   0  0  0  0  0  0  0  0  0  0  0  0
  147.9299  140.3790  155.5638 H   0  0  0  0  0  0  0  0  0  0  0  0
  149.3086  140.4543  154.5003 H   0  0  0  0  0  0  0  0  0  0  0  0
  148.9543  143.0430  155.5423 H   0  0  0  0  0  0  0  0  0  0  0  0
  149.9951  143.8580  157.0647 H   0  0  0  0  0  0  0  0  0  0  0  0
  150.5366  142.8233  159.6160 H   0  0  0  0  0  0  0  0  0  0  0  0
  152.6369  142.0019  157.5216 H   0  0  0  0  0  0  0  0  0  0  0  0
  151.5367  140.5910  159.8035 H   0  0  0  0  0  0  0  0  0  0  0  0
  153.0045  140.1250  158.9441 H   0  0  0  0  0  0  0  0  0  0  0  0
  153.0570  141.0742  161.5686 H   0  0  0  0  0  0  0  0  0  0  0  0
  154.4011  141.2939  160.4411 H   0  0  0  0  0  0  0  0  0  0  0  0
  154.0767  143.4872  158.7691 H   0  0  0  0  0  0  0  0  0  0  0  0
  153.0649  145.7923  157.6537 H   0  0  0  0  0  0  0  0  0  0  0  0
  151.3824  145.6282  157.1738 H   0  0  0  0  0  0  0  0  0  0  0  0
  152.5596  144.4155  156.6943 H   0  0  0  0  0  0  0  0  0  0  0  0
  152.3735  146.0195  160.0614 H   0  0  0  0  0  0  0  0  0  0  0  0
  151.3118  144.8358  160.8046 H   0  0  0  0  0  0  0  0  0  0  0  0
  150.6946  145.8871  159.5460 H   0  0  0  0  0  0  0  0  0  0  0  0
  146.5683  141.7353  156.3992 H   0  0  0  0  0  0  0  0  0  0  0  0
  1  2  1  0  0  0  0
  1 23  1  0  0  0  0
  1 24  1  0  0  0  0
  1 25  1  0  0  0  0
  2 22  1  0  0  0  0
  2  3  2  0  0  0  0
  3  4  1  0  0  0  0
  3 26  1  0  0  0  0
  4  5  2  0  0  0  0
  4 27  1  0  0  0  0
  5  6  1  0  0  0  0
  5 21  1  0  0  0  0
  6  7  1  0  0  0  0
  6 28  1  0  0  0  0
  6 29  1  0  0  0  0
  7  8  1  0  0  0  0
  7 30  1  0  0  0  0
  7 31  1  0  0  0  0
  8  9  1  0  0  0  0
  8 32  1  0  0  0  0
  9 10  2  0  0  0  0
  9 11  1  0  0  0  0
 11 12  1  0  0  0  0
 11 33  1  0  0  0  0
 12 18  1  0  0  0  0
 12 13  1  0  0  0  0
 12 34  1  0  0  0  0
 13 17  1  0  0  0  0
 13 14  1  0  0  0  0
 13 35  1  0  0  0  0
 14 15  1  0  0  0  0
 14 36  1  0  0  0  0
 14 37  1  0  0  0  0
 15 16  1  0  0  0  0
 15 38  1  0  0  0  0
 15 39  1  0  0  0  0
 16 17  1  0  0  0  0
 17 18  1  0  0  0  0
 17 40  1  0  0  0  0
 18 19  1  0  0  0  0
 18 20  1  0  0  0  0
 19 41  1  0  0  0  0
 19 42  1  0  0  0  0
 19 43  1  0  0  0  0
 20 44  1  0  0  0  0
 20 45  1  0  0  0  0
 20 46  1  0  0  0  0
 21 22  2  0  0  0  0
 21 47  1  0  0  0  0
M  END
> <s_m_source_file>
AV-unprocessed.smi

> <i_m_source_file_index>
767

> <i_lp_mmshare_version>
43012

> <i_f3d_flags>
0

> <s_epik_input>
W0NIM11jMVtjSF1bY0hdYyhbY0hdbjEpW0NIMl1bQ0gyXVtOSF1DKD1PKVtOSF1bQ0BIXTJDKFtDSDNdKShbQ0gzXSlbQ0BIXShbQ0BASF0yMylPW0NIMl1bQ0gyXTM=

> <s_epik_cmdline>
J2VwaWtfcHl0aG9uJywgJy1waCcsICc3LjAnLCAnLXRuJywgJzgnLCAnLW1hJywgJzIwMCcsICctbWV0YWxfYmluZGluZycsICctaW1hZScsICc8aW5maWxlLm1hZT4nLCAnLW9tYWUnLCAnPG91dGZpbGUubWFlPic=

> <r_epik_Ionization_Penalty>
0.0567523

> <r_epik_Ionization_Penalty_Charging>
0

> <r_epik_Ionization_Penalty_Neutral>
0.0567523

> <r_epik_State_Penalty>
0.0489186

> <r_epik_Charging_Adjusted_Penalty>
0.0489186

> <i_epik_Tot_Q>
0

> <i_epik_Tot_abs_Q>
0

> <r_epik_Metal_State_Penalty>
0.044622

> <b_epik_Metal_Only>
0

> <s_lp_Force_Field>
OPLS_2005

> <r_lp_Energy>
33.1778

> <b_lp_Chiralities_Consistent>
1

> <s_lp_Variant>
AV-unprocessed.smi:767-4

> <Gold.Version>
5.8.1

> <Gold.Id.Protein>
6NUR|6NUR_protein|mol2

> <Gold.PLP.Fitness>
55.1027

> <Gold.PLP.PLP>
-50.1748

> <Gold.PLP.part.hbond>
-2.0000

> <Gold.PLP.part.metal>
0.0000

> <Gold.PLP.part.buried>
-8.9348

> <Gold.PLP.part.nonpolar>
-39.4966

> <Gold.PLP.part.repulsive>
0.2762

> <Gold.PLP.ligand.clash>
0.0000

> <Gold.PLP.ligand.torsion>
0.5000

> <Gold.PLP.Chemscore.Hbond>
1.9120

> <Gold.PLP.Chemscore.CHOScore>
0.0000

> <Gold.PLP.Chemscore.Metal>
0.0000

> <Gold.Chemscore.Hbonds>
donor molecule, donor type, donor heavy atom, donor atom, acceptor molecule, acceptor atom, score
      L1  H     8    32       P1  8028  1.00
      L1  H    11    33       P1  8028  0.91

> <Gold.PLP.Chemscore.Internal.Correction>
0.1919

> <Gold.Rescore>
     Score         DG    S(hbond)    S(metal)    S(lipo)     H(rot)  DE(clash)    DE(int)     intcor
     21.76     -23.67       1.91        0.00     132.65       1.45       1.42       0.48       ----

> <Gold.Chemscore.Fitness>
21.7632

> <Gold.Chemscore.DG>
-23.6660

> <Gold.Chemscore.ZeroCoef>
-5.4800

> <Gold.Chemscore.Hbond>
1.9093

> <Gold.Chemscore.Metal>
0.0000

> <Gold.Chemscore.Lipo>
132.6509

> <Gold.Chemscore.Internal_Hbond>
0.0000

> <Gold.Chemscore.DEClash>
1.4215

> <Gold.Chemscore.DEInternal>
0.4813

> <Gold.Chemscore.Rot>
1.4497

> <Gold.Chemscore.Internal.Correction>
   9.000000E+99

> <Gold.Chemscore.Hbonds>
donor molecule, donor type, donor heavy atom, donor atom, acceptor molecule, acceptor atom, score
      L1  H     8    32       P1  8028  0.99
      L1  H    11    33       P1  8028  0.83

> <Gold.Chemscore.Hbond.Weighted>
-6.3771

> <Gold.Chemscore.Metal.Weighted>
-0.0000

> <Gold.Chemscore.Lipo.Weighted>
-15.5202

> <Gold.Chemscore.Internal_Hbond.Weighted>
0.0000

> <Gold.Chemscore.DEClash.Weighted>
1.4215

> <Gold.Chemscore.DEInternal.Weighted>
0.4813

> <Gold.Chemscore.Rot.Weighted>
3.7112

> <Gold.Chemscore.Internal.Correction.Weighted>
   9.000000E+99

> <Gold.Protein.RotatedTorsions>
[ 6907 6896 6895 6894 ] final -113.89 input  -60.11 | X-H torsion
[ 7974 7965 7964 7962 ] final  163.42 input  175.53 | X-H torsion
[ 8008 7997 7996 7995 ] final  -38.62 input   59.86 | X-H torsion
[ 10167 10162 10161 10158 ] final -150.20 input  -65.29 | X-H torsion
[ 10718 10713 10712 10709 ] final   41.41 input   66.30 | X-H torsion
[ 10763 10752 10751 10750 ] final  -55.63 input  -60.55 | X-H torsion
[ 11005 11000 10999 10996 ] final -113.89 input  -57.11 | X-H torsion

> <Gold.Protein.ActiveResidues>
 VAL166  LYS551  ARG553  GLY616  TRP617  ASP618  TYR619  PRO620  LYS621  CYS622 
 ASP623  PHE694  ASN695  SER759  ASP760  ASP761  ALA762  ILE779  LEU786  VAL792 
 PHE793  MET794  SER795  GLU796  ALA797  LYS798  CYS799  TRP800  GLU811  SER814 

> <Gold.Protein.RotatedAtoms>
  150.7862  133.8879  159.3304 H   0  0  0  0  0  0  0  0  0  0  0  0  # atno 6907 bound_to 6896
  151.6729  135.0971  160.0211 H   0  0  0  0  0  0  0  0  0  0  0  0  # atno 6908 bound_to 6896
  152.3926  133.6663  159.6286 H   0  0  0  0  0  0  0  0  0  0  0  0  # atno 6909 bound_to 6896
  144.7591  139.8180  143.6339 H   0  0  0  0  0  0  0  0  0  0  0  0  # atno 7974 bound_to 7965
  154.4034  140.1573  156.2730 H   0  0  0  0  0  0  0  0  0  0  0  0  # atno 8008 bound_to 7997
  155.8936  140.3437  155.5952 H   0  0  0  0  0  0  0  0  0  0  0  0  # atno 8009 bound_to 7997
  155.7529  140.0807  157.2183 H   0  0  0  0  0  0  0  0  0  0  0  0  # atno 8010 bound_to 7997
  139.7375  143.8713  152.2553 H   0  0  0  0  0  0  0  0  0  0  0  0  # atno 10167 bound_to 10162
  157.3933  130.7818  149.7287 H   0  0  0  0  0  0  0  0  0  0  0  0  # atno 10718 bound_to 10713
  154.1938  135.6423  153.5067 H   0  0  0  0  0  0  0  0  0  0  0  0  # atno 10763 bound_to 10752
  153.0028  135.5435  154.6387 H   0  0  0  0  0  0  0  0  0  0  0  0  # atno 10764 bound_to 10752
  154.5783  135.2923  155.0732 H   0  0  0  0  0  0  0  0  0  0  0  0  # atno 10765 bound_to 10752
  141.0586  133.9572  157.2708 H   0  0  0  0  0  0  0  0  0  0  0  0  # atno 11005 bound_to 11000
  146.1634  139.4756  142.9974 LP  0  0  0  0  0  0  0  0  0  0  0  0  # atno 17320 bound_to 7965
  145.6680  141.0224  143.1673 LP  0  0  0  0  0  0  0  0  0  0  0  0  # atno 17321 bound_to 7965
  139.8654  144.7096  150.9050 LP  0  0  0  0  0  0  0  0  0  0  0  0  # atno 17342 bound_to 10162
  140.7781  143.3782  151.1524 LP  0  0  0  0  0  0  0  0  0  0  0  0  # atno 17343 bound_to 10162
  155.9804  130.4030  150.3532 LP  0  0  0  0  0  0  0  0  0  0  0  0  # atno 17370 bound_to 10713
  157.1651  131.0355  151.2822 LP  0  0  0  0  0  0  0  0  0  0  0  0  # atno 17371 bound_to 10713
  139.9412  135.0190  156.8715 LP  0  0  0  0  0  0  0  0  0  0  0  0  # atno 17394 bound_to 11000
  140.5913  134.0258  155.7501 LP  0  0  0  0  0  0  0  0  0  0  0  0  # atno 17395 bound_to 11000

$$$$
