AV-unprocessed.smi:1202|AV-procd|sdf|5030|dock4
  -GOLD-   22720 4 53D 1   1.00000     0.00000
 Structure written by MMmdl.
 45 46  0  0  0  0  0  0  0  0  2 V2000
  148.8556  132.5747  153.1914 C   0  0  0  0  0  0  0  0  0  0  0  0
  148.4885  133.9229  153.5978 N   0  0  0  0  0  0  0  0  0  0  0  0
  148.2818  134.2973  154.8682 C   0  0  0  0  0  0  0  0  0  0  0  0
  148.3751  133.5254  155.8233 O   0  0  0  0  0  0  0  0  0  0  0  0
  147.8945  135.7636  155.0877 C   0  0  0  0  0  0  0  0  0  0  0  0
  148.9675  136.7148  154.6985 N   0  3  2  0  0  0  0  0  0  0  0  0
  150.1711  136.5926  155.5603 C   0  0  0  0  0  0  0  0  0  0  0  0
  151.3176  137.4851  155.0501 C   0  0  0  0  0  0  0  0  0  0  0  0
  150.8900  138.9566  154.9131 C   0  0  2  0  0  0  0  0  0  0  0  0
  150.7213  139.5652  156.2321 N   0  0  0  0  0  0  0  0  0  0  0  0
  151.7138  139.8393  157.0926 C   0  0  0  0  0  0  0  0  0  0  0  0
  152.8999  139.6200  156.8440 O   0  0  0  0  0  0  0  0  0  0  0  0
  151.2934  140.4798  158.4229 C   0  0  0  0  0  0  0  0  0  0  0  0
  151.7118  141.8861  158.5477 N   0  0  0  0  0  0  0  0  0  0  0  0
  152.5029  142.2244  159.6635 C   0  0  0  0  0  0  0  0  0  0  0  0
  152.9336  143.4782  159.8745 C   0  0  0  0  0  0  0  0  0  0  0  0
  152.5659  144.4964  158.9190 C   0  0  0  0  0  0  0  0  0  0  0  0
  151.8075  144.1837  157.8493 C   0  0  0  0  0  0  0  0  0  0  0  0
  151.3326  142.8149  157.6161 C   0  0  0  0  0  0  0  0  0  0  0  0
  150.6365  142.5200  156.6439 O   0  0  0  0  0  0  0  0  0  0  0  0
  149.6015  139.0458  154.0716 C   0  0  0  0  0  0  0  0  0  0  0  0
  148.4961  138.1231  154.6135 C   0  0  0  0  0  0  0  0  0  0  0  0
  148.9078  132.5158  152.1043 H   0  0  0  0  0  0  0  0  0  0  0  0
  148.1186  131.8481  153.5361 H   0  0  0  0  0  0  0  0  0  0  0  0
  149.8311  132.3004  153.5945 H   0  0  0  0  0  0  0  0  0  0  0  0
  148.3851  134.6117  152.8662 H   0  0  0  0  0  0  0  0  0  0  0  0
  146.9726  136.0011  154.5539 H   0  0  0  0  0  0  0  0  0  0  0  0
  147.6773  135.8704  156.1513 H   0  0  0  0  0  0  0  0  0  0  0  0
  149.9124  136.8536  156.5876 H   0  0  0  0  0  0  0  0  0  0  0  0
  150.5088  135.5556  155.5741 H   0  0  0  0  0  0  0  0  0  0  0  0
  152.1811  137.4016  155.7115 H   0  0  0  0  0  0  0  0  0  0  0  0
  151.6462  137.1176  154.0767 H   0  0  0  0  0  0  0  0  0  0  0  0
  151.6874  139.4928  154.3952 H   0  0  0  0  0  0  0  0  0  0  0  0
  149.7773  139.7761  156.5218 H   0  0  0  0  0  0  0  0  0  0  0  0
  150.2100  140.3930  158.5128 H   0  0  0  0  0  0  0  0  0  0  0  0
  151.6955  139.8949  159.2526 H   0  0  0  0  0  0  0  0  0  0  0  0
  152.7281  141.4077  160.3340 H   0  0  0  0  0  0  0  0  0  0  0  0
  153.5358  143.7196  160.7380 H   0  0  0  0  0  0  0  0  0  0  0  0
  152.8997  145.5135  159.0629 H   0  0  0  0  0  0  0  0  0  0  0  0
  151.5417  144.9589  157.1456 H   0  0  0  0  0  0  0  0  0  0  0  0
  149.2412  140.0742  154.0250 H   0  0  0  0  0  0  0  0  0  0  0  0
  149.8275  138.7617  153.0429 H   0  0  0  0  0  0  0  0  0  0  0  0
  147.6270  138.1900  153.9587 H   0  0  0  0  0  0  0  0  0  0  0  0
  148.1710  138.4608  155.5987 H   0  0  0  0  0  0  0  0  0  0  0  0
  149.2552  136.4443  153.7683 H   0  0  0  0  0  0  0  0  0  0  0  0
  1  2  1  0  0  0  0
  1 23  1  0  0  0  0
  1 24  1  0  0  0  0
  1 25  1  0  0  0  0
  2  3  1  0  0  0  0
  2 26  1  0  0  0  0
  3  4  2  0  0  0  0
  3  5  1  0  0  0  0
  5  6  1  0  0  0  0
  5 27  1  0  0  0  0
  5 28  1  0  0  0  0
  6 22  1  0  0  0  0
  6  7  1  0  0  0  0
  6 45  1  0  0  0  0
  7  8  1  0  0  0  0
  7 29  1  0  0  0  0
  7 30  1  0  0  0  0
  8  9  1  0  0  0  0
  8 31  1  0  0  0  0
  8 32  1  0  0  0  0
  9 10  1  0  0  0  0
  9 21  1  0  0  0  0
  9 33  1  0  0  0  0
 10 11  1  0  0  0  0
 10 34  1  0  0  0  0
 11 12  2  0  0  0  0
 11 13  1  0  0  0  0
 13 14  1  0  0  0  0
 13 35  1  0  0  0  0
 13 36  1  0  0  0  0
 14 19  1  0  0  0  0
 14 15  1  0  0  0  0
 15 16  2  0  0  0  0
 15 37  1  0  0  0  0
 16 17  1  0  0  0  0
 16 38  1  0  0  0  0
 17 18  2  0  0  0  0
 17 39  1  0  0  0  0
 18 19  1  0  0  0  0
 18 40  1  0  0  0  0
 19 20  2  0  0  0  0
 21 22  1  0  0  0  0
 21 41  1  0  0  0  0
 21 42  1  0  0  0  0
 22 43  1  0  0  0  0
 22 44  1  0  0  0  0
M  CHG  1   6   1
M  END
> <s_m_source_file>
AV-unprocessed.smi

> <i_m_source_file_index>
1202

> <i_lp_mmshare_version>
43012

> <i_f3d_flags>
0

> <s_epik_input>
W0NIM11bTkhdQyg9TylbQ0gyXU4xW0NIMl1bQ0gyXVtDSF0oW0NIMl1bQ0gyXTEpW05IXUMoPU8pW0NIMl1uMltjSF1bY0hdW2NIXVtjSF1jMj1P

> <s_epik_cmdline>
J2VwaWtfcHl0aG9uJywgJy1waCcsICc3LjAnLCAnLXRuJywgJzgnLCAnLW1hJywgJzIwMCcsICctbWV0YWxfYmluZGluZycsICctaW1hZScsICc8aW5maWxlLm1hZT4nLCAnLW9tYWUnLCAnPG91dGZpbGUubWFlPic=

> <r_lp_tautomer_probability>
1

> <r_epik_Ionization_Penalty>
0.983979

> <r_epik_Ionization_Penalty_Charging>
0.983957

> <r_epik_Ionization_Penalty_Neutral>
2.18432e-05

> <r_epik_State_Penalty>
1.03106

> <r_epik_Charging_Adjusted_Penalty>
2.01502

> <i_epik_Tot_Q>
1

> <i_epik_Tot_abs_Q>
1

> <r_epik_Metal_State_Penalty>
1.03477

> <b_epik_Metal_Only>
0

> <s_lp_Force_Field>
OPLS_2005

> <r_lp_Energy>
22.4374

> <b_lp_Chiralities_Consistent>
1

> <s_lp_Variant>
AV-unprocessed.smi:1202-3

> <Gold.Version>
5.8.1

> <Gold.Id.Protein>
6NUR|6NUR_protein|mol2

> <Gold.PLP.Fitness>
52.4152

> <Gold.PLP.PLP>
-40.8787

> <Gold.PLP.part.hbond>
-3.0000

> <Gold.PLP.part.metal>
0.0000

> <Gold.PLP.part.buried>
-4.7705

> <Gold.PLP.part.nonpolar>
-35.1718

> <Gold.PLP.part.repulsive>
1.3079

> <Gold.PLP.ligand.clash>
0.0000

> <Gold.PLP.ligand.torsion>
0.2625

> <Gold.PLP.Chemscore.Hbond>
4.0000

> <Gold.PLP.Chemscore.CHOScore>
0.0000

> <Gold.PLP.Chemscore.Metal>
0.0000

> <Gold.Chemscore.Hbonds>
donor molecule, donor type, donor heavy atom, donor atom, acceptor molecule, acceptor atom, score
      L1  H     2    26       P1  7948  1.00
      L1  H     6    45       P1  7948  2.00
      P1  H  7997  8009       L1    12  1.00

> <Gold.PLP.Chemscore.Internal.Correction>
0.0615

> <Gold.Rescore>
     Score         DG    S(hbond)    S(metal)    S(lipo)     H(rot)  DE(clash)    DE(int)     intcor
     18.93     -19.83       2.82        0.00      91.01       2.23       0.55       0.35       ----

> <Gold.Chemscore.Fitness>
18.9302

> <Gold.Chemscore.DG>
-19.8347

> <Gold.Chemscore.ZeroCoef>
-5.4800

> <Gold.Chemscore.Hbond>
2.8226

> <Gold.Chemscore.Metal>
0.0000

> <Gold.Chemscore.Lipo>
91.0062

> <Gold.Chemscore.Internal_Hbond>
0.0000

> <Gold.Chemscore.DEClash>
0.5529

> <Gold.Chemscore.DEInternal>
0.3516

> <Gold.Chemscore.Rot>
2.2346

> <Gold.Chemscore.Internal.Correction>
   9.000000E+99

> <Gold.Chemscore.Hbonds>
donor molecule, donor type, donor heavy atom, donor atom, acceptor molecule, acceptor atom, score
      L1  H     2    26       P1  7948  0.38
      L1  H     6    45       P1  7948  0.92
      P1  H  7997  8009       L1    12  0.96

> <Gold.Chemscore.Hbond.Weighted>
-9.4275

> <Gold.Chemscore.Metal.Weighted>
-0.0000

> <Gold.Chemscore.Lipo.Weighted>
-10.6477

> <Gold.Chemscore.Internal_Hbond.Weighted>
0.0000

> <Gold.Chemscore.DEClash.Weighted>
0.5529

> <Gold.Chemscore.DEInternal.Weighted>
0.3516

> <Gold.Chemscore.Rot.Weighted>
5.7205

> <Gold.Chemscore.Internal.Correction.Weighted>
   9.000000E+99

> <Gold.Protein.RotatedTorsions>
[ 6907 6896 6895 6894 ] final  157.34 input  -60.11 | X-H torsion
[ 7974 7965 7964 7962 ] final  103.88 input  175.53 | X-H torsion
[ 8008 7997 7996 7995 ] final -170.41 input   59.86 | X-H torsion
[ 10167 10162 10161 10158 ] final   49.27 input  -65.29 | X-H torsion
[ 10718 10713 10712 10709 ] final  -63.08 input   66.30 | X-H torsion
[ 10763 10752 10751 10750 ] final  -83.15 input  -60.55 | X-H torsion
[ 11005 11000 10999 10996 ] final  -94.07 input  -57.11 | X-H torsion

> <Gold.Protein.ActiveResidues>
 VAL166  LYS551  ARG553  GLY616  TRP617  ASP618  TYR619  PRO620  LYS621  CYS622 
 ASP623  PHE694  ASN695  SER759  ASP760  ASP761  ALA762  ILE779  LEU786  VAL792 
 PHE793  MET794  SER795  GLU796  ALA797  LYS798  CYS799  TRP800  GLU811  SER814 

> <Gold.Protein.RotatedAtoms>
  152.0165  133.3881  159.4240 H   0  0  0  0  0  0  0  0  0  0  0  0  # atno 6907 bound_to 6896
  150.6894  134.3673  159.4986 H   0  0  0  0  0  0  0  0  0  0  0  0  # atno 6908 bound_to 6896
  152.1441  134.9039  160.0602 H   0  0  0  0  0  0  0  0  0  0  0  0  # atno 6909 bound_to 6896
  145.3401  139.2464  143.3614 H   0  0  0  0  0  0  0  0  0  0  0  0  # atno 7974 bound_to 7965
  155.9179  140.1069  157.1229 H   0  0  0  0  0  0  0  0  0  0  0  0  # atno 8008 bound_to 7997
  154.4049  140.1261  156.4707 H   0  0  0  0  0  0  0  0  0  0  0  0  # atno 8009 bound_to 7997
  155.7231  140.3469  155.5027 H   0  0  0  0  0  0  0  0  0  0  0  0  # atno 8010 bound_to 7997
  140.2846  144.3117  150.6255 H   0  0  0  0  0  0  0  0  0  0  0  0  # atno 10167 bound_to 10162
  156.0814  130.4216  150.1226 H   0  0  0  0  0  0  0  0  0  0  0  0  # atno 10718 bound_to 10713
  154.5843  135.5566  153.7216 H   0  0  0  0  0  0  0  0  0  0  0  0  # atno 10763 bound_to 10752
  153.0093  135.6327  154.1939 H   0  0  0  0  0  0  0  0  0  0  0  0  # atno 10764 bound_to 10752
  154.1879  135.2884  155.3011 H   0  0  0  0  0  0  0  0  0  0  0  0  # atno 10765 bound_to 10752
  141.1480  133.7931  157.0247 H   0  0  0  0  0  0  0  0  0  0  0  0  # atno 11005 bound_to 11000
  146.3011  140.3997  142.8704 LP  0  0  0  0  0  0  0  0  0  0  0  0  # atno 17320 bound_to 7965
  144.8797  140.7383  143.5994 LP  0  0  0  0  0  0  0  0  0  0  0  0  # atno 17321 bound_to 7965
  140.5783  143.2174  151.7475 LP  0  0  0  0  0  0  0  0  0  0  0  0  # atno 17342 bound_to 10162
  139.4953  144.4117  152.0073 LP  0  0  0  0  0  0  0  0  0  0  0  0  # atno 17343 bound_to 10162
  156.9257  130.9697  151.3541 LP  0  0  0  0  0  0  0  0  0  0  0  0  # atno 17370 bound_to 10713
  157.5932  130.8458  149.8690 LP  0  0  0  0  0  0  0  0  0  0  0  0  # atno 17371 bound_to 10713
  140.0793  134.9657  157.1598 LP  0  0  0  0  0  0  0  0  0  0  0  0  # atno 17394 bound_to 11000
  140.3599  134.2505  155.7188 LP  0  0  0  0  0  0  0  0  0  0  0  0  # atno 17395 bound_to 11000

$$$$
