AV-unprocessed.smi:2110|AV-procd|sdf|8610|dock7
  -GOLD-   2272011353D 1   1.00000     0.00000
 Structure written by MMmdl.
 45 46  0  0  0  0  0  0  0  0  2 V2000
  146.7274  137.3323  162.6740 C   0  0  0  0  0  0  0  0  0  0  0  0
  147.7423  136.2063  162.4168 C   0  0  0  0  0  0  0  0  0  0  0  0
  147.6846  135.6788  161.0382 N   0  0  0  0  0  0  0  0  0  0  0  0
  147.2384  134.2804  160.8762 C   0  0  0  0  0  0  0  0  0  0  0  0
  146.9750  133.5735  162.2146 C   0  0  0  0  0  0  0  0  0  0  0  0
  147.7073  136.7587  159.6716 S   0  0  0  0  0  0  0  0  0  0  0  0
  147.5567  135.9128  158.4757 O   0  0  0  0  0  0  0  0  0  0  0  0
  146.6734  137.7745  159.9289 O   0  0  0  0  0  0  0  0  0  0  0  0
  149.2117  137.3227  159.8783 N   0  5  0  0  0  0  0  0  0  0  0  0
  150.1545  137.2418  158.7788 C   0  0  0  0  0  0  0  0  0  0  0  0
  151.3017  138.2293  158.9489 C   0  0  0  0  0  0  0  0  0  0  0  0
  152.6038  137.7754  159.2549 C   0  0  0  0  0  0  0  0  0  0  0  0
  153.6268  138.7289  159.4052 C   0  0  0  0  0  0  0  0  0  0  0  0
  153.4312  140.0558  159.2619 N   0  0  0  0  0  0  0  0  0  0  0  0
  152.1884  140.5058  158.9588 C   0  0  0  0  0  0  0  0  0  0  0  0
  152.0023  141.8967  158.8004 N   0  0  0  0  0  0  0  0  0  0  0  0
  151.3504  142.3083  157.5595 C   0  0  0  0  0  0  0  0  0  0  0  0
  150.9306  143.7861  157.6395 C   0  0  0  0  0  0  0  0  0  0  0  0
  152.0591  144.5919  157.9627 O   0  0  0  0  0  0  0  0  0  0  0  0
  152.6109  144.2452  159.2284 C   0  0  0  0  0  0  0  0  0  0  0  0
  153.0921  142.7846  159.2014 C   0  0  0  0  0  0  0  0  0  0  0  0
  151.0945  139.6205  158.8025 C   0  0  0  0  0  0  0  0  0  0  0  0
  146.7492  137.6356  163.7204 H   0  0  0  0  0  0  0  0  0  0  0  0
  145.7086  137.0253  162.4409 H   0  0  0  0  0  0  0  0  0  0  0  0
  146.9525  138.2164  162.0775 H   0  0  0  0  0  0  0  0  0  0  0  0
  148.7499  136.5765  162.6064 H   0  0  0  0  0  0  0  0  0  0  0  0
  147.5814  135.3942  163.1264 H   0  0  0  0  0  0  0  0  0  0  0  0
  146.3333  134.2560  160.2702 H   0  0  0  0  0  0  0  0  0  0  0  0
  147.9947  133.7322  160.3139 H   0  0  0  0  0  0  0  0  0  0  0  0
  146.5913  132.5677  162.0444 H   0  0  0  0  0  0  0  0  0  0  0  0
  146.2373  134.1067  162.8134 H   0  0  0  0  0  0  0  0  0  0  0  0
  147.8854  133.4759  162.8051 H   0  0  0  0  0  0  0  0  0  0  0  0
  150.5946  136.2475  158.6973 H   0  0  0  0  0  0  0  0  0  0  0  0
  149.6678  137.4253  157.8203 H   0  0  0  0  0  0  0  0  0  0  0  0
  152.8257  136.7247  159.3835 H   0  0  0  0  0  0  0  0  0  0  0  0
  154.6324  138.4171  159.6455 H   0  0  0  0  0  0  0  0  0  0  0  0
  152.0469  142.1633  156.7328 H   0  0  0  0  0  0  0  0  0  0  0  0
  150.4720  141.7024  157.3421 H   0  0  0  0  0  0  0  0  0  0  0  0
  150.5246  144.1126  156.6820 H   0  0  0  0  0  0  0  0  0  0  0  0
  150.1439  143.9267  158.3827 H   0  0  0  0  0  0  0  0  0  0  0  0
  153.4457  144.9112  159.4467 H   0  0  0  0  0  0  0  0  0  0  0  0
  151.8691  144.3954  160.0146 H   0  0  0  0  0  0  0  0  0  0  0  0
  153.4612  142.5074  160.1896 H   0  0  0  0  0  0  0  0  0  0  0  0
  153.9217  142.6786  158.5009 H   0  0  0  0  0  0  0  0  0  0  0  0
  150.1088  140.0090  158.5862 H   0  0  0  0  0  0  0  0  0  0  0  0
  1  2  1  0  0  0  0
  1 23  1  0  0  0  0
  1 24  1  0  0  0  0
  1 25  1  0  0  0  0
  2  3  1  0  0  0  0
  2 26  1  0  0  0  0
  2 27  1  0  0  0  0
  3  4  1  0  0  0  0
  3  6  1  0  0  0  0
  4  5  1  0  0  0  0
  4 28  1  0  0  0  0
  4 29  1  0  0  0  0
  5 30  1  0  0  0  0
  5 31  1  0  0  0  0
  5 32  1  0  0  0  0
  6  7  2  0  0  0  0
  6  8  2  0  0  0  0
  6  9  1  0  0  0  0
  9 10  1  0  0  0  0
 10 11  1  0  0  0  0
 10 33  1  0  0  0  0
 10 34  1  0  0  0  0
 11 22  1  0  0  0  0
 11 12  2  0  0  0  0
 12 13  1  0  0  0  0
 12 35  1  0  0  0  0
 13 14  2  0  0  0  0
 13 36  1  0  0  0  0
 14 15  1  0  0  0  0
 15 16  1  0  0  0  0
 15 22  2  0  0  0  0
 16 21  1  0  0  0  0
 16 17  1  0  0  0  0
 17 18  1  0  0  0  0
 17 37  1  0  0  0  0
 17 38  1  0  0  0  0
 18 19  1  0  0  0  0
 18 39  1  0  0  0  0
 18 40  1  0  0  0  0
 19 20  1  0  0  0  0
 20 21  1  0  0  0  0
 20 41  1  0  0  0  0
 20 42  1  0  0  0  0
 21 43  1  0  0  0  0
 21 44  1  0  0  0  0
 22 45  1  0  0  0  0
M  CHG  1   9  -1
M  END
> <s_m_source_file>
AV-unprocessed.smi

> <i_m_source_file_index>
2110

> <i_lp_mmshare_version>
43012

> <i_f3d_flags>
0

> <s_epik_input>
W0NIM11bQ0gyXU4oW0NIMl1bQ0gzXSlTKD1PKSg9TylbTkhdW0NIMl1jMVtjSF1bY0hdbmMoW2NIXTEpTjJbQ0gyXVtDSDJdT1tDSDJdW0NIMl0y

> <s_epik_cmdline>
J2VwaWtfcHl0aG9uJywgJy1waCcsICc3LjAnLCAnLXRuJywgJzgnLCAnLW1hJywgJzIwMCcsICctbWV0YWxfYmluZGluZycsICctaW1hZScsICc8aW5maWxlLm1hZT4nLCAnLW9tYWUnLCAnPG91dGZpbGUubWFlPic=

> <r_lp_tautomer_probability>
1

> <r_epik_Ionization_Penalty>
2.67693

> <r_epik_Ionization_Penalty_Charging>
2.41478

> <r_epik_Ionization_Penalty_Neutral>
0.262148

> <r_epik_State_Penalty>
2.66454

> <r_epik_Charging_Adjusted_Penalty>
5.07933

> <i_epik_Tot_Q>
-1

> <i_epik_Tot_abs_Q>
1

> <r_epik_Metal_State_Penalty>
0.588443

> <b_epik_Metal_Only>
0

> <s_lp_Force_Field>
OPLS_2005

> <r_lp_Energy>
11.2641

> <b_lp_Chiralities_Consistent>
1

> <s_lp_Variant>
AV-unprocessed.smi:2110-3

> <Gold.Version>
5.8.1

> <Gold.Id.Protein>
6NUR|6NUR_protein|mol2

> <Gold.PLP.Fitness>
45.9447

> <Gold.PLP.PLP>
-41.3464

> <Gold.PLP.part.hbond>
-2.0859

> <Gold.PLP.part.metal>
0.0000

> <Gold.PLP.part.buried>
-4.5361

> <Gold.PLP.part.nonpolar>
-35.6850

> <Gold.PLP.part.repulsive>
0.0825

> <Gold.PLP.ligand.clash>
0.0086

> <Gold.PLP.ligand.torsion>
2.1929

> <Gold.PLP.Chemscore.Hbond>
1.7613

> <Gold.PLP.Chemscore.CHOScore>
0.0000

> <Gold.PLP.Chemscore.Metal>
0.0000

> <Gold.Chemscore.Hbonds>
donor molecule, donor type, donor heavy atom, donor atom, acceptor molecule, acceptor atom, score
      P1  H  6931  6943       L1     9  0.40
      P1  H  6934  6947       L1     8  1.00

> <Gold.PLP.Chemscore.Internal.Correction>
3.7089

> <Gold.Rescore>
     Score         DG    S(hbond)    S(metal)    S(lipo)     H(rot)  DE(clash)    DE(int)     intcor
     12.25     -15.82       0.98        0.00      96.69       1.66       0.00       3.57       ----

> <Gold.Chemscore.Fitness>
12.2469

> <Gold.Chemscore.DG>
-15.8187

> <Gold.Chemscore.ZeroCoef>
-5.4800

> <Gold.Chemscore.Hbond>
0.9839

> <Gold.Chemscore.Metal>
0.0000

> <Gold.Chemscore.Lipo>
96.6917

> <Gold.Chemscore.Internal_Hbond>
0.0000

> <Gold.Chemscore.DEClash>
0.0000

> <Gold.Chemscore.DEInternal>
3.5718

> <Gold.Chemscore.Rot>
1.6642

> <Gold.Chemscore.Internal.Correction>
   9.000000E+99

> <Gold.Chemscore.Hbonds>
donor molecule, donor type, donor heavy atom, donor atom, acceptor molecule, acceptor atom, score
      P1  H  6931  6943       L1     9  0.07
      P1  H  6934  6947       L1     8  0.87

> <Gold.Chemscore.Hbond.Weighted>
-3.2861

> <Gold.Chemscore.Metal.Weighted>
-0.0000

> <Gold.Chemscore.Lipo.Weighted>
-11.3129

> <Gold.Chemscore.Internal_Hbond.Weighted>
0.0000

> <Gold.Chemscore.DEClash.Weighted>
0.0000

> <Gold.Chemscore.DEInternal.Weighted>
3.5718

> <Gold.Chemscore.Rot.Weighted>
4.2604

> <Gold.Chemscore.Internal.Correction.Weighted>
   9.000000E+99

> <Gold.Protein.RotatedTorsions>
[ 6907 6896 6895 6894 ] final   -2.22 input  -60.11 | X-H torsion
[ 7974 7965 7964 7962 ] final  102.68 input  175.53 | X-H torsion
[ 8008 7997 7996 7995 ] final  -39.35 input   59.86 | X-H torsion
[ 10167 10162 10161 10158 ] final   24.75 input  -65.29 | X-H torsion
[ 10718 10713 10712 10709 ] final  176.35 input   66.30 | X-H torsion
[ 10763 10752 10751 10750 ] final  -36.61 input  -60.55 | X-H torsion
[ 11005 11000 10999 10996 ] final    2.92 input  -57.11 | X-H torsion

> <Gold.Protein.ActiveResidues>
 VAL166  LYS551  ARG553  GLY616  TRP617  ASP618  TYR619  PRO620  LYS621  CYS622 
 ASP623  PHE694  ASN695  SER759  ASP760  ASP761  ALA762  ILE779  LEU786  VAL792 
 PHE793  MET794  SER795  GLU796  ALA797  LYS798  CYS799  TRP800  GLU811  SER814 

> <Gold.Protein.RotatedAtoms>
  151.5335  135.1068  159.9908 H   0  0  0  0  0  0  0  0  0  0  0  0  # atno 6907 bound_to 6896
  152.4568  133.7735  159.6822 H   0  0  0  0  0  0  0  0  0  0  0  0  # atno 6908 bound_to 6896
  150.8514  133.7715  159.3049 H   0  0  0  0  0  0  0  0  0  0  0  0  # atno 6909 bound_to 6896
  145.3559  139.2429  143.3533 H   0  0  0  0  0  0  0  0  0  0  0  0  # atno 7974 bound_to 7965
  154.4024  140.1554  156.2849 H   0  0  0  0  0  0  0  0  0  0  0  0  # atno 8008 bound_to 7997
  155.8836  140.3442  155.5884 H   0  0  0  0  0  0  0  0  0  0  0  0  # atno 8009 bound_to 7997
  155.7638  140.0821  157.2132 H   0  0  0  0  0  0  0  0  0  0  0  0  # atno 8010 bound_to 7997
  140.5163  144.0077  150.6395 H   0  0  0  0  0  0  0  0  0  0  0  0  # atno 10167 bound_to 10162
  156.9214  130.9941  151.3004 H   0  0  0  0  0  0  0  0  0  0  0  0  # atno 10718 bound_to 10713
  153.8826  135.6820  153.4766 H   0  0  0  0  0  0  0  0  0  0  0  0  # atno 10763 bound_to 10752
  153.1225  135.4733  154.9216 H   0  0  0  0  0  0  0  0  0  0  0  0  # atno 10764 bound_to 10752
  154.7661  135.3225  154.8235 H   0  0  0  0  0  0  0  0  0  0  0  0  # atno 10765 bound_to 10752
  140.5989  133.9854  155.8123 H   0  0  0  0  0  0  0  0  0  0  0  0  # atno 11005 bound_to 11000
  146.2948  140.4184  142.8726 LP  0  0  0  0  0  0  0  0  0  0  0  0  # atno 17320 bound_to 7965
  144.8682  140.7236  143.6063 LP  0  0  0  0  0  0  0  0  0  0  0  0  # atno 17321 bound_to 7965
  140.3414  143.3017  152.0585 LP  0  0  0  0  0  0  0  0  0  0  0  0  # atno 17342 bound_to 10162
  139.4910  144.6440  151.6817 LP  0  0  0  0  0  0  0  0  0  0  0  0  # atno 17343 bound_to 10162
  157.5905  130.8440  149.8653 LP  0  0  0  0  0  0  0  0  0  0  0  0  # atno 17370 bound_to 10713
  156.0489  130.3722  150.1249 LP  0  0  0  0  0  0  0  0  0  0  0  0  # atno 17371 bound_to 10713
  141.0885  133.9953  157.3275 LP  0  0  0  0  0  0  0  0  0  0  0  0  # atno 17394 bound_to 11000
  139.9241  135.0201  156.8170 LP  0  0  0  0  0  0  0  0  0  0  0  0  # atno 17395 bound_to 11000

$$$$
