AV-unprocessed.smi:1336|AV-procd|sdf|5496|dock7
  -GOLD-   22720 5 73D 1   1.00000     0.00000
 Structure written by MMmdl.
 43 43  0  0  0  0  0  0  0  0  1 V2000
  145.4557  136.6214  152.2126 C   0  0  0  0  0  0  0  0  0  0  0  0
  146.2228  137.5238  151.2359 C   0  0  0  0  0  0  0  0  0  0  0  0
  146.7105  138.8377  151.8667 C   0  0  0  0  0  0  0  0  0  0  0  0
  147.7358  138.5900  152.8750 N   0  0  0  0  0  0  0  0  0  0  0  0
  148.0015  139.3736  153.9308 C   0  0  0  0  0  0  0  0  0  0  0  0
  147.4008  140.4240  154.1653 O   0  0  0  0  0  0  0  0  0  0  0  0
  149.1071  138.8751  154.8767 C   0  0  2  0  0  0  0  0  0  0  0  0
  148.8318  137.3944  155.1868 C   0  0  0  0  0  0  0  0  0  0  0  0
  149.0667  139.6153  156.1354 N   0  0  0  0  0  0  0  0  0  0  0  0
  149.3334  140.9246  156.2775 C   0  0  0  0  0  0  0  0  0  0  0  0
  149.7363  141.6360  155.3573 O   0  0  0  0  0  0  0  0  0  0  0  0
  149.1040  141.5273  157.6673 C   0  0  0  0  0  0  0  0  0  0  0  0
  150.3772  142.1176  158.2079 C   0  0  0  0  0  0  0  0  0  0  0  0
  151.0572  143.2015  157.7101 C   0  0  0  0  0  0  0  0  0  0  0  0
  152.5177  143.5204  158.6048 S   0  0  0  0  0  0  0  0  0  0  0  0
  152.1441  142.1519  159.6468 C   0  0  0  0  0  0  0  0  0  0  0  0
  153.0257  141.7108  160.7718 C   0  0  0  0  0  0  0  0  0  0  0  0
  153.0110  142.7115  161.9371 C   0  0  0  0  0  0  0  0  0  0  0  0
  154.4426  141.3621  160.2941 C   0  0  0  0  0  0  0  0  0  0  0  0
  150.9991  141.5448  159.3227 N   0  0  0  0  0  0  0  0  0  0  0  0
  145.0929  135.7260  151.7076 H   0  0  0  0  0  0  0  0  0  0  0  0
  144.5931  137.1398  152.6320 H   0  0  0  0  0  0  0  0  0  0  0  0
  146.0880  136.2989  153.0402 H   0  0  0  0  0  0  0  0  0  0  0  0
  147.0717  136.9752  150.8262 H   0  0  0  0  0  0  0  0  0  0  0  0
  145.5765  137.7574  150.3891 H   0  0  0  0  0  0  0  0  0  0  0  0
  147.1409  139.4779  151.0962 H   0  0  0  0  0  0  0  0  0  0  0  0
  145.8594  139.3810  152.2803 H   0  0  0  0  0  0  0  0  0  0  0  0
  148.2818  137.7477  152.7666 H   0  0  0  0  0  0  0  0  0  0  0  0
  150.0874  138.9783  154.4071 H   0  0  0  0  0  0  0  0  0  0  0  0
  148.8498  136.7898  154.2790 H   0  0  0  0  0  0  0  0  0  0  0  0
  147.8604  137.2518  155.6627 H   0  0  0  0  0  0  0  0  0  0  0  0
  149.5899  136.9908  155.8589 H   0  0  0  0  0  0  0  0  0  0  0  0
  148.7377  139.1111  156.9460 H   0  0  0  0  0  0  0  0  0  0  0  0
  148.3238  142.2858  157.5952 H   0  0  0  0  0  0  0  0  0  0  0  0
  148.7267  140.7564  158.3403 H   0  0  0  0  0  0  0  0  0  0  0  0
  150.7962  143.8213  156.8653 H   0  0  0  0  0  0  0  0  0  0  0  0
  152.5938  140.7856  161.1552 H   0  0  0  0  0  0  0  0  0  0  0  0
  151.9963  142.8743  162.3017 H   0  0  0  0  0  0  0  0  0  0  0  0
  153.4134  143.6790  161.6345 H   0  0  0  0  0  0  0  0  0  0  0  0
  153.6094  142.3497  162.7735 H   0  0  0  0  0  0  0  0  0  0  0  0
  154.4175  140.5945  159.5200 H   0  0  0  0  0  0  0  0  0  0  0  0
  155.0514  140.9831  161.1154 H   0  0  0  0  0  0  0  0  0  0  0  0
  154.9481  142.2357  159.8817 H   0  0  0  0  0  0  0  0  0  0  0  0
  1  2  1  0  0  0  0
  1 21  1  0  0  0  0
  1 22  1  0  0  0  0
  1 23  1  0  0  0  0
  2  3  1  0  0  0  0
  2 24  1  0  0  0  0
  2 25  1  0  0  0  0
  3  4  1  0  0  0  0
  3 26  1  0  0  0  0
  3 27  1  0  0  0  0
  4  5  1  0  0  0  0
  4 28  1  0  0  0  0
  5  6  2  0  0  0  0
  5  7  1  0  0  0  0
  7  8  1  0  0  0  0
  7  9  1  0  0  0  0
  7 29  1  0  0  0  0
  8 30  1  0  0  0  0
  8 31  1  0  0  0  0
  8 32  1  0  0  0  0
  9 10  1  0  0  0  0
  9 33  1  0  0  0  0
 10 11  2  0  0  0  0
 10 12  1  0  0  0  0
 12 13  1  0  0  0  0
 12 34  1  0  0  0  0
 12 35  1  0  0  0  0
 13 20  1  0  0  0  0
 13 14  2  0  0  0  0
 14 15  1  0  0  0  0
 14 36  1  0  0  0  0
 15 16  1  0  0  0  0
 16 17  1  0  0  0  0
 16 20  2  0  0  0  0
 17 18  1  0  0  0  0
 17 19  1  0  0  0  0
 17 37  1  0  0  0  0
 18 38  1  0  0  0  0
 18 39  1  0  0  0  0
 18 40  1  0  0  0  0
 19 41  1  0  0  0  0
 19 42  1  0  0  0  0
 19 43  1  0  0  0  0
M  END
> <s_m_source_file>
AV-unprocessed.smi

> <i_m_source_file_index>
1336

> <i_lp_mmshare_version>
43012

> <i_f3d_flags>
0

> <s_epik_input>
W0NIM11bQ0gyXVtDSDJdW05IXUMoPU8pW0NASF0oW0NIM10pW05IXUMoPU8pW0NIMl1jMVtjSF1zYyhuMSlbQ0hdKFtDSDNdKVtDSDNd

> <s_epik_cmdline>
J2VwaWtfcHl0aG9uJywgJy1waCcsICc3LjAnLCAnLXRuJywgJzgnLCAnLW1hJywgJzIwMCcsICctbWV0YWxfYmluZGluZycsICctaW1hZScsICc8aW5maWxlLm1hZT4nLCAnLW9tYWUnLCAnPG91dGZpbGUubWFlPic=

> <r_lp_tautomer_probability>
1

> <r_epik_Ionization_Penalty>
3.10785e-05

> <r_epik_Ionization_Penalty_Charging>
0

> <r_epik_Ionization_Penalty_Neutral>
3.10785e-05

> <r_epik_State_Penalty>
-0

> <r_epik_Charging_Adjusted_Penalty>
0

> <i_epik_Tot_Q>
0

> <i_epik_Tot_abs_Q>
0

> <r_epik_Metal_State_Penalty>
-0

> <b_epik_Metal_Only>
0

> <s_lp_Force_Field>
OPLS_2005

> <r_lp_Energy>
-3.8093

> <b_lp_Chiralities_Consistent>
1

> <s_lp_Variant>
AV-unprocessed.smi:1336-1

> <Gold.Version>
5.8.1

> <Gold.Id.Protein>
6NUR|6NUR_protein|mol2

> <Gold.PLP.Fitness>
43.8739

> <Gold.PLP.PLP>
-39.0181

> <Gold.PLP.part.hbond>
-2.6127

> <Gold.PLP.part.metal>
0.0000

> <Gold.PLP.part.buried>
0.9706

> <Gold.PLP.part.nonpolar>
-37.5592

> <Gold.PLP.part.repulsive>
0.3332

> <Gold.PLP.ligand.clash>
0.0000

> <Gold.PLP.ligand.torsion>
0.6527

> <Gold.PLP.Chemscore.Hbond>
1.0000

> <Gold.PLP.Chemscore.CHOScore>
1.0000

> <Gold.PLP.Chemscore.Metal>
0.0000

> <Gold.Chemscore.Hbonds>
donor molecule, donor type, donor heavy atom, donor atom, acceptor molecule, acceptor atom, score
      L1  H     4    28       P1  7948  1.00
      L1  C    14    36       P1  8028  1.00

> <Gold.PLP.Chemscore.Internal.Correction>
0.1612

> <Gold.Rescore>
     Score         DG    S(hbond)    S(metal)    S(lipo)     H(rot)  DE(clash)    DE(int)     intcor
     14.11     -15.56       0.99        0.00     102.36       2.04       0.57       0.88       ----

> <Gold.Chemscore.Fitness>
14.1119

> <Gold.Chemscore.DG>
-15.5572

> <Gold.Chemscore.ZeroCoef>
-5.4800

> <Gold.Chemscore.Hbond>
0.9915

> <Gold.Chemscore.Metal>
0.0000

> <Gold.Chemscore.Lipo>
102.3603

> <Gold.Chemscore.Internal_Hbond>
0.0000

> <Gold.Chemscore.DEClash>
0.5696

> <Gold.Chemscore.DEInternal>
0.8757

> <Gold.Chemscore.Rot>
2.0353

> <Gold.Chemscore.Internal.Correction>
   9.000000E+99

> <Gold.Chemscore.Hbonds>
donor molecule, donor type, donor heavy atom, donor atom, acceptor molecule, acceptor atom, score
      L1  H     4    28       P1  7948  0.98

> <Gold.Chemscore.Hbond.Weighted>
-3.3115

> <Gold.Chemscore.Metal.Weighted>
-0.0000

> <Gold.Chemscore.Lipo.Weighted>
-11.9762

> <Gold.Chemscore.Internal_Hbond.Weighted>
0.0000

> <Gold.Chemscore.DEClash.Weighted>
0.5696

> <Gold.Chemscore.DEInternal.Weighted>
0.8757

> <Gold.Chemscore.Rot.Weighted>
5.2104

> <Gold.Chemscore.Internal.Correction.Weighted>
   9.000000E+99

> <Gold.Protein.RotatedTorsions>
[ 6907 6896 6895 6894 ] final -153.91 input  -60.11 | X-H torsion
[ 7974 7965 7964 7962 ] final -127.09 input  175.53 | X-H torsion
[ 8008 7997 7996 7995 ] final  123.94 input   59.86 | X-H torsion
[ 10167 10162 10161 10158 ] final  149.73 input  -65.29 | X-H torsion
[ 10718 10713 10712 10709 ] final   10.87 input   66.30 | X-H torsion
[ 10763 10752 10751 10750 ] final    8.45 input  -60.55 | X-H torsion
[ 11005 11000 10999 10996 ] final  -51.92 input  -57.11 | X-H torsion

> <Gold.Protein.ActiveResidues>
 VAL166  LYS551  ARG553  GLY616  TRP617  ASP618  TYR619  PRO620  LYS621  CYS622 
 ASP623  PHE694  ASN695  SER759  ASP760  ASP761  ALA762  ILE779  LEU786  VAL792 
 PHE793  MET794  SER795  GLU796  ALA797  LYS798  CYS799  TRP800  GLU811  SER814 

> <Gold.Protein.RotatedAtoms>
  151.2496  133.4357  159.2610 H   0  0  0  0  0  0  0  0  0  0  0  0  # atno 6907 bound_to 6896
  151.0629  134.9749  159.8280 H   0  0  0  0  0  0  0  0  0  0  0  0  # atno 6908 bound_to 6896
  152.5401  134.2446  159.8928 H   0  0  0  0  0  0  0  0  0  0  0  0  # atno 6909 bound_to 6896
  144.9807  140.7637  143.4614 H   0  0  0  0  0  0  0  0  0  0  0  0  # atno 7974 bound_to 7965
  156.2784  140.2751  156.1708 H   0  0  0  0  0  0  0  0  0  0  0  0  # atno 8008 bound_to 7997
  155.0657  140.0387  157.2609 H   0  0  0  0  0  0  0  0  0  0  0  0  # atno 8009 bound_to 7997
  154.7081  140.2663  155.6661 H   0  0  0  0  0  0  0  0  0  0  0  0  # atno 8010 bound_to 7997
  139.4858  144.5578  151.7285 H   0  0  0  0  0  0  0  0  0  0  0  0  # atno 10167 bound_to 10162
  156.9873  130.6028  149.5682 H   0  0  0  0  0  0  0  0  0  0  0  0  # atno 10718 bound_to 10713
  153.2249  135.6885  153.7957 H   0  0  0  0  0  0  0  0  0  0  0  0  # atno 10763 bound_to 10752
  153.7143  135.3277  155.3254 H   0  0  0  0  0  0  0  0  0  0  0  0  # atno 10764 bound_to 10752
  154.8287  135.4598  154.1111 H   0  0  0  0  0  0  0  0  0  0  0  0  # atno 10765 bound_to 10752
  141.0897  133.6635  156.3948 H   0  0  0  0  0  0  0  0  0  0  0  0  # atno 11005 bound_to 11000
  145.2426  139.2066  143.4985 LP  0  0  0  0  0  0  0  0  0  0  0  0  # atno 17320 bound_to 7965
  146.3407  140.2324  142.8593 LP  0  0  0  0  0  0  0  0  0  0  0  0  # atno 17321 bound_to 7965
  140.5143  144.0977  150.6004 LP  0  0  0  0  0  0  0  0  0  0  0  0  # atno 17342 bound_to 10162
  140.3913  143.2751  152.0057 LP  0  0  0  0  0  0  0  0  0  0  0  0  # atno 17343 bound_to 10162
  156.0221  130.5315  150.8304 LP  0  0  0  0  0  0  0  0  0  0  0  0  # atno 17370 bound_to 10713
  157.5484  131.0943  150.9730 LP  0  0  0  0  0  0  0  0  0  0  0  0  # atno 17371 bound_to 10713
  140.5281  134.6239  157.5341 LP  0  0  0  0  0  0  0  0  0  0  0  0  # atno 17394 bound_to 11000
  139.9720  134.7277  156.0022 LP  0  0  0  0  0  0  0  0  0  0  0  0  # atno 17395 bound_to 11000

$$$$
