AV-unprocessed.smi:265|AV-procd|sdf|2020|dock8
  -GOLD-   2262021223D 1   1.00000     0.00000
 Structure written by MMmdl.
 52 56  0  0  0  0  0  0  0  0  1 V2000
  145.3946  138.5789  156.4528 C   0  0  0  0  0  0  0  0  0  0  0  0
  146.3819  138.0514  155.3976 C   0  0  1  0  0  0  0  0  0  0  0  0
  146.0099  136.6995  155.1237 O   0  0  0  0  0  0  0  0  0  0  0  0
  145.9281  136.4828  153.7232 C   0  0  0  0  0  0  0  0  0  0  0  0
  145.5373  137.8455  153.1743 C   0  0  0  0  0  0  0  0  0  0  0  0
  146.3723  138.7895  154.0333 C   0  0  1  0  0  0  0  0  0  0  0  0
  145.7222  140.0470  154.0934 O   0  0  0  0  0  0  0  0  0  0  0  0
  147.8178  139.0100  153.5107 C   0  0  0  0  0  0  0  0  0  0  0  0
  148.6511  139.8331  154.3748 N   0  0  0  0  0  0  0  0  0  0  0  0
  149.0950  141.1096  154.1128 C   0  0  0  0  0  0  0  0  0  0  0  0
  149.8348  141.6447  155.0452 N   0  0  0  0  0  0  0  0  0  0  0  0
  149.9259  140.6546  156.0166 C   0  0  0  0  0  0  0  0  0  0  0  0
  150.5725  140.5642  157.2818 C   0  0  0  0  0  0  0  0  0  0  0  0
  151.3219  141.5727  157.7951 N   0  0  0  0  0  0  0  0  0  0  0  0
  150.7857  142.9308  157.7061 C   0  0  0  0  0  0  0  0  0  0  0  0
  151.8903  143.9690  157.9549 C   0  0  0  0  0  0  0  0  0  0  0  0
  152.6300  143.7113  159.2778 C   0  0  1  0  0  0  0  0  0  0  0  0
  151.7675  143.9581  160.3810 O   0  0  0  0  0  0  0  0  0  0  0  0
  152.4276  143.9184  161.6474 C   0  0  0  0  0  0  0  0  0  0  0  0
  153.2970  142.6582  161.8154 C   0  0  0  0  0  0  0  0  0  0  0  0
  153.6884  142.3282  162.9326 O   0  0  0  0  0  0  0  0  0  0  0  0
  153.6396  141.9745  160.7116 N   0  0  0  0  0  0  0  0  0  0  0  0
  153.1106  142.2472  159.3794 C   0  0  1  0  0  0  0  0  0  0  0  0
  151.9735  141.2544  159.0640 C   0  0  0  0  0  0  0  0  0  0  0  0
  150.4202  139.4066  157.9796 N   0  0  0  0  0  0  0  0  0  0  0  0
  149.6975  138.4029  157.4741 C   0  0  0  0  0  0  0  0  0  0  0  0
  149.0486  138.3465  156.3098 N   0  0  0  0  0  0  0  0  0  0  0  0
  149.1866  139.5080  155.6092 C   0  0  0  0  0  0  0  0  0  0  0  0
  153.4805  144.3933  159.3379 H   0  0  0  0  0  0  0  0  0  0  0  0
  153.9164  142.0922  158.6607 H   0  0  0  0  0  0  0  0  0  0  0  0
  145.6388  139.5991  156.7502 H   0  0  0  0  0  0  0  0  0  0  0  0
  145.4225  137.9620  157.3513 H   0  0  0  0  0  0  0  0  0  0  0  0
  144.3703  138.5712  156.0783 H   0  0  0  0  0  0  0  0  0  0  0  0
  147.3842  138.0564  155.8279 H   0  0  0  0  0  0  0  0  0  0  0  0
  146.9022  136.1722  153.3435 H   0  0  0  0  0  0  0  0  0  0  0  0
  145.2025  135.7064  153.4807 H   0  0  0  0  0  0  0  0  0  0  0  0
  145.6977  137.9390  152.1011 H   0  0  0  0  0  0  0  0  0  0  0  0
  144.4733  138.0060  153.3580 H   0  0  0  0  0  0  0  0  0  0  0  0
  145.1686  140.1359  153.3325 H   0  0  0  0  0  0  0  0  0  0  0  0
  148.3161  138.0496  153.3713 H   0  0  0  0  0  0  0  0  0  0  0  0
  147.7958  139.4791  152.5264 H   0  0  0  0  0  0  0  0  0  0  0  0
  148.8426  141.6391  153.2055 H   0  0  0  0  0  0  0  0  0  0  0  0
  150.3482  143.0994  156.7210 H   0  0  0  0  0  0  0  0  0  0  0  0
  149.9867  143.0529  158.4391 H   0  0  0  0  0  0  0  0  0  0  0  0
  152.6061  143.9298  157.1329 H   0  0  0  0  0  0  0  0  0  0  0  0
  151.4691  144.9747  157.9489 H   0  0  0  0  0  0  0  0  0  0  0  0
  153.0606  144.8002  161.7536 H   0  0  0  0  0  0  0  0  0  0  0  0
  151.6795  143.9596  162.4394 H   0  0  0  0  0  0  0  0  0  0  0  0
  154.2417  141.1707  160.8145 H   0  0  0  0  0  0  0  0  0  0  0  0
  151.2188  141.2881  159.8512 H   0  0  0  0  0  0  0  0  0  0  0  0
  152.3720  140.2402  159.0639 H   0  0  0  0  0  0  0  0  0  0  0  0
  149.6299  137.5186  158.0905 H   0  0  0  0  0  0  0  0  0  0  0  0
  1  2  1  0  0  0  0
  1 31  1  0  0  0  0
  1 32  1  0  0  0  0
  1 33  1  0  0  0  0
  2  6  1  0  0  0  0
  2  3  1  0  0  0  0
  2 34  1  0  0  0  0
  3  4  1  0  0  0  0
  4  5  1  0  0  0  0
  4 35  1  0  0  0  0
  4 36  1  0  0  0  0
  5  6  1  0  0  0  0
  5 37  1  0  0  0  0
  5 38  1  0  0  0  0
  6  7  1  0  0  0  0
  6  8  1  0  0  0  0
  7 39  1  0  0  0  0
  8  9  1  0  0  0  0
  8 40  1  0  0  0  0
  8 41  1  0  0  0  0
  9 28  1  0  0  0  0
  9 10  1  0  0  0  0
 10 11  2  0  0  0  0
 10 42  1  0  0  0  0
 11 12  1  0  0  0  0
 12 28  2  0  0  0  0
 12 13  1  0  0  0  0
 13 14  1  0  0  0  0
 13 25  2  0  0  0  0
 14 24  1  0  0  0  0
 14 15  1  0  0  0  0
 15 16  1  0  0  0  0
 15 43  1  0  0  0  0
 15 44  1  0  0  0  0
 16 17  1  0  0  0  0
 16 45  1  0  0  0  0
 16 46  1  0  0  0  0
 17 29  1  0  0  0  0
 17 23  1  0  0  0  0
 17 18  1  0  0  0  0
 18 19  1  0  0  0  0
 19 20  1  0  0  0  0
 19 47  1  0  0  0  0
 19 48  1  0  0  0  0
 20 21  2  0  0  0  0
 20 22  1  0  0  0  0
 22 23  1  0  0  0  0
 22 49  1  0  0  0  0
 23 30  1  0  0  0  0
 23 24  1  0  0  0  0
 24 50  1  0  0  0  0
 24 51  1  0  0  0  0
 25 26  1  0  0  0  0
 26 27  2  0  0  0  0
 26 52  1  0  0  0  0
 27 28  1  0  0  0  0
M  END
> <s_m_source_file>
AV-unprocessed.smi

> <i_m_source_file_index>
265

> <i_lp_mmshare_version>
43012

> <i_f3d_flags>
0

> <s_epik_input>
W0NIMl0xW0NIMl1PW0NAQEhdKFtDSDNdKVtDQEBdMShbT0hdKVtDSDJdbihbY0hdbjIpYyhjMjMpbltjSF1uYzNOKFtDSDJdW0NIMl00KVtDSDJdW0NAQEhdKFtDQEhdNDUpW05IXUMoPU8pW0NIMl1PNQ==

> <s_epik_cmdline>
J2VwaWtfcHl0aG9uJywgJy1waCcsICc3LjAnLCAnLXRuJywgJzgnLCAnLW1hJywgJzIwMCcsICctbWV0YWxfYmluZGluZycsICctaW1hZScsICc8aW5maWxlLm1hZT4nLCAnLW9tYWUnLCAnPG91dGZpbGUubWFlPic=

> <r_lp_tautomer_probability>
1

> <r_epik_Ionization_Penalty>
0.00221504

> <r_epik_Ionization_Penalty_Charging>
0

> <r_epik_Ionization_Penalty_Neutral>
0.00221504

> <r_epik_State_Penalty>
-0

> <r_epik_Charging_Adjusted_Penalty>
0

> <i_epik_Tot_Q>
0

> <i_epik_Tot_abs_Q>
0

> <r_epik_Metal_State_Penalty>
-0

> <b_epik_Metal_Only>
0

> <s_lp_Force_Field>
OPLS_2005

> <r_lp_Energy>
44.9484

> <b_lp_Chiralities_Consistent>
1

> <s_lp_Variant>
AV-unprocessed.smi:265-6

> <Gold.Version>
5.8.1

> <Gold.Id.Protein>
6NUR|6NUR_protein|mol2

> <Gold.PLP.Fitness>
43.6382

> <Gold.PLP.PLP>
-40.3078

> <Gold.PLP.part.hbond>
-2.1710

> <Gold.PLP.part.metal>
0.0000

> <Gold.PLP.part.buried>
-4.9877

> <Gold.PLP.part.nonpolar>
-31.5800

> <Gold.PLP.part.repulsive>
0.3595

> <Gold.PLP.ligand.clash>
0.0000

> <Gold.PLP.ligand.torsion>
0.3241

> <Gold.PLP.Chemscore.Hbond>
1.0000

> <Gold.PLP.Chemscore.CHOScore>
0.2071

> <Gold.PLP.Chemscore.Metal>
0.0000

> <Gold.Chemscore.Hbonds>
donor molecule, donor type, donor heavy atom, donor atom, acceptor molecule, acceptor atom, score
      L1  H     7    39       P1 10175  1.00
      L1  C    10    42       P1  7957  0.32

> <Gold.PLP.Chemscore.Internal.Correction>
0.3572

> <Gold.Rescore>
     Score         DG    S(hbond)    S(metal)    S(lipo)     H(rot)  DE(clash)    DE(int)     intcor
     11.52     -13.16       1.00        0.00      86.20       2.25       0.02       1.62       ----

> <Gold.Chemscore.Fitness>
11.5188

> <Gold.Chemscore.DG>
-13.1575

> <Gold.Chemscore.ZeroCoef>
-5.4800

> <Gold.Chemscore.Hbond>
1.0000

> <Gold.Chemscore.Metal>
0.0000

> <Gold.Chemscore.Lipo>
86.2002

> <Gold.Chemscore.Internal_Hbond>
0.0000

> <Gold.Chemscore.DEClash>
0.0217

> <Gold.Chemscore.DEInternal>
1.6170

> <Gold.Chemscore.Rot>
2.2453

> <Gold.Chemscore.Internal.Correction>
   9.000000E+99

> <Gold.Chemscore.Hbonds>
donor molecule, donor type, donor heavy atom, donor atom, acceptor molecule, acceptor atom, score
      L1  H     7    39       P1 10175  0.99

> <Gold.Chemscore.Hbond.Weighted>
-3.3400

> <Gold.Chemscore.Metal.Weighted>
-0.0000

> <Gold.Chemscore.Lipo.Weighted>
-10.0854

> <Gold.Chemscore.Internal_Hbond.Weighted>
0.0000

> <Gold.Chemscore.DEClash.Weighted>
0.0217

> <Gold.Chemscore.DEInternal.Weighted>
1.6170

> <Gold.Chemscore.Rot.Weighted>
5.7479

> <Gold.Chemscore.Internal.Correction.Weighted>
   9.000000E+99

> <Gold.Protein.RotatedTorsions>
[ 6907 6896 6895 6894 ] final -136.87 input  -60.11 | X-H torsion
[ 7974 7965 7964 7962 ] final   92.90 input  175.53 | X-H torsion
[ 8008 7997 7996 7995 ] final    8.41 input   59.86 | X-H torsion
[ 10167 10162 10161 10158 ] final   58.76 input  -65.29 | X-H torsion
[ 10718 10713 10712 10709 ] final  140.10 input   66.30 | X-H torsion
[ 10763 10752 10751 10750 ] final  118.33 input  -60.55 | X-H torsion
[ 11005 11000 10999 10996 ] final  -36.12 input  -57.11 | X-H torsion

> <Gold.Protein.ActiveResidues>
 VAL166  LYS551  ARG553  GLY616  TRP617  ASP618  TYR619  PRO620  LYS621  CYS622 
 ASP623  PHE694  ASN695  SER759  ASP760  ASP761  ALA762  ILE779  LEU786  VAL792 
 PHE793  MET794  SER795  GLU796  ALA797  LYS798  CYS799  TRP800  GLU811  SER814 

> <Gold.Protein.RotatedAtoms>
  151.0155  133.5925  159.2677 H   0  0  0  0  0  0  0  0  0  0  0  0  # atno 6907 bound_to 6896
  151.3061  135.0781  159.9266 H   0  0  0  0  0  0  0  0  0  0  0  0  # atno 6908 bound_to 6896
  152.5310  133.9828  159.7868 H   0  0  0  0  0  0  0  0  0  0  0  0  # atno 6909 bound_to 6896
  145.4860  139.2277  143.2856 H   0  0  0  0  0  0  0  0  0  0  0  0  # atno 7974 bound_to 7965
  154.7665  140.2794  155.6172 H   0  0  0  0  0  0  0  0  0  0  0  0  # atno 8008 bound_to 7997
  156.2926  140.2650  156.2384 H   0  0  0  0  0  0  0  0  0  0  0  0  # atno 8009 bound_to 7997
  154.9952  140.0373  157.2326 H   0  0  0  0  0  0  0  0  0  0  0  0  # atno 8010 bound_to 7997
  140.1838  144.4155  150.6603 H   0  0  0  0  0  0  0  0  0  0  0  0  # atno 10167 bound_to 10162
  157.4071  131.1023  151.0493 H   0  0  0  0  0  0  0  0  0  0  0  0  # atno 10718 bound_to 10713
  153.5659  135.3511  155.2818 H   0  0  0  0  0  0  0  0  0  0  0  0  # atno 10763 bound_to 10752
  154.8688  135.4148  154.2779 H   0  0  0  0  0  0  0  0  0  0  0  0  # atno 10764 bound_to 10752
  153.3534  135.7056  153.6839 H   0  0  0  0  0  0  0  0  0  0  0  0  # atno 10765 bound_to 10752
  140.9850  133.7035  156.1750 H   0  0  0  0  0  0  0  0  0  0  0  0  # atno 11005 bound_to 11000
  146.2312  140.5651  142.8974 LP  0  0  0  0  0  0  0  0  0  0  0  0  # atno 17320 bound_to 7965
  144.7861  140.5939  143.6573 LP  0  0  0  0  0  0  0  0  0  0  0  0  # atno 17321 bound_to 7965
  140.6502  143.2223  151.6094 LP  0  0  0  0  0  0  0  0  0  0  0  0  # atno 17342 bound_to 10162
  139.5285  144.2987  152.1092 LP  0  0  0  0  0  0  0  0  0  0  0  0  # atno 17343 bound_to 10162
  157.1471  130.6168  149.5571 LP  0  0  0  0  0  0  0  0  0  0  0  0  # atno 17370 bound_to 10713
  155.9839  130.4862  150.6959 LP  0  0  0  0  0  0  0  0  0  0  0  0  # atno 17371 bound_to 10713
  140.7128  134.4443  157.5580 LP  0  0  0  0  0  0  0  0  0  0  0  0  # atno 17394 bound_to 11000
  139.8966  134.8654  156.2078 LP  0  0  0  0  0  0  0  0  0  0  0  0  # atno 17395 bound_to 11000

$$$$
