AV-unprocessed.smi:3303|AV-procd|sdf|12667|dock4
  -GOLD-   2272019 03D 1   1.00000     0.00000
 Structure written by MMmdl.
 45 46  0  0  0  0  0  0  0  0  3 V2000
  146.7198  142.3372  155.4540 C   0  0  0  0  0  0  0  0  0  0  0  0
  147.9354  141.9125  154.6030 C   0  0  2  0  0  0  0  0  0  0  0  0
  147.5805  140.7260  153.6827 C   0  0  0  0  0  0  0  0  0  0  0  0
  147.4090  139.4686  154.4566 N   0  3  1  0  0  0  0  0  0  0  0  0
  146.8567  138.3635  153.6403 C   0  0  0  0  0  0  0  0  0  0  0  0
  148.6069  139.0954  155.2642 C   0  0  1  0  0  0  0  0  0  0  0  0
  149.7913  138.5872  154.4134 C   0  0  0  0  0  0  0  0  0  0  0  0
  149.0138  140.2581  156.1964 C   0  0  0  0  0  0  0  0  0  0  0  0
  149.2032  141.5832  155.4259 C   0  0  2  0  0  0  0  0  0  0  0  0
  149.5699  142.7097  156.3165 N   0  3  0  0  0  0  0  0  0  0  0  0
  150.9467  142.6736  156.8528 C   0  0  0  0  0  0  0  0  0  0  0  0
  151.3820  144.0638  157.3364 C   0  0  0  0  0  0  0  0  0  0  0  0
  151.6788  144.0878  158.8237 C   0  0  0  0  0  0  0  0  0  0  0  0
  152.5756  143.1608  159.3962 C   0  0  0  0  0  0  0  0  0  0  0  0
  152.8141  143.2278  160.7828 C   0  0  0  0  0  0  0  0  0  0  0  0
  152.1486  144.2118  161.5387 C   0  0  0  0  0  0  0  0  0  0  0  0
  151.2710  145.0898  160.8722 C   0  0  0  0  0  0  0  0  0  0  0  0
  151.0354  145.0346  159.5431 N   0  0  0  0  0  0  0  0  0  0  0  0
  146.3938  141.5461  156.1288 H   0  0  0  0  0  0  0  0  0  0  0  0
  145.8713  142.5896  154.8174 H   0  0  0  0  0  0  0  0  0  0  0  0
  146.9364  143.2190  156.0567 H   0  0  0  0  0  0  0  0  0  0  0  0
  148.1730  142.7603  153.9585 H   0  0  0  0  0  0  0  0  0  0  0  0
  146.6607  140.9471  153.1390 H   0  0  0  0  0  0  0  0  0  0  0  0
  148.3535  140.5904  152.9254 H   0  0  0  0  0  0  0  0  0  0  0  0
  147.5067  138.1225  152.7985 H   0  0  0  0  0  0  0  0  0  0  0  0
  145.8810  138.6405  153.2398 H   0  0  0  0  0  0  0  0  0  0  0  0
  146.7226  137.4648  154.2433 H   0  0  0  0  0  0  0  0  0  0  0  0
  148.3060  138.2671  155.9075 H   0  0  0  0  0  0  0  0  0  0  0  0
  150.6410  138.3364  155.0489 H   0  0  0  0  0  0  0  0  0  0  0  0
  150.1352  139.3268  153.6911 H   0  0  0  0  0  0  0  0  0  0  0  0
  149.5353  137.6814  153.8642 H   0  0  0  0  0  0  0  0  0  0  0  0
  148.2519  140.3865  156.9660 H   0  0  0  0  0  0  0  0  0  0  0  0
  149.9254  139.9865  156.7285 H   0  0  0  0  0  0  0  0  0  0  0  0
  150.0244  141.4597  154.7186 H   0  0  0  0  0  0  0  0  0  0  0  0
  149.4813  143.5632  155.7832 H   0  0  0  0  0  0  0  0  0  0  0  0
  151.0025  141.9641  157.6783 H   0  0  0  0  0  0  0  0  0  0  0  0
  151.6285  142.3222  156.0771 H   0  0  0  0  0  0  0  0  0  0  0  0
  152.2678  144.3887  156.7886 H   0  0  0  0  0  0  0  0  0  0  0  0
  150.6029  144.7971  157.1219 H   0  0  0  0  0  0  0  0  0  0  0  0
  153.0725  142.4167  158.7913 H   0  0  0  0  0  0  0  0  0  0  0  0
  153.4955  142.5372  161.2575 H   0  0  0  0  0  0  0  0  0  0  0  0
  152.3081  144.2931  162.6038 H   0  0  0  0  0  0  0  0  0  0  0  0
  150.7440  145.8562  161.4209 H   0  0  0  0  0  0  0  0  0  0  0  0
  148.9162  142.7468  157.0857 H   0  0  0  0  0  0  0  0  0  0  0  0
  146.6897  139.6727  155.1361 H   0  0  0  0  0  0  0  0  0  0  0  0
  1  2  1  0  0  0  0
  1 19  1  0  0  0  0
  1 20  1  0  0  0  0
  1 21  1  0  0  0  0
  2  9  1  0  0  0  0
  2  3  1  0  0  0  0
  2 22  1  0  0  0  0
  3  4  1  0  0  0  0
  3 23  1  0  0  0  0
  3 24  1  0  0  0  0
  4  5  1  0  0  0  0
  4  6  1  0  0  0  0
  4 45  1  0  0  0  0
  5 25  1  0  0  0  0
  5 26  1  0  0  0  0
  5 27  1  0  0  0  0
  6  7  1  0  0  0  0
  6  8  1  0  0  0  0
  6 28  1  0  0  0  0
  7 29  1  0  0  0  0
  7 30  1  0  0  0  0
  7 31  1  0  0  0  0
  8  9  1  0  0  0  0
  8 32  1  0  0  0  0
  8 33  1  0  0  0  0
  9 10  1  0  0  0  0
  9 34  1  0  0  0  0
 10 11  1  0  0  0  0
 10 35  1  0  0  0  0
 10 44  1  0  0  0  0
 11 12  1  0  0  0  0
 11 36  1  0  0  0  0
 11 37  1  0  0  0  0
 12 13  1  0  0  0  0
 12 38  1  0  0  0  0
 12 39  1  0  0  0  0
 13 18  1  0  0  0  0
 13 14  2  0  0  0  0
 14 15  1  0  0  0  0
 14 40  1  0  0  0  0
 15 16  2  0  0  0  0
 15 41  1  0  0  0  0
 16 17  1  0  0  0  0
 16 42  1  0  0  0  0
 17 18  2  0  0  0  0
 17 43  1  0  0  0  0
M  CHG  1   4   1
M  CHG  1  10   1
M  END
> <s_m_source_file>
AV-unprocessed.smi

> <i_m_source_file_index>
3303

> <i_lp_mmshare_version>
43012

> <i_f3d_flags>
0

> <s_epik_input>
W0NIM11bQ0BASF0xW0NIMl1OKFtDSDNdKVtDQEBIXShbQ0gzXSlbQ0gyXVtDQEhdMVtOSF1bQ0gyXVtDSDJdYzJbY0hdW2NIXVtjSF1bY0hdbjI=

> <s_epik_cmdline>
J2VwaWtfcHl0aG9uJywgJy1waCcsICc3LjAnLCAnLXRuJywgJzgnLCAnLW1hJywgJzIwMCcsICctbWV0YWxfYmluZGluZycsICctaW1hZScsICc8aW5maWxlLm1hZT4nLCAnLW9tYWUnLCAnPG91dGZpbGUubWFlPic=

> <r_epik_Ionization_Penalty>
0.0769462

> <r_epik_Ionization_Penalty_Charging>
0.0759813

> <r_epik_Ionization_Penalty_Neutral>
0.000964829

> <r_epik_State_Penalty>
0.0654373

> <r_epik_Charging_Adjusted_Penalty>
0.141419

> <i_epik_Tot_Q>
2

> <i_epik_Tot_abs_Q>
2

> <r_epik_Metal_State_Penalty>
0.0656439

> <b_epik_Metal_Only>
0

> <s_lp_Force_Field>
OPLS_2005

> <r_lp_Energy>
31.612

> <b_lp_Chiralities_Consistent>
1

> <s_lp_Variant>
AV-unprocessed.smi:3303-11

> <Gold.Version>
5.8.1

> <Gold.Id.Protein>
6NUR|6NUR_protein|mol2

> <Gold.PLP.Fitness>
43.4137

> <Gold.PLP.PLP>
-38.6377

> <Gold.PLP.part.hbond>
-0.7883

> <Gold.PLP.part.metal>
0.0000

> <Gold.PLP.part.buried>
-3.4695

> <Gold.PLP.part.nonpolar>
-35.3533

> <Gold.PLP.part.repulsive>
0.1619

> <Gold.PLP.ligand.clash>
0.0000

> <Gold.PLP.ligand.torsion>
0.6203

> <Gold.PLP.Chemscore.Hbond>
2.0000

> <Gold.PLP.Chemscore.CHOScore>
0.0000

> <Gold.PLP.Chemscore.Metal>
0.0000

> <Gold.Chemscore.Hbonds>
donor molecule, donor type, donor heavy atom, donor atom, acceptor molecule, acceptor atom, score
      L1  H    10    35       P1  8028  0.83

> <Gold.PLP.Chemscore.Internal.Correction>
0.0166

> <Gold.Rescore>
     Score         DG    S(hbond)    S(metal)    S(lipo)     H(rot)  DE(clash)    DE(int)     intcor
     18.36     -19.15       0.88        0.00     121.83       1.37       0.16       0.63       ----

> <Gold.Chemscore.Fitness>
18.3560

> <Gold.Chemscore.DG>
-19.1472

> <Gold.Chemscore.ZeroCoef>
-5.4800

> <Gold.Chemscore.Hbond>
0.8776

> <Gold.Chemscore.Metal>
0.0000

> <Gold.Chemscore.Lipo>
121.8336

> <Gold.Chemscore.Internal_Hbond>
0.0000

> <Gold.Chemscore.DEClash>
0.1573

> <Gold.Chemscore.DEInternal>
0.6339

> <Gold.Chemscore.Rot>
1.3744

> <Gold.Chemscore.Internal.Correction>
   9.000000E+99

> <Gold.Chemscore.Hbonds>
donor molecule, donor type, donor heavy atom, donor atom, acceptor molecule, acceptor atom, score
      L1  H    10    35       P1  8028  0.40

> <Gold.Chemscore.Hbond.Weighted>
-2.9311

> <Gold.Chemscore.Metal.Weighted>
-0.0000

> <Gold.Chemscore.Lipo.Weighted>
-14.2545

> <Gold.Chemscore.Internal_Hbond.Weighted>
0.0000

> <Gold.Chemscore.DEClash.Weighted>
0.1573

> <Gold.Chemscore.DEInternal.Weighted>
0.6339

> <Gold.Chemscore.Rot.Weighted>
3.5185

> <Gold.Chemscore.Internal.Correction.Weighted>
   9.000000E+99

> <Gold.Protein.RotatedTorsions>
[ 6907 6896 6895 6894 ] final   25.37 input  -60.11 | X-H torsion
[ 7974 7965 7964 7962 ] final   -1.65 input  175.53 | X-H torsion
[ 8008 7997 7996 7995 ] final  160.37 input   59.86 | X-H torsion
[ 10167 10162 10161 10158 ] final  -25.85 input  -65.29 | X-H torsion
[ 10718 10713 10712 10709 ] final  119.35 input   66.30 | X-H torsion
[ 10763 10752 10751 10750 ] final -103.32 input  -60.55 | X-H torsion
[ 11005 11000 10999 10996 ] final -125.90 input  -57.11 | X-H torsion

> <Gold.Protein.ActiveResidues>
 VAL166  LYS551  ARG553  GLY616  TRP617  ASP618  TYR619  PRO620  LYS621  CYS622 
 ASP623  PHE694  ASN695  SER759  ASP760  ASP761  ALA762  ILE779  LEU786  VAL792 
 PHE793  MET794  SER795  GLU796  ALA797  LYS798  CYS799  TRP800  GLU811  SER814 

> <Gold.Protein.RotatedAtoms>
  151.9716  135.0074  160.0552 H   0  0  0  0  0  0  0  0  0  0  0  0  # atno 6907 bound_to 6896
  152.1778  133.4682  159.4951 H   0  0  0  0  0  0  0  0  0  0  0  0  # atno 6908 bound_to 6896
  150.6912  134.1789  159.4284 H   0  0  0  0  0  0  0  0  0  0  0  0  # atno 6909 bound_to 6896
  146.2414  140.1453  142.8335 H   0  0  0  0  0  0  0  0  0  0  0  0  # atno 7974 bound_to 7965
  156.2177  140.1806  156.7551 H   0  0  0  0  0  0  0  0  0  0  0  0  # atno 8008 bound_to 7997
  154.5816  140.0665  156.9141 H   0  0  0  0  0  0  0  0  0  0  0  0  # atno 8009 bound_to 7997
  155.2492  140.3327  155.4286 H   0  0  0  0  0  0  0  0  0  0  0  0  # atno 8010 bound_to 7997
  140.7285  143.4229  151.0922 H   0  0  0  0  0  0  0  0  0  0  0  0  # atno 10167 bound_to 10162
  157.5968  131.1057  150.7883 H   0  0  0  0  0  0  0  0  0  0  0  0  # atno 10718 bound_to 10713
  154.7799  135.4827  153.9822 H   0  0  0  0  0  0  0  0  0  0  0  0  # atno 10763 bound_to 10752
  153.1479  135.6785  153.8934 H   0  0  0  0  0  0  0  0  0  0  0  0  # atno 10764 bound_to 10752
  153.8587  135.3158  155.3415 H   0  0  0  0  0  0  0  0  0  0  0  0  # atno 10765 bound_to 10752
  140.9725  134.0786  157.3854 H   0  0  0  0  0  0  0  0  0  0  0  0  # atno 11005 bound_to 11000
  145.0213  140.8796  143.5165 LP  0  0  0  0  0  0  0  0  0  0  0  0  # atno 17320 bound_to 7965
  145.1502  139.2519  143.5445 LP  0  0  0  0  0  0  0  0  0  0  0  0  # atno 17321 bound_to 7965
  139.7877  143.8264  152.3147 LP  0  0  0  0  0  0  0  0  0  0  0  0  # atno 17342 bound_to 10162
  139.8237  144.7285  150.9540 LP  0  0  0  0  0  0  0  0  0  0  0  0  # atno 17343 bound_to 10162
  156.8292  130.5010  149.5333 LP  0  0  0  0  0  0  0  0  0  0  0  0  # atno 17370 bound_to 10713
  156.1032  130.5985  150.9928 LP  0  0  0  0  0  0  0  0  0  0  0  0  # atno 17371 bound_to 10713
  139.8917  135.0120  156.6809 LP  0  0  0  0  0  0  0  0  0  0  0  0  # atno 17394 bound_to 11000
  140.7308  133.9061  155.8210 LP  0  0  0  0  0  0  0  0  0  0  0  0  # atno 17395 bound_to 11000

$$$$
