AV-unprocessed.smi:2382|AV-procd|sdf|9458|dock3
  -GOLD-   2272013 83D 1   1.00000     0.00000
 Structure written by MMmdl.
 37 38  0  0  0  0  0  0  0  0  1 V2000
  151.8618  145.2280  160.1049 C   0  0  0  0  0  0  0  0  0  0  0  0
  152.1747  143.7596  160.0610 C   0  0  0  0  0  0  0  0  0  0  0  0
  153.0805  143.2657  160.8890 N   0  0  0  0  0  0  0  0  0  0  0  0
  153.1257  141.9485  160.6040 N   0  0  0  0  0  0  0  0  0  0  0  0
  154.0317  141.0916  161.3439 C   0  0  0  0  0  0  0  0  0  0  0  0
  152.2447  141.6095  159.5951 C   0  0  0  0  0  0  0  0  0  0  0  0
  152.0986  140.2077  159.0972 C   0  0  0  0  0  0  0  0  0  0  0  0
  151.6130  142.7616  159.2118 C   0  0  0  0  0  0  0  0  0  0  0  0
  150.5631  142.9487  158.1503 C   0  0  0  0  0  0  0  0  0  0  0  0
  150.9879  142.2980  156.8245 C   0  0  0  0  0  0  0  0  0  0  0  0
  149.8470  142.0790  155.9447 N   0  0  0  0  0  0  0  0  0  0  0  0
  149.7414  141.0801  155.0543 C   0  0  0  0  0  0  0  0  0  0  0  0
  150.6024  140.2166  154.8885 O   0  0  0  0  0  0  0  0  0  0  0  0
  148.5748  141.0875  154.3904 N   0  0  0  0  0  0  0  0  0  0  0  0
  147.6101  142.1424  154.0993 C   0  0  0  0  0  0  0  0  0  0  0  0
  146.8173  141.0782  153.3421 C   0  0  0  0  0  0  0  0  0  0  0  0
  148.0439  140.1684  153.3936 C   0  0  0  0  0  0  0  0  0  0  0  0
  150.8368  145.4231  159.7895 H   0  0  0  0  0  0  0  0  0  0  0  0
  152.5243  145.7868  159.4441 H   0  0  0  0  0  0  0  0  0  0  0  0
  151.9771  145.6313  161.1114 H   0  0  0  0  0  0  0  0  0  0  0  0
  154.6249  140.4964  160.6495 H   0  0  0  0  0  0  0  0  0  0  0  0
  153.4584  140.4237  161.9868 H   0  0  0  0  0  0  0  0  0  0  0  0
  154.7060  141.6857  161.9619 H   0  0  0  0  0  0  0  0  0  0  0  0
  151.1836  140.0901  158.5167 H   0  0  0  0  0  0  0  0  0  0  0  0
  152.0575  139.4995  159.9249 H   0  0  0  0  0  0  0  0  0  0  0  0
  152.9393  139.9357  158.4591 H   0  0  0  0  0  0  0  0  0  0  0  0
  149.6133  142.5243  158.4781 H   0  0  0  0  0  0  0  0  0  0  0  0
  150.3659  144.0087  157.9858 H   0  0  0  0  0  0  0  0  0  0  0  0
  151.6965  142.9431  156.3041 H   0  0  0  0  0  0  0  0  0  0  0  0
  151.5042  141.3542  157.0084 H   0  0  0  0  0  0  0  0  0  0  0  0
  149.0800  142.7313  156.0185 H   0  0  0  0  0  0  0  0  0  0  0  0
  147.0892  142.5395  154.9713 H   0  0  0  0  0  0  0  0  0  0  0  0
  148.0043  142.9339  153.4606 H   0  0  0  0  0  0  0  0  0  0  0  0
  145.9760  140.6875  153.9167 H   0  0  0  0  0  0  0  0  0  0  0  0
  146.5171  141.3721  152.3358 H   0  0  0  0  0  0  0  0  0  0  0  0
  148.6168  140.1493  152.4653 H   0  0  0  0  0  0  0  0  0  0  0  0
  147.8325  139.1651  153.7651 H   0  0  0  0  0  0  0  0  0  0  0  0
  1  2  1  0  0  0  0
  1 18  1  0  0  0  0
  1 19  1  0  0  0  0
  1 20  1  0  0  0  0
  2  8  1  0  0  0  0
  2  3  2  0  0  0  0
  3  4  1  0  0  0  0
  4  5  1  0  0  0  0
  4  6  1  0  0  0  0
  5 21  1  0  0  0  0
  5 22  1  0  0  0  0
  5 23  1  0  0  0  0
  6  7  1  0  0  0  0
  6  8  2  0  0  0  0
  7 24  1  0  0  0  0
  7 25  1  0  0  0  0
  7 26  1  0  0  0  0
  8  9  1  0  0  0  0
  9 10  1  0  0  0  0
  9 27  1  0  0  0  0
  9 28  1  0  0  0  0
 10 11  1  0  0  0  0
 10 29  1  0  0  0  0
 10 30  1  0  0  0  0
 11 12  1  0  0  0  0
 11 31  1  0  0  0  0
 12 13  2  0  0  0  0
 12 14  1  0  0  0  0
 14 17  1  0  0  0  0
 14 15  1  0  0  0  0
 15 16  1  0  0  0  0
 15 32  1  0  0  0  0
 15 33  1  0  0  0  0
 16 17  1  0  0  0  0
 16 34  1  0  0  0  0
 16 35  1  0  0  0  0
 17 36  1  0  0  0  0
 17 37  1  0  0  0  0
M  END
> <s_m_source_file>
AV-unprocessed.smi

> <i_m_source_file_index>
2382

> <i_lp_mmshare_version>
43012

> <i_f3d_flags>
0

> <s_epik_input>
W0NIM11jMW5uKFtDSDNdKWMoW0NIM10pYzFbQ0gyXVtDSDJdW05IXUMoPU8pTjJbQ0gyXVtDSDJdW0NIMl0y

> <s_epik_cmdline>
J2VwaWtfcHl0aG9uJywgJy1waCcsICc3LjAnLCAnLXRuJywgJzgnLCAnLW1hJywgJzIwMCcsICctbWV0YWxfYmluZGluZycsICctaW1hZScsICc8aW5maWxlLm1hZT4nLCAnLW9tYWUnLCAnPG91dGZpbGUubWFlPic=

> <r_lp_tautomer_probability>
1

> <r_epik_Ionization_Penalty>
0.0127252

> <r_epik_Ionization_Penalty_Charging>
0

> <r_epik_Ionization_Penalty_Neutral>
0.0127252

> <r_epik_State_Penalty>
0.00981091

> <r_epik_Charging_Adjusted_Penalty>
0.00981091

> <i_epik_Tot_Q>
0

> <i_epik_Tot_abs_Q>
0

> <r_epik_Metal_State_Penalty>
0.00960532

> <b_epik_Metal_Only>
0

> <s_lp_Force_Field>
OPLS_2005

> <r_lp_Energy>
14.7801

> <b_lp_Chiralities_Consistent>
1

> <s_lp_Variant>
AV-unprocessed.smi:2382-1

> <Gold.Version>
5.8.1

> <Gold.Id.Protein>
6NUR|6NUR_protein|mol2

> <Gold.PLP.Fitness>
45.1319

> <Gold.PLP.PLP>
-40.8288

> <Gold.PLP.part.hbond>
-2.0000

> <Gold.PLP.part.metal>
0.0000

> <Gold.PLP.part.buried>
-0.9938

> <Gold.PLP.part.nonpolar>
-37.6935

> <Gold.PLP.part.repulsive>
0.2117

> <Gold.PLP.ligand.clash>
0.0000

> <Gold.PLP.ligand.torsion>
0.4839

> <Gold.PLP.Chemscore.Hbond>
1.7200

> <Gold.PLP.Chemscore.CHOScore>
0.0000

> <Gold.PLP.Chemscore.Metal>
0.0000

> <Gold.Chemscore.Hbonds>
donor molecule, donor type, donor heavy atom, donor atom, acceptor molecule, acceptor atom, score
      L1  H    11    31       P1  8028  0.69
      P1  H  7989  7998       L1    13  1.00

> <Gold.PLP.Chemscore.Internal.Correction>
0.1109

> <Gold.Rescore>
     Score         DG    S(hbond)    S(metal)    S(lipo)     H(rot)  DE(clash)    DE(int)     intcor
     16.59     -18.35       1.50        0.00      98.00       1.40       1.35       0.42       ----

> <Gold.Chemscore.Fitness>
16.5867

> <Gold.Chemscore.DG>
-18.3548

> <Gold.Chemscore.ZeroCoef>
-5.4800

> <Gold.Chemscore.Hbond>
1.4964

> <Gold.Chemscore.Metal>
0.0000

> <Gold.Chemscore.Lipo>
97.9984

> <Gold.Chemscore.Internal_Hbond>
0.0000

> <Gold.Chemscore.DEClash>
1.3473

> <Gold.Chemscore.DEInternal>
0.4207

> <Gold.Chemscore.Rot>
1.4020

> <Gold.Chemscore.Internal.Correction>
   9.000000E+99

> <Gold.Chemscore.Hbonds>
donor molecule, donor type, donor heavy atom, donor atom, acceptor molecule, acceptor atom, score
      L1  H    11    31       P1  8028  0.64
      P1  H  7989  7998       L1    13  0.45

> <Gold.Chemscore.Hbond.Weighted>
-4.9980

> <Gold.Chemscore.Metal.Weighted>
-0.0000

> <Gold.Chemscore.Lipo.Weighted>
-11.4658

> <Gold.Chemscore.Internal_Hbond.Weighted>
0.0000

> <Gold.Chemscore.DEClash.Weighted>
1.3473

> <Gold.Chemscore.DEInternal.Weighted>
0.4207

> <Gold.Chemscore.Rot.Weighted>
3.5890

> <Gold.Chemscore.Internal.Correction.Weighted>
   9.000000E+99

> <Gold.Protein.RotatedTorsions>
[ 6907 6896 6895 6894 ] final   40.51 input  -60.11 | X-H torsion
[ 7974 7965 7964 7962 ] final -176.78 input  175.53 | X-H torsion
[ 8008 7997 7996 7995 ] final  111.27 input   59.86 | X-H torsion
[ 10167 10162 10161 10158 ] final  112.84 input  -65.29 | X-H torsion
[ 10718 10713 10712 10709 ] final   86.32 input   66.30 | X-H torsion
[ 10763 10752 10751 10750 ] final  -14.43 input  -60.55 | X-H torsion
[ 11005 11000 10999 10996 ] final  171.49 input  -57.11 | X-H torsion

> <Gold.Protein.ActiveResidues>
 VAL166  LYS551  ARG553  GLY616  TRP617  ASP618  TYR619  PRO620  LYS621  CYS622 
 ASP623  PHE694  ASN695  SER759  ASP760  ASP761  ALA762  ILE779  LEU786  VAL792 
 PHE793  MET794  SER795  GLU796  ALA797  LYS798  CYS799  TRP800  GLU811  SER814 

> <Gold.Protein.RotatedAtoms>
  152.1834  134.8734  160.0524 H   0  0  0  0  0  0  0  0  0  0  0  0  # atno 6907 bound_to 6896
  151.9650  133.3702  159.4058 H   0  0  0  0  0  0  0  0  0  0  0  0  # atno 6908 bound_to 6896
  150.6921  134.4124  159.5211 H   0  0  0  0  0  0  0  0  0  0  0  0  # atno 6909 bound_to 6896
  144.7127  140.1119  143.6410 H   0  0  0  0  0  0  0  0  0  0  0  0  # atno 7974 bound_to 7965
  156.2112  140.3022  155.9736 H   0  0  0  0  0  0  0  0  0  0  0  0  # atno 8008 bound_to 7997
  155.2720  140.0434  157.3025 H   0  0  0  0  0  0  0  0  0  0  0  0  # atno 8009 bound_to 7997
  154.5702  140.2346  155.8212 H   0  0  0  0  0  0  0  0  0  0  0  0  # atno 8010 bound_to 7997
  139.6505  144.7128  151.2057 H   0  0  0  0  0  0  0  0  0  0  0  0  # atno 10167 bound_to 10162
  157.6927  131.0210  150.2954 H   0  0  0  0  0  0  0  0  0  0  0  0  # atno 10718 bound_to 10713
  153.5281  135.7015  153.5697 H   0  0  0  0  0  0  0  0  0  0  0  0  # atno 10763 bound_to 10752
  153.3716  135.3943  155.1793 H   0  0  0  0  0  0  0  0  0  0  0  0  # atno 10764 bound_to 10752
  154.8687  135.3813  154.4776 H   0  0  0  0  0  0  0  0  0  0  0  0  # atno 10765 bound_to 10752
  140.3195  134.7449  157.4053 H   0  0  0  0  0  0  0  0  0  0  0  0  # atno 11005 bound_to 11000
  145.9447  139.2693  143.1248 LP  0  0  0  0  0  0  0  0  0  0  0  0  # atno 17320 bound_to 7965
  145.9386  140.8996  143.0319 LP  0  0  0  0  0  0  0  0  0  0  0  0  # atno 17321 bound_to 7965
  140.7535  143.6158  150.8561 LP  0  0  0  0  0  0  0  0  0  0  0  0  # atno 17342 bound_to 10162
  139.9805  143.5956  152.2944 LP  0  0  0  0  0  0  0  0  0  0  0  0  # atno 17343 bound_to 10162
  156.3478  130.3826  149.7354 LP  0  0  0  0  0  0  0  0  0  0  0  0  # atno 17370 bound_to 10713
  156.4842  130.8055  151.3068 LP  0  0  0  0  0  0  0  0  0  0  0  0  # atno 17371 bound_to 10713
  140.0954  134.5544  155.8403 LP  0  0  0  0  0  0  0  0  0  0  0  0  # atno 17394 bound_to 11000
  141.2090  133.6679  156.6408 LP  0  0  0  0  0  0  0  0  0  0  0  0  # atno 17395 bound_to 11000

$$$$
