AV-unprocessed.smi:1464|AV-procd|sdf|5949|dock5
  -GOLD-   22720 6 33D 1   1.00000     0.00000
 Structure written by MMmdl.
 41 42  0  0  0  0  0  0  0  0  1 V2000
  151.5087  145.6581  160.6005 C   0  0  0  0  0  0  0  0  0  0  0  0
  151.6009  144.1350  160.4097 C   0  0  2  0  0  0  0  0  0  0  0  0
  152.7797  143.5278  161.1977 C   0  0  0  0  0  0  0  0  0  0  0  0
  152.8033  141.9951  161.0833 C   0  0  0  0  0  0  0  0  0  0  0  0
  152.8039  141.5352  159.6171 C   0  0  0  0  0  0  0  0  0  0  0  0
  151.6215  142.1455  158.8401 C   0  0  2  0  0  0  0  0  0  0  0  0
  151.6253  141.6599  157.4619 N   0  0  0  0  0  0  0  0  0  0  0  0
  151.4236  140.3871  157.0876 C   0  0  0  0  0  0  0  0  0  0  0  0
  151.1895  139.4779  157.8850 O   0  0  0  0  0  0  0  0  0  0  0  0
  151.4711  140.1125  155.5777 C   0  0  0  0  0  0  0  0  0  0  0  0
  150.1392  140.0384  154.9594 N   0  0  0  0  0  0  0  0  0  0  0  0
  149.4392  141.2357  154.9715 N   0  0  0  0  0  0  0  0  0  0  0  0
  148.2523  141.2931  154.4688 C   0  0  0  0  0  0  0  0  0  0  0  0
  147.5931  142.4973  154.5045 O   0  0  0  0  0  0  0  0  0  0  0  0
  147.6294  140.1264  153.8832 C   0  0  0  0  0  0  0  0  0  0  0  0
  148.3202  138.9657  153.8730 C   0  0  0  0  0  0  0  0  0  0  0  0
  149.6689  138.8651  154.4340 C   0  0  0  0  0  0  0  0  0  0  0  0
  150.3223  137.8220  154.4347 O   0  0  0  0  0  0  0  0  0  0  0  0
  151.6230  143.6967  158.9211 C   0  0  2  0  0  0  0  0  0  0  0  0
  152.7604  144.3490  158.1010 C   0  0  0  0  0  0  0  0  0  0  0  0
  148.2589  143.1419  154.6886 H   0  0  0  0  0  0  0  0  0  0  0  0
  152.4260  146.1619  160.2956 H   0  0  0  0  0  0  0  0  0  0  0  0
  151.3342  145.9078  161.6473 H   0  0  0  0  0  0  0  0  0  0  0  0
  150.6849  146.0778  160.0224 H   0  0  0  0  0  0  0  0  0  0  0  0
  150.6871  143.7240  160.8420 H   0  0  0  0  0  0  0  0  0  0  0  0
  153.7242  143.9383  160.8396 H   0  0  0  0  0  0  0  0  0  0  0  0
  152.7068  143.8084  162.2490 H   0  0  0  0  0  0  0  0  0  0  0  0
  153.6782  141.5972  161.5980 H   0  0  0  0  0  0  0  0  0  0  0  0
  151.9321  141.5809  161.5922 H   0  0  0  0  0  0  0  0  0  0  0  0
  153.7488  141.8100  159.1473 H   0  0  0  0  0  0  0  0  0  0  0  0
  152.7507  140.4464  159.5802 H   0  0  0  0  0  0  0  0  0  0  0  0
  150.7077  141.7825  159.3155 H   0  0  0  0  0  0  0  0  0  0  0  0
  151.8013  142.3432  156.7398 H   0  0  0  0  0  0  0  0  0  0  0  0
  152.0610  140.9035  155.1112 H   0  0  0  0  0  0  0  0  0  0  0  0
  152.0198  139.1879  155.3881 H   0  0  0  0  0  0  0  0  0  0  0  0
  146.6350  140.1919  153.4670 H   0  0  0  0  0  0  0  0  0  0  0  0
  147.8669  138.0858  153.4404 H   0  0  0  0  0  0  0  0  0  0  0  0
  150.6893  144.0425  158.4750 H   0  0  0  0  0  0  0  0  0  0  0  0
  153.7463  144.0868  158.4831 H   0  0  0  0  0  0  0  0  0  0  0  0
  152.6838  145.4357  158.1073 H   0  0  0  0  0  0  0  0  0  0  0  0
  152.7238  144.0466  157.0546 H   0  0  0  0  0  0  0  0  0  0  0  0
  1  2  1  0  0  0  0
  1 22  1  0  0  0  0
  1 23  1  0  0  0  0
  1 24  1  0  0  0  0
  2 19  1  0  0  0  0
  2  3  1  0  0  0  0
  2 25  1  0  0  0  0
  3  4  1  0  0  0  0
  3 26  1  0  0  0  0
  3 27  1  0  0  0  0
  4  5  1  0  0  0  0
  4 28  1  0  0  0  0
  4 29  1  0  0  0  0
  5  6  1  0  0  0  0
  5 30  1  0  0  0  0
  5 31  1  0  0  0  0
  6  7  1  0  0  0  0
  6 19  1  0  0  0  0
  6 32  1  0  0  0  0
  7  8  1  0  0  0  0
  7 33  1  0  0  0  0
  8  9  2  0  0  0  0
  8 10  1  0  0  0  0
 10 34  1  0  0  0  0
 10 35  1  0  0  0  0
 10 11  1  0  0  0  0
 11 12  1  0  0  0  0
 11 17  1  0  0  0  0
 12 13  2  0  0  0  0
 13 14  1  0  0  0  0
 13 15  1  0  0  0  0
 14 21  1  0  0  0  0
 15 36  1  0  0  0  0
 15 16  2  0  0  0  0
 16 37  1  0  0  0  0
 16 17  1  0  0  0  0
 17 18  2  0  0  0  0
 19 20  1  0  0  0  0
 19 38  1  0  0  0  0
 20 39  1  0  0  0  0
 20 40  1  0  0  0  0
 20 41  1  0  0  0  0
M  END
> <s_m_source_file>
AV-unprocessed.smi

> <i_m_source_file_index>
1464

> <i_lp_mmshare_version>
43012

> <i_f3d_flags>
0

> <s_epik_input>
W0NIM11bQ0BASF0xW0NIMl1bQ0gyXVtDSDJdW0NASF0oW0NASF0xW0NIM10pW05IXUMoPU8pW0NIMl1uMltuSF1jKD1PKVtjSF1bY0hdYzI9Tw==

> <s_epik_cmdline>
J2VwaWtfcHl0aG9uJywgJy1waCcsICc3LjAnLCAnLXRuJywgJzgnLCAnLW1hJywgJzIwMCcsICctbWV0YWxfYmluZGluZycsICctaW1hZScsICc8aW5maWxlLm1hZT4nLCAnLW9tYWUnLCAnPG91dGZpbGUubWFlPic=

> <r_lp_tautomer_probability>
0.9996

> <r_epik_Ionization_Penalty>
2.10335

> <r_epik_Ionization_Penalty_Charging>
3.98079e-08

> <r_epik_Ionization_Penalty_Neutral>
2.10335

> <r_epik_State_Penalty>
1.67957

> <r_epik_Charging_Adjusted_Penalty>
1.67957

> <i_epik_Tot_Q>
0

> <i_epik_Tot_abs_Q>
0

> <r_epik_Metal_State_Penalty>
1.67957

> <b_epik_Metal_Only>
0

> <s_lp_Force_Field>
OPLS_2005

> <r_lp_Energy>
25.7664

> <b_lp_Chiralities_Consistent>
1

> <s_lp_Variant>
AV-unprocessed.smi:1464-15

> <Gold.Version>
5.8.1

> <Gold.Id.Protein>
6NUR|6NUR_protein|mol2

> <Gold.PLP.Fitness>
44.3928

> <Gold.PLP.PLP>
-42.1908

> <Gold.PLP.part.hbond>
-1.0000

> <Gold.PLP.part.metal>
0.0000

> <Gold.PLP.part.buried>
-1.8809

> <Gold.PLP.part.nonpolar>
-39.3770

> <Gold.PLP.part.repulsive>
0.4237

> <Gold.PLP.ligand.clash>
0.0000

> <Gold.PLP.ligand.torsion>
0.3944

> <Gold.PLP.Chemscore.Hbond>
0.9920

> <Gold.PLP.Chemscore.CHOScore>
0.0000

> <Gold.PLP.Chemscore.Metal>
0.0000

> <Gold.Chemscore.Hbonds>
donor molecule, donor type, donor heavy atom, donor atom, acceptor molecule, acceptor atom, score
      L1  H    14    21       P1  8028  1.00

> <Gold.PLP.Chemscore.Internal.Correction>
0.0148

> <Gold.Rescore>
     Score         DG    S(hbond)    S(metal)    S(lipo)     H(rot)  DE(clash)    DE(int)     intcor
     14.83     -15.62       0.90        0.00     109.53       2.22       0.47       0.32       ----

> <Gold.Chemscore.Fitness>
14.8294

> <Gold.Chemscore.DG>
-15.6243

> <Gold.Chemscore.ZeroCoef>
-5.4800

> <Gold.Chemscore.Hbond>
0.9038

> <Gold.Chemscore.Metal>
0.0000

> <Gold.Chemscore.Lipo>
109.5301

> <Gold.Chemscore.Internal_Hbond>
0.0000

> <Gold.Chemscore.DEClash>
0.4727

> <Gold.Chemscore.DEInternal>
0.3222

> <Gold.Chemscore.Rot>
2.2224

> <Gold.Chemscore.Internal.Correction>
   9.000000E+99

> <Gold.Chemscore.Hbonds>
donor molecule, donor type, donor heavy atom, donor atom, acceptor molecule, acceptor atom, score
      L1  H    14    21       P1  8028  0.93

> <Gold.Chemscore.Hbond.Weighted>
-3.0186

> <Gold.Chemscore.Metal.Weighted>
-0.0000

> <Gold.Chemscore.Lipo.Weighted>
-12.8150

> <Gold.Chemscore.Internal_Hbond.Weighted>
0.0000

> <Gold.Chemscore.DEClash.Weighted>
0.4727

> <Gold.Chemscore.DEInternal.Weighted>
0.3222

> <Gold.Chemscore.Rot.Weighted>
5.6893

> <Gold.Chemscore.Internal.Correction.Weighted>
   9.000000E+99

> <Gold.Protein.RotatedTorsions>
[ 6907 6896 6895 6894 ] final  -55.25 input  -60.11 | X-H torsion
[ 7974 7965 7964 7962 ] final  -56.25 input  175.53 | X-H torsion
[ 8008 7997 7996 7995 ] final -109.80 input   59.86 | X-H torsion
[ 10167 10162 10161 10158 ] final   23.77 input  -65.29 | X-H torsion
[ 10718 10713 10712 10709 ] final   76.06 input   66.30 | X-H torsion
[ 10763 10752 10751 10750 ] final   26.02 input  -60.55 | X-H torsion
[ 11005 11000 10999 10996 ] final    7.77 input  -57.11 | X-H torsion

> <Gold.Protein.ActiveResidues>
 VAL166  LYS551  ARG553  GLY616  TRP617  ASP618  TYR619  PRO620  LYS621  CYS622 
 ASP623  PHE694  ASN695  SER759  ASP760  ASP761  ALA762  ILE779  LEU786  VAL792 
 PHE793  MET794  SER795  GLU796  ALA797  LYS798  CYS799  TRP800  GLU811  SER814 

> <Gold.Protein.RotatedAtoms>
  150.8267  134.7502  159.6818 H   0  0  0  0  0  0  0  0  0  0  0  0  # atno 6907 bound_to 6896
  152.4377  134.5650  159.9914 H   0  0  0  0  0  0  0  0  0  0  0  0  # atno 6908 bound_to 6896
  151.5820  133.3339  159.3046 H   0  0  0  0  0  0  0  0  0  0  0  0  # atno 6909 bound_to 6896
  145.8649  140.8259  142.9918 H   0  0  0  0  0  0  0  0  0  0  0  0  # atno 7974 bound_to 7965
  154.9649  140.0398  157.2207 H   0  0  0  0  0  0  0  0  0  0  0  0  # atno 8008 bound_to 7997
  154.7855  140.2826  155.6009 H   0  0  0  0  0  0  0  0  0  0  0  0  # atno 8009 bound_to 7997
  156.2942  140.2583  156.2690 H   0  0  0  0  0  0  0  0  0  0  0  0  # atno 8010 bound_to 7997
  140.5242  143.9952  150.6432 H   0  0  0  0  0  0  0  0  0  0  0  0  # atno 10167 bound_to 10162
  157.6659  130.9756  150.1443 H   0  0  0  0  0  0  0  0  0  0  0  0  # atno 10718 bound_to 10713
  153.0651  135.6570  154.0373 H   0  0  0  0  0  0  0  0  0  0  0  0  # atno 10763 bound_to 10752
  154.0031  135.2935  155.3402 H   0  0  0  0  0  0  0  0  0  0  0  0  # atno 10764 bound_to 10752
  154.7006  135.5246  153.8589 H   0  0  0  0  0  0  0  0  0  0  0  0  # atno 10765 bound_to 10752
  140.5445  134.0342  155.7915 H   0  0  0  0  0  0  0  0  0  0  0  0  # atno 11005 bound_to 11000
  144.6726  140.1151  143.7453 LP  0  0  0  0  0  0  0  0  0  0  0  0  # atno 17320 bound_to 7965
  145.9205  139.2543  143.1384 LP  0  0  0  0  0  0  0  0  0  0  0  0  # atno 17321 bound_to 7965
  140.3309  143.3078  152.0688 LP  0  0  0  0  0  0  0  0  0  0  0  0  # atno 17342 bound_to 10162
  139.4933  144.6510  151.6676 LP  0  0  0  0  0  0  0  0  0  0  0  0  # atno 17343 bound_to 10162
  156.2258  130.3678  149.8502 LP  0  0  0  0  0  0  0  0  0  0  0  0  # atno 17370 bound_to 10713
  156.6343  130.8678  151.3501 LP  0  0  0  0  0  0  0  0  0  0  0  0  # atno 17371 bound_to 10713
  141.1208  133.9465  157.2734 LP  0  0  0  0  0  0  0  0  0  0  0  0  # atno 17394 bound_to 11000
  139.9487  135.0179  156.8928 LP  0  0  0  0  0  0  0  0  0  0  0  0  # atno 17395 bound_to 11000

$$$$
