AV-unprocessed.smi:157|AV-procd|sdf|1296|dock10
  -GOLD-   2262018583D 1   1.00000     0.00000
 Structure written by MMmdl.
 35 37  0  0  0  0  0  0  0  0  1 V2000
  148.1519  142.8277  154.0980 O   0  0  0  0  0  0  0  0  0  0  0  0
  147.5767  141.8848  154.9778 C   0  0  0  0  0  0  0  0  0  0  0  0
  148.6642  140.9771  155.5786 C   0  0  2  0  0  0  0  0  0  0  0  0
  149.6170  141.7421  156.3169 O   0  0  0  0  0  0  0  0  0  0  0  0
  150.9036  141.2466  156.0975 C   0  0  1  0  0  0  0  0  0  0  0  0
  151.6020  141.0841  157.4134 N   0  0  0  0  0  0  0  0  0  0  0  0
  152.2114  139.9647  157.8221 C   0  0  0  0  0  0  0  0  0  0  0  0
  152.7603  140.0414  159.0221 N   0  0  0  0  0  0  0  0  0  0  0  0
  152.4897  141.3454  159.4326 C   0  0  0  0  0  0  0  0  0  0  0  0
  151.7761  142.0139  158.4473 C   0  0  0  0  0  0  0  0  0  0  0  0
  151.2419  143.2800  158.3007 N   0  0  0  0  0  0  0  0  0  0  0  0
  151.7085  144.2286  159.0496 C   0  0  0  0  0  0  0  0  0  0  0  0
  152.6249  144.1765  160.0899 N   0  0  0  0  0  0  0  0  0  0  0  0
  152.5252  143.2234  161.1817 C   0  0  0  0  0  0  0  0  0  0  0  0
  152.9399  141.7988  160.7927 C   0  0  2  0  0  0  0  0  0  0  0  0
  154.3496  141.7019  160.8163 O   0  0  0  0  0  0  0  0  0  0  0  0
  150.7685  139.9104  155.3670 C   0  0  0  0  0  0  0  0  0  0  0  0
  149.4843  140.1253  154.5941 C   0  0  2  0  0  0  0  0  0  0  0  0
  149.7425  140.7976  153.3752 O   0  0  0  0  0  0  0  0  0  0  0  0
  148.1980  140.3036  156.3000 H   0  0  0  0  0  0  0  0  0  0  0  0
  151.4879  141.9798  155.5394 H   0  0  0  0  0  0  0  0  0  0  0  0
  152.5654  141.1126  161.5530 H   0  0  0  0  0  0  0  0  0  0  0  0
  148.9860  139.1827  154.3663 H   0  0  0  0  0  0  0  0  0  0  0  0
  148.4853  143.5498  154.6086 H   0  0  0  0  0  0  0  0  0  0  0  0
  147.0098  142.3988  155.7542 H   0  0  0  0  0  0  0  0  0  0  0  0
  146.8647  141.2829  154.4127 H   0  0  0  0  0  0  0  0  0  0  0  0
  152.2476  139.0652  157.2253 H   0  0  0  0  0  0  0  0  0  0  0  0
  151.3497  145.2450  158.8821 H   0  0  0  0  0  0  0  0  0  0  0  0
  153.0558  145.0373  160.3948 H   0  0  0  0  0  0  0  0  0  0  0  0
  153.0989  143.5765  162.0391 H   0  0  0  0  0  0  0  0  0  0  0  0
  151.4818  143.2081  161.5001 H   0  0  0  0  0  0  0  0  0  0  0  0
  154.5869  141.0098  161.4147 H   0  0  0  0  0  0  0  0  0  0  0  0
  151.6423  139.7018  154.7487 H   0  0  0  0  0  0  0  0  0  0  0  0
  150.6427  139.1005  156.0861 H   0  0  0  0  0  0  0  0  0  0  0  0
  149.6400  140.1798  152.6672 H   0  0  0  0  0  0  0  0  0  0  0  0
  1  2  1  0  0  0  0
  1 24  1  0  0  0  0
  2  3  1  0  0  0  0
  2 25  1  0  0  0  0
  2 26  1  0  0  0  0
  3 20  1  0  0  0  0
  3 18  1  0  0  0  0
  3  4  1  0  0  0  0
  4  5  1  0  0  0  0
  5 21  1  0  0  0  0
  5  6  1  0  0  0  0
  5 17  1  0  0  0  0
  6 10  1  0  0  0  0
  6  7  1  0  0  0  0
  7  8  2  0  0  0  0
  7 27  1  0  0  0  0
  8  9  1  0  0  0  0
  9 15  1  0  0  0  0
  9 10  2  0  0  0  0
 10 11  1  0  0  0  0
 11 12  2  0  0  0  0
 12 13  1  0  0  0  0
 12 28  1  0  0  0  0
 13 14  1  0  0  0  0
 13 29  1  0  0  0  0
 14 15  1  0  0  0  0
 14 30  1  0  0  0  0
 14 31  1  0  0  0  0
 15 22  1  0  0  0  0
 15 16  1  0  0  0  0
 16 32  1  0  0  0  0
 17 18  1  0  0  0  0
 17 33  1  0  0  0  0
 17 34  1  0  0  0  0
 18 23  1  0  0  0  0
 18 19  1  0  0  0  0
 19 35  1  0  0  0  0
M  END
> <s_m_source_file>
AV-unprocessed.smi

> <i_m_source_file_index>
157

> <i_lp_mmshare_version>
43012

> <i_f3d_flags>
0

> <s_epik_input>
W09IXVtDSDJdW0NASF0xT1tDQEhdKFtDSDJdW0NAQEhdMVtPSF0pbihbY0hdbjIpYyhjMjMpTj1bQ0hdW05IXVtDSDJdW0NASF0zW09IXQ==

> <s_epik_cmdline>
J2VwaWtfcHl0aG9uJywgJy1waCcsICc3LjAnLCAnLXRuJywgJzgnLCAnLW1hJywgJzIwMCcsICctbWV0YWxfYmluZGluZycsICctaW1hZScsICc8aW5maWxlLm1hZT4nLCAnLW9tYWUnLCAnPG91dGZpbGUubWFlPic=

> <r_lp_tautomer_probability>
1

> <r_epik_Ionization_Penalty>
0.0357149

> <r_epik_Ionization_Penalty_Charging>
0.0355056

> <r_epik_Ionization_Penalty_Neutral>
0.000209255

> <r_epik_State_Penalty>
0.0296046

> <r_epik_Charging_Adjusted_Penalty>
0.0651102

> <i_epik_Tot_Q>
0

> <i_epik_Tot_abs_Q>
0

> <r_epik_Metal_State_Penalty>
3.03559e-05

> <b_epik_Metal_Only>
0

> <s_epik_Chemistry_Notes>
This compound has an imine and may undergo hydrolysis. This compound contains an acetal/aminal-like group ( X-CH(R)-Y where X, Y are N, S, or O) that may be acid/base labile, releasing an aldehyde.

> <s_lp_Force_Field>
OPLS_2005

> <r_lp_Energy>
46.6241

> <b_lp_Chiralities_Consistent>
1

> <s_lp_Variant>
AV-unprocessed.smi:157-6

> <Gold.Version>
5.8.1

> <Gold.Id.Protein>
6NUR|6NUR_protein|mol2

> <Gold.PLP.Fitness>
46.9164

> <Gold.PLP.PLP>
-38.0487

> <Gold.PLP.part.hbond>
-5.9014

> <Gold.PLP.part.metal>
0.0000

> <Gold.PLP.part.buried>
-1.6918

> <Gold.PLP.part.nonpolar>
-28.8762

> <Gold.PLP.part.repulsive>
0.2313

> <Gold.PLP.ligand.clash>
0.0000

> <Gold.PLP.ligand.torsion>
0.1389

> <Gold.PLP.Chemscore.Hbond>
3.0477

> <Gold.PLP.Chemscore.CHOScore>
0.0000

> <Gold.PLP.Chemscore.Metal>
0.0000

> <Gold.Chemscore.Hbonds>
donor molecule, donor type, donor heavy atom, donor atom, acceptor molecule, acceptor atom, score
      L1  H     1    24       P1  8028  1.00
      L1  H    19    35       P1  7957  0.83
      P1  H  7989  7998       L1    19  0.30
      P1  H  8011  8017       L1    19  0.90

> <Gold.PLP.Chemscore.Internal.Correction>
0.0023

> <Gold.Rescore>
     Score         DG    S(hbond)    S(metal)    S(lipo)     H(rot)  DE(clash)    DE(int)     intcor
      8.28      -8.97       1.95        0.00      53.68       3.64       0.02       0.67       ----

> <Gold.Chemscore.Fitness>
8.2828

> <Gold.Chemscore.DG>
-8.9743

> <Gold.Chemscore.ZeroCoef>
-5.4800

> <Gold.Chemscore.Hbond>
1.9527

> <Gold.Chemscore.Metal>
0.0000

> <Gold.Chemscore.Lipo>
53.6837

> <Gold.Chemscore.Internal_Hbond>
0.0000

> <Gold.Chemscore.DEClash>
0.0204

> <Gold.Chemscore.DEInternal>
0.6711

> <Gold.Chemscore.Rot>
3.6362

> <Gold.Chemscore.Internal.Correction>
   9.000000E+99

> <Gold.Chemscore.Hbonds>
donor molecule, donor type, donor heavy atom, donor atom, acceptor molecule, acceptor atom, score
      L1  H     1    24       P1  8028  0.98
      L1  H    19    35       P1  7957  0.78
      P1  H  7989  7998       L1    19  0.02
      P1  H  8011  8017       L1    19  0.18

> <Gold.Chemscore.Hbond.Weighted>
-6.5220

> <Gold.Chemscore.Metal.Weighted>
-0.0000

> <Gold.Chemscore.Lipo.Weighted>
-6.2810

> <Gold.Chemscore.Internal_Hbond.Weighted>
0.0000

> <Gold.Chemscore.DEClash.Weighted>
0.0204

> <Gold.Chemscore.DEInternal.Weighted>
0.6711

> <Gold.Chemscore.Rot.Weighted>
9.3087

> <Gold.Chemscore.Internal.Correction.Weighted>
   9.000000E+99

> <Gold.Protein.RotatedTorsions>
[ 6907 6896 6895 6894 ] final -166.55 input  -60.11 | X-H torsion
[ 7974 7965 7964 7962 ] final  109.88 input  175.53 | X-H torsion
[ 8008 7997 7996 7995 ] final   -0.99 input   59.86 | X-H torsion
[ 10167 10162 10161 10158 ] final   86.13 input  -65.29 | X-H torsion
[ 10718 10713 10712 10709 ] final    2.31 input   66.30 | X-H torsion
[ 10763 10752 10751 10750 ] final  -25.35 input  -60.55 | X-H torsion
[ 11005 11000 10999 10996 ] final -108.56 input  -57.11 | X-H torsion

> <Gold.Protein.ActiveResidues>
 VAL166  LYS551  ARG553  GLY616  TRP617  ASP618  TYR619  PRO620  LYS621  CYS622 
 ASP623  PHE694  ASN695  SER759  ASP760  ASP761  ALA762  ILE779  LEU786  VAL792 
 PHE793  MET794  SER795  GLU796  ALA797  LYS798  CYS799  TRP800  GLU811  SER814 

> <Gold.Protein.RotatedAtoms>
  151.4453  133.3632  159.2787 H   0  0  0  0  0  0  0  0  0  0  0  0  # atno 6907 bound_to 6896
  150.9129  134.8547  159.7448 H   0  0  0  0  0  0  0  0  0  0  0  0  # atno 6908 bound_to 6896
  152.4942  134.4384  159.9587 H   0  0  0  0  0  0  0  0  0  0  0  0  # atno 6909 bound_to 6896
  145.2622  139.2698  143.4011 H   0  0  0  0  0  0  0  0  0  0  0  0  # atno 7974 bound_to 7965
  154.6518  140.2570  155.7205 H   0  0  0  0  0  0  0  0  0  0  0  0  # atno 8008 bound_to 7997
  156.2579  140.2866  156.0876 H   0  0  0  0  0  0  0  0  0  0  0  0  # atno 8009 bound_to 7997
  155.1439  140.0381  157.2795 H   0  0  0  0  0  0  0  0  0  0  0  0  # atno 8010 bound_to 7997
  139.8907  144.6387  150.8742 H   0  0  0  0  0  0  0  0  0  0  0  0  # atno 10167 bound_to 10162
  156.8611  130.5587  149.5663 H   0  0  0  0  0  0  0  0  0  0  0  0  # atno 10718 bound_to 10713
  153.6984  135.6957  153.5070 H   0  0  0  0  0  0  0  0  0  0  0  0  # atno 10763 bound_to 10752
  153.2360  135.4321  155.0646 H   0  0  0  0  0  0  0  0  0  0  0  0  # atno 10764 bound_to 10752
  154.8351  135.3496  154.6524 H   0  0  0  0  0  0  0  0  0  0  0  0  # atno 10765 bound_to 10752
  141.0895  133.9080  157.2108 H   0  0  0  0  0  0  0  0  0  0  0  0  # atno 11005 bound_to 11000
  146.3272  140.3042  142.8622 LP  0  0  0  0  0  0  0  0  0  0  0  0  # atno 17320 bound_to 7965
  144.9408  140.8077  143.5631 LP  0  0  0  0  0  0  0  0  0  0  0  0  # atno 17321 bound_to 7965
  140.7727  143.3513  151.2009 LP  0  0  0  0  0  0  0  0  0  0  0  0  # atno 17342 bound_to 10162
  139.7113  143.9373  152.2948 LP  0  0  0  0  0  0  0  0  0  0  0  0  # atno 17343 bound_to 10162
  156.0776  130.5794  150.9503 LP  0  0  0  0  0  0  0  0  0  0  0  0  # atno 17370 bound_to 10713
  157.6249  131.0926  150.8552 LP  0  0  0  0  0  0  0  0  0  0  0  0  # atno 17371 bound_to 10713
  139.9719  135.0126  156.9532 LP  0  0  0  0  0  0  0  0  0  0  0  0  # atno 17394 bound_to 11000
  140.5285  134.0837  155.7309 LP  0  0  0  0  0  0  0  0  0  0  0  0  # atno 17395 bound_to 11000

$$$$
