AV-unprocessed.smi:3282|AV-procd|sdf|12564|dock2
  -GOLD-   2272018483D 1   1.00000     0.00000
 Structure written by MMmdl.
 34 35  0  0  0  0  0  0  0  0  1 V2000
  150.6422  145.2704  159.5954 C   0  0  0  0  0  0  0  0  0  0  0  0
  152.1154  144.8428  159.6948 C   0  0  0  0  0  0  0  0  0  0  0  0
  152.3178  143.3185  159.7264 C   0  0  0  0  0  0  0  0  0  0  0  0
  152.8613  142.7918  160.6985 O   0  0  0  0  0  0  0  0  0  0  0  0
  151.8850  142.5969  158.6714 N   0  0  0  0  0  0  0  0  0  0  0  0
  152.0022  141.1436  158.5865 C   0  0  0  0  0  0  0  0  0  0  0  0
  151.1818  140.7258  157.3663 C   0  0  0  0  0  0  0  0  0  0  0  0
  151.1432  141.9695  156.4825 C   0  0  1  0  0  0  0  0  0  0  0  0
  149.9218  142.0257  155.6854 N   0  0  0  0  0  0  0  0  0  0  0  0
  149.5866  141.1544  154.7223 C   0  0  0  0  0  0  0  0  0  0  0  0
  150.3077  140.1946  154.4314 O   0  0  0  0  0  0  0  0  0  0  0  0
  148.3516  141.4756  154.1845 N   0  0  0  0  0  0  0  0  0  0  0  0
  147.6859  140.5421  153.5789 C   0  0  0  0  0  0  0  0  0  0  0  0
  146.4530  140.6454  152.9547 N   0  0  0  0  0  0  0  0  0  0  0  0
  146.1218  139.4134  152.4622 C   0  0  0  0  0  0  0  0  0  0  0  0
  147.1038  138.5686  152.7637 C   0  0  0  0  0  0  0  0  0  0  0  0
  148.0782  139.2292  153.4494 O   0  0  0  0  0  0  0  0  0  0  0  0
  151.2464  143.1375  157.4731 C   0  0  0  0  0  0  0  0  0  0  0  0
  150.5589  146.3568  159.5641 H   0  0  0  0  0  0  0  0  0  0  0  0
  150.0663  144.9220  160.4537 H   0  0  0  0  0  0  0  0  0  0  0  0
  150.1737  144.8789  158.6915 H   0  0  0  0  0  0  0  0  0  0  0  0
  152.6611  145.2560  158.8459 H   0  0  0  0  0  0  0  0  0  0  0  0
  152.5528  145.2743  160.5956 H   0  0  0  0  0  0  0  0  0  0  0  0
  153.0521  140.8814  158.4484 H   0  0  0  0  0  0  0  0  0  0  0  0
  151.6457  140.6491  159.4916 H   0  0  0  0  0  0  0  0  0  0  0  0
  151.6009  139.8585  156.8551 H   0  0  0  0  0  0  0  0  0  0  0  0
  150.1734  140.4628  157.6902 H   0  0  0  0  0  0  0  0  0  0  0  0
  152.0215  141.9642  155.8342 H   0  0  0  0  0  0  0  0  0  0  0  0
  149.2812  142.7808  155.8835 H   0  0  0  0  0  0  0  0  0  0  0  0
  145.8665  141.4620  152.8595 H   0  0  0  0  0  0  0  0  0  0  0  0
  145.1910  139.2686  151.9340 H   0  0  0  0  0  0  0  0  0  0  0  0
  147.2517  137.5161  152.5714 H   0  0  0  0  0  0  0  0  0  0  0  0
  150.2577  143.5118  157.7446 H   0  0  0  0  0  0  0  0  0  0  0  0
  151.8136  143.9626  157.0402 H   0  0  0  0  0  0  0  0  0  0  0  0
  1  2  1  0  0  0  0
  1 19  1  0  0  0  0
  1 20  1  0  0  0  0
  1 21  1  0  0  0  0
  2  3  1  0  0  0  0
  2 22  1  0  0  0  0
  2 23  1  0  0  0  0
  3  4  2  0  0  0  0
  3  5  1  0  0  0  0
  5 18  1  0  0  0  0
  5  6  1  0  0  0  0
  6  7  1  0  0  0  0
  6 24  1  0  0  0  0
  6 25  1  0  0  0  0
  7  8  1  0  0  0  0
  7 26  1  0  0  0  0
  7 27  1  0  0  0  0
  8  9  1  0  0  0  0
  8 18  1  0  0  0  0
  8 28  1  0  0  0  0
  9 29  1  0  0  0  0
  9 10  1  0  0  0  0
 10 12  1  0  0  0  0
 10 11  2  0  0  0  0
 12 13  2  0  0  0  0
 13 17  1  0  0  0  0
 13 14  1  0  0  0  0
 14 30  1  0  0  0  0
 14 15  1  0  0  0  0
 15 31  1  0  0  0  0
 15 16  2  0  0  0  0
 16 32  1  0  0  0  0
 16 17  1  0  0  0  0
 18 33  1  0  0  0  0
 18 34  1  0  0  0  0
M  END
> <s_m_source_file>
AV-unprocessed.smi

> <i_m_source_file_index>
3282

> <i_lp_mmshare_version>
43012

> <i_f3d_flags>
0

> <s_epik_input>
W0NIM11bQ0gyXUMoPU8pTjFbQ0gyXVtDSDJdW0NASF0oW0NIMl0xKVtOSF1DKD1PKVtOSF1jMm5bY0hdW2NIXW8y

> <s_epik_cmdline>
J2VwaWtfcHl0aG9uJywgJy1waCcsICc3LjAnLCAnLXRuJywgJzgnLCAnLW1hJywgJzIwMCcsICctbWV0YWxfYmluZGluZycsICctaW1hZScsICc8aW5maWxlLm1hZT4nLCAnLW9tYWUnLCAnPG91dGZpbGUubWFlPic=

> <r_lp_tautomer_probability>
0.107061

> <r_epik_Ionization_Penalty>
0.434703

> <r_epik_Ionization_Penalty_Charging>
0.434345

> <r_epik_Ionization_Penalty_Neutral>
0.000358141

> <r_epik_State_Penalty>
2.49584

> <r_epik_Charging_Adjusted_Penalty>
2.93019

> <i_epik_Tot_Q>
0

> <i_epik_Tot_abs_Q>
0

> <r_epik_Metal_State_Penalty>
4.06361

> <b_epik_Metal_Only>
0

> <s_lp_Force_Field>
OPLS_2005

> <r_lp_Energy>
49.1525

> <b_lp_Chiralities_Consistent>
1

> <s_lp_Variant>
AV-unprocessed.smi:3282-5

> <Gold.Version>
5.8.1

> <Gold.Id.Protein>
6NUR|6NUR_protein|mol2

> <Gold.PLP.Fitness>
47.1038

> <Gold.PLP.PLP>
-33.1481

> <Gold.PLP.part.hbond>
-3.3876

> <Gold.PLP.part.metal>
0.0000

> <Gold.PLP.part.buried>
-0.2724

> <Gold.PLP.part.nonpolar>
-31.0312

> <Gold.PLP.part.repulsive>
2.4572

> <Gold.PLP.ligand.clash>
0.0000

> <Gold.PLP.ligand.torsion>
0.1106

> <Gold.PLP.Chemscore.Hbond>
2.0000

> <Gold.PLP.Chemscore.CHOScore>
2.7223

> <Gold.PLP.Chemscore.Metal>
0.0000

> <Gold.Chemscore.Hbonds>
donor molecule, donor type, donor heavy atom, donor atom, acceptor molecule, acceptor atom, score
      L1  H     9    29       P1  8028  0.93
      P1  H  7989  7998       L1    11  1.00
      L1  C    15    31       P1 10171  0.90
      L1  C    15    31       P1 10175  0.66
      L1  C    16    32       P1  7948  1.00

> <Gold.PLP.Chemscore.Internal.Correction>
0.0101

> <Gold.Rescore>
     Score         DG    S(hbond)    S(metal)    S(lipo)     H(rot)  DE(clash)    DE(int)     intcor
     12.05     -15.53       1.64        0.00      68.00       1.32       1.74       1.75       ----

> <Gold.Chemscore.Fitness>
12.0487

> <Gold.Chemscore.DG>
-15.5319

> <Gold.Chemscore.ZeroCoef>
-5.4800

> <Gold.Chemscore.Hbond>
1.6392

> <Gold.Chemscore.Metal>
0.0000

> <Gold.Chemscore.Lipo>
67.9981

> <Gold.Chemscore.Internal_Hbond>
0.0000

> <Gold.Chemscore.DEClash>
1.7374

> <Gold.Chemscore.DEInternal>
1.7458

> <Gold.Chemscore.Rot>
1.3199

> <Gold.Chemscore.Internal.Correction>
   9.000000E+99

> <Gold.Chemscore.Hbonds>
donor molecule, donor type, donor heavy atom, donor atom, acceptor molecule, acceptor atom, score
      L1  H     9    29       P1  8028  0.87
      P1  H  7989  7998       L1    11  0.49

> <Gold.Chemscore.Hbond.Weighted>
-5.4750

> <Gold.Chemscore.Metal.Weighted>
-0.0000

> <Gold.Chemscore.Lipo.Weighted>
-7.9558

> <Gold.Chemscore.Internal_Hbond.Weighted>
0.0000

> <Gold.Chemscore.DEClash.Weighted>
1.7374

> <Gold.Chemscore.DEInternal.Weighted>
1.7458

> <Gold.Chemscore.Rot.Weighted>
3.3789

> <Gold.Chemscore.Internal.Correction.Weighted>
   9.000000E+99

> <Gold.Protein.RotatedTorsions>
[ 6907 6896 6895 6894 ] final  -18.47 input  -60.11 | X-H torsion
[ 7974 7965 7964 7962 ] final  -60.83 input  175.53 | X-H torsion
[ 8008 7997 7996 7995 ] final   80.29 input   59.86 | X-H torsion
[ 10167 10162 10161 10158 ] final  -85.85 input  -65.29 | X-H torsion
[ 10718 10713 10712 10709 ] final -124.09 input   66.30 | X-H torsion
[ 10763 10752 10751 10750 ] final  106.24 input  -60.55 | X-H torsion
[ 11005 11000 10999 10996 ] final  -99.68 input  -57.11 | X-H torsion

> <Gold.Protein.ActiveResidues>
 VAL166  LYS551  ARG553  GLY616  TRP617  ASP618  TYR619  PRO620  LYS621  CYS622 
 ASP623  PHE694  ASN695  SER759  ASP760  ASP761  ALA762  ILE779  LEU786  VAL792 
 PHE793  MET794  SER795  GLU796  ALA797  LYS798  CYS799  TRP800  GLU811  SER814 

> <Gold.Protein.RotatedAtoms>
  151.2777  135.0704  159.9157 H   0  0  0  0  0  0  0  0  0  0  0  0  # atno 6907 bound_to 6896
  152.5339  134.0064  159.7928 H   0  0  0  0  0  0  0  0  0  0  0  0  # atno 6908 bound_to 6896
  151.0312  133.5738  159.2691 H   0  0  0  0  0  0  0  0  0  0  0  0  # atno 6909 bound_to 6896
  145.8108  140.8600  143.0183 H   0  0  0  0  0  0  0  0  0  0  0  0  # atno 7974 bound_to 7965
  155.8814  140.3444  155.5890 H   0  0  0  0  0  0  0  0  0  0  0  0  # atno 8008 bound_to 7997
  155.7715  140.0846  157.2124 H   0  0  0  0  0  0  0  0  0  0  0  0  # atno 8009 bound_to 7997
  154.4025  140.1517  156.2935 H   0  0  0  0  0  0  0  0  0  0  0  0  # atno 8010 bound_to 7997
  140.3998  143.2668  151.9157 H   0  0  0  0  0  0  0  0  0  0  0  0  # atno 10167 bound_to 10162
  156.1557  130.6566  150.9978 H   0  0  0  0  0  0  0  0  0  0  0  0  # atno 10718 bound_to 10713
  153.3903  135.3883  155.1918 H   0  0  0  0  0  0  0  0  0  0  0  0  # atno 10763 bound_to 10752
  154.8718  135.3747  154.4746 H   0  0  0  0  0  0  0  0  0  0  0  0  # atno 10764 bound_to 10752
  153.5232  135.7086  153.5782 H   0  0  0  0  0  0  0  0  0  0  0  0  # atno 10765 bound_to 10752
  141.1299  133.8340  157.1003 H   0  0  0  0  0  0  0  0  0  0  0  0  # atno 11005 bound_to 11000
  144.6757  140.0393  143.7481 LP  0  0  0  0  0  0  0  0  0  0  0  0  # atno 17320 bound_to 7965
  145.9779  139.2919  143.1059 LP  0  0  0  0  0  0  0  0  0  0  0  0  # atno 17321 bound_to 7965
  139.4785  144.5645  151.8187 LP  0  0  0  0  0  0  0  0  0  0  0  0  # atno 17342 bound_to 10162
  140.4752  144.1529  150.5924 LP  0  0  0  0  0  0  0  0  0  0  0  0  # atno 17343 bound_to 10162
  157.6693  131.0865  150.7651 LP  0  0  0  0  0  0  0  0  0  0  0  0  # atno 17370 bound_to 10713
  156.7717  130.4831  149.5417 LP  0  0  0  0  0  0  0  0  0  0  0  0  # atno 17371 bound_to 10713
  140.0337  134.9888  157.0830 LP  0  0  0  0  0  0  0  0  0  0  0  0  # atno 17394 bound_to 11000
  140.4244  134.1847  155.7165 LP  0  0  0  0  0  0  0  0  0  0  0  0  # atno 17395 bound_to 11000

$$$$
