AV-unprocessed.smi:1756|AV-procd|sdf|7072|dock7
  -GOLD-   22720 8293D 1   1.00000     0.00000
 Structure written by MMmdl.
 38 39  0  0  0  0  0  0  0  0  1 V2000
  145.4354  138.3761  153.2435 O   0  0  0  0  0  0  0  0  0  0  0  0
  146.4184  137.8417  152.7311 C   0  0  0  0  0  0  0  0  0  0  0  0
  146.3435  136.7445  151.9648 N   0  0  0  0  0  0  0  0  0  0  0  0
  145.1154  136.0378  151.6124 C   0  0  0  0  0  0  0  0  0  0  0  0
  145.3947  134.7048  150.8941 C   0  0  1  0  0  0  0  0  0  0  0  0
  146.3460  133.7716  151.6740 C   0  0  0  0  0  0  0  0  0  0  0  0
  146.4923  132.4237  150.9590 C   0  0  0  0  0  0  0  0  0  0  0  0
  145.1075  131.8278  150.6877 C   0  0  0  0  0  0  0  0  0  0  0  0
  144.2240  132.8493  149.9557 C   0  0  0  0  0  0  0  0  0  0  0  0
  144.1402  134.0504  150.7164 O   0  0  0  0  0  0  0  0  0  0  0  0
  147.6957  138.2434  152.8666 N   0  0  0  0  0  0  0  0  0  0  0  0
  148.2168  139.3456  153.5661 C   0  0  0  0  0  0  0  0  0  0  0  0
  149.1548  139.2747  154.5469 C   0  0  0  0  0  0  0  0  0  0  0  0
  149.6422  140.4580  155.2359 C   0  0  0  0  0  0  0  0  0  0  0  0
  150.7529  140.3760  156.2713 C   0  0  0  0  0  0  0  0  0  0  0  0
  151.8353  141.0456  155.8728 F   0  0  0  0  0  0  0  0  0  0  0  0
  150.3390  140.9041  157.4221 F   0  0  0  0  0  0  0  0  0  0  0  0
  151.1037  139.1101  156.4983 F   0  0  0  0  0  0  0  0  0  0  0  0
  149.1207  141.6361  154.8478 C   0  0  0  0  0  0  0  0  0  0  0  0
  148.1396  141.7159  153.8572 N   0  0  0  0  0  0  0  0  0  0  0  0
  147.6482  140.6497  153.1867 C   0  0  0  0  0  0  0  0  0  0  0  0
  146.7841  140.8039  152.3243 O   0  0  0  0  0  0  0  0  0  0  0  0
  147.7858  142.6353  153.6348 H   0  0  0  0  0  0  0  0  0  0  0  0
  147.2032  136.3683  151.5924 H   0  0  0  0  0  0  0  0  0  0  0  0
  144.4860  135.8744  152.4887 H   0  0  0  0  0  0  0  0  0  0  0  0
  144.5459  136.6904  150.9504 H   0  0  0  0  0  0  0  0  0  0  0  0
  145.8180  134.9196  149.9111 H   0  0  0  0  0  0  0  0  0  0  0  0
  147.3282  134.2298  151.7876 H   0  0  0  0  0  0  0  0  0  0  0  0
  145.9579  133.6106  152.6807 H   0  0  0  0  0  0  0  0  0  0  0  0
  147.0232  132.5640  150.0167 H   0  0  0  0  0  0  0  0  0  0  0  0
  147.0914  131.7379  151.5583 H   0  0  0  0  0  0  0  0  0  0  0  0
  145.1973  130.9143  150.0994 H   0  0  0  0  0  0  0  0  0  0  0  0
  144.6365  131.5487  151.6311 H   0  0  0  0  0  0  0  0  0  0  0  0
  144.6163  133.0622  148.9602 H   0  0  0  0  0  0  0  0  0  0  0  0
  143.2195  132.4474  149.8219 H   0  0  0  0  0  0  0  0  0  0  0  0
  148.3947  137.6581  152.4327 H   0  0  0  0  0  0  0  0  0  0  0  0
  149.5589  138.3275  154.8632 H   0  0  0  0  0  0  0  0  0  0  0  0
  149.4128  142.5939  155.2531 H   0  0  0  0  0  0  0  0  0  0  0  0
  1  2  2  0  0  0  0
  2  3  1  0  0  0  0
  2 11  1  0  0  0  0
  3  4  1  0  0  0  0
  3 24  1  0  0  0  0
  4  5  1  0  0  0  0
  4 25  1  0  0  0  0
  4 26  1  0  0  0  0
  5 10  1  0  0  0  0
  5  6  1  0  0  0  0
  5 27  1  0  0  0  0
  6  7  1  0  0  0  0
  6 28  1  0  0  0  0
  6 29  1  0  0  0  0
  7  8  1  0  0  0  0
  7 30  1  0  0  0  0
  7 31  1  0  0  0  0
  8  9  1  0  0  0  0
  8 32  1  0  0  0  0
  8 33  1  0  0  0  0
  9 10  1  0  0  0  0
  9 34  1  0  0  0  0
  9 35  1  0  0  0  0
 11 12  1  0  0  0  0
 11 36  1  0  0  0  0
 12 21  1  0  0  0  0
 12 13  2  0  0  0  0
 13 14  1  0  0  0  0
 13 37  1  0  0  0  0
 14 15  1  0  0  0  0
 14 19  2  0  0  0  0
 15 16  1  0  0  0  0
 15 17  1  0  0  0  0
 15 18  1  0  0  0  0
 19 20  1  0  0  0  0
 19 38  1  0  0  0  0
 20 23  1  0  0  0  0
 20 21  1  0  0  0  0
 21 22  2  0  0  0  0
M  END
> <s_m_source_file>
AV-unprocessed.smi

> <i_m_source_file_index>
1756

> <i_lp_mmshare_version>
43012

> <i_f3d_flags>
0

> <s_epik_input>
Tz1jMVtuSF1bY0hdYyhDKEYpKEYpRilbY0hdYzFbTkhdQyg9TylbTkhdW0NIMl1bQ0BASF0yW0NIMl1bQ0gyXVtDSDJdW0NIMl1PMg==

> <s_epik_cmdline>
J2VwaWtfcHl0aG9uJywgJy1waCcsICc3LjAnLCAnLXRuJywgJzgnLCAnLW1hJywgJzIwMCcsICctbWV0YWxfYmluZGluZycsICctaW1hZScsICc8aW5maWxlLm1hZT4nLCAnLW9tYWUnLCAnPG91dGZpbGUubWFlPic=

> <r_lp_tautomer_probability>
1

> <r_epik_Ionization_Penalty>
0.00380944

> <r_epik_Ionization_Penalty_Charging>
0.00379057

> <r_epik_Ionization_Penalty_Neutral>
1.88732e-05

> <r_epik_State_Penalty>
-0

> <r_epik_Charging_Adjusted_Penalty>
0.00379057

> <i_epik_Tot_Q>
0

> <i_epik_Tot_abs_Q>
0

> <r_epik_Metal_State_Penalty>
0.371099

> <b_epik_Metal_Only>
0

> <s_lp_Force_Field>
OPLS_2005

> <r_lp_Energy>
19.4394

> <b_lp_Chiralities_Consistent>
1

> <s_lp_Variant>
AV-unprocessed.smi:1756-2

> <Gold.Version>
5.8.1

> <Gold.Id.Protein>
6NUR|6NUR_protein|mol2

> <Gold.PLP.Fitness>
38.6390

> <Gold.PLP.PLP>
-31.0537

> <Gold.PLP.part.hbond>
-2.2542

> <Gold.PLP.part.metal>
0.0000

> <Gold.PLP.part.buried>
-2.3770

> <Gold.PLP.part.nonpolar>
-28.6222

> <Gold.PLP.part.repulsive>
1.8035

> <Gold.PLP.ligand.clash>
0.0000

> <Gold.PLP.ligand.torsion>
0.5947

> <Gold.PLP.Chemscore.Hbond>
1.9120

> <Gold.PLP.Chemscore.CHOScore>
1.0000

> <Gold.PLP.Chemscore.Metal>
0.0000

> <Gold.Chemscore.Hbonds>
donor molecule, donor type, donor heavy atom, donor atom, acceptor molecule, acceptor atom, score
      L1  H     3    24       P1  7948  0.93
      L1  H    11    36       P1  7948  1.00
      L1  C    19    38       P1  8028  1.00

> <Gold.PLP.Chemscore.Internal.Correction>
0.0387

> <Gold.Rescore>
     Score         DG    S(hbond)    S(metal)    S(lipo)     H(rot)  DE(clash)    DE(int)     intcor
     14.56     -15.71       1.96        0.00      60.81       1.33       0.42       0.73       ----

> <Gold.Chemscore.Fitness>
14.5641

> <Gold.Chemscore.DG>
-15.7136

> <Gold.Chemscore.ZeroCoef>
-5.4800

> <Gold.Chemscore.Hbond>
1.9566

> <Gold.Chemscore.Metal>
0.0000

> <Gold.Chemscore.Lipo>
60.8079

> <Gold.Chemscore.Internal_Hbond>
0.0000

> <Gold.Chemscore.DEClash>
0.4211

> <Gold.Chemscore.DEInternal>
0.7284

> <Gold.Chemscore.Rot>
1.3344

> <Gold.Chemscore.Internal.Correction>
   9.000000E+99

> <Gold.Chemscore.Hbonds>
donor molecule, donor type, donor heavy atom, donor atom, acceptor molecule, acceptor atom, score
      L1  H     3    24       P1  7948  0.90
      L1  H    11    36       P1  7948  0.97

> <Gold.Chemscore.Hbond.Weighted>
-6.5350

> <Gold.Chemscore.Metal.Weighted>
-0.0000

> <Gold.Chemscore.Lipo.Weighted>
-7.1145

> <Gold.Chemscore.Internal_Hbond.Weighted>
0.0000

> <Gold.Chemscore.DEClash.Weighted>
0.4211

> <Gold.Chemscore.DEInternal.Weighted>
0.7284

> <Gold.Chemscore.Rot.Weighted>
3.4160

> <Gold.Chemscore.Internal.Correction.Weighted>
   9.000000E+99

> <Gold.Protein.RotatedTorsions>
[ 6907 6896 6895 6894 ] final   46.79 input  -60.11 | X-H torsion
[ 7974 7965 7964 7962 ] final   -3.51 input  175.53 | X-H torsion
[ 8008 7997 7996 7995 ] final -109.24 input   59.86 | X-H torsion
[ 10167 10162 10161 10158 ] final  -25.40 input  -65.29 | X-H torsion
[ 10718 10713 10712 10709 ] final  -25.44 input   66.30 | X-H torsion
[ 10763 10752 10751 10750 ] final  -22.42 input  -60.55 | X-H torsion
[ 11005 11000 10999 10996 ] final -160.66 input  -57.11 | X-H torsion

> <Gold.Protein.ActiveResidues>
 VAL166  LYS551  ARG553  GLY616  TRP617  ASP618  TYR619  PRO620  LYS621  CYS622 
 ASP623  PHE694  ASN695  SER759  ASP760  ASP761  ALA762  ILE779  LEU786  VAL792 
 PHE793  MET794  SER795  GLU796  ALA797  LYS798  CYS799  TRP800  GLU811  SER814 

> <Gold.Protein.RotatedAtoms>
  152.2605  134.8039  160.0431 H   0  0  0  0  0  0  0  0  0  0  0  0  # atno 6907 bound_to 6896
  151.8687  133.3466  159.3736 H   0  0  0  0  0  0  0  0  0  0  0  0  # atno 6908 bound_to 6896
  150.7115  134.5061  159.5629 H   0  0  0  0  0  0  0  0  0  0  0  0  # atno 6909 bound_to 6896
  146.2388  140.1732  142.8332 H   0  0  0  0  0  0  0  0  0  0  0  0  # atno 7974 bound_to 7965
  154.9563  140.0400  157.2168 H   0  0  0  0  0  0  0  0  0  0  0  0  # atno 8008 bound_to 7997
  154.7931  140.2839  155.5955 H   0  0  0  0  0  0  0  0  0  0  0  0  # atno 8009 bound_to 7997
  156.2952  140.2569  156.2782 H   0  0  0  0  0  0  0  0  0  0  0  0  # atno 8010 bound_to 7997
  140.7286  143.4268  151.0864 H   0  0  0  0  0  0  0  0  0  0  0  0  # atno 10167 bound_to 10162
  156.4643  130.4510  149.6909 H   0  0  0  0  0  0  0  0  0  0  0  0  # atno 10718 bound_to 10713
  153.6517  135.6980  153.5206 H   0  0  0  0  0  0  0  0  0  0  0  0  # atno 10763 bound_to 10752
  153.2701  135.4217  155.0979 H   0  0  0  0  0  0  0  0  0  0  0  0  # atno 10764 bound_to 10752
  154.8474  135.3576  154.6062 H   0  0  0  0  0  0  0  0  0  0  0  0  # atno 10765 bound_to 10752
  140.6290  134.4671  157.5228 H   0  0  0  0  0  0  0  0  0  0  0  0  # atno 11005 bound_to 11000
  144.9994  140.8618  143.5291 LP  0  0  0  0  0  0  0  0  0  0  0  0  # atno 17320 bound_to 7965
  145.1750  139.2383  143.5322 LP  0  0  0  0  0  0  0  0  0  0  0  0  # atno 17321 bound_to 7965
  139.7920  143.8204  152.3153 LP  0  0  0  0  0  0  0  0  0  0  0  0  # atno 17342 bound_to 10162
  139.8192  144.7303  150.9595 LP  0  0  0  0  0  0  0  0  0  0  0  0  # atno 17343 bound_to 10162
  156.3684  130.7518  151.2498 LP  0  0  0  0  0  0  0  0  0  0  0  0  # atno 17370 bound_to 10713
  157.7496  131.0330  150.4252 LP  0  0  0  0  0  0  0  0  0  0  0  0  # atno 17371 bound_to 10713
  139.9123  134.8318  156.1484 LP  0  0  0  0  0  0  0  0  0  0  0  0  # atno 17394 bound_to 11000
  141.0689  133.6806  156.2100 LP  0  0  0  0  0  0  0  0  0  0  0  0  # atno 17395 bound_to 11000

$$$$
