#       Name:                AV-unprocessed.smi:2725
#       Creating user name   scv26
#       Creation time:       Fri Mar 27 14:55:24 2020


#       File generated by GOLD software.
#

@<TRIPOS>MOLECULE
AV-unprocessed.smi:2725
    49    50     1
SMALL
NO_CHARGES


@<TRIPOS>ATOM
      1 ****         1.3377   1.8900  -0.7999 O.2            1 S1                 0.0000
      2 ****         0.9112   0.7396  -0.9053 C.2            1 S1                 0.0000
      3 ****        -0.5942   0.4611  -0.9524 C.3            1 S1                 0.0000
      4 ****        -1.4425   1.5665  -0.2942 C.3            1 S1                 0.0000
      5 ****        -2.9446   1.2335  -0.2609 C.3            1 S1                 0.0000
      6 ****        -3.6124   1.1718  -1.6386 C.3            1 S1                 0.0000
      7 ****        -5.1101   1.3609  -1.3707 C.3            1 S1                 0.0000
      8 ****        -5.2213   2.0334   0.0063 C.3            1 S1                 0.0000
      9 ****        -3.7850   2.2751   0.4810 C.3            1 S1                 0.0000
     10 ****         1.7096  -0.3358  -0.9828 N.am           1 S1                 0.0000
     11 ****         3.1720  -0.3099  -0.9530 C.3            1 S1                 0.0000
     12 ****         3.7147  -1.5916  -1.6167 C.3            1 S1                 0.0000
     13 ****         3.7406  -1.4466  -3.0212 O.3            1 S1                 0.0000
     14 ****         3.6926  -0.1429   0.4966 C.3            1 S1                 0.0000
     15 ****         3.0963  -1.1163   1.5034 C.ar           1 S1                 0.0000
     16 ****         2.0231  -0.7266   2.3340 C.ar           1 S1                 0.0000
     17 ****         1.5004  -1.6665   3.2428 C.ar           1 S1                 0.0000
     18 ****         2.0700  -2.9536   3.2895 C.ar           1 S1                 0.0000
     19 ****         3.1416  -3.2439   2.4218 C.ar           1 S1                 0.0000
     20 ****         3.6487  -2.3502   1.5454 N.ar           1 S1                 0.0000
     21 ****        -0.8836   0.3359  -1.9961 H              1 S1                 0.0000
     22 ****        -0.7908  -0.4903  -0.4556 H              1 S1                 0.0000
     23 ****        -1.0956   1.7224   0.7284 H              1 S1                 0.0000
     24 ****        -1.2913   2.5133  -0.8154 H              1 S1                 0.0000
     25 ****        -3.0861   0.2721   0.2356 H              1 S1                 0.0000
     26 ****        -3.2511   1.9905  -2.2629 H              1 S1                 0.0000
     27 ****        -3.4018   0.2402  -2.1644 H              1 S1                 0.0000
     28 ****        -5.5776   1.9588  -2.1536 H              1 S1                 0.0000
     29 ****        -5.6160   0.3950  -1.3526 H              1 S1                 0.0000
     30 ****        -5.7917   2.9619  -0.0351 H              1 S1                 0.0000
     31 ****        -5.7349   1.3662   0.6995 H              1 S1                 0.0000
     32 ****        -3.6867   2.1981   1.5643 H              1 S1                 0.0000
     33 ****        -3.4724   3.2796   0.1920 H              1 S1                 0.0000
     34 ****         1.2737  -1.2423  -1.0717 H              1 S1                 0.0000
     35 ****         3.5353   0.5457  -1.5260 H              1 S1                 0.0000
     36 ****         4.7407  -1.7780  -1.2984 H              1 S1                 0.0000
     37 ****         3.1320  -2.4710  -1.3392 H              1 S1                 0.0000
     38 ****         4.1088  -2.2314  -3.3976 H              1 S1                 0.0000
     39 ****         4.7799  -0.2291   0.5167 H              1 S1                 0.0000
     40 ****         3.4793   0.8708   0.8385 H              1 S1                 0.0000
     41 ****         1.6054   0.2678   2.2725 H              1 S1                 0.0000
     42 ****         0.6777  -1.4049   3.8917 H              1 S1                 0.0000
     43 ****         1.6956  -3.7001   3.9742 H              1 S1                 0.0000
     44 ****         3.6035  -4.2201   2.4309 H              1 S1                 0.0000
     45 ****         0.6985   2.6571  -0.7439 LP             1 S1                 0.0000
     46 ****         2.3232   2.0572  -0.7704 LP             1 S1                 0.0000
     47 ****         4.3035  -0.6579  -3.2684 LP             1 S1                 0.0000
     48 ****         2.8106  -1.3127  -3.3635 LP             1 S1                 0.0000
     49 ****         4.4104  -2.5936   0.9450 LP             1 S1                 0.0000
@<TRIPOS>BOND
    1    1    2 2     
    2    2    3 1     
    3    2   10 am    
    4    3    4 1     
    5    3   21 1     
    6    3   22 1     
    7    4    5 1     
    8    4   23 1     
    9    4   24 1     
   10    5    9 1     
   11    5    6 1     
   12    5   25 1     
   13    6    7 1     
   14    6   26 1     
   15    6   27 1     
   16    7    8 1     
   17    7   28 1     
   18    7   29 1     
   19    8    9 1     
   20    8   30 1     
   21    8   31 1     
   22    9   32 1     
   23    9   33 1     
   24   10   11 1     
   25   10   34 1     
   26   11   12 1     
   27   11   14 1     
   28   11   35 1     
   29   12   13 1     
   30   12   36 1     
   31   12   37 1     
   32   13   38 1     
   33   14   15 1     
   34   14   39 1     
   35   14   40 1     
   36   15   20 ar    
   37   15   16 ar    
   38   16   17 ar    
   39   16   41 1     
   40   17   18 ar    
   41   17   42 1     
   42   18   19 ar    
   43   18   43 1     
   44   19   20 ar    
   45   19   44 1     
   46    1   45 1     
   47    1   46 1     
   48   13   47 1     
   49   13   48 1     
   50   20   49 1     
@<TRIPOS>SUBSTRUCTURE
      1 S1             1
@<TRIPOS>SET
LONE_PAIRS      STATIC     ATOMS    <user>   **** ""
5 45 46 47 48 49
DONOR_HYDROGENS      STATIC     ATOMS    <user>   **** ""
2 34 38
ATOM$BLUE        STATIC     ATOMS    COLORGROUP SYSTEM
5 45 46 47 48 49
ATOM$RED        STATIC     ATOMS    COLORGROUP SYSTEM
2 34 38
