AV-unprocessed.smi:2768|AV-procd|sdf|10650|dock2
  -GOLD-   2272015103D 1   1.00000     0.00000
 Structure written by MMmdl.
 35 36  0  0  0  0  0  0  0  0  1 V2000
  152.7643  139.6994  155.6538 O   0  0  0  0  0  0  0  0  0  0  0  0
  151.5714  139.7462  155.9565 C   0  0  0  0  0  0  0  0  0  0  0  0
  151.0826  140.5957  156.8756 N   0  0  0  0  0  0  0  0  0  0  0  0
  151.8535  141.6014  157.6017 C   0  0  2  0  0  0  0  0  0  0  0  0
  151.8966  141.2533  159.1024 C   0  0  0  0  0  0  0  0  0  0  0  0
  152.7013  142.2955  159.8947 C   0  0  0  0  0  0  0  0  0  0  0  0
  152.1440  143.7112  159.6794 C   0  0  0  0  0  0  0  0  0  0  0  0
  152.0872  144.0722  158.1841 C   0  0  0  0  0  0  0  0  0  0  0  0
  151.3043  143.0306  157.3612 C   0  0  2  0  0  0  0  0  0  0  0  0
  149.9310  143.1089  157.6988 O   0  0  0  0  0  0  0  0  0  0  0  0
  150.5569  138.8144  155.2751 C   0  0  0  0  0  0  0  0  0  0  0  0
  151.1772  138.0932  154.3382 F   0  0  0  0  0  0  0  0  0  0  0  0
  150.0849  137.9717  156.1960 F   0  0  0  0  0  0  0  0  0  0  0  0
  149.4232  139.6146  154.6344 C   0  0  0  0  0  0  0  0  0  0  0  0
  148.3613  138.9687  153.9600 C   0  0  0  0  0  0  0  0  0  0  0  0
  147.3340  139.7564  153.4059 C   0  0  0  0  0  0  0  0  0  0  0  0
  147.4010  141.1553  153.5452 C   0  0  0  0  0  0  0  0  0  0  0  0
  148.4983  141.7073  154.2341 C   0  0  0  0  0  0  0  0  0  0  0  0
  149.4881  140.9612  154.7691 N   0  0  0  0  0  0  0  0  0  0  0  0
  152.8800  141.5665  157.2311 H   0  0  0  0  0  0  0  0  0  0  0  0
  151.3903  143.2858  156.3044 H   0  0  0  0  0  0  0  0  0  0  0  0
  150.0916  140.5624  157.0669 H   0  0  0  0  0  0  0  0  0  0  0  0
  150.8832  141.1963  159.5024 H   0  0  0  0  0  0  0  0  0  0  0  0
  152.3391  140.2666  159.2444 H   0  0  0  0  0  0  0  0  0  0  0  0
  152.6855  142.0481  160.9565 H   0  0  0  0  0  0  0  0  0  0  0  0
  153.7466  142.2629  159.5852 H   0  0  0  0  0  0  0  0  0  0  0  0
  151.1454  143.7799  160.1129 H   0  0  0  0  0  0  0  0  0  0  0  0
  152.7593  144.4367  160.2120 H   0  0  0  0  0  0  0  0  0  0  0  0
  151.6501  145.0629  158.0541 H   0  0  0  0  0  0  0  0  0  0  0  0
  153.1051  144.1375  157.7976 H   0  0  0  0  0  0  0  0  0  0  0  0
  149.4893  143.6158  157.0347 H   0  0  0  0  0  0  0  0  0  0  0  0
  148.3254  137.8932  153.8694 H   0  0  0  0  0  0  0  0  0  0  0  0
  146.5081  139.2951  152.8847 H   0  0  0  0  0  0  0  0  0  0  0  0
  146.6302  141.7902  153.1340 H   0  0  0  0  0  0  0  0  0  0  0  0
  148.5821  142.7766  154.3602 H   0  0  0  0  0  0  0  0  0  0  0  0
  1  2  2  0  0  0  0
  2  3  1  0  0  0  0
  2 11  1  0  0  0  0
  3  4  1  0  0  0  0
  3 22  1  0  0  0  0
  4 20  1  0  0  0  0
  4  9  1  0  0  0  0
  4  5  1  0  0  0  0
  5  6  1  0  0  0  0
  5 23  1  0  0  0  0
  5 24  1  0  0  0  0
  6  7  1  0  0  0  0
  6 25  1  0  0  0  0
  6 26  1  0  0  0  0
  7  8  1  0  0  0  0
  7 27  1  0  0  0  0
  7 28  1  0  0  0  0
  8  9  1  0  0  0  0
  8 29  1  0  0  0  0
  8 30  1  0  0  0  0
  9 21  1  0  0  0  0
  9 10  1  0  0  0  0
 10 31  1  0  0  0  0
 11 12  1  0  0  0  0
 11 13  1  0  0  0  0
 11 14  1  0  0  0  0
 14 19  1  0  0  0  0
 14 15  2  0  0  0  0
 15 16  1  0  0  0  0
 15 32  1  0  0  0  0
 16 17  2  0  0  0  0
 16 33  1  0  0  0  0
 17 18  1  0  0  0  0
 17 34  1  0  0  0  0
 18 19  2  0  0  0  0
 18 35  1  0  0  0  0
M  END
> <s_m_source_file>
AV-unprocessed.smi

> <i_m_source_file_index>
2768

> <i_lp_mmshare_version>
43012

> <i_f3d_flags>
0

> <s_epik_input>
bjFbY0hdW2NIXVtjSF1bY0hdYzFDKEYpKEYpQyg9TylbTkhdW0NAQEhdMltDSDJdW0NIMl1bQ0gyXVtDSDJdW0NASF0yW09IXQ==

> <s_epik_cmdline>
J2VwaWtfcHl0aG9uJywgJy1waCcsICc3LjAnLCAnLXRuJywgJzgnLCAnLW1hJywgJzIwMCcsICctbWV0YWxfYmluZGluZycsICctaW1hZScsICc8aW5maWxlLm1hZT4nLCAnLW9tYWUnLCAnPG91dGZpbGUubWFlPic=

> <r_lp_tautomer_probability>
1

> <r_epik_Ionization_Penalty>
4.19456e-05

> <r_epik_Ionization_Penalty_Charging>
0

> <r_epik_Ionization_Penalty_Neutral>
4.19456e-05

> <r_epik_State_Penalty>
-0

> <r_epik_Charging_Adjusted_Penalty>
0

> <i_epik_Tot_Q>
0

> <i_epik_Tot_abs_Q>
0

> <r_epik_Metal_State_Penalty>
0.0354684

> <b_epik_Metal_Only>
0

> <s_lp_Force_Field>
OPLS_2005

> <r_lp_Energy>
19.5253

> <b_lp_Chiralities_Consistent>
1

> <s_lp_Variant>
AV-unprocessed.smi:2768-3

> <Gold.Version>
5.8.1

> <Gold.Id.Protein>
6NUR|6NUR_protein|mol2

> <Gold.PLP.Fitness>
49.6126

> <Gold.PLP.PLP>
-40.7745

> <Gold.PLP.part.hbond>
-2.3009

> <Gold.PLP.part.metal>
0.0000

> <Gold.PLP.part.buried>
-4.2028

> <Gold.PLP.part.nonpolar>
-34.2089

> <Gold.PLP.part.repulsive>
0.2048

> <Gold.PLP.ligand.clash>
0.0000

> <Gold.PLP.ligand.torsion>
0.0923

> <Gold.PLP.Chemscore.Hbond>
2.0000

> <Gold.PLP.Chemscore.CHOScore>
1.0000

> <Gold.PLP.Chemscore.Metal>
0.0000

> <Gold.Chemscore.Hbonds>
donor molecule, donor type, donor heavy atom, donor atom, acceptor molecule, acceptor atom, score
      L1  H    10    31       P1  8028  1.00
      P1  H  7997  8008       L1     1  1.00
      L1  C    18    35       P1  8028  1.00

> <Gold.PLP.Chemscore.Internal.Correction>
0.0225

> <Gold.Rescore>
     Score         DG    S(hbond)    S(metal)    S(lipo)     H(rot)  DE(clash)    DE(int)     intcor
     17.08     -18.79       1.96        0.00     101.45       2.00       0.08       1.63       ----

> <Gold.Chemscore.Fitness>
17.0842

> <Gold.Chemscore.DG>
-18.7948

> <Gold.Chemscore.ZeroCoef>
-5.4800

> <Gold.Chemscore.Hbond>
1.9632

> <Gold.Chemscore.Metal>
0.0000

> <Gold.Chemscore.Lipo>
101.4527

> <Gold.Chemscore.Internal_Hbond>
0.0000

> <Gold.Chemscore.DEClash>
0.0834

> <Gold.Chemscore.DEInternal>
1.6273

> <Gold.Chemscore.Rot>
1.9969

> <Gold.Chemscore.Internal.Correction>
   9.000000E+99

> <Gold.Chemscore.Hbonds>
donor molecule, donor type, donor heavy atom, donor atom, acceptor molecule, acceptor atom, score
      L1  H    10    31       P1  8028  0.88
      P1  H  7997  8008       L1     1  1.00

> <Gold.Chemscore.Hbond.Weighted>
-6.5570

> <Gold.Chemscore.Metal.Weighted>
-0.0000

> <Gold.Chemscore.Lipo.Weighted>
-11.8700

> <Gold.Chemscore.Internal_Hbond.Weighted>
0.0000

> <Gold.Chemscore.DEClash.Weighted>
0.0834

> <Gold.Chemscore.DEInternal.Weighted>
1.6273

> <Gold.Chemscore.Rot.Weighted>
5.1122

> <Gold.Chemscore.Internal.Correction.Weighted>
   9.000000E+99

> <Gold.Protein.RotatedTorsions>
[ 6907 6896 6895 6894 ] final  166.84 input  -60.11 | X-H torsion
[ 7974 7965 7964 7962 ] final  104.08 input  175.53 | X-H torsion
[ 8008 7997 7996 7995 ] final  -23.96 input   59.86 | X-H torsion
[ 10167 10162 10161 10158 ] final  -13.78 input  -65.29 | X-H torsion
[ 10718 10713 10712 10709 ] final -117.83 input   66.30 | X-H torsion
[ 10763 10752 10751 10750 ] final  -77.78 input  -60.55 | X-H torsion
[ 11005 11000 10999 10996 ] final -140.36 input  -57.11 | X-H torsion

> <Gold.Protein.ActiveResidues>
 VAL166  LYS551  ARG553  GLY616  TRP617  ASP618  TYR619  PRO620  LYS621  CYS622 
 ASP623  PHE694  ASN695  SER759  ASP760  ASP761  ALA762  ILE779  LEU786  VAL792 
 PHE793  MET794  SER795  GLU796  ALA797  LYS798  CYS799  TRP800  GLU811  SER814 

> <Gold.Protein.RotatedAtoms>
  151.8727  133.3479  159.3739 H   0  0  0  0  0  0  0  0  0  0  0  0  # atno 6907 bound_to 6896
  150.7148  134.5097  159.5610 H   0  0  0  0  0  0  0  0  0  0  0  0  # atno 6908 bound_to 6896
  152.2633  134.8012  160.0478 H   0  0  0  0  0  0  0  0  0  0  0  0  # atno 6909 bound_to 6896
  145.3375  139.2470  143.3627 H   0  0  0  0  0  0  0  0  0  0  0  0  # atno 7974 bound_to 7965
  154.4555  140.1966  156.0391 H   0  0  0  0  0  0  0  0  0  0  0  0  # atno 8008 bound_to 7997
  156.0738  140.3281  155.7580 H   0  0  0  0  0  0  0  0  0  0  0  0  # atno 8009 bound_to 7997
  155.5221  140.0570  157.2895 H   0  0  0  0  0  0  0  0  0  0  0  0  # atno 8010 bound_to 7997
  140.7189  143.5390  150.9431 H   0  0  0  0  0  0  0  0  0  0  0  0  # atno 10167 bound_to 10162
  156.1062  130.6212  150.9213 H   0  0  0  0  0  0  0  0  0  0  0  0  # atno 10718 bound_to 10713
  154.5174  135.5752  153.6653 H   0  0  0  0  0  0  0  0  0  0  0  0  # atno 10763 bound_to 10752
  152.9910  135.6173  154.2799 H   0  0  0  0  0  0  0  0  0  0  0  0  # atno 10764 bound_to 10752
  154.2717  135.2853  155.2715 H   0  0  0  0  0  0  0  0  0  0  0  0  # atno 10765 bound_to 10752
  140.8430  134.2379  157.4800 H   0  0  0  0  0  0  0  0  0  0  0  0  # atno 11005 bound_to 11000
  146.3021  140.3966  142.8700 LP  0  0  0  0  0  0  0  0  0  0  0  0  # atno 17320 bound_to 7965
  144.8816  140.7407  143.5983 LP  0  0  0  0  0  0  0  0  0  0  0  0  # atno 17321 bound_to 7965
  139.9112  143.6718  152.3115 LP  0  0  0  0  0  0  0  0  0  0  0  0  # atno 17342 bound_to 10162
  139.7102  144.7621  151.1126 LP  0  0  0  0  0  0  0  0  0  0  0  0  # atno 17343 bound_to 10162
  157.6238  131.0927  150.8571 LP  0  0  0  0  0  0  0  0  0  0  0  0  # atno 17370 bound_to 10713
  156.8690  130.5139  149.5298 LP  0  0  0  0  0  0  0  0  0  0  0  0  # atno 17371 bound_to 10713
  139.8703  134.9645  156.4497 LP  0  0  0  0  0  0  0  0  0  0  0  0  # atno 17394 bound_to 11000
  140.8874  133.7873  155.9534 LP  0  0  0  0  0  0  0  0  0  0  0  0  # atno 17395 bound_to 11000

$$$$
