AV-unprocessed.smi:862|AV-procd|sdf|3976|dock8
  -GOLD-   22720 1453D 1   1.00000     0.00000
 Structure written by MMmdl.
 44 46  0  0  0  0  0  0  0  0  2 V2000
  147.7065  140.5568  153.1338 N   0  0  0  0  0  0  0  0  0  0  0  0
  147.3243  140.6600  154.4104 C   0  0  0  0  0  0  0  0  0  0  0  0
  146.1508  140.8808  154.7038 O   0  0  0  0  0  0  0  0  0  0  0  0
  148.3049  140.4588  155.3264 N   0  0  0  0  0  0  0  0  0  0  0  0
  149.7495  140.3941  155.0497 C   0  0  0  0  0  0  0  0  0  0  0  0
  150.3994  141.7130  155.5075 C   0  0  0  0  0  0  0  0  0  0  0  0
  150.1260  141.9826  157.0023 C   0  0  0  0  0  0  0  0  0  0  0  0
  150.6473  143.3167  157.3752 N   0  3  0  0  0  0  0  0  0  0  0  0
  150.8274  143.5655  158.8239 C   0  0  2  0  0  0  0  0  0  0  0  0
  150.4026  144.9679  159.2696 C   0  0  0  0  0  0  0  0  0  0  0  0
  151.1714  145.2261  160.5720 C   0  0  0  0  0  0  0  0  0  0  0  0
  152.3570  144.2479  160.5806 C   0  0  0  0  0  0  0  0  0  0  0  0
  152.3040  143.5124  159.2332 C   0  0  1  0  0  0  0  0  0  0  0  0
  152.8396  142.1609  159.2894 N   0  0  0  0  0  0  0  0  0  0  0  0
  153.5194  141.5562  160.3413 C   0  0  0  0  0  0  0  0  0  0  0  0
  153.8188  140.2760  159.9349 C   0  0  0  0  0  0  0  0  0  0  0  0
  153.3338  140.0693  158.6464 N   0  0  0  0  0  0  0  0  0  0  0  0
  152.7706  141.2274  158.3296 C   0  0  0  0  0  0  0  0  0  0  0  0
  148.6160  141.8608  157.3100 C   0  0  0  0  0  0  0  0  0  0  0  0
  148.0441  140.5379  156.7687 C   0  0  0  0  0  0  0  0  0  0  0  0
  147.0266  140.6836  152.3979 H   0  0  0  0  0  0  0  0  0  0  0  0
  148.6669  140.3427  152.9086 H   0  0  0  0  0  0  0  0  0  0  0  0
  150.1819  139.5551  155.5969 H   0  0  0  0  0  0  0  0  0  0  0  0
  149.9899  140.2102  154.0026 H   0  0  0  0  0  0  0  0  0  0  0  0
  151.4741  141.6780  155.3251 H   0  0  0  0  0  0  0  0  0  0  0  0
  150.0100  142.5341  154.9033 H   0  0  0  0  0  0  0  0  0  0  0  0
  150.6607  141.2199  157.5712 H   0  0  0  0  0  0  0  0  0  0  0  0
  151.5640  143.3963  156.9587 H   0  0  0  0  0  0  0  0  0  0  0  0
  150.2658  142.8234  159.3941 H   0  0  0  0  0  0  0  0  0  0  0  0
  150.7034  145.7047  158.5231 H   0  0  0  0  0  0  0  0  0  0  0  0
  149.3246  145.0546  159.4078 H   0  0  0  0  0  0  0  0  0  0  0  0
  151.5015  146.2637  160.6335 H   0  0  0  0  0  0  0  0  0  0  0  0
  150.5310  145.0380  161.4347 H   0  0  0  0  0  0  0  0  0  0  0  0
  153.3094  144.7617  160.7170 H   0  0  0  0  0  0  0  0  0  0  0  0
  152.2428  143.5553  161.4155 H   0  0  0  0  0  0  0  0  0  0  0  0
  152.8901  144.0855  158.5117 H   0  0  0  0  0  0  0  0  0  0  0  0
  153.7322  142.0710  161.2669 H   0  0  0  0  0  0  0  0  0  0  0  0
  154.3416  139.4943  160.4662 H   0  0  0  0  0  0  0  0  0  0  0  0
  152.2925  141.3980  157.3761 H   0  0  0  0  0  0  0  0  0  0  0  0
  148.4331  141.9179  158.3820 H   0  0  0  0  0  0  0  0  0  0  0  0
  148.0770  142.6963  156.8607 H   0  0  0  0  0  0  0  0  0  0  0  0
  146.9819  140.4639  157.0068 H   0  0  0  0  0  0  0  0  0  0  0  0
  148.5163  139.6911  157.2687 H   0  0  0  0  0  0  0  0  0  0  0  0
  150.0565  144.0314  156.9748 H   0  0  0  0  0  0  0  0  0  0  0  0
  1  2  1  0  0  0  0
  1 21  1  0  0  0  0
  1 22  1  0  0  0  0
  2  3  2  0  0  0  0
  2  4  1  0  0  0  0
  4 20  1  0  0  0  0
  4  5  1  0  0  0  0
  5  6  1  0  0  0  0
  5 23  1  0  0  0  0
  5 24  1  0  0  0  0
  6  7  1  0  0  0  0
  6 25  1  0  0  0  0
  6 26  1  0  0  0  0
  7  8  1  0  0  0  0
  7 19  1  0  0  0  0
  7 27  1  0  0  0  0
  8  9  1  0  0  0  0
  8 28  1  0  0  0  0
  8 44  1  0  0  0  0
  9 13  1  0  0  0  0
  9 10  1  0  0  0  0
  9 29  1  0  0  0  0
 10 11  1  0  0  0  0
 10 30  1  0  0  0  0
 10 31  1  0  0  0  0
 11 12  1  0  0  0  0
 11 32  1  0  0  0  0
 11 33  1  0  0  0  0
 12 13  1  0  0  0  0
 12 34  1  0  0  0  0
 12 35  1  0  0  0  0
 13 14  1  0  0  0  0
 13 36  1  0  0  0  0
 14 18  1  0  0  0  0
 14 15  1  0  0  0  0
 15 16  2  0  0  0  0
 15 37  1  0  0  0  0
 16 17  1  0  0  0  0
 16 38  1  0  0  0  0
 17 18  2  0  0  0  0
 18 39  1  0  0  0  0
 19 20  1  0  0  0  0
 19 40  1  0  0  0  0
 19 41  1  0  0  0  0
 20 42  1  0  0  0  0
 20 43  1  0  0  0  0
M  CHG  1   8   1
M  END
> <s_m_source_file>
AV-unprocessed.smi

> <i_m_source_file_index>
862

> <i_lp_mmshare_version>
43012

> <i_f3d_flags>
0

> <s_epik_input>
W05IMl1DKD1PKU4xW0NIMl1bQ0gyXVtDSF0oW0NIMl1bQ0gyXTEpW05IXVtDQEBIXTJbQ0gyXVtDSDJdW0NIMl1bQ0BIXTJuM1tjSF1bY0hdbltjSF0z

> <s_epik_cmdline>
J2VwaWtfcHl0aG9uJywgJy1waCcsICc3LjAnLCAnLXRuJywgJzgnLCAnLW1hJywgJzIwMCcsICctbWV0YWxfYmluZGluZycsICctaW1hZScsICc8aW5maWxlLm1hZT4nLCAnLW9tYWUnLCAnPG91dGZpbGUubWFlPic=

> <r_lp_tautomer_probability>
1

> <r_epik_Ionization_Penalty>
0.0731506

> <r_epik_Ionization_Penalty_Charging>
0.0731

> <r_epik_Ionization_Penalty_Neutral>
5.05966e-05

> <r_epik_State_Penalty>
0.128895

> <r_epik_Charging_Adjusted_Penalty>
0.201995

> <i_epik_Tot_Q>
1

> <i_epik_Tot_abs_Q>
1

> <r_epik_Metal_State_Penalty>
0.113934

> <b_epik_Metal_Only>
0

> <s_lp_Force_Field>
OPLS_2005

> <r_lp_Energy>
56.1174

> <b_lp_Chiralities_Consistent>
1

> <s_lp_Variant>
AV-unprocessed.smi:862-1

> <Gold.Version>
5.8.1

> <Gold.Id.Protein>
6NUR|6NUR_protein|mol2

> <Gold.PLP.Fitness>
45.1841

> <Gold.PLP.PLP>
-36.3307

> <Gold.PLP.part.hbond>
-3.0000

> <Gold.PLP.part.metal>
0.0000

> <Gold.PLP.part.buried>
-3.6789

> <Gold.PLP.part.nonpolar>
-28.0840

> <Gold.PLP.part.repulsive>
0.2059

> <Gold.PLP.ligand.clash>
0.0000

> <Gold.PLP.ligand.torsion>
0.8980

> <Gold.PLP.Chemscore.Hbond>
3.5321

> <Gold.PLP.Chemscore.CHOScore>
0.0000

> <Gold.PLP.Chemscore.Metal>
0.0000

> <Gold.Chemscore.Hbonds>
donor molecule, donor type, donor heavy atom, donor atom, acceptor molecule, acceptor atom, score
      L1  H     1    22       P1  7957  0.64
      L1  H     8    44       P1  8028  2.00
      P1  H  7997  8010       L1    17  0.83

> <Gold.PLP.Chemscore.Internal.Correction>
0.0530

> <Gold.Rescore>
     Score         DG    S(hbond)    S(metal)    S(lipo)     H(rot)  DE(clash)    DE(int)     intcor
     16.77     -18.66       1.83        0.00      96.34       1.64       0.39       1.50       ----

> <Gold.Chemscore.Fitness>
16.7736

> <Gold.Chemscore.DG>
-18.6605

> <Gold.Chemscore.ZeroCoef>
-5.4800

> <Gold.Chemscore.Hbond>
1.8294

> <Gold.Chemscore.Metal>
0.0000

> <Gold.Chemscore.Lipo>
96.3376

> <Gold.Chemscore.Internal_Hbond>
0.0000

> <Gold.Chemscore.DEClash>
0.3882

> <Gold.Chemscore.DEInternal>
1.4987

> <Gold.Chemscore.Rot>
1.6411

> <Gold.Chemscore.Internal.Correction>
   9.000000E+99

> <Gold.Chemscore.Hbonds>
donor molecule, donor type, donor heavy atom, donor atom, acceptor molecule, acceptor atom, score
      L1  H     1    22       P1  7957  0.61
      L1  H     8    44       P1  8028  0.93
      P1  H  7997  8010       L1    17  0.12

> <Gold.Chemscore.Hbond.Weighted>
-6.1103

> <Gold.Chemscore.Metal.Weighted>
-0.0000

> <Gold.Chemscore.Lipo.Weighted>
-11.2715

> <Gold.Chemscore.Internal_Hbond.Weighted>
0.0000

> <Gold.Chemscore.DEClash.Weighted>
0.3882

> <Gold.Chemscore.DEInternal.Weighted>
1.4987

> <Gold.Chemscore.Rot.Weighted>
4.2013

> <Gold.Chemscore.Internal.Correction.Weighted>
   9.000000E+99

> <Gold.Protein.RotatedTorsions>
[ 6907 6896 6895 6894 ] final    3.04 input  -60.11 | X-H torsion
[ 7974 7965 7964 7962 ] final   24.12 input  175.53 | X-H torsion
[ 8008 7997 7996 7995 ] final   22.80 input   59.86 | X-H torsion
[ 10167 10162 10161 10158 ] final   85.74 input  -65.29 | X-H torsion
[ 10718 10713 10712 10709 ] final -128.63 input   66.30 | X-H torsion
[ 10763 10752 10751 10750 ] final  -77.88 input  -60.55 | X-H torsion
[ 11005 11000 10999 10996 ] final -138.74 input  -57.11 | X-H torsion

> <Gold.Protein.ActiveResidues>
 VAL166  LYS551  ARG553  GLY616  TRP617  ASP618  TYR619  PRO620  LYS621  CYS622 
 ASP623  PHE694  ASN695  SER759  ASP760  ASP761  ALA762  ILE779  LEU786  VAL792 
 PHE793  MET794  SER795  GLU796  ALA797  LYS798  CYS799  TRP800  GLU811  SER814 

> <Gold.Protein.RotatedAtoms>
  151.6186  135.1034  160.0096 H   0  0  0  0  0  0  0  0  0  0  0  0  # atno 6907 bound_to 6896
  152.4170  133.7049  159.6456 H   0  0  0  0  0  0  0  0  0  0  0  0  # atno 6908 bound_to 6896
  150.8058  133.8440  159.3228 H   0  0  0  0  0  0  0  0  0  0  0  0  # atno 6909 bound_to 6896
  146.1952  139.7649  142.8802 H   0  0  0  0  0  0  0  0  0  0  0  0  # atno 7974 bound_to 7965
  154.9711  140.3090  155.4987 H   0  0  0  0  0  0  0  0  0  0  0  0  # atno 8008 bound_to 7997
  156.2965  140.2283  156.4743 H   0  0  0  0  0  0  0  0  0  0  0  0  # atno 8009 bound_to 7997
  154.7875  140.0442  157.1164 H   0  0  0  0  0  0  0  0  0  0  0  0  # atno 8010 bound_to 7997
  139.8946  144.6365  150.8702 H   0  0  0  0  0  0  0  0  0  0  0  0  # atno 10167 bound_to 10162
  156.1969  130.6832  151.0493 H   0  0  0  0  0  0  0  0  0  0  0  0  # atno 10718 bound_to 10713
  154.5187  135.5749  153.6663 H   0  0  0  0  0  0  0  0  0  0  0  0  # atno 10763 bound_to 10752
  152.9912  135.6176  154.2783 H   0  0  0  0  0  0  0  0  0  0  0  0  # atno 10764 bound_to 10752
  154.2703  135.2853  155.2721 H   0  0  0  0  0  0  0  0  0  0  0  0  # atno 10765 bound_to 10752
  140.8587  134.2196  157.4720 H   0  0  0  0  0  0  0  0  0  0  0  0  # atno 11005 bound_to 11000
  145.3665  141.0335  143.3255 LP  0  0  0  0  0  0  0  0  0  0  0  0  # atno 17320 bound_to 7965
  144.8567  139.5239  143.6831 LP  0  0  0  0  0  0  0  0  0  0  0  0  # atno 17321 bound_to 7965
  140.7719  143.3483  151.2065 LP  0  0  0  0  0  0  0  0  0  0  0  0  # atno 17342 bound_to 10162
  139.7079  143.9425  152.2935 LP  0  0  0  0  0  0  0  0  0  0  0  0  # atno 17343 bound_to 10162
  157.6963  131.0792  150.6958 LP  0  0  0  0  0  0  0  0  0  0  0  0  # atno 17370 bound_to 10713
  156.7015  130.4625  149.5571 LP  0  0  0  0  0  0  0  0  0  0  0  0  # atno 17371 bound_to 10713
  139.8706  134.9719  156.4752 LP  0  0  0  0  0  0  0  0  0  0  0  0  # atno 17394 bound_to 11000
  140.8708  133.7990  155.9362 LP  0  0  0  0  0  0  0  0  0  0  0  0  # atno 17395 bound_to 11000

$$$$
