AV-unprocessed.smi:1807|AV-procd|sdf|7304|dock4
  -GOLD-   22720 8563D 1   1.00000     0.00000
 Structure written by MMmdl.
 44 45  0  0  0  0  0  0  0  0  1 V2000
  147.6136  141.9003  154.6442 C   0  0  0  0  0  0  0  0  0  0  0  0
  148.8481  140.9947  154.8021 C   0  0  1  0  0  0  0  0  0  0  0  0
  149.6211  141.3555  156.0871 C   0  0  0  0  0  0  0  0  0  0  0  0
  150.8641  140.4733  156.2759 C   0  0  0  0  0  0  0  0  0  0  0  0
  150.4882  138.9853  156.2768 C   0  0  0  0  0  0  0  0  0  0  0  0
  149.7328  138.6069  154.9946 C   0  0  0  0  0  0  0  0  0  0  0  0
  148.4835  139.4891  154.7888 C   0  0  2  0  0  0  0  0  0  0  0  0
  147.8300  139.1372  153.5304 N   0  0  0  0  0  0  0  0  0  0  0  0
  146.7129  138.4047  153.4110 C   0  0  0  0  0  0  0  0  0  0  0  0
  146.1292  137.8972  154.3696 O   0  0  0  0  0  0  0  0  0  0  0  0
  146.1894  138.2028  151.9844 C   0  0  0  0  0  0  0  0  0  0  0  0
  146.4512  136.8579  151.4840 N   0  0  0  0  0  0  0  0  0  0  0  0
  145.3887  135.9584  151.3239 C   0  0  0  0  0  0  0  0  0  0  0  0
  144.0472  136.3134  151.6316 C   0  0  0  0  0  0  0  0  0  0  0  0
  143.3464  135.1813  151.3252 C   0  0  0  0  0  0  0  0  0  0  0  0
  144.2517  134.2405  150.8735 N   0  0  0  0  0  0  0  0  0  0  0  0
  143.9939  132.8851  150.4210 C   0  0  0  0  0  0  0  0  0  0  0  0
  145.2400  132.2702  149.7796 C   0  0  0  0  0  0  0  0  0  0  0  0
  146.1983  131.8336  150.6009 N   0  0  0  0  0  0  0  0  0  0  0  0
  145.3372  132.1885  148.5572 O   0  0  0  0  0  0  0  0  0  0  0  0
  145.5160  134.7173  150.8783 N   0  0  0  0  0  0  0  0  0  0  0  0
  146.9023  141.7374  155.4540 H   0  0  0  0  0  0  0  0  0  0  0  0
  147.0930  141.7184  153.7036 H   0  0  0  0  0  0  0  0  0  0  0  0
  147.8955  142.9533  154.6578 H   0  0  0  0  0  0  0  0  0  0  0  0
  149.5078  141.1900  153.9553 H   0  0  0  0  0  0  0  0  0  0  0  0
  149.9215  142.4034  156.0596 H   0  0  0  0  0  0  0  0  0  0  0  0
  148.9659  141.2470  156.9528 H   0  0  0  0  0  0  0  0  0  0  0  0
  151.5794  140.6711  155.4767 H   0  0  0  0  0  0  0  0  0  0  0  0
  151.3637  140.7310  157.2102 H   0  0  0  0  0  0  0  0  0  0  0  0
  151.3858  138.3741  156.3736 H   0  0  0  0  0  0  0  0  0  0  0  0
  149.8675  138.7642  157.1461 H   0  0  0  0  0  0  0  0  0  0  0  0
  150.4016  138.7081  154.1386 H   0  0  0  0  0  0  0  0  0  0  0  0
  149.4472  137.5553  155.0397 H   0  0  0  0  0  0  0  0  0  0  0  0
  147.7897  139.3054  155.6120 H   0  0  0  0  0  0  0  0  0  0  0  0
  148.2425  139.5073  152.6865 H   0  0  0  0  0  0  0  0  0  0  0  0
  145.1229  138.4277  151.9256 H   0  0  0  0  0  0  0  0  0  0  0  0
  146.6926  138.9148  151.3303 H   0  0  0  0  0  0  0  0  0  0  0  0
  147.3917  136.4969  151.5521 H   0  0  0  0  0  0  0  0  0  0  0  0
  143.6594  137.2481  152.0085 H   0  0  0  0  0  0  0  0  0  0  0  0
  142.2893  134.9692  151.3874 H   0  0  0  0  0  0  0  0  0  0  0  0
  143.6791  132.2723  151.2674 H   0  0  0  0  0  0  0  0  0  0  0  0
  143.1639  132.9044  149.7130 H   0  0  0  0  0  0  0  0  0  0  0  0
  147.0366  131.4158  150.2247 H   0  0  0  0  0  0  0  0  0  0  0  0
  146.0767  131.9194  151.5999 H   0  0  0  0  0  0  0  0  0  0  0  0
  1  2  1  0  0  0  0
  1 22  1  0  0  0  0
  1 23  1  0  0  0  0
  1 24  1  0  0  0  0
  2  7  1  0  0  0  0
  2  3  1  0  0  0  0
  2 25  1  0  0  0  0
  3  4  1  0  0  0  0
  3 26  1  0  0  0  0
  3 27  1  0  0  0  0
  4  5  1  0  0  0  0
  4 28  1  0  0  0  0
  4 29  1  0  0  0  0
  5  6  1  0  0  0  0
  5 30  1  0  0  0  0
  5 31  1  0  0  0  0
  6  7  1  0  0  0  0
  6 32  1  0  0  0  0
  6 33  1  0  0  0  0
  7  8  1  0  0  0  0
  7 34  1  0  0  0  0
  8  9  1  0  0  0  0
  8 35  1  0  0  0  0
  9 10  2  0  0  0  0
  9 11  1  0  0  0  0
 11 12  1  0  0  0  0
 11 36  1  0  0  0  0
 11 37  1  0  0  0  0
 12 13  1  0  0  0  0
 12 38  1  0  0  0  0
 13 21  2  0  0  0  0
 13 14  1  0  0  0  0
 14 15  2  0  0  0  0
 14 39  1  0  0  0  0
 15 16  1  0  0  0  0
 15 40  1  0  0  0  0
 16 17  1  0  0  0  0
 16 21  1  0  0  0  0
 17 18  1  0  0  0  0
 17 41  1  0  0  0  0
 17 42  1  0  0  0  0
 18 19  1  0  0  0  0
 18 20  2  0  0  0  0
 19 43  1  0  0  0  0
 19 44  1  0  0  0  0
M  END
> <s_m_source_file>
AV-unprocessed.smi

> <i_m_source_file_index>
1807

> <i_lp_mmshare_version>
43012

> <i_f3d_flags>
0

> <s_epik_input>
W0NIM11bQ0BASF0xW0NIMl1bQ0gyXVtDSDJdW0NIMl1bQ0BIXTFbTkhdQyg9TylbQ0gyXVtOSF1jMltjSF1bY0hdbihuMilbQ0gyXUMoPU8pW05IMl0=

> <s_epik_cmdline>
J2VwaWtfcHl0aG9uJywgJy1waCcsICc3LjAnLCAnLXRuJywgJzgnLCAnLW1hJywgJzIwMCcsICctbWV0YWxfYmluZGluZycsICctaW1hZScsICc8aW5maWxlLm1hZT4nLCAnLW9tYWUnLCAnPG91dGZpbGUubWFlPic=

> <r_lp_tautomer_probability>
1

> <r_epik_Ionization_Penalty>
0.000167642

> <r_epik_Ionization_Penalty_Charging>
0

> <r_epik_Ionization_Penalty_Neutral>
0.000167642

> <r_epik_State_Penalty>
-0

> <r_epik_Charging_Adjusted_Penalty>
0

> <i_epik_Tot_Q>
0

> <i_epik_Tot_abs_Q>
0

> <r_epik_Metal_State_Penalty>
-0

> <b_epik_Metal_Only>
0

> <s_lp_Force_Field>
OPLS_2005

> <r_lp_Energy>
6.04908

> <b_lp_Chiralities_Consistent>
1

> <s_lp_Variant>
AV-unprocessed.smi:1807-4

> <Gold.Version>
5.8.1

> <Gold.Id.Protein>
6NUR|6NUR_protein|mol2

> <Gold.PLP.Fitness>
49.9989

> <Gold.PLP.PLP>
-42.5221

> <Gold.PLP.part.hbond>
-4.1620

> <Gold.PLP.part.metal>
0.0000

> <Gold.PLP.part.buried>
-4.4918

> <Gold.PLP.part.nonpolar>
-35.1219

> <Gold.PLP.part.repulsive>
1.3474

> <Gold.PLP.ligand.clash>
0.0000

> <Gold.PLP.ligand.torsion>
0.7491

> <Gold.PLP.Chemscore.Hbond>
2.9600

> <Gold.PLP.Chemscore.CHOScore>
0.0254

> <Gold.PLP.Chemscore.Metal>
0.0000

> <Gold.Chemscore.Hbonds>
donor molecule, donor type, donor heavy atom, donor atom, acceptor molecule, acceptor atom, score
      L1  H     8    35       P1  7957  0.81
      L1  H    12    38       P1  7948  1.00
      L1  H    19    43       P1 10747  1.00

> <Gold.PLP.Chemscore.Internal.Correction>
0.0188

> <Gold.Rescore>
     Score         DG    S(hbond)    S(metal)    S(lipo)     H(rot)  DE(clash)    DE(int)     intcor
     15.56     -16.69       2.80        0.00      73.58       2.64       0.25       0.88       ----

> <Gold.Chemscore.Fitness>
15.5622

> <Gold.Chemscore.DG>
-16.6943

> <Gold.Chemscore.ZeroCoef>
-5.4800

> <Gold.Chemscore.Hbond>
2.8010

> <Gold.Chemscore.Metal>
0.0000

> <Gold.Chemscore.Lipo>
73.5841

> <Gold.Chemscore.Internal_Hbond>
0.0000

> <Gold.Chemscore.DEClash>
0.2521

> <Gold.Chemscore.DEInternal>
0.8801

> <Gold.Chemscore.Rot>
2.6369

> <Gold.Chemscore.Internal.Correction>
   9.000000E+99

> <Gold.Chemscore.Hbonds>
donor molecule, donor type, donor heavy atom, donor atom, acceptor molecule, acceptor atom, score
      L1  H     8    35       P1  7957  0.80
      L1  H    12    38       P1  7948  0.97
      L1  H    19    43       P1 10747  0.94

> <Gold.Chemscore.Hbond.Weighted>
-9.3554

> <Gold.Chemscore.Metal.Weighted>
-0.0000

> <Gold.Chemscore.Lipo.Weighted>
-8.6093

> <Gold.Chemscore.Internal_Hbond.Weighted>
0.0000

> <Gold.Chemscore.DEClash.Weighted>
0.2521

> <Gold.Chemscore.DEInternal.Weighted>
0.8801

> <Gold.Chemscore.Rot.Weighted>
6.7504

> <Gold.Chemscore.Internal.Correction.Weighted>
   9.000000E+99

> <Gold.Protein.RotatedTorsions>
[ 6907 6896 6895 6894 ] final   80.19 input  -60.11 | X-H torsion
[ 7974 7965 7964 7962 ] final -112.37 input  175.53 | X-H torsion
[ 8008 7997 7996 7995 ] final  129.36 input   59.86 | X-H torsion
[ 10167 10162 10161 10158 ] final   32.88 input  -65.29 | X-H torsion
[ 10718 10713 10712 10709 ] final  144.89 input   66.30 | X-H torsion
[ 10763 10752 10751 10750 ] final  -16.56 input  -60.55 | X-H torsion
[ 11005 11000 10999 10996 ] final   69.50 input  -57.11 | X-H torsion

> <Gold.Protein.ActiveResidues>
 VAL166  LYS551  ARG553  GLY616  TRP617  ASP618  TYR619  PRO620  LYS621  CYS622 
 ASP623  PHE694  ASN695  SER759  ASP760  ASP761  ALA762  ILE779  LEU786  VAL792 
 PHE793  MET794  SER795  GLU796  ALA797  LYS798  CYS799  TRP800  GLU811  SER814 

> <Gold.Protein.RotatedAtoms>
  152.5226  134.3396  159.9212 H   0  0  0  0  0  0  0  0  0  0  0  0  # atno 6907 bound_to 6896
  151.3346  133.3980  159.2673 H   0  0  0  0  0  0  0  0  0  0  0  0  # atno 6908 bound_to 6896
  150.9853  134.9217  159.7926 H   0  0  0  0  0  0  0  0  0  0  0  0  # atno 6909 bound_to 6896
  145.1449  140.8798  143.3680 H   0  0  0  0  0  0  0  0  0  0  0  0  # atno 7974 bound_to 7965
  156.2934  140.2622  156.2586 H   0  0  0  0  0  0  0  0  0  0  0  0  # atno 8008 bound_to 7997
  154.9811  140.0390  157.2296 H   0  0  0  0  0  0  0  0  0  0  0  0  # atno 8009 bound_to 7997
  154.7771  140.2788  155.6097 H   0  0  0  0  0  0  0  0  0  0  0  0  # atno 8010 bound_to 7997
  140.4458  144.1120  150.6182 H   0  0  0  0  0  0  0  0  0  0  0  0  # atno 10167 bound_to 10162
  157.3518  131.0952  151.0994 H   0  0  0  0  0  0  0  0  0  0  0  0  # atno 10718 bound_to 10713
  153.5604  135.7010  153.5550 H   0  0  0  0  0  0  0  0  0  0  0  0  # atno 10763 bound_to 10752
  153.3434  135.4015  155.1590 H   0  0  0  0  0  0  0  0  0  0  0  0  # atno 10764 bound_to 10752
  154.8648  135.3748  154.5121 H   0  0  0  0  0  0  0  0  0  0  0  0  # atno 10765 bound_to 10752
  139.9650  134.6996  156.0564 H   0  0  0  0  0  0  0  0  0  0  0  0  # atno 11005 bound_to 11000
  145.0493  139.3195  143.5937 LP  0  0  0  0  0  0  0  0  0  0  0  0  # atno 17320 bound_to 7965
  146.3501  139.9895  142.8687 LP  0  0  0  0  0  0  0  0  0  0  0  0  # atno 17321 bound_to 7965
  140.4265  143.2587  151.9650 LP  0  0  0  0  0  0  0  0  0  0  0  0  # atno 17342 bound_to 10162
  139.4793  144.5783  151.7974 LP  0  0  0  0  0  0  0  0  0  0  0  0  # atno 17343 bound_to 10162
  157.2167  130.6462  149.5795 LP  0  0  0  0  0  0  0  0  0  0  0  0  # atno 17370 bound_to 10713
  155.9722  130.4642  150.6211 LP  0  0  0  0  0  0  0  0  0  0  0  0  # atno 17371 bound_to 10713
  141.1330  133.6582  156.3515 LP  0  0  0  0  0  0  0  0  0  0  0  0  # atno 17394 bound_to 11000
  140.5416  134.6115  157.5381 LP  0  0  0  0  0  0  0  0  0  0  0  0  # atno 17395 bound_to 11000

$$$$
