#       Name:                AV-unprocessed.smi:1056
#       Creating user name   scv26
#       Creation time:       Fri Mar 27 03:15:44 2020


#       File generated by GOLD software.
#

@<TRIPOS>MOLECULE
AV-unprocessed.smi:1056
    50    52     1
SMALL
NO_CHARGES


@<TRIPOS>ATOM
      1 ****        -4.0822   2.9002  -1.8791 C.3            1 S1                 0.0000
      2 ****        -3.3429   1.9318  -0.9714 C.ar           1 S1                 0.0000
      3 ****        -3.1191   2.3052   0.3727 C.ar           1 S1                 0.0000
      4 ****        -2.4406   1.3985   1.1783 C.ar           1 S1                 0.0000
      5 ****        -2.0714   1.4711   2.5228 N.pl3          1 S1                 1.0000
      6 ****        -1.4181   0.3304   2.8769 C.2            1 S1                 0.0000
      7 ****        -1.3611  -0.4694   1.7773 N.pl3          1 S1                 0.0000
      8 ****        -0.7745  -1.8088   1.6292 C.3            1 S1                 0.0000
      9 ****         0.7573  -1.7783   1.4623 C.3            1 S1                 0.0000
     10 ****         1.2002  -3.1196   1.4153 O.3            1 S1                 0.0000
     11 ****         1.2237  -1.0483   0.1832 C.3            1 S1                 0.0000
     12 ****         2.7019  -0.9375   0.0879 N.4            1 S1                 1.0000
     13 ****         3.1730  -0.7574  -1.3094 C.3            1 S1                 0.0000
     14 ****         4.6975  -0.9638  -1.3907 C.3            1 S1                 0.0000
     15 ****         5.3715  -0.2036  -0.3316 N.pl3          1 S1                -1.0000
     16 ****         4.8153   0.2206   0.8454 C.2            1 S1                 0.0000
     17 ****         5.4270   0.7356   1.7785 O.2            1 S1                 0.0000
     18 ****         3.2763   0.0917   1.0024 C.3            1 S1                 0.0000
     19 ****        -1.9895   0.1555   0.6921 C.ar           1 S1                 0.0000
     20 ****        -2.2008  -0.2265  -0.6313 C.ar           1 S1                 0.0000
     21 ****        -2.8882   0.6826  -1.4672 C.ar           1 S1                 0.0000
     22 ****        -3.1341   0.2918  -2.9148 C.3            1 S1                 0.0000
     23 ****        -4.4108   3.7858  -1.3343 H              1 S1                 0.0000
     24 ****        -4.9659   2.4278  -2.3084 H              1 S1                 0.0000
     25 ****        -3.4354   3.2297  -2.6924 H              1 S1                 0.0000
     26 ****        -3.4626   3.2548   0.7567 H              1 S1                 0.0000
     27 ****        -1.0197   0.1005   3.8548 H              1 S1                 0.0000
     28 ****        -1.0375  -2.3673   2.5288 H              1 S1                 0.0000
     29 ****        -1.2538  -2.3300   0.8007 H              1 S1                 0.0000
     30 ****         1.1859  -1.3134   2.3494 H              1 S1                 0.0000
     31 ****         2.1434  -3.1350   1.4741 H              1 S1                 0.0000
     32 ****         0.8350  -1.5898  -0.6806 H              1 S1                 0.0000
     33 ****         0.8002  -0.0452   0.1266 H              1 S1                 0.0000
     34 ****         2.6856  -1.4726  -1.9730 H              1 S1                 0.0000
     35 ****         2.9001   0.2392  -1.6609 H              1 S1                 0.0000
     36 ****         4.9085  -2.0291  -1.2936 H              1 S1                 0.0000
     37 ****         5.0477  -0.6810  -2.3831 H              1 S1                 0.0000
     38 ****         2.8260   1.0645   0.7991 H              1 S1                 0.0000
     39 ****         3.0552  -0.1567   2.0399 H              1 S1                 0.0000
     40 ****        -1.8569  -1.1757  -1.0141 H              1 S1                 0.0000
     41 ****        -2.6739  -0.6674  -3.1536 H              1 S1                 0.0000
     42 ****        -2.7165   1.0376  -3.5917 H              1 S1                 0.0000
     43 ****        -4.2034   0.2066  -3.1101 H              1 S1                 0.0000
     44 ****         3.0819  -1.8265   0.3791 H              1 S1                 0.0000
     45 ****        -2.2542   2.2395   3.1557 H              1 S1                 0.0000
     46 ****         0.9112  -3.5379   0.5543 LP             1 S1                 0.0000
     47 ****         0.8083  -3.6289   2.1815 LP             1 S1                 0.0000
     48 ****         6.3323   0.0275  -0.4847 LP             1 S1                 0.0000
     49 ****         6.4151   0.8744   1.7127 LP             1 S1                 0.0000
     50 ****         4.9366   1.0160   2.6037 LP             1 S1                 0.0000
@<TRIPOS>BOND
    1    1    2 1     
    2    1   23 1     
    3    1   24 1     
    4    1   25 1     
    5    2   21 ar    
    6    2    3 ar    
    7    3    4 ar    
    8    3   26 1     
    9    4   19 ar    
   10    4    5 1     
   11    5    6 2     
   12    5   45 1     
   13    6    7 1     
   14    6   27 1     
   15    7    8 1     
   16    7   19 1     
   17    8    9 1     
   18    8   28 1     
   19    8   29 1     
   20    9   10 1     
   21    9   11 1     
   22    9   30 1     
   23   10   31 1     
   24   11   12 1     
   25   11   32 1     
   26   11   33 1     
   27   12   18 1     
   28   12   13 1     
   29   12   44 1     
   30   13   14 1     
   31   13   34 1     
   32   13   35 1     
   33   14   15 1     
   34   14   36 1     
   35   14   37 1     
   36   15   16 1     
   37   16   17 2     
   38   16   18 1     
   39   18   38 1     
   40   18   39 1     
   41   19   20 ar    
   42   20   21 ar    
   43   20   40 1     
   44   21   22 1     
   45   22   41 1     
   46   22   42 1     
   47   22   43 1     
   48   10   46 1     
   49   10   47 1     
   50   15   48 1     
   51   17   49 1     
   52   17   50 1     
@<TRIPOS>SUBSTRUCTURE
      1 S1             1
@<TRIPOS>SET
LONE_PAIRS      STATIC     ATOMS    <user>   **** ""
5 46 47 48 49 50
DONOR_HYDROGENS      STATIC     ATOMS    <user>   **** ""
3 45 31 44
ATOM$BLUE        STATIC     ATOMS    COLORGROUP SYSTEM
5 46 47 48 49 50
ATOM$RED        STATIC     ATOMS    COLORGROUP SYSTEM
3 45 31 44
