AV-unprocessed.smi:94|AV-procd|sdf|854|dock2
  -GOLD-   2262017303D 1   1.00000     0.00000
 Structure written by MMmdl.
 53 55  0  0  0  0  0  0  0  0  1 V2000
  150.8084  142.7479  158.3235 C   0  0  0  0  0  0  0  0  0  0  0  0
  151.3598  141.4501  158.1557 O   0  0  0  0  0  0  0  0  0  0  0  0
  152.2331  140.9758  159.1141 C   0  0  0  0  0  0  0  0  0  0  0  0
  152.6274  141.7334  160.2469 C   0  0  0  0  0  0  0  0  0  0  0  0
  153.5329  141.2065  161.1857 C   0  0  0  0  0  0  0  0  0  0  0  0
  154.0650  139.9170  161.0063 C   0  0  0  0  0  0  0  0  0  0  0  0
  155.0479  139.3479  162.0086 C   0  0  0  0  0  0  0  0  0  0  0  0
  153.6770  139.1547  159.8886 C   0  0  0  0  0  0  0  0  0  0  0  0
  152.7573  139.6688  158.9441 C   0  0  0  0  0  0  0  0  0  0  0  0
  152.3564  138.8324  157.7274 C   0  0  1  0  0  0  0  0  0  0  0  0
  153.2113  137.5574  157.6359 C   0  0  0  0  0  0  0  0  0  0  0  0
  150.9339  138.4903  157.7292 N   0  0  0  0  0  0  0  0  0  0  0  0
  150.3614  137.5142  158.4505 C   0  0  0  0  0  0  0  0  0  0  0  0
  150.9887  136.7872  159.2223 O   0  0  0  0  0  0  0  0  0  0  0  0
  148.8490  137.3353  158.2489 C   0  0  0  0  0  0  0  0  0  0  0  0
  148.3694  135.9723  158.5661 N   0  0  0  0  0  0  0  0  0  0  0  0
  148.5044  134.9631  157.5805 C   0  0  0  0  0  0  0  0  0  0  0  0
  149.0149  135.2042  156.4855 O   0  0  0  0  0  0  0  0  0  0  0  0
  147.9958  133.6474  157.9516 C   0  0  0  0  0  0  0  0  0  0  0  0
  148.0767  132.6310  157.0761 F   0  0  0  0  0  0  0  0  0  0  0  0
  147.4399  133.4340  159.1616 C   0  0  0  0  0  0  0  0  0  0  0  0
  147.3172  134.4277  160.1149 N   0  0  0  0  0  0  0  0  0  0  0  0
  146.6684  134.1488  161.4515 C   0  0  1  0  0  0  0  0  0  0  0  0
  145.3911  134.9831  161.6055 C   0  0  0  0  0  0  0  0  0  0  0  0
  144.3166  133.9927  161.2094 C   0  0  0  0  0  0  0  0  0  0  0  0
  144.9035  132.6835  161.7226 C   0  0  0  0  0  0  0  0  0  0  0  0
  146.3064  132.7986  161.5058 O   0  0  0  0  0  0  0  0  0  0  0  0
  147.7697  135.7337  159.8261 C   0  0  0  0  0  0  0  0  0  0  0  0
  147.6345  136.6438  160.6468 O   0  0  0  0  0  0  0  0  0  0  0  0
  150.1478  142.9683  157.4851 H   0  0  0  0  0  0  0  0  0  0  0  0
  151.5854  143.5134  158.3396 H   0  0  0  0  0  0  0  0  0  0  0  0
  150.2144  142.8141  159.2359 H   0  0  0  0  0  0  0  0  0  0  0  0
  152.2506  142.7298  160.4203 H   0  0  0  0  0  0  0  0  0  0  0  0
  153.8209  141.8000  162.0413 H   0  0  0  0  0  0  0  0  0  0  0  0
  155.8346  138.7896  161.5005 H   0  0  0  0  0  0  0  0  0  0  0  0
  154.5361  138.6736  162.6954 H   0  0  0  0  0  0  0  0  0  0  0  0
  155.5194  140.1398  162.5914 H   0  0  0  0  0  0  0  0  0  0  0  0
  154.1001  138.1694  159.7592 H   0  0  0  0  0  0  0  0  0  0  0  0
  152.5388  139.4337  156.8353 H   0  0  0  0  0  0  0  0  0  0  0  0
  154.2725  137.8018  157.5779 H   0  0  0  0  0  0  0  0  0  0  0  0
  152.9630  136.9726  156.7499 H   0  0  0  0  0  0  0  0  0  0  0  0
  153.0645  136.9193  158.5078 H   0  0  0  0  0  0  0  0  0  0  0  0
  150.3398  139.0341  157.1204 H   0  0  0  0  0  0  0  0  0  0  0  0
  148.3196  138.0771  158.8498 H   0  0  0  0  0  0  0  0  0  0  0  0
  148.6094  137.6105  157.2208 H   0  0  0  0  0  0  0  0  0  0  0  0
  147.0743  132.4420  159.3814 H   0  0  0  0  0  0  0  0  0  0  0  0
  147.4219  134.3520  162.2139 H   0  0  0  0  0  0  0  0  0  0  0  0
  145.2837  135.2634  162.6540 H   0  0  0  0  0  0  0  0  0  0  0  0
  145.4092  135.8885  160.9972 H   0  0  0  0  0  0  0  0  0  0  0  0
  143.3420  134.2212  161.6412 H   0  0  0  0  0  0  0  0  0  0  0  0
  144.2114  133.9621  160.1242 H   0  0  0  0  0  0  0  0  0  0  0  0
  144.7206  132.5790  162.7929 H   0  0  0  0  0  0  0  0  0  0  0  0
  144.4902  131.8096  161.2188 H   0  0  0  0  0  0  0  0  0  0  0  0
  1  2  1  0  0  0  0
  1 30  1  0  0  0  0
  1 31  1  0  0  0  0
  1 32  1  0  0  0  0
  2  3  1  0  0  0  0
  3  9  1  0  0  0  0
  3  4  2  0  0  0  0
  4  5  1  0  0  0  0
  4 33  1  0  0  0  0
  5  6  2  0  0  0  0
  5 34  1  0  0  0  0
  6  7  1  0  0  0  0
  6  8  1  0  0  0  0
  7 35  1  0  0  0  0
  7 36  1  0  0  0  0
  7 37  1  0  0  0  0
  8  9  2  0  0  0  0
  8 38  1  0  0  0  0
  9 10  1  0  0  0  0
 10 11  1  0  0  0  0
 10 12  1  0  0  0  0
 10 39  1  0  0  0  0
 11 40  1  0  0  0  0
 11 41  1  0  0  0  0
 11 42  1  0  0  0  0
 12 13  1  0  0  0  0
 12 43  1  0  0  0  0
 13 14  2  0  0  0  0
 13 15  1  0  0  0  0
 15 16  1  0  0  0  0
 15 44  1  0  0  0  0
 15 45  1  0  0  0  0
 16 28  1  0  0  0  0
 16 17  1  0  0  0  0
 17 18  2  0  0  0  0
 17 19  1  0  0  0  0
 19 20  1  0  0  0  0
 19 21  2  0  0  0  0
 21 22  1  0  0  0  0
 21 46  1  0  0  0  0
 22 23  1  0  0  0  0
 22 28  1  0  0  0  0
 23 27  1  0  0  0  0
 23 24  1  0  0  0  0
 23 47  1  0  0  0  0
 24 25  1  0  0  0  0
 24 48  1  0  0  0  0
 24 49  1  0  0  0  0
 25 26  1  0  0  0  0
 25 50  1  0  0  0  0
 25 51  1  0  0  0  0
 26 27  1  0  0  0  0
 26 52  1  0  0  0  0
 26 53  1  0  0  0  0
 28 29  2  0  0  0  0
M  END
> <s_m_source_file>
AV-unprocessed.smi

> <i_m_source_file_index>
94

> <i_lp_mmshare_version>
43012

> <i_f3d_flags>
0

> <s_epik_input>
W0NIM11PYzFbY0hdW2NIXWMoW0NIM10pW2NIXWMxW0NASF0oW0NIM10pW05IXUMoPU8pW0NIMl1uMmMoPU8pYyhGKVtjSF1uKGMyPU8pW0NAQEhdM1tDSDJdW0NIMl1bQ0gyXU8z

> <s_epik_cmdline>
J2VwaWtfcHl0aG9uJywgJy1waCcsICc3LjAnLCAnLXRuJywgJzgnLCAnLW1hJywgJzIwMCcsICctbWV0YWxfYmluZGluZycsICctaW1hZScsICc8aW5maWxlLm1hZT4nLCAnLW9tYWUnLCAnPG91dGZpbGUubWFlPic=

> <r_lp_tautomer_probability>
1

> <r_epik_Ionization_Penalty>
3.37009e-08

> <r_epik_Ionization_Penalty_Charging>
3.59856e-09

> <r_epik_Ionization_Penalty_Neutral>
3.01024e-08

> <r_epik_State_Penalty>
-0

> <r_epik_Charging_Adjusted_Penalty>
3.59856e-09

> <i_epik_Tot_Q>
0

> <i_epik_Tot_abs_Q>
0

> <r_epik_Metal_State_Penalty>
-0

> <b_epik_Metal_Only>
0

> <s_epik_Chemistry_Notes>
This compound contains an acetal/aminal-like group ( X-CH(R)-Y where X, Y are N, S, or O) that may be acid/base labile, releasing an aldehyde.

> <s_lp_Force_Field>
OPLS_2005

> <r_lp_Energy>
32.8189

> <b_lp_Chiralities_Consistent>
1

> <s_lp_Variant>
AV-unprocessed.smi:94-4

> <Gold.Version>
5.8.1

> <Gold.Id.Protein>
6NUR|6NUR_protein|mol2

> <Gold.PLP.Fitness>
55.9964

> <Gold.PLP.PLP>
-49.6955

> <Gold.PLP.part.hbond>
-3.7373

> <Gold.PLP.part.metal>
0.0000

> <Gold.PLP.part.buried>
-5.4565

> <Gold.PLP.part.nonpolar>
-39.8125

> <Gold.PLP.part.repulsive>
0.0845

> <Gold.PLP.ligand.clash>
0.0000

> <Gold.PLP.ligand.torsion>
0.9739

> <Gold.PLP.Chemscore.Hbond>
2.7280

> <Gold.PLP.Chemscore.CHOScore>
0.0000

> <Gold.PLP.Chemscore.Metal>
0.0000

> <Gold.Chemscore.Hbonds>
donor molecule, donor type, donor heavy atom, donor atom, acceptor molecule, acceptor atom, score
      P1  H  6896  6908       L1    14  1.00

> <Gold.PLP.Chemscore.Internal.Correction>
0.0646

> <Gold.Rescore>
     Score         DG    S(hbond)    S(metal)    S(lipo)     H(rot)  DE(clash)    DE(int)     intcor
     17.23     -20.00       2.63        0.00     100.00       2.34       0.01       2.75       ----

> <Gold.Chemscore.Fitness>
17.2290

> <Gold.Chemscore.DG>
-19.9956

> <Gold.Chemscore.ZeroCoef>
-5.4800

> <Gold.Chemscore.Hbond>
2.6341

> <Gold.Chemscore.Metal>
0.0000

> <Gold.Chemscore.Lipo>
100.0041

> <Gold.Chemscore.Internal_Hbond>
0.0000

> <Gold.Chemscore.DEClash>
0.0133

> <Gold.Chemscore.DEInternal>
2.7532

> <Gold.Chemscore.Rot>
2.3370

> <Gold.Chemscore.Internal.Correction>
   9.000000E+99

> <Gold.Chemscore.Hbonds>
donor molecule, donor type, donor heavy atom, donor atom, acceptor molecule, acceptor atom, score
      P1  H  6896  6908       L1    14  1.00
      P1  H  6931  6943       L1    29  0.03
      P1  H  6934  6947       L1    29  0.06

> <Gold.Chemscore.Hbond.Weighted>
-8.7978

> <Gold.Chemscore.Metal.Weighted>
-0.0000

> <Gold.Chemscore.Lipo.Weighted>
-11.7005

> <Gold.Chemscore.Internal_Hbond.Weighted>
0.0000

> <Gold.Chemscore.DEClash.Weighted>
0.0133

> <Gold.Chemscore.DEInternal.Weighted>
2.7532

> <Gold.Chemscore.Rot.Weighted>
5.9827

> <Gold.Chemscore.Internal.Correction.Weighted>
   9.000000E+99

> <Gold.Protein.RotatedTorsions>
[ 6907 6896 6895 6894 ] final -139.66 input  -60.11 | X-H torsion
[ 7974 7965 7964 7962 ] final   14.21 input  175.53 | X-H torsion
[ 8008 7997 7996 7995 ] final -115.63 input   59.86 | X-H torsion
[ 10167 10162 10161 10158 ] final  144.56 input  -65.29 | X-H torsion
[ 10718 10713 10712 10709 ] final  -78.15 input   66.30 | X-H torsion
[ 10763 10752 10751 10750 ] final  119.56 input  -60.55 | X-H torsion
[ 11005 11000 10999 10996 ] final -173.96 input  -57.11 | X-H torsion

> <Gold.Protein.ActiveResidues>
 VAL166  LYS551  ARG553  GLY616  TRP617  ASP618  TYR619  PRO620  LYS621  CYS622 
 ASP623  PHE694  ASN695  SER759  ASP760  ASP761  ALA762  ILE779  LEU786  VAL792 
 PHE793  MET794  SER795  GLU796  ALA797  LYS798  CYS799  TRP800  GLU811  SER814 

> <Gold.Protein.RotatedAtoms>
  151.0506  133.5627  159.2642 H   0  0  0  0  0  0  0  0  0  0  0  0  # atno 6907 bound_to 6896
  151.2639  135.0662  159.9118 H   0  0  0  0  0  0  0  0  0  0  0  0  # atno 6908 bound_to 6896
  152.5381  134.0247  159.8052 H   0  0  0  0  0  0  0  0  0  0  0  0  # atno 6909 bound_to 6896
  146.2310  139.9074  142.8529 H   0  0  0  0  0  0  0  0  0  0  0  0  # atno 7974 bound_to 7965
  155.0551  140.0393  157.2557 H   0  0  0  0  0  0  0  0  0  0  0  0  # atno 8008 bound_to 7997
  154.7106  140.2692  155.6609 H   0  0  0  0  0  0  0  0  0  0  0  0  # atno 8009 bound_to 7997
  156.2788  140.2722  156.1746 H   0  0  0  0  0  0  0  0  0  0  0  0  # atno 8010 bound_to 7997
  139.4944  144.5963  151.6576 H   0  0  0  0  0  0  0  0  0  0  0  0  # atno 10167 bound_to 10162
  156.0125  130.4510  150.3453 H   0  0  0  0  0  0  0  0  0  0  0  0  # atno 10718 bound_to 10713
  153.5849  135.3477  155.2889 H   0  0  0  0  0  0  0  0  0  0  0  0  # atno 10763 bound_to 10752
  154.8662  135.4191  154.2579 H   0  0  0  0  0  0  0  0  0  0  0  0  # atno 10764 bound_to 10752
  153.3374  135.7048  153.6966 H   0  0  0  0  0  0  0  0  0  0  0  0  # atno 10765 bound_to 10752
  140.4799  134.6085  157.4915 H   0  0  0  0  0  0  0  0  0  0  0  0  # atno 11005 bound_to 11000
  145.2263  140.9955  143.4016 LP  0  0  0  0  0  0  0  0  0  0  0  0  # atno 17320 bound_to 7965
  144.9568  139.4023  143.6375 LP  0  0  0  0  0  0  0  0  0  0  0  0  # atno 17321 bound_to 7965
  140.5602  144.0281  150.6166 LP  0  0  0  0  0  0  0  0  0  0  0  0  # atno 17342 bound_to 10162
  140.3365  143.3046  152.0633 LP  0  0  0  0  0  0  0  0  0  0  0  0  # atno 17343 bound_to 10162
  157.1547  131.0330  151.2869 LP  0  0  0  0  0  0  0  0  0  0  0  0  # atno 17370 bound_to 10713
  157.4362  130.7518  149.7031 LP  0  0  0  0  0  0  0  0  0  0  0  0  # atno 17371 bound_to 10713
  139.9833  134.7102  155.9820 LP  0  0  0  0  0  0  0  0  0  0  0  0  # atno 17394 bound_to 11000
  141.1536  133.6545  156.4091 LP  0  0  0  0  0  0  0  0  0  0  0  0  # atno 17395 bound_to 11000

$$$$
