AV-unprocessed.smi:1330|AV-procd|sdf|5485|dock9
  -GOLD-   22720 5 63D 1   1.00000     0.00000
 Structure written by MMmdl.
 42 43  0  0  0  0  0  0  0  0  1 V2000
  148.2029  133.6555  152.5922 C   0  0  0  0  0  0  0  0  0  0  0  0
  148.8743  134.0890  153.8675 C   0  0  0  0  0  0  0  0  0  0  0  0
  148.9935  135.3622  154.0573 N   0  0  0  0  0  0  0  0  0  0  0  0
  149.5930  135.8658  155.1941 N   0  0  0  0  0  0  0  0  0  0  0  0
  149.6383  137.3314  155.2441 C   0  0  0  0  0  0  0  0  0  0  0  0
  150.8950  137.8940  154.5429 C   0  0  2  0  0  0  0  0  0  0  0  0
  151.6771  136.8129  154.0769 O   0  0  0  0  0  0  0  0  0  0  0  0
  151.7729  138.7162  155.4976 C   0  0  0  0  0  0  0  0  0  0  0  0
  150.9865  139.7593  156.0483 O   0  0  0  0  0  0  0  0  0  0  0  0
  151.0524  139.8200  157.4634 C   0  0  0  0  0  0  0  0  0  0  0  0
  151.3763  141.2167  157.9607 C   0  0  0  0  0  0  0  0  0  0  0  0
  151.6337  141.4501  159.3293 C   0  0  0  0  0  0  0  0  0  0  0  0
  151.9156  142.7526  159.7852 C   0  0  0  0  0  0  0  0  0  0  0  0
  151.9353  143.8288  158.8771 C   0  0  0  0  0  0  0  0  0  0  0  0
  152.2790  145.4244  159.4363 Cl  0  0  0  0  0  0  0  0  0  0  0  0
  151.6707  143.6019  157.5124 C   0  0  0  0  0  0  0  0  0  0  0  0
  151.3890  142.2993  157.0562 C   0  0  0  0  0  0  0  0  0  0  0  0
  150.0995  135.1070  156.2082 C   0  0  0  0  0  0  0  0  0  0  0  0
  150.6134  135.6011  157.2131 O   0  0  0  0  0  0  0  0  0  0  0  0
  149.9648  133.6658  155.9850 C   0  0  0  0  0  0  0  0  0  0  0  0
  150.4857  132.8338  157.0212 C   0  0  0  0  0  0  0  0  0  0  0  0
  150.9262  132.1605  157.8535 N   0  0  0  0  0  0  0  0  0  0  0  0
  149.3822  133.1578  154.8701 C   0  0  0  0  0  0  0  0  0  0  0  0
  149.2148  131.6702  154.5921 C   0  0  0  0  0  0  0  0  0  0  0  0
  147.3378  133.0267  152.8037 H   0  0  0  0  0  0  0  0  0  0  0  0
  148.8914  133.0854  151.9682 H   0  0  0  0  0  0  0  0  0  0  0  0
  147.8542  134.5071  152.0057 H   0  0  0  0  0  0  0  0  0  0  0  0
  148.7373  137.7191  154.7649 H   0  0  0  0  0  0  0  0  0  0  0  0
  149.5767  137.6926  156.2727 H   0  0  0  0  0  0  0  0  0  0  0  0
  150.6261  138.5185  153.6899 H   0  0  0  0  0  0  0  0  0  0  0  0
  151.4806  136.6742  153.1630 H   0  0  0  0  0  0  0  0  0  0  0  0
  152.1816  138.0831  156.2871 H   0  0  0  0  0  0  0  0  0  0  0  0
  152.6140  139.1507  154.9542 H   0  0  0  0  0  0  0  0  0  0  0  0
  150.0991  139.4992  157.8865 H   0  0  0  0  0  0  0  0  0  0  0  0
  151.8200  139.1376  157.8311 H   0  0  0  0  0  0  0  0  0  0  0  0
  151.6164  140.6334  160.0362 H   0  0  0  0  0  0  0  0  0  0  0  0
  152.1144  142.9243  160.8329 H   0  0  0  0  0  0  0  0  0  0  0  0
  151.6816  144.4261  156.8144 H   0  0  0  0  0  0  0  0  0  0  0  0
  151.1828  142.1341  156.0087 H   0  0  0  0  0  0  0  0  0  0  0  0
  149.6803  131.0523  155.3591 H   0  0  0  0  0  0  0  0  0  0  0  0
  149.6711  131.4026  153.6387 H   0  0  0  0  0  0  0  0  0  0  0  0
  148.1575  131.4067  154.5535 H   0  0  0  0  0  0  0  0  0  0  0  0
  1  2  1  0  0  0  0
  1 25  1  0  0  0  0
  1 26  1  0  0  0  0
  1 27  1  0  0  0  0
  2 23  1  0  0  0  0
  2  3  2  0  0  0  0
  3  4  1  0  0  0  0
  4  5  1  0  0  0  0
  4 18  1  0  0  0  0
  5  6  1  0  0  0  0
  5 28  1  0  0  0  0
  5 29  1  0  0  0  0
  6  7  1  0  0  0  0
  6  8  1  0  0  0  0
  6 30  1  0  0  0  0
  7 31  1  0  0  0  0
  8  9  1  0  0  0  0
  8 32  1  0  0  0  0
  8 33  1  0  0  0  0
  9 10  1  0  0  0  0
 10 11  1  0  0  0  0
 10 34  1  0  0  0  0
 10 35  1  0  0  0  0
 11 17  1  0  0  0  0
 11 12  2  0  0  0  0
 12 13  1  0  0  0  0
 12 36  1  0  0  0  0
 13 14  2  0  0  0  0
 13 37  1  0  0  0  0
 14 15  1  0  0  0  0
 14 16  1  0  0  0  0
 16 17  2  0  0  0  0
 16 38  1  0  0  0  0
 17 39  1  0  0  0  0
 18 19  2  0  0  0  0
 18 20  1  0  0  0  0
 20 21  1  0  0  0  0
 20 23  2  0  0  0  0
 21 22  3  0  0  0  0
 23 24  1  0  0  0  0
 24 40  1  0  0  0  0
 24 41  1  0  0  0  0
 24 42  1  0  0  0  0
M  END
> <s_m_source_file>
AV-unprocessed.smi

> <i_m_source_file_index>
1330

> <i_lp_mmshare_version>
43012

> <i_f3d_flags>
0

> <s_epik_input>
TiNDYyhjMVtDSDNdKWMoPU8pbihuYzFbQ0gzXSlbQ0gyXVtDQEhdKFtPSF0pW0NIMl1PW0NIMl1jMltjSF1bY0hdYyhDbClbY0hdW2NIXTI=

> <s_epik_cmdline>
J2VwaWtfcHl0aG9uJywgJy1waCcsICc3LjAnLCAnLXRuJywgJzgnLCAnLW1hJywgJzIwMCcsICctbWV0YWxfYmluZGluZycsICctaW1hZScsICc8aW5maWxlLm1hZT4nLCAnLW9tYWUnLCAnPG91dGZpbGUubWFlPic=

> <r_lp_tautomer_probability>
1

> <r_epik_Ionization_Penalty>
6.27695e-08

> <r_epik_Ionization_Penalty_Charging>
2.19172e-10

> <r_epik_Ionization_Penalty_Neutral>
6.25504e-08

> <r_epik_State_Penalty>
-0

> <r_epik_Charging_Adjusted_Penalty>
2.19172e-10

> <i_epik_Tot_Q>
0

> <i_epik_Tot_abs_Q>
0

> <r_epik_Metal_State_Penalty>
-0

> <b_epik_Metal_Only>
0

> <s_lp_Force_Field>
OPLS_2005

> <r_lp_Energy>
28.5495

> <b_lp_Chiralities_Consistent>
1

> <s_lp_Variant>
AV-unprocessed.smi:1330-1

> <Gold.Version>
5.8.1

> <Gold.Id.Protein>
6NUR|6NUR_protein|mol2

> <Gold.PLP.Fitness>
52.6107

> <Gold.PLP.PLP>
-47.9310

> <Gold.PLP.part.hbond>
-4.0000

> <Gold.PLP.part.metal>
0.0000

> <Gold.PLP.part.buried>
-6.2848

> <Gold.PLP.part.nonpolar>
-40.1092

> <Gold.PLP.part.repulsive>
2.2634

> <Gold.PLP.ligand.clash>
0.0000

> <Gold.PLP.ligand.torsion>
1.8923

> <Gold.PLP.Chemscore.Hbond>
2.7930

> <Gold.PLP.Chemscore.CHOScore>
0.0000

> <Gold.PLP.Chemscore.Metal>
0.0000

> <Gold.Chemscore.Hbonds>
donor molecule, donor type, donor heavy atom, donor atom, acceptor molecule, acceptor atom, score
      L1  H     7    31       P1  7949  1.00
      P1  H  6896  6909       L1    22  0.44
      P1  H 10752 10764       L1     7  0.95

> <Gold.PLP.Chemscore.Internal.Correction>
0.0852

> <Gold.Rescore>
     Score         DG    S(hbond)    S(metal)    S(lipo)     H(rot)  DE(clash)    DE(int)     intcor
     15.08     -17.04       1.15        0.00     120.09       2.48       0.16       1.80       ----

> <Gold.Chemscore.Fitness>
15.0769

> <Gold.Chemscore.DG>
-17.0441

> <Gold.Chemscore.ZeroCoef>
-5.4800

> <Gold.Chemscore.Hbond>
1.1547

> <Gold.Chemscore.Metal>
0.0000

> <Gold.Chemscore.Lipo>
120.0864

> <Gold.Chemscore.Internal_Hbond>
0.0000

> <Gold.Chemscore.DEClash>
0.1644

> <Gold.Chemscore.DEInternal>
1.8028

> <Gold.Chemscore.Rot>
2.4777

> <Gold.Chemscore.Internal.Correction>
   9.000000E+99

> <Gold.Chemscore.Hbonds>
donor molecule, donor type, donor heavy atom, donor atom, acceptor molecule, acceptor atom, score
      L1  H     7    31       P1  7949  0.88
      P1  H  6896  6909       L1    22  0.35
      P1  H 10752 10764       L1     7  0.22

> <Gold.Chemscore.Hbond.Weighted>
-3.8568

> <Gold.Chemscore.Metal.Weighted>
-0.0000

> <Gold.Chemscore.Lipo.Weighted>
-14.0501

> <Gold.Chemscore.Internal_Hbond.Weighted>
0.0000

> <Gold.Chemscore.DEClash.Weighted>
0.1644

> <Gold.Chemscore.DEInternal.Weighted>
1.8028

> <Gold.Chemscore.Rot.Weighted>
6.3428

> <Gold.Chemscore.Internal.Correction.Weighted>
   9.000000E+99

> <Gold.Protein.RotatedTorsions>
[ 6907 6896 6895 6894 ] final  -76.87 input  -60.11 | X-H torsion
[ 7974 7965 7964 7962 ] final   60.55 input  175.53 | X-H torsion
[ 8008 7997 7996 7995 ] final  -37.92 input   59.86 | X-H torsion
[ 10167 10162 10161 10158 ] final  -48.95 input  -65.29 | X-H torsion
[ 10718 10713 10712 10709 ] final -168.83 input   66.30 | X-H torsion
[ 10763 10752 10751 10750 ] final  -78.31 input  -60.55 | X-H torsion
[ 11005 11000 10999 10996 ] final -129.70 input  -57.11 | X-H torsion

> <Gold.Protein.ActiveResidues>
 VAL166  LYS551  ARG553  GLY616  TRP617  ASP618  TYR619  PRO620  LYS621  CYS622 
 ASP623  PHE694  ASN695  SER759  ASP760  ASP761  ALA762  ILE779  LEU786  VAL792 
 PHE793  MET794  SER795  GLU796  ALA797  LYS798  CYS799  TRP800  GLU811  SER814 

> <Gold.Protein.RotatedAtoms>
  150.7015  134.4508  159.5334 H   0  0  0  0  0  0  0  0  0  0  0  0  # atno 6907 bound_to 6896
  152.2201  134.8418  160.0496 H   0  0  0  0  0  0  0  0  0  0  0  0  # atno 6908 bound_to 6896
  151.9272  133.3566  159.3955 H   0  0  0  0  0  0  0  0  0  0  0  0  # atno 6909 bound_to 6896
  145.8947  139.3537  143.0628 H   0  0  0  0  0  0  0  0  0  0  0  0  # atno 7974 bound_to 7965
  154.4045  140.1591  156.2616 H   0  0  0  0  0  0  0  0  0  0  0  0  # atno 8008 bound_to 7997
  155.9032  140.3432  155.6019 H   0  0  0  0  0  0  0  0  0  0  0  0  # atno 8009 bound_to 7997
  155.7424  140.0794  157.2230 H   0  0  0  0  0  0  0  0  0  0  0  0  # atno 8010 bound_to 7997
  140.6708  143.2718  151.4144 H   0  0  0  0  0  0  0  0  0  0  0  0  # atno 10167 bound_to 10162
  156.7026  130.9202  151.3081 H   0  0  0  0  0  0  0  0  0  0  0  0  # atno 10718 bound_to 10713
  154.5242  135.5734  153.6705 H   0  0  0  0  0  0  0  0  0  0  0  0  # atno 10763 bound_to 10752
  152.9924  135.6189  154.2714 H   0  0  0  0  0  0  0  0  0  0  0  0  # atno 10764 bound_to 10752
  154.2637  135.2855  155.2747 H   0  0  0  0  0  0  0  0  0  0  0  0  # atno 10765 bound_to 10752
  140.9409  134.1194  157.4151 H   0  0  0  0  0  0  0  0  0  0  0  0  # atno 11005 bound_to 11000
  145.8865  140.9331  143.0574 LP  0  0  0  0  0  0  0  0  0  0  0  0  # atno 17320 bound_to 7965
  144.6732  140.0848  143.7468 LP  0  0  0  0  0  0  0  0  0  0  0  0  # atno 17321 bound_to 7965
  139.5975  144.1366  152.2161 LP  0  0  0  0  0  0  0  0  0  0  0  0  # atno 17342 bound_to 10162
  140.0740  144.5756  150.7171 LP  0  0  0  0  0  0  0  0  0  0  0  0  # atno 17343 bound_to 10162
  157.6967  130.9289  150.0665 LP  0  0  0  0  0  0  0  0  0  0  0  0  # atno 17370 bound_to 10713
  156.1718  130.3646  149.9155 LP  0  0  0  0  0  0  0  0  0  0  0  0  # atno 17371 bound_to 10713
  139.8820  135.0036  156.6198 LP  0  0  0  0  0  0  0  0  0  0  0  0  # atno 17394 bound_to 11000
  140.7735  133.8719  155.8510 LP  0  0  0  0  0  0  0  0  0  0  0  0  # atno 17395 bound_to 11000

$$$$
