#       Name:                AV-unprocessed.smi:3184
#       Creating user name   scv26
#       Creation time:       Fri Mar 27 17:59:57 2020


#       File generated by GOLD software.
#

@<TRIPOS>MOLECULE
AV-unprocessed.smi:3184
    37    38     1
SMALL
NO_CHARGES


@<TRIPOS>ATOM
      1 ****        -0.5741  -2.6524   1.9676 C.3            1 S1                 0.0000
      2 ****         0.0865  -2.0278   0.7302 C.3            1 S1                 0.0000
      3 ****         1.6219  -2.1326   0.7900 C.3            1 S1                 0.0000
      4 ****         2.2504  -1.6494  -0.4258 N.pl3          1 S1                 0.0000
      5 ****         2.3498  -2.3165  -1.6396 C.2            1 S1                 0.0000
      6 ****         3.0134  -1.4708  -2.4994 C.2            1 S1                 0.0000
      7 ****         3.3317  -0.2860  -1.8394 N.2            1 S1                 0.0000
      8 ****         2.8501  -0.4661  -0.6165 C.2            1 S1                 0.0000
      9 ****        -0.3113  -0.6269   0.6124 N.am           1 S1                 0.0000
     10 ****        -1.3306  -0.1578  -0.1271 C.2            1 S1                 0.0000
     11 ****        -2.0909  -0.8889  -0.7629 O.2            1 S1                 0.0000
     12 ****        -1.4504   1.1873  -0.1042 N.am           1 S1                 0.0000
     13 ****        -0.5645   2.1310   0.5848 C.3            1 S1                 0.0000
     14 ****        -0.9837   3.5212   0.1060 C.3            1 S1                 0.0000
     15 ****        -2.4364   3.3490  -0.3143 C.3            1 S1                 0.0000
     16 ****        -2.5126   1.9040  -0.8073 C.3            1 S1                 0.0000
     17 ****        -0.3021  -3.7034   2.0685 H              1 S1                 0.0000
     18 ****        -1.6614  -2.6004   1.9012 H              1 S1                 0.0000
     19 ****        -0.2706  -2.1406   2.8816 H              1 S1                 0.0000
     20 ****        -0.2529  -2.5810  -0.1477 H              1 S1                 0.0000
     21 ****         2.0148  -1.5708   1.6389 H              1 S1                 0.0000
     22 ****         1.9237  -3.1707   0.9346 H              1 S1                 0.0000
     23 ****         1.9477  -3.3079  -1.7879 H              1 S1                 0.0000
     24 ****         3.2834  -1.6221  -3.5341 H              1 S1                 0.0000
     25 ****         2.9295   0.2834   0.1574 H              1 S1                 0.0000
     26 ****         0.2523   0.0472   1.1095 H              1 S1                 0.0000
     27 ****        -0.7134   2.0375   1.6614 H              1 S1                 0.0000
     28 ****         0.4886   1.9447   0.3674 H              1 S1                 0.0000
     29 ****        -0.8516   4.2888   0.8692 H              1 S1                 0.0000
     30 ****        -0.3852   3.8053  -0.7607 H              1 S1                 0.0000
     31 ****        -3.0843   3.4733   0.5545 H              1 S1                 0.0000
     32 ****        -2.7483   4.0711  -1.0693 H              1 S1                 0.0000
     33 ****        -2.3219   1.8551  -1.8804 H              1 S1                 0.0000
     34 ****        -3.4963   1.4717  -0.6177 H              1 S1                 0.0000
     35 ****         3.8109   0.5131  -2.2025 LP             1 S1                 0.0000
     36 ****        -1.9637  -1.8805  -0.7433 LP             1 S1                 0.0000
     37 ****        -2.8355  -0.4908  -1.2988 LP             1 S1                 0.0000
@<TRIPOS>BOND
    1    1    2 1     
    2    1   17 1     
    3    1   18 1     
    4    1   19 1     
    5    2    3 1     
    6    2    9 1     
    7    2   20 1     
    8    3    4 1     
    9    3   21 1     
   10    3   22 1     
   11    4    8 1     
   12    4    5 1     
   13    5    6 2     
   14    5   23 1     
   15    6    7 1     
   16    6   24 1     
   17    7    8 2     
   18    8   25 1     
   19    9   10 am    
   20    9   26 1     
   21   10   11 2     
   22   10   12 am    
   23   12   16 1     
   24   12   13 1     
   25   13   14 1     
   26   13   27 1     
   27   13   28 1     
   28   14   15 1     
   29   14   29 1     
   30   14   30 1     
   31   15   16 1     
   32   15   31 1     
   33   15   32 1     
   34   16   33 1     
   35   16   34 1     
   36    7   35 1     
   37   11   36 1     
   38   11   37 1     
@<TRIPOS>SUBSTRUCTURE
      1 S1             1
@<TRIPOS>SET
LONE_PAIRS      STATIC     ATOMS    <user>   **** ""
3 35 36 37
DONOR_HYDROGENS      STATIC     ATOMS    <user>   **** ""
1 26
ATOM$BLUE        STATIC     ATOMS    COLORGROUP SYSTEM
3 35 36 37
ATOM$RED        STATIC     ATOMS    COLORGROUP SYSTEM
1 26
