AV-unprocessed.smi:528|AV-procd|sdf|2837|dock10
  -GOLD-   2262023323D 1   1.00000     0.00000
 Structure written by MMmdl.
 45 47  0  0  0  0  0  0  0  0  1 V2000
  149.9119  137.1148  155.2387 C   0  0  0  0  0  0  0  0  0  0  0  0
  149.6804  137.9649  156.4972 C   0  0  2  0  0  0  0  0  0  0  0  0
  148.5227  137.4317  157.2141 N   0  0  0  0  0  0  0  0  0  0  0  0
  148.5502  136.7600  158.3760 C   0  0  0  0  0  0  0  0  0  0  0  0
  149.5907  136.4842  158.9749 O   0  0  0  0  0  0  0  0  0  0  0  0
  147.1825  136.3454  158.9369 C   0  0  0  0  0  0  0  0  0  0  0  0
  147.2816  135.4630  160.1110 N   0  0  0  0  0  0  0  0  0  0  0  0
  147.1028  134.0843  159.8838 C   0  0  0  0  0  0  0  0  0  0  0  0
  147.1394  133.1676  160.8694 C   0  0  0  0  0  0  0  0  0  0  0  0
  146.9834  131.6822  160.5840 C   0  0  0  0  0  0  0  0  0  0  0  0
  145.7634  131.4060  160.1229 F   0  0  0  0  0  0  0  0  0  0  0  0
  147.8705  131.3022  159.6654 F   0  0  0  0  0  0  0  0  0  0  0  0
  147.1897  130.9571  161.6842 F   0  0  0  0  0  0  0  0  0  0  0  0
  147.4152  133.6653  162.2029 C   0  0  0  0  0  0  0  0  0  0  0  0
  147.5928  134.9804  162.4368 C   0  0  0  0  0  0  0  0  0  0  0  0
  147.5183  135.9688  161.3583 C   0  0  0  0  0  0  0  0  0  0  0  0
  147.6595  137.1744  161.5640 O   0  0  0  0  0  0  0  0  0  0  0  0
  149.4464  139.4599  156.1657 C   0  0  1  0  0  0  0  0  0  0  0  0
  148.8085  140.2954  157.3010 C   0  0  0  0  0  0  0  0  0  0  0  0
  149.7204  141.5334  157.3775 C   0  0  1  0  0  0  0  0  0  0  0  0
  151.0509  141.1348  158.0415 C   0  0  0  0  0  0  0  0  0  0  0  0
  151.7391  140.3034  156.9439 C   0  0  0  0  0  0  0  0  0  0  0  0
  150.6954  140.3036  155.8073 C   0  0  2  0  0  0  0  0  0  0  0  0
  150.1367  141.7187  155.9231 C   0  0  0  0  0  0  0  0  0  0  0  0
  150.8130  137.4256  154.7097 H   0  0  0  0  0  0  0  0  0  0  0  0
  149.0739  137.1931  154.5452 H   0  0  0  0  0  0  0  0  0  0  0  0
  150.0349  136.0619  155.4948 H   0  0  0  0  0  0  0  0  0  0  0  0
  150.5663  137.8697  157.1251 H   0  0  0  0  0  0  0  0  0  0  0  0
  147.6196  137.6035  156.7965 H   0  0  0  0  0  0  0  0  0  0  0  0
  146.6223  137.2438  159.2023 H   0  0  0  0  0  0  0  0  0  0  0  0
  146.6049  135.8781  158.1377 H   0  0  0  0  0  0  0  0  0  0  0  0
  146.9242  133.8202  158.8513 H   0  0  0  0  0  0  0  0  0  0  0  0
  147.4761  132.9732  163.0298 H   0  0  0  0  0  0  0  0  0  0  0  0
  147.7937  135.3159  163.4438 H   0  0  0  0  0  0  0  0  0  0  0  0
  148.7743  139.5011  155.3061 H   0  0  0  0  0  0  0  0  0  0  0  0
  147.7863  140.5739  157.0422 H   0  0  0  0  0  0  0  0  0  0  0  0
  148.7743  139.7700  158.2556 H   0  0  0  0  0  0  0  0  0  0  0  0
  149.2444  142.3995  157.8378 H   0  0  0  0  0  0  0  0  0  0  0  0
  151.6459  142.0160  158.2845 H   0  0  0  0  0  0  0  0  0  0  0  0
  150.9016  140.5675  158.9610 H   0  0  0  0  0  0  0  0  0  0  0  0
  152.6540  140.7987  156.6164 H   0  0  0  0  0  0  0  0  0  0  0  0
  152.0180  139.3057  157.2800 H   0  0  0  0  0  0  0  0  0  0  0  0
  151.1161  140.0672  154.8295 H   0  0  0  0  0  0  0  0  0  0  0  0
  149.2969  141.9121  155.2534 H   0  0  0  0  0  0  0  0  0  0  0  0
  150.8901  142.4962  155.7845 H   0  0  0  0  0  0  0  0  0  0  0  0
  1  2  1  0  0  0  0
  1 25  1  0  0  0  0
  1 26  1  0  0  0  0
  1 27  1  0  0  0  0
  2  3  1  0  0  0  0
  2 18  1  0  0  0  0
  2 28  1  0  0  0  0
  3  4  1  0  0  0  0
  3 29  1  0  0  0  0
  4  5  2  0  0  0  0
  4  6  1  0  0  0  0
  6  7  1  0  0  0  0
  6 30  1  0  0  0  0
  6 31  1  0  0  0  0
  7 16  1  0  0  0  0
  7  8  1  0  0  0  0
  8  9  2  0  0  0  0
  8 32  1  0  0  0  0
  9 10  1  0  0  0  0
  9 14  1  0  0  0  0
 10 11  1  0  0  0  0
 10 12  1  0  0  0  0
 10 13  1  0  0  0  0
 14 15  2  0  0  0  0
 14 33  1  0  0  0  0
 15 16  1  0  0  0  0
 15 34  1  0  0  0  0
 16 17  2  0  0  0  0
 18 23  1  0  0  0  0
 18 19  1  0  0  0  0
 18 35  1  0  0  0  0
 19 20  1  0  0  0  0
 19 36  1  0  0  0  0
 19 37  1  0  0  0  0
 20 24  1  0  0  0  0
 20 21  1  0  0  0  0
 20 38  1  0  0  0  0
 21 22  1  0  0  0  0
 21 39  1  0  0  0  0
 21 40  1  0  0  0  0
 22 23  1  0  0  0  0
 22 41  1  0  0  0  0
 22 42  1  0  0  0  0
 23 24  1  0  0  0  0
 23 43  1  0  0  0  0
 24 44  1  0  0  0  0
 24 45  1  0  0  0  0
M  END
> <s_m_source_file>
AV-unprocessed.smi

> <i_m_source_file_index>
528

> <i_lp_mmshare_version>
43012

> <i_f3d_flags>
0

> <s_epik_input>
W0NIMl0xW0NIMl1bQ0BASF0oW0NIMl0yKVtDQEBIXShbQ0gyXVtDQEhdMTIpW0NASF0oW0NIM10pW05IXUMoPU8pW0NIMl1uM1tjSF1jKEMoRikoRilGKVtjSF1bY0hdYzM9Tw==

> <s_epik_cmdline>
J2VwaWtfcHl0aG9uJywgJy1waCcsICc3LjAnLCAnLXRuJywgJzgnLCAnLW1hJywgJzIwMCcsICctbWV0YWxfYmluZGluZycsICctaW1hZScsICc8aW5maWxlLm1hZT4nLCAnLW9tYWUnLCAnPG91dGZpbGUubWFlPic=

> <r_lp_tautomer_probability>
1

> <r_epik_Ionization_Penalty>
4.09479e-08

> <r_epik_Ionization_Penalty_Charging>
1.9321e-08

> <r_epik_Ionization_Penalty_Neutral>
2.16269e-08

> <r_epik_State_Penalty>
-0

> <r_epik_Charging_Adjusted_Penalty>
1.9321e-08

> <i_epik_Tot_Q>
0

> <i_epik_Tot_abs_Q>
0

> <r_epik_Metal_State_Penalty>
-0

> <b_epik_Metal_Only>
0

> <s_lp_Force_Field>
OPLS_2005

> <r_lp_Energy>
63.2054

> <b_lp_Chiralities_Consistent>
1

> <s_lp_Variant>
AV-unprocessed.smi:528-7

> <Gold.Version>
5.8.1

> <Gold.Id.Protein>
6NUR|6NUR_protein|mol2

> <Gold.PLP.Fitness>
43.9443

> <Gold.PLP.PLP>
-37.0764

> <Gold.PLP.part.hbond>
-3.0000

> <Gold.PLP.part.metal>
0.0000

> <Gold.PLP.part.buried>
-5.0373

> <Gold.PLP.part.nonpolar>
-28.3729

> <Gold.PLP.part.repulsive>
0.0219

> <Gold.PLP.ligand.clash>
0.0000

> <Gold.PLP.ligand.torsion>
0.8007

> <Gold.PLP.Chemscore.Hbond>
2.8080

> <Gold.PLP.Chemscore.CHOScore>
0.0000

> <Gold.PLP.Chemscore.Metal>
0.0000

> <Gold.Chemscore.Hbonds>
donor molecule, donor type, donor heavy atom, donor atom, acceptor molecule, acceptor atom, score
      P1  H  6896  6909       L1     5  0.62
      P1  H  6931  6943       L1    17  1.00
      P1  H  6934  6947       L1    17  0.77

> <Gold.PLP.Chemscore.Internal.Correction>
0.0453

> <Gold.Rescore>
     Score         DG    S(hbond)    S(metal)    S(lipo)     H(rot)  DE(clash)    DE(int)     intcor
     19.08     -20.01       2.78        0.00      82.20       1.71       0.04       0.89       ----

> <Gold.Chemscore.Fitness>
19.0828

> <Gold.Chemscore.DG>
-20.0137

> <Gold.Chemscore.ZeroCoef>
-5.4800

> <Gold.Chemscore.Hbond>
2.7846

> <Gold.Chemscore.Metal>
0.0000

> <Gold.Chemscore.Lipo>
82.1971

> <Gold.Chemscore.Internal_Hbond>
0.0000

> <Gold.Chemscore.DEClash>
0.0361

> <Gold.Chemscore.DEInternal>
0.8948

> <Gold.Chemscore.Rot>
1.7125

> <Gold.Chemscore.Internal.Correction>
   9.000000E+99

> <Gold.Chemscore.Hbonds>
donor molecule, donor type, donor heavy atom, donor atom, acceptor molecule, acceptor atom, score
      P1  H  6896  6909       L1     5  0.63
      P1  H  6931  6943       L1    17  0.94
      P1  H  6934  6947       L1    17  0.75

> <Gold.Chemscore.Hbond.Weighted>
-9.3006

> <Gold.Chemscore.Metal.Weighted>
-0.0000

> <Gold.Chemscore.Lipo.Weighted>
-9.6171

> <Gold.Chemscore.Internal_Hbond.Weighted>
0.0000

> <Gold.Chemscore.DEClash.Weighted>
0.0361

> <Gold.Chemscore.DEInternal.Weighted>
0.8948

> <Gold.Chemscore.Rot.Weighted>
4.3840

> <Gold.Chemscore.Internal.Correction.Weighted>
   9.000000E+99

> <Gold.Protein.RotatedTorsions>
[ 6907 6896 6895 6894 ] final   81.25 input  -60.11 | X-H torsion
[ 7974 7965 7964 7962 ] final -159.82 input  175.53 | X-H torsion
[ 8008 7997 7996 7995 ] final   63.53 input   59.86 | X-H torsion
[ 10167 10162 10161 10158 ] final   96.98 input  -65.29 | X-H torsion
[ 10718 10713 10712 10709 ] final  173.14 input   66.30 | X-H torsion
[ 10763 10752 10751 10750 ] final    2.73 input  -60.55 | X-H torsion
[ 11005 11000 10999 10996 ] final  -13.14 input  -57.11 | X-H torsion

> <Gold.Protein.ActiveResidues>
 VAL166  LYS551  ARG553  GLY616  TRP617  ASP618  TYR619  PRO620  LYS621  CYS622 
 ASP623  PHE694  ASN695  SER759  ASP760  ASP761  ALA762  ILE779  LEU786  VAL792 
 PHE793  MET794  SER795  GLU796  ALA797  LYS798  CYS799  TRP800  GLU811  SER814 

> <Gold.Protein.RotatedAtoms>
  152.5262  134.3233  159.9155 H   0  0  0  0  0  0  0  0  0  0  0  0  # atno 6907 bound_to 6896
  151.3182  133.4045  159.2660 H   0  0  0  0  0  0  0  0  0  0  0  0  # atno 6908 bound_to 6896
  150.9981  134.9317  159.7995 H   0  0  0  0  0  0  0  0  0  0  0  0  # atno 6909 bound_to 6896
  144.7450  140.3630  143.6092 H   0  0  0  0  0  0  0  0  0  0  0  0  # atno 7974 bound_to 7965
  155.6318  140.3496  155.4685 H   0  0  0  0  0  0  0  0  0  0  0  0  # atno 8008 bound_to 7997
  155.9997  140.1211  157.0583 H   0  0  0  0  0  0  0  0  0  0  0  0  # atno 8009 bound_to 7997
  154.4245  140.1103  156.5666 H   0  0  0  0  0  0  0  0  0  0  0  0  # atno 8010 bound_to 7997
  139.7843  144.6876  150.9979 H   0  0  0  0  0  0  0  0  0  0  0  0  # atno 10167 bound_to 10162
  156.9686  131.0083  151.2910 H   0  0  0  0  0  0  0  0  0  0  0  0  # atno 10718 bound_to 10713
  153.2920  135.6949  153.7284 H   0  0  0  0  0  0  0  0  0  0  0  0  # atno 10763 bound_to 10752
  153.6232  135.3423  155.3018 H   0  0  0  0  0  0  0  0  0  0  0  0  # atno 10764 bound_to 10752
  154.8526  135.4391  154.2005 H   0  0  0  0  0  0  0  0  0  0  0  0  # atno 10765 bound_to 10752
  140.7730  133.8423  155.9224 H   0  0  0  0  0  0  0  0  0  0  0  0  # atno 11005 bound_to 11000
  145.7158  139.1696  143.2513 LP  0  0  0  0  0  0  0  0  0  0  0  0  # atno 17320 bound_to 7965
  146.1314  140.7181  142.9410 LP  0  0  0  0  0  0  0  0  0  0  0  0  # atno 17321 bound_to 7965
  140.7819  143.4449  151.0498 LP  0  0  0  0  0  0  0  0  0  0  0  0  # atno 17342 bound_to 10162
  139.8128  143.7927  152.3172 LP  0  0  0  0  0  0  0  0  0  0  0  0  # atno 17343 bound_to 10162
  157.5608  130.8244  149.8263 LP  0  0  0  0  0  0  0  0  0  0  0  0  # atno 17370 bound_to 10713
  156.0292  130.3770  150.1735 LP  0  0  0  0  0  0  0  0  0  0  0  0  # atno 17371 bound_to 10713
  140.9555  134.1723  157.4695 LP  0  0  0  0  0  0  0  0  0  0  0  0  # atno 17394 bound_to 11000
  139.8753  134.9925  156.5601 LP  0  0  0  0  0  0  0  0  0  0  0  0  # atno 17395 bound_to 11000

$$$$
