#       Name:                AV-unprocessed.smi:692
#       Creating user name   scv26
#       Creation time:       Fri Mar 27 00:35:01 2020


#       File generated by GOLD software.
#

@<TRIPOS>MOLECULE
AV-unprocessed.smi:692
    42    43     1
SMALL
NO_CHARGES


@<TRIPOS>ATOM
      1 ****        -6.6552   0.8676  -1.0451 C.3            1 S1                 0.0000
      2 ****        -5.9314   0.4874   0.2514 C.3            1 S1                 0.0000
      3 ****        -4.5777   1.1216   0.3547 C.2            1 S1                 0.0000
      4 ****        -4.2396   2.2279   1.0900 C.2            1 S1                 0.0000
      5 ****        -2.5546   2.6267   0.9138 S.3            1 S1                 0.0000
      6 ****        -2.3525   1.2465  -0.1677 C.2            1 S1                 0.0000
      7 ****        -1.2000   0.8944  -0.7602 N.pl3          1 S1                -1.0000
      8 ****        -0.2781   0.1812  -0.0742 C.2            1 S1                 0.0000
      9 ****        -0.3722  -0.2031   1.0939 O.2            1 S1                 0.0000
     10 ****         0.8229  -0.1018  -0.7852 N.am           1 S1                 0.0000
     11 ****         1.9831  -0.8500  -0.3092 C.3            1 S1                 0.0000
     12 ****         2.7645  -1.4075  -1.5001 C.3            1 S1                 0.0000
     13 ****         3.9632  -2.2311  -1.0146 C.3            1 S1                 0.0000
     14 ****         4.7952  -1.5291   0.0696 C.2            1 S1                 0.0000
     15 ****         5.9429  -1.9286   0.2691 O.2            1 S1                 0.0000
     16 ****         4.2387  -0.5242   0.7886 N.am           1 S1                 0.0000
     17 ****         5.0012   0.1349   1.8502 C.3            1 S1                 0.0000
     18 ****         2.9047   0.0452   0.5422 C.3            1 S1                 0.0000
     19 ****        -3.4996   0.5842  -0.3537 N.2            1 S1                 0.0000
     20 ****        -7.6366   0.3958  -1.0953 H              1 S1                 0.0000
     21 ****        -6.0881   0.5501  -1.9207 H              1 S1                 0.0000
     22 ****        -6.7991   1.9463  -1.1122 H              1 S1                 0.0000
     23 ****        -6.5461   0.7784   1.1037 H              1 S1                 0.0000
     24 ****        -5.8390  -0.5980   0.3065 H              1 S1                 0.0000
     25 ****        -4.8756   2.8319   1.7195 H              1 S1                 0.0000
     26 ****         0.8551   0.2323  -1.7373 H              1 S1                 0.0000
     27 ****         1.6401  -1.6920   0.2954 H              1 S1                 0.0000
     28 ****         2.1173  -2.0329  -2.1162 H              1 S1                 0.0000
     29 ****         3.1093  -0.5928  -2.1388 H              1 S1                 0.0000
     30 ****         3.6104  -3.1754  -0.5986 H              1 S1                 0.0000
     31 ****         4.6056  -2.4836  -1.8587 H              1 S1                 0.0000
     32 ****         5.2249  -0.5694   2.6526 H              1 S1                 0.0000
     33 ****         4.4581   0.9735   2.2879 H              1 S1                 0.0000
     34 ****         5.9441   0.5258   1.4647 H              1 S1                 0.0000
     35 ****         3.0491   1.0041   0.0417 H              1 S1                 0.0000
     36 ****         2.4153   0.2624   1.4929 H              1 S1                 0.0000
     37 ****        -1.0235   1.1594  -1.7082 LP             1 S1                 0.0000
     38 ****        -1.1919   0.0096   1.6257 LP             1 S1                 0.0000
     39 ****         0.3712  -0.7273   1.5092 LP             1 S1                 0.0000
     40 ****         6.3080  -2.6892  -0.2678 LP             1 S1                 0.0000
     41 ****         6.5098  -1.4923   0.9679 LP             1 S1                 0.0000
     42 ****        -3.5783  -0.2193  -0.9438 LP             1 S1                 0.0000
@<TRIPOS>BOND
    1    1    2 1     
    2    1   20 1     
    3    1   21 1     
    4    1   22 1     
    5    2    3 1     
    6    2   23 1     
    7    2   24 1     
    8    3   19 1     
    9    3    4 2     
   10    4    5 1     
   11    4   25 1     
   12    5    6 1     
   13    6    7 1     
   14    6   19 2     
   15    7    8 1     
   16    8    9 2     
   17    8   10 am    
   18   10   11 1     
   19   10   26 1     
   20   11   18 1     
   21   11   12 1     
   22   11   27 1     
   23   12   13 1     
   24   12   28 1     
   25   12   29 1     
   26   13   14 1     
   27   13   30 1     
   28   13   31 1     
   29   14   15 2     
   30   14   16 am    
   31   16   17 1     
   32   16   18 1     
   33   17   32 1     
   34   17   33 1     
   35   17   34 1     
   36   18   35 1     
   37   18   36 1     
   38    7   37 1     
   39    9   38 1     
   40    9   39 1     
   41   15   40 1     
   42   15   41 1     
   43   19   42 1     
@<TRIPOS>SUBSTRUCTURE
      1 S1             1
@<TRIPOS>SET
LONE_PAIRS      STATIC     ATOMS    <user>   **** ""
6 37 38 39 40 41 42
DONOR_HYDROGENS      STATIC     ATOMS    <user>   **** ""
1 26
ATOM$BLUE        STATIC     ATOMS    COLORGROUP SYSTEM
6 37 38 39 40 41 42
ATOM$RED        STATIC     ATOMS    COLORGROUP SYSTEM
1 26
