AV-unprocessed.smi:189|AV-procd|sdf|1478|dock9
  -GOLD-   2262019303D 1   1.00000     0.00000
 Structure written by MMmdl.
 53 57  0  0  0  0  0  0  0  0  1 V2000
  149.2772  141.0858  156.5475 C   0  0  0  0  0  0  0  0  0  0  0  0
  150.7636  141.3331  156.8428 C   0  0  1  0  0  0  0  0  0  0  0  0
  151.0633  142.7500  157.3899 C   0  0  0  0  0  0  0  0  0  0  0  0
  151.7390  142.4814  158.7344 C   0  0  2  0  0  0  0  0  0  0  0  0
  152.7996  143.4649  159.2433 C   0  0  0  0  0  0  0  0  0  0  0  0
  153.3939  142.9257  160.5625 C   0  0  0  0  0  0  0  0  0  0  0  0
  153.9134  141.4747  160.4292 C   0  0  0  0  0  0  0  0  0  0  0  0
  152.8574  140.5214  159.8308 C   0  0  0  0  0  0  0  0  0  0  0  0
  152.3520  141.1112  158.5055 C   0  0  1  0  0  0  0  0  0  0  0  0
  151.2888  140.3876  157.8322 N   0  0  0  0  0  0  0  0  0  0  0  0
  151.6169  139.1640  157.3610 C   0  0  0  0  0  0  0  0  0  0  0  0
  152.7049  139.0945  156.5561 N   0  0  0  0  0  0  0  0  0  0  0  0
  153.0870  137.9186  156.0491 C   0  0  0  0  0  0  0  0  0  0  0  0
  152.5331  136.7162  156.2185 N   0  0  0  0  0  0  0  0  0  0  0  0
  151.4397  136.7832  157.0313 C   0  0  0  0  0  0  0  0  0  0  0  0
  150.9126  137.9574  157.6388 C   0  0  0  0  0  0  0  0  0  0  0  0
  149.7885  137.6363  158.3910 N   0  0  0  0  0  0  0  0  0  0  0  0
  149.6606  136.3468  158.2389 C   0  0  0  0  0  0  0  0  0  0  0  0
  150.6146  135.7517  157.4444 N   0  0  0  0  0  0  0  0  0  0  0  0
  150.7153  134.3393  157.1118 C   0  0  0  0  0  0  0  0  0  0  0  0
  149.8398  133.9280  155.9048 C   0  0  1  0  0  0  0  0  0  0  0  0
  150.1403  134.7698  154.8053 O   0  0  0  0  0  0  0  0  0  0  0  0
  150.0234  132.4773  155.4662 C   0  0  0  0  0  0  0  0  0  0  0  0
  148.6385  132.0948  154.9633 C   0  0  0  0  0  0  0  0  0  0  0  0
  147.7864  132.7355  155.8966 O   0  0  0  0  0  0  0  0  0  0  0  0
  148.3272  134.0194  156.1902 C   0  0  0  0  0  0  0  0  0  0  0  0
  148.8999  141.8039  155.8195 H   0  0  0  0  0  0  0  0  0  0  0  0
  148.6747  141.1774  157.4517 H   0  0  0  0  0  0  0  0  0  0  0  0
  149.1169  140.0875  156.1392 H   0  0  0  0  0  0  0  0  0  0  0  0
  151.3098  141.2170  155.9062 H   0  0  0  0  0  0  0  0  0  0  0  0
  151.7407  143.2723  156.7133 H   0  0  0  0  0  0  0  0  0  0  0  0
  150.1691  143.3634  157.5050 H   0  0  0  0  0  0  0  0  0  0  0  0
  150.9534  142.3956  159.4883 H   0  0  0  0  0  0  0  0  0  0  0  0
  153.5892  143.5851  158.5004 H   0  0  0  0  0  0  0  0  0  0  0  0
  152.3601  144.4501  159.4013 H   0  0  0  0  0  0  0  0  0  0  0  0
  154.1988  143.5785  160.9013 H   0  0  0  0  0  0  0  0  0  0  0  0
  152.6280  142.9586  161.3383 H   0  0  0  0  0  0  0  0  0  0  0  0
  154.7984  141.4708  159.7918 H   0  0  0  0  0  0  0  0  0  0  0  0
  154.2371  141.1054  161.4027 H   0  0  0  0  0  0  0  0  0  0  0  0
  153.2915  139.5337  159.6724 H   0  0  0  0  0  0  0  0  0  0  0  0
  152.0287  140.3942  160.5287 H   0  0  0  0  0  0  0  0  0  0  0  0
  153.1985  141.2106  157.8241 H   0  0  0  0  0  0  0  0  0  0  0  0
  153.9625  137.9448  155.4174 H   0  0  0  0  0  0  0  0  0  0  0  0
  148.8633  135.7902  158.7092 H   0  0  0  0  0  0  0  0  0  0  0  0
  151.7632  134.1153  156.9079 H   0  0  0  0  0  0  0  0  0  0  0  0
  150.4445  133.7556  157.9927 H   0  0  0  0  0  0  0  0  0  0  0  0
  149.3433  134.9315  154.3241 H   0  0  0  0  0  0  0  0  0  0  0  0
  150.8072  132.3371  154.7205 H   0  0  0  0  0  0  0  0  0  0  0  0
  150.2668  131.8513  156.3253 H   0  0  0  0  0  0  0  0  0  0  0  0
  148.4582  132.4918  153.9630 H   0  0  0  0  0  0  0  0  0  0  0  0
  148.4786  131.0165  154.9440 H   0  0  0  0  0  0  0  0  0  0  0  0
  148.1130  134.2688  157.2300 H   0  0  0  0  0  0  0  0  0  0  0  0
  147.8370  134.7706  155.5685 H   0  0  0  0  0  0  0  0  0  0  0  0
  1  2  1  0  0  0  0
  1 27  1  0  0  0  0
  1 28  1  0  0  0  0
  1 29  1  0  0  0  0
  2 10  1  0  0  0  0
  2  3  1  0  0  0  0
  2 30  1  0  0  0  0
  3  4  1  0  0  0  0
  3 31  1  0  0  0  0
  3 32  1  0  0  0  0
  4  9  1  0  0  0  0
  4  5  1  0  0  0  0
  4 33  1  0  0  0  0
  5  6  1  0  0  0  0
  5 34  1  0  0  0  0
  5 35  1  0  0  0  0
  6  7  1  0  0  0  0
  6 36  1  0  0  0  0
  6 37  1  0  0  0  0
  7  8  1  0  0  0  0
  7 38  1  0  0  0  0
  7 39  1  0  0  0  0
  8  9  1  0  0  0  0
  8 40  1  0  0  0  0
  8 41  1  0  0  0  0
  9 10  1  0  0  0  0
  9 42  1  0  0  0  0
 10 11  1  0  0  0  0
 11 16  1  0  0  0  0
 11 12  2  0  0  0  0
 12 13  1  0  0  0  0
 13 14  2  0  0  0  0
 13 43  1  0  0  0  0
 14 15  1  0  0  0  0
 15 19  1  0  0  0  0
 15 16  2  0  0  0  0
 16 17  1  0  0  0  0
 17 18  2  0  0  0  0
 18 19  1  0  0  0  0
 18 44  1  0  0  0  0
 19 20  1  0  0  0  0
 20 21  1  0  0  0  0
 20 45  1  0  0  0  0
 20 46  1  0  0  0  0
 21 26  1  0  0  0  0
 21 22  1  0  0  0  0
 21 23  1  0  0  0  0
 22 47  1  0  0  0  0
 23 24  1  0  0  0  0
 23 48  1  0  0  0  0
 23 49  1  0  0  0  0
 24 25  1  0  0  0  0
 24 50  1  0  0  0  0
 24 51  1  0  0  0  0
 25 26  1  0  0  0  0
 26 52  1  0  0  0  0
 26 53  1  0  0  0  0
M  END
> <s_m_source_file>
AV-unprocessed.smi

> <i_m_source_file_index>
189

> <i_lp_mmshare_version>
43012

> <i_f3d_flags>
0

> <s_epik_input>
W0NIMl0xW0NIMl1bQ0gyXVtDSDJdW0NASF0oW0NASF0xMilOKFtDQEhdKFtDSDNdKVtDSDJdMiljKG5bY0hdbjMpYyhjMzQpbltjSF1uNFtDSDJdW0NAQF01KFtPSF0pW0NIMl1bQ0gyXU9bQ0gyXTU=

> <s_epik_cmdline>
J2VwaWtfcHl0aG9uJywgJy1waCcsICc3LjAnLCAnLXRuJywgJzgnLCAnLW1hJywgJzIwMCcsICctbWV0YWxfYmluZGluZycsICctaW1hZScsICc8aW5maWxlLm1hZT4nLCAnLW9tYWUnLCAnPG91dGZpbGUubWFlPic=

> <r_lp_tautomer_probability>
1

> <r_epik_Ionization_Penalty>
0.00594261

> <r_epik_Ionization_Penalty_Charging>
0

> <r_epik_Ionization_Penalty_Neutral>
0.00594261

> <r_epik_State_Penalty>
0.00429776

> <r_epik_Charging_Adjusted_Penalty>
0.00429776

> <i_epik_Tot_Q>
0

> <i_epik_Tot_abs_Q>
0

> <r_epik_Metal_State_Penalty>
-0

> <b_epik_Metal_Only>
0

> <s_lp_Force_Field>
OPLS_2005

> <r_lp_Energy>
58.2794

> <b_lp_Chiralities_Consistent>
1

> <s_lp_Variant>
AV-unprocessed.smi:189-4

> <Gold.Version>
5.8.1

> <Gold.Id.Protein>
6NUR|6NUR_protein|mol2

> <Gold.PLP.Fitness>
47.6395

> <Gold.PLP.PLP>
-40.5871

> <Gold.PLP.part.hbond>
-4.0000

> <Gold.PLP.part.metal>
0.0000

> <Gold.PLP.part.buried>
-4.0688

> <Gold.PLP.part.nonpolar>
-33.7080

> <Gold.PLP.part.repulsive>
0.0449

> <Gold.PLP.ligand.clash>
0.0000

> <Gold.PLP.ligand.torsion>
0.5251

> <Gold.PLP.Chemscore.Hbond>
2.6960

> <Gold.PLP.Chemscore.CHOScore>
0.0000

> <Gold.PLP.Chemscore.Metal>
0.0000

> <Gold.Chemscore.Hbonds>
donor molecule, donor type, donor heavy atom, donor atom, acceptor molecule, acceptor atom, score
      P1  H  7997  8010       L1    12  1.00
      P1  H 10752 10765       L1    14  0.98

> <Gold.PLP.Chemscore.Internal.Correction>
0.0146

> <Gold.Rescore>
     Score         DG    S(hbond)    S(metal)    S(lipo)     H(rot)  DE(clash)    DE(int)     intcor
     18.00     -19.11       1.90        0.00     106.74       2.03       0.55       0.55       ----

> <Gold.Chemscore.Fitness>
18.0014

> <Gold.Chemscore.DG>
-19.1071

> <Gold.Chemscore.ZeroCoef>
-5.4800

> <Gold.Chemscore.Hbond>
1.8966

> <Gold.Chemscore.Metal>
0.0000

> <Gold.Chemscore.Lipo>
106.7386

> <Gold.Chemscore.Internal_Hbond>
0.0000

> <Gold.Chemscore.DEClash>
0.5534

> <Gold.Chemscore.DEInternal>
0.5524

> <Gold.Chemscore.Rot>
2.0297

> <Gold.Chemscore.Internal.Correction>
   9.000000E+99

> <Gold.Chemscore.Hbonds>
donor molecule, donor type, donor heavy atom, donor atom, acceptor molecule, acceptor atom, score
      P1  H  7997  8010       L1    12  0.35
      P1  H 10752 10765       L1    14  0.77

> <Gold.Chemscore.Hbond.Weighted>
-6.3347

> <Gold.Chemscore.Metal.Weighted>
-0.0000

> <Gold.Chemscore.Lipo.Weighted>
-12.4884

> <Gold.Chemscore.Internal_Hbond.Weighted>
0.0000

> <Gold.Chemscore.DEClash.Weighted>
0.5534

> <Gold.Chemscore.DEInternal.Weighted>
0.5524

> <Gold.Chemscore.Rot.Weighted>
5.1960

> <Gold.Chemscore.Internal.Correction.Weighted>
   9.000000E+99

> <Gold.Protein.RotatedTorsions>
[ 6907 6896 6895 6894 ] final  -92.17 input  -60.11 | X-H torsion
[ 7974 7965 7964 7962 ] final  -41.46 input  175.53 | X-H torsion
[ 8008 7997 7996 7995 ] final   64.76 input   59.86 | X-H torsion
[ 10167 10162 10161 10158 ] final   63.43 input  -65.29 | X-H torsion
[ 10718 10713 10712 10709 ] final  -54.61 input   66.30 | X-H torsion
[ 10763 10752 10751 10750 ] final -152.63 input  -60.55 | X-H torsion
[ 11005 11000 10999 10996 ] final  -27.61 input  -57.11 | X-H torsion

> <Gold.Protein.ActiveResidues>
 VAL166  LYS551  ARG553  GLY616  TRP617  ASP618  TYR619  PRO620  LYS621  CYS622 
 ASP623  PHE694  ASN695  SER759  ASP760  ASP761  ALA762  ILE779  LEU786  VAL792 
 PHE793  MET794  SER795  GLU796  ALA797  LYS798  CYS799  TRP800  GLU811  SER814 

> <Gold.Protein.RotatedAtoms>
  150.6902  134.2164  159.4379 H   0  0  0  0  0  0  0  0  0  0  0  0  # atno 6907 bound_to 6896
  152.0123  134.9867  160.0577 H   0  0  0  0  0  0  0  0  0  0  0  0  # atno 6908 bound_to 6896
  152.1477  133.4468  159.4835 H   0  0  0  0  0  0  0  0  0  0  0  0  # atno 6909 bound_to 6896
  146.0209  140.6851  142.9179 H   0  0  0  0  0  0  0  0  0  0  0  0  # atno 7974 bound_to 7965
  155.6511  140.3497  155.4748 H   0  0  0  0  0  0  0  0  0  0  0  0  # atno 8008 bound_to 7997
  155.9847  140.1181  157.0717 H   0  0  0  0  0  0  0  0  0  0  0  0  # atno 8009 bound_to 7997
  154.4201  140.1131  156.5469 H   0  0  0  0  0  0  0  0  0  0  0  0  # atno 8010 bound_to 7997
  140.1332  144.4624  150.6853 H   0  0  0  0  0  0  0  0  0  0  0  0  # atno 10167 bound_to 10162
  156.1436  130.4153  150.0061 H   0  0  0  0  0  0  0  0  0  0  0  0  # atno 10718 bound_to 10713
  154.7981  135.3231  154.7617 H   0  0  0  0  0  0  0  0  0  0  0  0  # atno 10763 bound_to 10752
  153.8291  135.6881  153.4821 H   0  0  0  0  0  0  0  0  0  0  0  0  # atno 10764 bound_to 10752
  153.1683  135.4633  154.9810 H   0  0  0  0  0  0  0  0  0  0  0  0  # atno 10765 bound_to 10752
  140.9134  133.7446  156.0702 H   0  0  0  0  0  0  0  0  0  0  0  0  # atno 11005 bound_to 11000
  144.6989  140.3563  143.7172 LP  0  0  0  0  0  0  0  0  0  0  0  0  # atno 17320 bound_to 7965
  145.7195  139.1706  143.2492 LP  0  0  0  0  0  0  0  0  0  0  0  0  # atno 17321 bound_to 7965
  140.6805  143.2324  151.5397 LP  0  0  0  0  0  0  0  0  0  0  0  0  # atno 17342 bound_to 10162
  139.5509  144.2398  152.1529 LP  0  0  0  0  0  0  0  0  0  0  0  0  # atno 17343 bound_to 10162
  156.7939  130.9266  151.3646 LP  0  0  0  0  0  0  0  0  0  0  0  0  # atno 17370 bound_to 10713
  157.6597  130.8955  149.9804 LP  0  0  0  0  0  0  0  0  0  0  0  0  # atno 17371 bound_to 10713
  140.8081  134.3431  157.5420 LP  0  0  0  0  0  0  0  0  0  0  0  0  # atno 17394 bound_to 11000
  139.8761  134.9237  156.3332 LP  0  0  0  0  0  0  0  0  0  0  0  0  # atno 17395 bound_to 11000

$$$$
