AV-unprocessed.smi:1768|AV-procd|sdf|7143|dock8
  -GOLD-   22720 8383D 1   1.00000     0.00000
 Structure written by MMmdl.
 33 34  0  0  0  0  0  0  0  0  1 V2000
  143.3920  132.4406  150.7350 C   0  0  0  0  0  0  0  0  0  0  0  0
  144.0485  133.6300  151.3482 C   0  0  0  0  0  0  0  0  0  0  0  0
  143.3740  134.5520  152.0459 N   0  0  0  0  0  0  0  0  0  0  0  0
  144.1994  135.5637  152.5168 N   0  0  0  0  0  0  0  0  0  0  0  0
  145.4766  135.3744  152.1578 C   0  0  0  0  0  0  0  0  0  0  0  0
  146.5337  136.2575  152.5030 N   0  0  0  0  0  0  0  0  0  0  0  0
  146.4905  137.3385  153.3014 C   0  0  0  0  0  0  0  0  0  0  0  0
  145.4912  137.7455  153.8941 O   0  0  0  0  0  0  0  0  0  0  0  0
  147.6938  137.9259  153.3817 N   0  0  0  0  0  0  0  0  0  0  0  0
  148.0168  139.1195  154.1624 C   0  0  2  0  0  0  0  0  0  0  0  0
  147.2132  140.3048  153.6076 C   0  0  0  0  0  0  0  0  0  0  0  0
  149.5352  139.3892  154.1278 C   0  0  2  0  0  0  0  0  0  0  0  0
  150.4085  138.2371  154.6302 C   0  0  0  0  0  0  0  0  0  0  0  0
  151.6678  138.9646  155.0403 C   0  0  0  0  0  0  0  0  0  0  0  0
  151.1015  140.2431  155.6490 C   0  0  0  0  0  0  0  0  0  0  0  0
  149.8698  140.4877  154.9742 O   0  0  0  0  0  0  0  0  0  0  0  0
  145.7759  133.9309  151.2045 S   0  0  0  0  0  0  0  0  0  0  0  0
  142.3802  132.3172  151.1227 H   0  0  0  0  0  0  0  0  0  0  0  0
  143.9635  131.5402  150.9614 H   0  0  0  0  0  0  0  0  0  0  0  0
  143.3404  132.5609  149.6529 H   0  0  0  0  0  0  0  0  0  0  0  0
  147.4297  136.0397  152.0928 H   0  0  0  0  0  0  0  0  0  0  0  0
  148.4535  137.5145  152.8598 H   0  0  0  0  0  0  0  0  0  0  0  0
  147.7175  138.9773  155.2024 H   0  0  0  0  0  0  0  0  0  0  0  0
  147.3941  141.2096  154.1883 H   0  0  0  0  0  0  0  0  0  0  0  0
  146.1418  140.1041  153.6423 H   0  0  0  0  0  0  0  0  0  0  0  0
  147.4799  140.5157  152.5716 H   0  0  0  0  0  0  0  0  0  0  0  0
  149.8463  139.6490  153.1142 H   0  0  0  0  0  0  0  0  0  0  0  0
  149.9546  137.7601  155.5004 H   0  0  0  0  0  0  0  0  0  0  0  0
  150.5849  137.4723  153.8734 H   0  0  0  0  0  0  0  0  0  0  0  0
  152.2867  138.3978  155.7361 H   0  0  0  0  0  0  0  0  0  0  0  0
  152.2672  139.1995  154.1597 H   0  0  0  0  0  0  0  0  0  0  0  0
  150.8909  140.0997  156.7094 H   0  0  0  0  0  0  0  0  0  0  0  0
  151.7843  141.0872  155.5505 H   0  0  0  0  0  0  0  0  0  0  0  0
  1  2  1  0  0  0  0
  1 18  1  0  0  0  0
  1 19  1  0  0  0  0
  1 20  1  0  0  0  0
  2 17  1  0  0  0  0
  2  3  2  0  0  0  0
  3  4  1  0  0  0  0
  4  5  2  0  0  0  0
  5  6  1  0  0  0  0
  5 17  1  0  0  0  0
  6  7  1  0  0  0  0
  6 21  1  0  0  0  0
  7  8  2  0  0  0  0
  7  9  1  0  0  0  0
  9 10  1  0  0  0  0
  9 22  1  0  0  0  0
 10 11  1  0  0  0  0
 10 12  1  0  0  0  0
 10 23  1  0  0  0  0
 11 24  1  0  0  0  0
 11 25  1  0  0  0  0
 11 26  1  0  0  0  0
 12 16  1  0  0  0  0
 12 13  1  0  0  0  0
 12 27  1  0  0  0  0
 13 14  1  0  0  0  0
 13 28  1  0  0  0  0
 13 29  1  0  0  0  0
 14 15  1  0  0  0  0
 14 30  1  0  0  0  0
 14 31  1  0  0  0  0
 15 16  1  0  0  0  0
 15 32  1  0  0  0  0
 15 33  1  0  0  0  0
M  END
> <s_m_source_file>
AV-unprocessed.smi

> <i_m_source_file_index>
1768

> <i_lp_mmshare_version>
43012

> <i_f3d_flags>
0

> <s_epik_input>
W0NIM11jMW5uYyhzMSlbTkhdQyg9TylbTkhdW0NASF0oW0NIM10pW0NAQEhdMltDSDJdW0NIMl1bQ0gyXU8y

> <s_epik_cmdline>
J2VwaWtfcHl0aG9uJywgJy1waCcsICc3LjAnLCAnLXRuJywgJzgnLCAnLW1hJywgJzIwMCcsICctbWV0YWxfYmluZGluZycsICctaW1hZScsICc8aW5maWxlLm1hZT4nLCAnLW9tYWUnLCAnPG91dGZpbGUubWFlPic=

> <r_lp_tautomer_probability>
1

> <r_epik_Ionization_Penalty>
0.000523083

> <r_epik_Ionization_Penalty_Charging>
0

> <r_epik_Ionization_Penalty_Neutral>
0.000523083

> <r_epik_State_Penalty>
-0

> <r_epik_Charging_Adjusted_Penalty>
0

> <i_epik_Tot_Q>
0

> <i_epik_Tot_abs_Q>
0

> <r_epik_Metal_State_Penalty>
0.223408

> <b_epik_Metal_Only>
0

> <s_lp_Force_Field>
OPLS_2005

> <r_lp_Energy>
16.8922

> <b_lp_Chiralities_Consistent>
1

> <s_lp_Variant>
AV-unprocessed.smi:1768-1

> <Gold.Version>
5.8.1

> <Gold.Id.Protein>
6NUR|6NUR_protein|mol2

> <Gold.PLP.Fitness>
31.9739

> <Gold.PLP.PLP>
-26.1771

> <Gold.PLP.part.hbond>
-2.3845

> <Gold.PLP.part.metal>
0.0000

> <Gold.PLP.part.buried>
-2.2137

> <Gold.PLP.part.nonpolar>
-22.9140

> <Gold.PLP.part.repulsive>
0.5585

> <Gold.PLP.ligand.clash>
0.0000

> <Gold.PLP.ligand.torsion>
0.0454

> <Gold.PLP.Chemscore.Hbond>
1.9600

> <Gold.PLP.Chemscore.CHOScore>
0.0000

> <Gold.PLP.Chemscore.Metal>
0.0000

> <Gold.Chemscore.Hbonds>
donor molecule, donor type, donor heavy atom, donor atom, acceptor molecule, acceptor atom, score
      L1  H     6    21       P1  7948  1.00
      L1  H     9    22       P1  7948  0.94

> <Gold.PLP.Chemscore.Internal.Correction>
0.0077

> <Gold.Rescore>
     Score         DG    S(hbond)    S(metal)    S(lipo)     H(rot)  DE(clash)    DE(int)     intcor
     14.29     -15.66       1.94        0.00      59.86       1.29       0.05       1.32       ----

> <Gold.Chemscore.Fitness>
14.2863

> <Gold.Chemscore.DG>
-15.6568

> <Gold.Chemscore.ZeroCoef>
-5.4800

> <Gold.Chemscore.Hbond>
1.9403

> <Gold.Chemscore.Metal>
0.0000

> <Gold.Chemscore.Lipo>
59.8575

> <Gold.Chemscore.Internal_Hbond>
0.0000

> <Gold.Chemscore.DEClash>
0.0471

> <Gold.Chemscore.DEInternal>
1.3234

> <Gold.Chemscore.Rot>
1.2919

> <Gold.Chemscore.Internal.Correction>
   9.000000E+99

> <Gold.Chemscore.Hbonds>
donor molecule, donor type, donor heavy atom, donor atom, acceptor molecule, acceptor atom, score
      L1  H     6    21       P1  7948  0.92
      L1  H     9    22       P1  7948  0.91

> <Gold.Chemscore.Hbond.Weighted>
-6.4807

> <Gold.Chemscore.Metal.Weighted>
-0.0000

> <Gold.Chemscore.Lipo.Weighted>
-7.0033

> <Gold.Chemscore.Internal_Hbond.Weighted>
0.0000

> <Gold.Chemscore.DEClash.Weighted>
0.0471

> <Gold.Chemscore.DEInternal.Weighted>
1.3234

> <Gold.Chemscore.Rot.Weighted>
3.3072

> <Gold.Chemscore.Internal.Correction.Weighted>
   9.000000E+99

> <Gold.Protein.RotatedTorsions>
[ 6907 6896 6895 6894 ] final -101.21 input  -60.11 | X-H torsion
[ 7974 7965 7964 7962 ] final  153.45 input  175.53 | X-H torsion
[ 8008 7997 7996 7995 ] final   80.16 input   59.86 | X-H torsion
[ 10167 10162 10161 10158 ] final -110.48 input  -65.29 | X-H torsion
[ 10718 10713 10712 10709 ] final  121.07 input   66.30 | X-H torsion
[ 10763 10752 10751 10750 ] final  -50.94 input  -60.55 | X-H torsion
[ 11005 11000 10999 10996 ] final   82.43 input  -57.11 | X-H torsion

> <Gold.Protein.ActiveResidues>
 VAL166  LYS551  ARG553  GLY616  TRP617  ASP618  TYR619  PRO620  LYS621  CYS622 
 ASP623  PHE694  ASN695  SER759  ASP760  ASP761  ALA762  ILE779  LEU786  VAL792 
 PHE793  MET794  SER795  GLU796  ALA797  LYS798  CYS799  TRP800  GLU811  SER814 

> <Gold.Protein.RotatedAtoms>
  150.7146  134.0768  159.3883 H   0  0  0  0  0  0  0  0  0  0  0  0  # atno 6907 bound_to 6896
  151.8752  135.0472  160.0492 H   0  0  0  0  0  0  0  0  0  0  0  0  # atno 6908 bound_to 6896
  152.2612  133.5263  159.5419 H   0  0  0  0  0  0  0  0  0  0  0  0  # atno 6909 bound_to 6896
  144.8154  139.6802  143.6124 H   0  0  0  0  0  0  0  0  0  0  0  0  # atno 7974 bound_to 7965
  155.8797  140.3444  155.5879 H   0  0  0  0  0  0  0  0  0  0  0  0  # atno 8008 bound_to 7997
  155.7734  140.0848  157.2115 H   0  0  0  0  0  0  0  0  0  0  0  0  # atno 8009 bound_to 7997
  154.4023  140.1514  156.2955 H   0  0  0  0  0  0  0  0  0  0  0  0  # atno 8010 bound_to 7997
  140.1439  143.4255  152.1542 H   0  0  0  0  0  0  0  0  0  0  0  0  # atno 10167 bound_to 10162
  157.5845  131.1071  150.8122 H   0  0  0  0  0  0  0  0  0  0  0  0  # atno 10718 bound_to 10713
  154.1184  135.6538  153.4898 H   0  0  0  0  0  0  0  0  0  0  0  0  # atno 10763 bound_to 10752
  153.0233  135.5264  154.7121 H   0  0  0  0  0  0  0  0  0  0  0  0  # atno 10764 bound_to 10752
  154.6322  135.2977  155.0173 H   0  0  0  0  0  0  0  0  0  0  0  0  # atno 10765 bound_to 10752
  139.9064  134.8070  156.2173 H   0  0  0  0  0  0  0  0  0  0  0  0  # atno 11005 bound_to 11000
  146.2456  139.6091  142.9462 LP  0  0  0  0  0  0  0  0  0  0  0  0  # atno 17320 bound_to 7965
  145.5227  141.0431  143.2426 LP  0  0  0  0  0  0  0  0  0  0  0  0  # atno 17321 bound_to 7965
  139.5458  144.7297  151.4588 LP  0  0  0  0  0  0  0  0  0  0  0  0  # atno 17342 bound_to 10162
  140.6743  143.8224  150.7039 LP  0  0  0  0  0  0  0  0  0  0  0  0  # atno 17343 bound_to 10162
  156.8560  130.5097  149.5307 LP  0  0  0  0  0  0  0  0  0  0  0  0  # atno 17370 bound_to 10713
  156.0893  130.5883  150.9704 LP  0  0  0  0  0  0  0  0  0  0  0  0  # atno 17371 bound_to 10713
  141.0427  133.6929  156.1628 LP  0  0  0  0  0  0  0  0  0  0  0  0  # atno 17394 bound_to 11000
  140.6930  134.4645  157.5588 LP  0  0  0  0  0  0  0  0  0  0  0  0  # atno 17395 bound_to 11000

$$$$
