AV-unprocessed.smi:166|AV-procd|sdf|1388|dock7
  -GOLD-   2262019123D 1   1.00000     0.00000
 Structure written by MMmdl.
 54 58  0  0  0  0  0  0  0  0  1 V2000
  144.3130  133.1837  148.7412 O   0  0  0  0  0  0  0  0  0  0  0  0
  144.5260  133.5383  150.0972 C   0  0  1  0  0  0  0  0  0  0  0  0
  144.2183  135.0440  150.2787 C   0  0  0  0  0  0  0  0  0  0  0  0
  144.5160  135.5449  151.6126 N   0  0  0  0  0  0  0  0  0  0  0  0
  145.6770  136.1600  152.0245 C   0  0  0  0  0  0  0  0  0  0  0  0
  145.7027  136.5195  153.2786 N   0  0  0  0  0  0  0  0  0  0  0  0
  144.4588  136.1383  153.7674 C   0  0  0  0  0  0  0  0  0  0  0  0
  143.8253  136.2223  155.0396 C   0  0  0  0  0  0  0  0  0  0  0  0
  144.4240  136.7812  156.1220 N   0  0  0  0  0  0  0  0  0  0  0  0
  143.9508  138.1241  156.4571 C   0  0  0  0  0  0  0  0  0  0  0  0
  144.9324  138.8290  157.4069 C   0  0  0  0  0  0  0  0  0  0  0  0
  145.2063  137.9684  158.6490 C   0  0  0  0  0  0  0  0  0  0  0  0
  145.7050  136.5745  158.2349 C   0  0  1  0  0  0  0  0  0  0  0  0
  145.8532  135.8038  159.4195 O   0  0  0  0  0  0  0  0  0  0  0  0
  146.7447  136.3602  160.3768 C   0  0  0  0  0  0  0  0  0  0  0  0
  146.5112  135.7663  161.7539 C   0  0  0  0  0  0  0  0  0  0  0  0
  147.5607  135.8841  162.8401 C   0  0  0  0  0  0  0  0  0  0  0  0
  147.2759  134.5436  162.2186 C   0  0  0  0  0  0  0  0  0  0  0  0
  144.7005  135.9131  157.2684 C   0  0  0  0  0  0  0  0  0  0  0  0
  142.5686  135.7124  155.1463 N   0  0  0  0  0  0  0  0  0  0  0  0
  141.9680  135.1673  154.0845 C   0  0  0  0  0  0  0  0  0  0  0  0
  142.4354  135.0260  152.8431 N   0  0  0  0  0  0  0  0  0  0  0  0
  143.6995  135.5253  152.7305 C   0  0  0  0  0  0  0  0  0  0  0  0
  143.6478  132.6449  150.9659 C   0  0  0  0  0  0  0  0  0  0  0  0
  144.5415  131.4394  151.2238 C   0  0  0  0  0  0  0  0  0  0  0  0
  145.8149  132.0308  151.4127 O   0  0  0  0  0  0  0  0  0  0  0  0
  145.9556  133.1123  150.4966 C   0  0  0  0  0  0  0  0  0  0  0  0
  144.7264  133.8325  148.1924 H   0  0  0  0  0  0  0  0  0  0  0  0
  144.7829  135.6363  149.5574 H   0  0  0  0  0  0  0  0  0  0  0  0
  143.1649  135.2363  150.0712 H   0  0  0  0  0  0  0  0  0  0  0  0
  146.5138  136.3294  151.3625 H   0  0  0  0  0  0  0  0  0  0  0  0
  143.8135  138.7341  155.5650 H   0  0  0  0  0  0  0  0  0  0  0  0
  142.9717  138.0404  156.9308 H   0  0  0  0  0  0  0  0  0  0  0  0
  145.8693  139.0250  156.8837 H   0  0  0  0  0  0  0  0  0  0  0  0
  144.5334  139.7991  157.7039 H   0  0  0  0  0  0  0  0  0  0  0  0
  145.9417  138.4564  159.2892 H   0  0  0  0  0  0  0  0  0  0  0  0
  144.2925  137.8747  159.2374 H   0  0  0  0  0  0  0  0  0  0  0  0
  146.6726  136.6888  157.7420 H   0  0  0  0  0  0  0  0  0  0  0  0
  147.7812  136.1761  160.0956 H   0  0  0  0  0  0  0  0  0  0  0  0
  146.6046  137.4403  160.4361 H   0  0  0  0  0  0  0  0  0  0  0  0
  145.4772  135.8342  162.0863 H   0  0  0  0  0  0  0  0  0  0  0  0
  148.5058  136.3626  162.5901 H   0  0  0  0  0  0  0  0  0  0  0  0
  147.2120  136.0499  163.8574 H   0  0  0  0  0  0  0  0  0  0  0  0
  146.7376  133.8154  162.8216 H   0  0  0  0  0  0  0  0  0  0  0  0
  148.0311  134.1276  161.5547 H   0  0  0  0  0  0  0  0  0  0  0  0
  143.7665  135.7017  157.7910 H   0  0  0  0  0  0  0  0  0  0  0  0
  145.0959  134.9607  156.9146 H   0  0  0  0  0  0  0  0  0  0  0  0
  140.9704  134.7898  154.2541 H   0  0  0  0  0  0  0  0  0  0  0  0
  143.4327  133.1337  151.9172 H   0  0  0  0  0  0  0  0  0  0  0  0
  142.6944  132.3814  150.5063 H   0  0  0  0  0  0  0  0  0  0  0  0
  144.2323  130.8608  152.0944 H   0  0  0  0  0  0  0  0  0  0  0  0
  144.5677  130.7764  150.3576 H   0  0  0  0  0  0  0  0  0  0  0  0
  146.5470  132.7957  149.6358 H   0  0  0  0  0  0  0  0  0  0  0  0
  146.5067  133.9089  150.9948 H   0  0  0  0  0  0  0  0  0  0  0  0
  1  2  1  0  0  0  0
  1 28  1  0  0  0  0
  2 27  1  0  0  0  0
  2  3  1  0  0  0  0
  2 24  1  0  0  0  0
  3  4  1  0  0  0  0
  3 29  1  0  0  0  0
  3 30  1  0  0  0  0
  4 23  1  0  0  0  0
  4  5  1  0  0  0  0
  5  6  2  0  0  0  0
  5 31  1  0  0  0  0
  6  7  1  0  0  0  0
  7 23  2  0  0  0  0
  7  8  1  0  0  0  0
  8  9  1  0  0  0  0
  8 20  2  0  0  0  0
  9 19  1  0  0  0  0
  9 10  1  0  0  0  0
 10 11  1  0  0  0  0
 10 32  1  0  0  0  0
 10 33  1  0  0  0  0
 11 12  1  0  0  0  0
 11 34  1  0  0  0  0
 11 35  1  0  0  0  0
 12 13  1  0  0  0  0
 12 36  1  0  0  0  0
 12 37  1  0  0  0  0
 13 14  1  0  0  0  0
 13 19  1  0  0  0  0
 13 38  1  0  0  0  0
 14 15  1  0  0  0  0
 15 16  1  0  0  0  0
 15 39  1  0  0  0  0
 15 40  1  0  0  0  0
 16 18  1  0  0  0  0
 16 17  1  0  0  0  0
 16 41  1  0  0  0  0
 17 18  1  0  0  0  0
 17 42  1  0  0  0  0
 17 43  1  0  0  0  0
 18 44  1  0  0  0  0
 18 45  1  0  0  0  0
 19 46  1  0  0  0  0
 19 47  1  0  0  0  0
 20 21  1  0  0  0  0
 21 22  2  0  0  0  0
 21 48  1  0  0  0  0
 22 23  1  0  0  0  0
 24 25  1  0  0  0  0
 24 49  1  0  0  0  0
 24 50  1  0  0  0  0
 25 26  1  0  0  0  0
 25 51  1  0  0  0  0
 25 52  1  0  0  0  0
 26 27  1  0  0  0  0
 27 53  1  0  0  0  0
 27 54  1  0  0  0  0
M  END
> <s_m_source_file>
AV-unprocessed.smi

> <i_m_source_file_index>
166

> <i_lp_mmshare_version>
43012

> <i_f3d_flags>
0

> <s_epik_input>
W0NIMl0xT1tDSDJdW0NIMl1bQ0BAXTEoW09IXSlbQ0gyXW4oW2NIXW4yKWMoYzIzKW5bY0hdbmMzTjRbQ0gyXVtDSDJdW0NIMl1bQ0BIXShbQ0gyXTQpT1tDSDJdW0NIXTVbQ0gyXVtDSDJdNQ==

> <s_epik_cmdline>
J2VwaWtfcHl0aG9uJywgJy1waCcsICc3LjAnLCAnLXRuJywgJzgnLCAnLW1hJywgJzIwMCcsICctbWV0YWxfYmluZGluZycsICctaW1hZScsICc8aW5maWxlLm1hZT4nLCAnLW9tYWUnLCAnPG91dGZpbGUubWFlPic=

> <r_lp_tautomer_probability>
1

> <r_epik_Ionization_Penalty>
0.00342552

> <r_epik_Ionization_Penalty_Charging>
0

> <r_epik_Ionization_Penalty_Neutral>
0.00342552

> <r_epik_State_Penalty>
0.0022204

> <r_epik_Charging_Adjusted_Penalty>
0.0022204

> <i_epik_Tot_Q>
0

> <i_epik_Tot_abs_Q>
0

> <r_epik_Metal_State_Penalty>
-0

> <b_epik_Metal_Only>
0

> <s_lp_Force_Field>
OPLS_2005

> <r_lp_Energy>
44.5811

> <b_lp_Chiralities_Consistent>
1

> <s_lp_Variant>
AV-unprocessed.smi:166-1

> <Gold.Version>
5.8.1

> <Gold.Id.Protein>
6NUR|6NUR_protein|mol2

> <Gold.PLP.Fitness>
44.0338

> <Gold.PLP.PLP>
-36.6769

> <Gold.PLP.part.hbond>
-1.7183

> <Gold.PLP.part.metal>
0.0000

> <Gold.PLP.part.buried>
-6.0552

> <Gold.PLP.part.nonpolar>
-30.2692

> <Gold.PLP.part.repulsive>
0.4965

> <Gold.PLP.ligand.clash>
0.0000

> <Gold.PLP.ligand.torsion>
0.9786

> <Gold.PLP.Chemscore.Hbond>
1.0000

> <Gold.PLP.Chemscore.CHOScore>
1.7667

> <Gold.PLP.Chemscore.Metal>
0.0000

> <Gold.Chemscore.Hbonds>
donor molecule, donor type, donor heavy atom, donor atom, acceptor molecule, acceptor atom, score
      L1  H     1    28       P1  7921  1.00
      L1  C     5    31       P1  7948  1.00
      L1  C    21    48       P1 11000  0.70

> <Gold.PLP.Chemscore.Internal.Correction>
1.0138

> <Gold.Rescore>
     Score         DG    S(hbond)    S(metal)    S(lipo)     H(rot)  DE(clash)    DE(int)     intcor
      9.88     -10.82       0.98        0.00      76.42       2.68       0.00       0.94       ----

> <Gold.Chemscore.Fitness>
9.8797

> <Gold.Chemscore.DG>
-10.8210

> <Gold.Chemscore.ZeroCoef>
-5.4800

> <Gold.Chemscore.Hbond>
0.9777

> <Gold.Chemscore.Metal>
0.0000

> <Gold.Chemscore.Lipo>
76.4160

> <Gold.Chemscore.Internal_Hbond>
0.0000

> <Gold.Chemscore.DEClash>
0.0029

> <Gold.Chemscore.DEInternal>
0.9384

> <Gold.Chemscore.Rot>
2.6817

> <Gold.Chemscore.Internal.Correction>
   9.000000E+99

> <Gold.Chemscore.Hbonds>
donor molecule, donor type, donor heavy atom, donor atom, acceptor molecule, acceptor atom, score
      L1  H     1    28       P1  7921  0.96

> <Gold.Chemscore.Hbond.Weighted>
-3.2654

> <Gold.Chemscore.Metal.Weighted>
-0.0000

> <Gold.Chemscore.Lipo.Weighted>
-8.9407

> <Gold.Chemscore.Internal_Hbond.Weighted>
0.0000

> <Gold.Chemscore.DEClash.Weighted>
0.0029

> <Gold.Chemscore.DEInternal.Weighted>
0.9384

> <Gold.Chemscore.Rot.Weighted>
6.8651

> <Gold.Chemscore.Internal.Correction.Weighted>
   9.000000E+99

> <Gold.Protein.RotatedTorsions>
[ 6907 6896 6895 6894 ] final   50.98 input  -60.11 | X-H torsion
[ 7974 7965 7964 7962 ] final   44.41 input  175.53 | X-H torsion
[ 8008 7997 7996 7995 ] final  -61.88 input   59.86 | X-H torsion
[ 10167 10162 10161 10158 ] final   30.87 input  -65.29 | X-H torsion
[ 10718 10713 10712 10709 ] final -102.26 input   66.30 | X-H torsion
[ 10763 10752 10751 10750 ] final   43.33 input  -60.55 | X-H torsion
[ 11005 11000 10999 10996 ] final  161.42 input  -57.11 | X-H torsion

> <Gold.Protein.ActiveResidues>
 VAL166  LYS551  ARG553  GLY616  TRP617  ASP618  TYR619  PRO620  LYS621  CYS622 
 ASP623  PHE694  ASN695  SER759  ASP760  ASP761  ALA762  ILE779  LEU786  VAL792 
 PHE793  MET794  SER795  GLU796  ALA797  LYS798  CYS799  TRP800  GLU811  SER814 

> <Gold.Protein.RotatedAtoms>
  152.3077  134.7535  160.0343 H   0  0  0  0  0  0  0  0  0  0  0  0  # atno 6907 bound_to 6896
  151.8026  133.3366  159.3539 H   0  0  0  0  0  0  0  0  0  0  0  0  # atno 6908 bound_to 6896
  150.7305  134.5669  159.5915 H   0  0  0  0  0  0  0  0  0  0  0  0  # atno 6909 bound_to 6896
  146.0571  139.5077  142.9682 H   0  0  0  0  0  0  0  0  0  0  0  0  # atno 7974 bound_to 7965
  154.4470  140.1008  156.6499 H   0  0  0  0  0  0  0  0  0  0  0  0  # atno 8008 bound_to 7997
  155.5408  140.3483  155.4428 H   0  0  0  0  0  0  0  0  0  0  0  0  # atno 8009 bound_to 7997
  156.0598  140.1323  156.9943 H   0  0  0  0  0  0  0  0  0  0  0  0  # atno 8010 bound_to 7997
  140.4640  144.0864  150.6220 H   0  0  0  0  0  0  0  0  0  0  0  0  # atno 10167 bound_to 10162
  156.0222  130.5411  150.7082 H   0  0  0  0  0  0  0  0  0  0  0  0  # atno 10718 bound_to 10713
  152.9863  135.6105  154.3094 H   0  0  0  0  0  0  0  0  0  0  0  0  # atno 10763 bound_to 10752
  154.2810  135.2777  155.2699 H   0  0  0  0  0  0  0  0  0  0  0  0  # atno 10764 bound_to 10752
  154.5038  135.5859  153.6608 H   0  0  0  0  0  0  0  0  0  0  0  0  # atno 10765 bound_to 10752
  140.2156  134.8235  157.3167 H   0  0  0  0  0  0  0  0  0  0  0  0  # atno 11005 bound_to 11000
  145.6625  141.0237  143.1701 LP  0  0  0  0  0  0  0  0  0  0  0  0  # atno 17320 bound_to 7965
  144.7154  139.8217  143.7400 LP  0  0  0  0  0  0  0  0  0  0  0  0  # atno 17321 bound_to 7965
  140.4059  143.2680  151.9891 LP  0  0  0  0  0  0  0  0  0  0  0  0  # atno 17342 bound_to 10162
  139.4809  144.5957  151.7694 LP  0  0  0  0  0  0  0  0  0  0  0  0  # atno 17343 bound_to 10162
  157.4726  131.0894  151.0625 LP  0  0  0  0  0  0  0  0  0  0  0  0  # atno 17370 bound_to 10713
  157.1081  130.6010  149.5475 LP  0  0  0  0  0  0  0  0  0  0  0  0  # atno 17371 bound_to 10713
  140.1904  134.4378  155.7719 LP  0  0  0  0  0  0  0  0  0  0  0  0  # atno 17394 bound_to 11000
  141.2225  133.7024  156.8018 LP  0  0  0  0  0  0  0  0  0  0  0  0  # atno 17395 bound_to 11000

$$$$
