#       Name:                AV-unprocessed.smi:315
#       Creating user name   scv26
#       Creation time:       Thu Mar 26 22:22:25 2020


#       File generated by GOLD software.
#

@<TRIPOS>MOLECULE
AV-unprocessed.smi:315
    52    54     1
SMALL
NO_CHARGES


@<TRIPOS>ATOM
      1 ****        -1.9445   3.1146  -0.3656 C.3            1 S1                 0.0000
      2 ****        -0.5047   3.5732  -0.6088 C.3            1 S1                 0.0000
      3 ****         0.3213   2.4221  -0.7484 O.3            1 S1                 0.0000
      4 ****         1.6741   2.5983  -0.9712 C.ar           1 S1                 0.0000
      5 ****         2.1630   3.8618  -1.0328 N.ar           1 S1                 0.0000
      6 ****         3.4847   4.0282  -1.2475 C.ar           1 S1                 0.0000
      7 ****         4.3800   2.9556  -1.4170 C.ar           1 S1                 0.0000
      8 ****         3.8746   1.6438  -1.3543 C.ar           1 S1                 0.0000
      9 ****         2.4928   1.4551  -1.1155 C.ar           1 S1                 0.0000
     10 ****         1.8738   0.1798  -1.0528 N.am           1 S1                 0.0000
     11 ****         2.3989  -0.9845  -0.6283 C.2            1 S1                 0.0000
     12 ****         3.5805  -1.1555  -0.3380 O.2            1 S1                 0.0000
     13 ****         1.4992  -1.9783  -0.5095 N.am           1 S1                 0.0000
     14 ****         1.7235  -3.3620  -0.0772 C.3            1 S1                 0.0000
     15 ****         0.4556  -4.0164   0.5035 C.3            1 S1                 0.0000
     16 ****         0.4879  -5.4550  -0.0210 C.3            1 S1                 0.0000
     17 ****         1.1061  -5.3060  -1.3431 N.4            1 S1                 1.0000
     18 ****         1.5253  -6.5222  -2.0683 C.3            1 S1                 0.0000
     19 ****         1.9568  -6.1141  -3.4930 C.3            1 S1                 0.0000
     20 ****         3.0069  -4.9806  -3.4837 C.3            1 S1                 0.0000
     21 ****         2.5660  -3.7930  -2.6008 C.3            1 S1                 0.0000
     22 ****         2.1917  -4.3195  -1.2027 C.3            1 S1                 0.0000
     23 ****        -2.6143   3.9695  -0.2712 H              1 S1                 0.0000
     24 ****        -2.0187   2.5305   0.5513 H              1 S1                 0.0000
     25 ****        -2.3038   2.4966  -1.1889 H              1 S1                 0.0000
     26 ****        -0.4617   4.1832  -1.5125 H              1 S1                 0.0000
     27 ****        -0.1694   4.1851   0.2301 H              1 S1                 0.0000
     28 ****         3.8384   5.0477  -1.2907 H              1 S1                 0.0000
     29 ****         5.4298   3.1350  -1.5955 H              1 S1                 0.0000
     30 ****         4.5470   0.8129  -1.5029 H              1 S1                 0.0000
     31 ****         0.8757   0.1823  -1.2035 H              1 S1                 0.0000
     32 ****         0.5404  -1.7339  -0.7125 H              1 S1                 0.0000
     33 ****         2.4758  -3.3702   0.7139 H              1 S1                 0.0000
     34 ****         0.4191  -3.9706   1.5926 H              1 S1                 0.0000
     35 ****        -0.4371  -3.5168   0.1238 H              1 S1                 0.0000
     36 ****         1.1167  -6.0822   0.6128 H              1 S1                 0.0000
     37 ****        -0.5038  -5.9041  -0.0815 H              1 S1                 0.0000
     38 ****         2.3419  -7.0152  -1.5388 H              1 S1                 0.0000
     39 ****         0.6951  -7.2279  -2.1150 H              1 S1                 0.0000
     40 ****         2.3465  -6.9804  -4.0284 H              1 S1                 0.0000
     41 ****         1.0799  -5.7801  -4.0491 H              1 S1                 0.0000
     42 ****         3.9521  -5.3749  -3.1093 H              1 S1                 0.0000
     43 ****         3.2001  -4.6397  -4.5014 H              1 S1                 0.0000
     44 ****         3.3792  -3.0703  -2.5391 H              1 S1                 0.0000
     45 ****         1.7168  -3.2814  -3.0557 H              1 S1                 0.0000
     46 ****         3.0627  -4.8465  -0.8065 H              1 S1                 0.0000
     47 ****         0.4026  -4.8625  -1.9162 H              1 S1                 0.0000
     48 ****        -0.0374   1.8942  -1.5182 LP             1 S1                 0.0000
     49 ****         0.2285   1.8896   0.0930 LP             1 S1                 0.0000
     50 ****         1.5587   4.6508  -0.9218 LP             1 S1                 0.0000
     51 ****         4.2280  -0.3969  -0.4103 LP             1 S1                 0.0000
     52 ****         3.8947  -2.0533  -0.0294 LP             1 S1                 0.0000
@<TRIPOS>BOND
    1    1    2 1     
    2    1   23 1     
    3    1   24 1     
    4    1   25 1     
    5    2    3 1     
    6    2   26 1     
    7    2   27 1     
    8    3    4 1     
    9    4    9 ar    
   10    4    5 ar    
   11    5    6 ar    
   12    6    7 ar    
   13    6   28 1     
   14    7    8 ar    
   15    7   29 1     
   16    8    9 ar    
   17    8   30 1     
   18    9   10 1     
   19   10   11 am    
   20   10   31 1     
   21   11   12 2     
   22   11   13 am    
   23   13   14 1     
   24   13   32 1     
   25   14   22 1     
   26   14   15 1     
   27   14   33 1     
   28   15   16 1     
   29   15   34 1     
   30   15   35 1     
   31   16   17 1     
   32   16   36 1     
   33   16   37 1     
   34   17   22 1     
   35   17   18 1     
   36   17   47 1     
   37   18   19 1     
   38   18   38 1     
   39   18   39 1     
   40   19   20 1     
   41   19   40 1     
   42   19   41 1     
   43   20   21 1     
   44   20   42 1     
   45   20   43 1     
   46   21   22 1     
   47   21   44 1     
   48   21   45 1     
   49   22   46 1     
   50    3   48 1     
   51    3   49 1     
   52    5   50 1     
   53   12   51 1     
   54   12   52 1     
@<TRIPOS>SUBSTRUCTURE
      1 S1             1
@<TRIPOS>SET
LONE_PAIRS      STATIC     ATOMS    <user>   **** ""
5 48 49 50 51 52
DONOR_HYDROGENS      STATIC     ATOMS    <user>   **** ""
3 31 32 47
ATOM$BLUE        STATIC     ATOMS    COLORGROUP SYSTEM
5 48 49 50 51 52
ATOM$RED        STATIC     ATOMS    COLORGROUP SYSTEM
3 31 32 47
