AV-unprocessed.smi:3321|AV-procd|sdf|12770|dock6
  -GOLD-   2272019113D 1   1.00000     0.00000
 Structure written by MMmdl.
 41 42  0  0  0  0  0  0  0  0  2 V2000
  147.2577  135.3170  154.8727 C   0  0  0  0  0  0  0  0  0  0  0  0
  146.3616  135.2821  153.6236 C   0  0  1  0  0  0  0  0  0  0  0  0
  146.5465  136.5359  152.8552 N   0  3  0  0  0  0  0  0  0  0  0  0
  146.6078  137.7690  153.6689 C   0  0  0  0  0  0  0  0  0  0  0  0
  147.0514  138.9659  152.8159 C   0  0  0  0  0  0  0  0  0  0  0  0
  147.1577  140.1801  153.6015 N   0  0  0  0  0  0  0  0  0  0  0  0
  146.1626  140.8575  154.2745 C   0  0  0  0  0  0  0  0  0  0  0  0
  146.7384  141.9487  154.8591 C   0  0  0  0  0  0  0  0  0  0  0  0
  148.1064  141.8538  154.4789 C   0  0  0  0  0  0  0  0  0  0  0  0
  148.3537  140.7951  153.7242 N   0  0  0  0  0  0  0  0  0  0  0  0
  146.6833  134.0352  152.7716 C   0  0  0  0  0  0  0  0  0  0  0  0
  147.6191  133.3168  153.1289 O   0  0  0  0  0  0  0  0  0  0  0  0
  145.9453  133.7556  151.6677 N   0  0  0  0  0  0  0  0  0  0  0  0
  146.1233  132.6046  150.7714 C   0  0  0  0  0  0  0  0  0  0  0  0
  144.9567  131.6251  150.9909 C   0  0  0  0  0  0  0  0  0  0  0  0
  143.6050  132.3271  150.7578 C   0  0  0  0  0  0  0  0  0  0  0  0
  143.5060  133.6511  151.5402 C   0  0  0  0  0  0  0  0  0  0  0  0
  144.7498  134.5288  151.3041 C   0  0  0  0  0  0  0  0  0  0  0  0
  147.1413  134.4196  155.4811 H   0  0  0  0  0  0  0  0  0  0  0  0
  147.0115  136.1703  155.5053 H   0  0  0  0  0  0  0  0  0  0  0  0
  148.3122  135.3978  154.6052 H   0  0  0  0  0  0  0  0  0  0  0  0
  145.3176  135.2681  153.9360 H   0  0  0  0  0  0  0  0  0  0  0  0
  147.4158  136.4646  152.3465 H   0  0  0  0  0  0  0  0  0  0  0  0
  145.6302  137.9732  154.1071 H   0  0  0  0  0  0  0  0  0  0  0  0
  147.3043  137.6158  154.4944 H   0  0  0  0  0  0  0  0  0  0  0  0
  148.0191  138.7696  152.3520 H   0  0  0  0  0  0  0  0  0  0  0  0
  146.3402  139.1381  152.0070 H   0  0  0  0  0  0  0  0  0  0  0  0
  145.1390  140.5121  154.2815 H   0  0  0  0  0  0  0  0  0  0  0  0
  146.2558  142.7017  155.4643 H   0  0  0  0  0  0  0  0  0  0  0  0
  148.9208  142.5190  154.7251 H   0  0  0  0  0  0  0  0  0  0  0  0
  146.1199  132.9545  149.7379 H   0  0  0  0  0  0  0  0  0  0  0  0
  147.0755  132.0917  150.8885 H   0  0  0  0  0  0  0  0  0  0  0  0
  145.0523  130.7699  150.3213 H   0  0  0  0  0  0  0  0  0  0  0  0
  144.9962  131.2304  152.0072 H   0  0  0  0  0  0  0  0  0  0  0  0
  143.4924  132.5354  149.6932 H   0  0  0  0  0  0  0  0  0  0  0  0
  142.7827  131.6645  151.0298 H   0  0  0  0  0  0  0  0  0  0  0  0
  142.6043  134.1903  151.2485 H   0  0  0  0  0  0  0  0  0  0  0  0
  143.4085  133.4386  152.6058 H   0  0  0  0  0  0  0  0  0  0  0  0
  144.6559  135.4603  151.8639 H   0  0  0  0  0  0  0  0  0  0  0  0
  144.8102  134.8214  150.2548 H   0  0  0  0  0  0  0  0  0  0  0  0
  145.7891  136.6159  152.1913 H   0  0  0  0  0  0  0  0  0  0  0  0
  1  2  1  0  0  0  0
  1 19  1  0  0  0  0
  1 20  1  0  0  0  0
  1 21  1  0  0  0  0
  2  3  1  0  0  0  0
  2 11  1  0  0  0  0
  2 22  1  0  0  0  0
  3  4  1  0  0  0  0
  3 23  1  0  0  0  0
  3 41  1  0  0  0  0
  4  5  1  0  0  0  0
  4 24  1  0  0  0  0
  4 25  1  0  0  0  0
  5  6  1  0  0  0  0
  5 26  1  0  0  0  0
  5 27  1  0  0  0  0
  6 10  1  0  0  0  0
  6  7  1  0  0  0  0
  7  8  2  0  0  0  0
  7 28  1  0  0  0  0
  8  9  1  0  0  0  0
  8 29  1  0  0  0  0
  9 10  2  0  0  0  0
  9 30  1  0  0  0  0
 11 12  2  0  0  0  0
 11 13  1  0  0  0  0
 13 18  1  0  0  0  0
 13 14  1  0  0  0  0
 14 15  1  0  0  0  0
 14 31  1  0  0  0  0
 14 32  1  0  0  0  0
 15 16  1  0  0  0  0
 15 33  1  0  0  0  0
 15 34  1  0  0  0  0
 16 17  1  0  0  0  0
 16 35  1  0  0  0  0
 16 36  1  0  0  0  0
 17 18  1  0  0  0  0
 17 37  1  0  0  0  0
 17 38  1  0  0  0  0
 18 39  1  0  0  0  0
 18 40  1  0  0  0  0
M  CHG  1   3   1
M  END
> <s_m_source_file>
AV-unprocessed.smi

> <i_m_source_file_index>
3321

> <i_lp_mmshare_version>
43012

> <i_f3d_flags>
0

> <s_epik_input>
W0NIMl0xW0NIMl1bQ0gyXVtDSDJdW0NIMl1OMUMoPU8pW0NASF0oW0NIM10pW05IXVtDSDJdW0NIMl1uMltjSF1bY0hdW2NIXW4y

> <s_epik_cmdline>
J2VwaWtfcHl0aG9uJywgJy1waCcsICc3LjAnLCAnLXRuJywgJzgnLCAnLW1hJywgJzIwMCcsICctbWV0YWxfYmluZGluZycsICctaW1hZScsICc8aW5maWxlLm1hZT4nLCAnLW9tYWUnLCAnPG91dGZpbGUubWFlPic=

> <r_lp_tautomer_probability>
1

> <r_epik_Ionization_Penalty>
0.202061

> <r_epik_Ionization_Penalty_Charging>
0.202058

> <r_epik_Ionization_Penalty_Neutral>
2.46932e-06

> <r_epik_State_Penalty>
0.191938

> <r_epik_Charging_Adjusted_Penalty>
0.393996

> <i_epik_Tot_Q>
1

> <i_epik_Tot_abs_Q>
1

> <r_epik_Metal_State_Penalty>
0.192188

> <b_epik_Metal_Only>
0

> <s_lp_Force_Field>
OPLS_2005

> <r_lp_Energy>
26.1916

> <b_lp_Chiralities_Consistent>
1

> <s_lp_Variant>
AV-unprocessed.smi:3321-2

> <Gold.Version>
5.8.1

> <Gold.Id.Protein>
6NUR|6NUR_protein|mol2

> <Gold.PLP.Fitness>
40.6730

> <Gold.PLP.PLP>
-29.0513

> <Gold.PLP.part.hbond>
-1.0000

> <Gold.PLP.part.metal>
0.0000

> <Gold.PLP.part.buried>
-2.5960

> <Gold.PLP.part.nonpolar>
-26.7633

> <Gold.PLP.part.repulsive>
1.1118

> <Gold.PLP.ligand.clash>
0.0000

> <Gold.PLP.ligand.torsion>
0.2032

> <Gold.PLP.Chemscore.Hbond>
2.0000

> <Gold.PLP.Chemscore.CHOScore>
1.9849

> <Gold.PLP.Chemscore.Metal>
0.0000

> <Gold.Chemscore.Hbonds>
donor molecule, donor type, donor heavy atom, donor atom, acceptor molecule, acceptor atom, score
      L1  H     3    23       P1  7948  2.00
      L1  C     7    28       P1 10175  0.94
      L1  C     9    30       P1  8028  0.99

> <Gold.PLP.Chemscore.Internal.Correction>
0.0735

> <Gold.Rescore>
     Score         DG    S(hbond)    S(metal)    S(lipo)     H(rot)  DE(clash)    DE(int)     intcor
     11.78     -12.15       0.99        0.00      67.94       1.79       0.16       0.21       ----

> <Gold.Chemscore.Fitness>
11.7848

> <Gold.Chemscore.DG>
-12.1522

> <Gold.Chemscore.ZeroCoef>
-5.4800

> <Gold.Chemscore.Hbond>
0.9918

> <Gold.Chemscore.Metal>
0.0000

> <Gold.Chemscore.Lipo>
67.9416

> <Gold.Chemscore.Internal_Hbond>
0.0000

> <Gold.Chemscore.DEClash>
0.1559

> <Gold.Chemscore.DEInternal>
0.2115

> <Gold.Chemscore.Rot>
1.7928

> <Gold.Chemscore.Internal.Correction>
   9.000000E+99

> <Gold.Chemscore.Hbonds>
donor molecule, donor type, donor heavy atom, donor atom, acceptor molecule, acceptor atom, score
      L1  H     3    23       P1  7948  0.99

> <Gold.Chemscore.Hbond.Weighted>
-3.3125

> <Gold.Chemscore.Metal.Weighted>
-0.0000

> <Gold.Chemscore.Lipo.Weighted>
-7.9492

> <Gold.Chemscore.Internal_Hbond.Weighted>
0.0000

> <Gold.Chemscore.DEClash.Weighted>
0.1559

> <Gold.Chemscore.DEInternal.Weighted>
0.2115

> <Gold.Chemscore.Rot.Weighted>
4.5895

> <Gold.Chemscore.Internal.Correction.Weighted>
   9.000000E+99

> <Gold.Protein.RotatedTorsions>
[ 6907 6896 6895 6894 ] final  -58.68 input  -60.11 | X-H torsion
[ 7974 7965 7964 7962 ] final  -93.85 input  175.53 | X-H torsion
[ 8008 7997 7996 7995 ] final -176.14 input   59.86 | X-H torsion
[ 10167 10162 10161 10158 ] final -179.67 input  -65.29 | X-H torsion
[ 10718 10713 10712 10709 ] final -119.79 input   66.30 | X-H torsion
[ 10763 10752 10751 10750 ] final  -82.91 input  -60.55 | X-H torsion
[ 11005 11000 10999 10996 ] final   79.78 input  -57.11 | X-H torsion

> <Gold.Protein.ActiveResidues>
 VAL166  LYS551  ARG553  GLY616  TRP617  ASP618  TYR619  PRO620  LYS621  CYS622 
 ASP623  PHE694  ASN695  SER759  ASP760  ASP761  ALA762  ILE779  LEU786  VAL792 
 PHE793  MET794  SER795  GLU796  ALA797  LYS798  CYS799  TRP800  GLU811  SER814 

> <Gold.Protein.RotatedAtoms>
  150.7988  134.7067  159.6580 H   0  0  0  0  0  0  0  0  0  0  0  0  # atno 6907 bound_to 6896
  152.4103  134.6132  160.0041 H   0  0  0  0  0  0  0  0  0  0  0  0  # atno 6908 bound_to 6896
  151.6377  133.3291  159.3159 H   0  0  0  0  0  0  0  0  0  0  0  0  # atno 6909 bound_to 6896
  145.3810  140.9517  143.2393 H   0  0  0  0  0  0  0  0  0  0  0  0  # atno 7974 bound_to 7965
  155.9912  140.1201  157.0636 H   0  0  0  0  0  0  0  0  0  0  0  0  # atno 8008 bound_to 7997
  154.4212  140.1125  156.5636 H   0  0  0  0  0  0  0  0  0  0  0  0  # atno 8009 bound_to 7997
  155.6340  140.3473  155.4694 H   0  0  0  0  0  0  0  0  0  0  0  0  # atno 8010 bound_to 7997
  139.5376  144.2453  152.0827 H   0  0  0  0  0  0  0  0  0  0  0  0  # atno 10167 bound_to 10162
  156.1208  130.6321  150.9460 H   0  0  0  0  0  0  0  0  0  0  0  0  # atno 10718 bound_to 10713
  154.5815  135.5574  153.7190 H   0  0  0  0  0  0  0  0  0  0  0  0  # atno 10763 bound_to 10752
  153.0083  135.6321  154.1976 H   0  0  0  0  0  0  0  0  0  0  0  0  # atno 10764 bound_to 10752
  154.1917  135.2882  155.3000 H   0  0  0  0  0  0  0  0  0  0  0  0  # atno 10765 bound_to 10752
  139.9159  134.7869  156.1823 H   0  0  0  0  0  0  0  0  0  0  0  0  # atno 11005 bound_to 11000
  144.8507  139.5326  143.6857 LP  0  0  0  0  0  0  0  0  0  0  0  0  # atno 17320 bound_to 7965
  146.2842  139.6958  142.9207 LP  0  0  0  0  0  0  0  0  0  0  0  0  # atno 17321 bound_to 7965
  140.1927  144.4736  150.6471 LP  0  0  0  0  0  0  0  0  0  0  0  0  # atno 17342 bound_to 10162
  140.6590  143.2246  151.5900 LP  0  0  0  0  0  0  0  0  0  0  0  0  # atno 17343 bound_to 10162
  157.6391  131.0912  150.8287 LP  0  0  0  0  0  0  0  0  0  0  0  0  # atno 17370 bound_to 10713
  156.8384  130.5039  149.5324 LP  0  0  0  0  0  0  0  0  0  0  0  0  # atno 17371 bound_to 10713
  141.0635  133.6830  156.1998 LP  0  0  0  0  0  0  0  0  0  0  0  0  # atno 17394 bound_to 11000
  140.6623  134.4954  157.5584 LP  0  0  0  0  0  0  0  0  0  0  0  0  # atno 17395 bound_to 11000

$$$$
