#       Name:                AV-unprocessed.smi:136
#       Creating user name   scv26
#       Creation time:       Thu Mar 26 18:32:15 2020


#       File generated by GOLD software.
#

@<TRIPOS>MOLECULE
AV-unprocessed.smi:136
    65    69     1
SMALL
NO_CHARGES


@<TRIPOS>ATOM
      1 ****        -1.1308   0.9200   1.1177 O.2            1 S1                 0.0000
      2 ****        -0.4164  -0.0762   0.9906 C.2            1 S1                 0.0000
      3 ****         1.1198   0.0722   1.0089 C.3            1 S1                 0.0000
      4 ****         1.5794   1.4782   0.9905 N.am           1 S1                 0.0000
      5 ****         1.8123   2.1363   2.2237 C.2            1 S1                 0.0000
      6 ****         1.6467   1.5573   3.2983 O.2            1 S1                 0.0000
      7 ****         2.2441   3.5260   2.1240 C.2            1 S1                 0.0000
      8 ****         2.4835   4.2306   3.2430 F              1 S1                 0.0000
      9 ****         2.4043   4.1192   0.9232 C.2            1 S1                 0.0000
     10 ****         2.1748   3.4635  -0.2725 N.am           1 S1                 0.0000
     11 ****         2.3473   4.1661  -1.6005 C.3            1 S1                 0.0000
     12 ****         1.0213   4.7952  -2.0426 C.3            1 S1                 0.0000
     13 ****         1.1607   6.2105  -1.5251 C.3            1 S1                 0.0000
     14 ****         2.6538   6.4570  -1.7083 C.3            1 S1                 0.0000
     15 ****         3.2771   5.2010  -1.4527 O.3            1 S1                 0.0000
     16 ****         1.7377   2.1213  -0.2604 C.2            1 S1                 0.0000
     17 ****         1.4896   1.5297  -1.3136 O.2            1 S1                 0.0000
     18 ****        -0.9368  -1.3153   0.8437 N.am           1 S1                 0.0000
     19 ****        -0.1785  -2.4403   0.8518 N.2            1 S1                 0.0000
     20 ****        -0.9350  -3.4744   0.8652 C.2            1 S1                 0.0000
     21 ****        -0.4440  -4.8702   0.8855 C.ar           1 S1                 0.0000
     22 ****         0.9479  -5.1166   0.8733 C.ar           1 S1                 0.0000
     23 ****         1.4168  -6.4446   0.8929 C.ar           1 S1                 0.0000
     24 ****         0.5035  -7.5176   0.9248 C.ar           1 S1                 0.0000
     25 ****         1.0844  -9.1420   0.9474 Cl             1 S1                 0.0000
     26 ****        -0.8832  -7.2663   0.9382 C.ar           1 S1                 0.0000
     27 ****        -1.3642  -5.9424   0.9183 C.ar           1 S1                 0.0000
     28 ****        -2.3917  -3.1543   0.8612 C.3            1 S1                 0.0000
     29 ****        -2.3725  -1.6245   0.8046 C.3            1 S1                 0.0000
     30 ****        -3.0854  -1.0793  -0.4005 C.2            1 S1                 0.0000
     31 ****        -2.6830  -0.4787  -1.5638 C.2            1 S1                 0.0000
     32 ****        -3.8637  -0.2060  -2.3077 C.2            1 S1                 0.0000
     33 ****        -4.9009  -0.6640  -1.5470 C.2            1 S1                 0.0000
     34 ****        -4.4433  -1.2007  -0.3836 O.3            1 S1                 0.0000
     35 ****         1.5082  -0.4566   1.8806 H              1 S1                 0.0000
     36 ****         1.5398  -0.4697   0.1599 H              1 S1                 0.0000
     37 ****         2.7195   5.1520   0.9106 H              1 S1                 0.0000
     38 ****         2.7381   3.4200  -2.2943 H              1 S1                 0.0000
     39 ****         0.9798   4.7891  -3.1324 H              1 S1                 0.0000
     40 ****         0.1544   4.2601  -1.6526 H              1 S1                 0.0000
     41 ****         0.5407   6.9275  -2.0636 H              1 S1                 0.0000
     42 ****         0.8952   6.2545  -0.4681 H              1 S1                 0.0000
     43 ****         2.8659   6.7491  -2.7377 H              1 S1                 0.0000
     44 ****         3.0365   7.2356  -1.0484 H              1 S1                 0.0000
     45 ****         1.6640  -4.3078   0.8491 H              1 S1                 0.0000
     46 ****         2.4793  -6.6387   0.8834 H              1 S1                 0.0000
     47 ****        -1.5811  -8.0904   0.9639 H              1 S1                 0.0000
     48 ****        -2.4312  -5.7765   0.9291 H              1 S1                 0.0000
     49 ****        -2.8877  -3.5942  -0.0053 H              1 S1                 0.0000
     50 ****        -2.8796  -3.5166   1.7668 H              1 S1                 0.0000
     51 ****        -2.8375  -1.2248   1.7076 H              1 S1                 0.0000
     52 ****        -1.6629  -0.2605  -1.8441 H              1 S1                 0.0000
     53 ****        -3.9440   0.2642  -3.2766 H              1 S1                 0.0000
     54 ****        -5.9730  -0.6871  -1.6759 H              1 S1                 0.0000
     55 ****        -0.7149   1.8222   1.2324 LP             1 S1                 0.0000
     56 ****        -2.1263   0.8261   1.1061 LP             1 S1                 0.0000
     57 ****         1.3423   0.6048   3.3114 LP             1 S1                 0.0000
     58 ****         1.8166   2.0397   4.1576 LP             1 S1                 0.0000
     59 ****         4.0280   5.0663  -2.0993 LP             1 S1                 0.0000
     60 ****         3.6356   5.1932  -0.5192 LP             1 S1                 0.0000
     61 ****         1.1716   0.5819  -1.2917 LP             1 S1                 0.0000
     62 ****         1.6064   1.9978  -2.1895 LP             1 S1                 0.0000
     63 ****         0.8213  -2.4596   0.8479 LP             1 S1                 0.0000
     64 ****        -4.8235  -0.7049   0.3972 LP             1 S1                 0.0000
     65 ****        -4.7019  -2.1648  -0.3242 LP             1 S1                 0.0000
@<TRIPOS>BOND
    1    1    2 2     
    2    2    3 1     
    3    2   18 am    
    4    3    4 1     
    5    3   35 1     
    6    3   36 1     
    7    4   16 am    
    8    4    5 am    
    9    5    6 2     
   10    5    7 1     
   11    7    8 1     
   12    7    9 2     
   13    9   10 1     
   14    9   37 1     
   15   10   11 1     
   16   10   16 am    
   17   11   15 1     
   18   11   12 1     
   19   11   38 1     
   20   12   13 1     
   21   12   39 1     
   22   12   40 1     
   23   13   14 1     
   24   13   41 1     
   25   13   42 1     
   26   14   15 1     
   27   14   43 1     
   28   14   44 1     
   29   16   17 2     
   30   18   29 1     
   31   18   19 1     
   32   19   20 2     
   33   20   21 1     
   34   20   28 1     
   35   21   27 ar    
   36   21   22 ar    
   37   22   23 ar    
   38   22   45 1     
   39   23   24 ar    
   40   23   46 1     
   41   24   25 1     
   42   24   26 ar    
   43   26   27 ar    
   44   26   47 1     
   45   27   48 1     
   46   28   29 1     
   47   28   49 1     
   48   28   50 1     
   49   29   30 1     
   50   29   51 1     
   51   30   34 1     
   52   30   31 2     
   53   31   32 1     
   54   31   52 1     
   55   32   33 2     
   56   32   53 1     
   57   33   34 1     
   58   33   54 1     
   59    1   55 1     
   60    1   56 1     
   61    6   57 1     
   62    6   58 1     
   63   15   59 1     
   64   15   60 1     
   65   17   61 1     
   66   17   62 1     
   67   19   63 1     
   68   34   64 1     
   69   34   65 1     
@<TRIPOS>SUBSTRUCTURE
      1 S1             1
@<TRIPOS>SET
LONE_PAIRS      STATIC     ATOMS    <user>   **** ""
11 55 56 57 58 59 60 61 62 63 64 65
ATOM$BLUE        STATIC     ATOMS    COLORGROUP SYSTEM
11 55 56 57 58 59 60 61 62 63 64 65
