AV-unprocessed.smi:483|AV-procd|sdf|2685|dock6
  -GOLD-   2262023113D 1   1.00000     0.00000
 Structure written by MMmdl.
 44 44  0  0  0  0  0  0  0  0  1 V2000
  145.5212  144.2198  160.9495 C   0  0  0  0  0  0  0  0  0  0  0  0
  145.3554  142.7025  161.0835 C   0  0  0  0  0  0  0  0  0  0  0  0
  144.5039  142.1035  159.9524 C   0  0  0  0  0  0  0  0  0  0  0  0
  145.0866  142.3695  158.6425 N   0  0  0  0  0  0  0  0  0  0  0  0
  146.3982  142.3394  158.3613 C   0  0  0  0  0  0  0  0  0  0  0  0
  147.2615  142.0684  159.1980 O   0  0  0  0  0  0  0  0  0  0  0  0
  146.7864  142.6433  156.9049 C   0  0  2  0  0  0  0  0  0  0  0  0
  146.1390  141.5738  156.0094 C   0  0  0  0  0  0  0  0  0  0  0  0
  148.2359  142.5612  156.7301 N   0  0  0  0  0  0  0  0  0  0  0  0
  148.9494  141.4247  156.6977 C   0  0  0  0  0  0  0  0  0  0  0  0
  148.4437  140.3079  156.8178 O   0  0  0  0  0  0  0  0  0  0  0  0
  150.4598  141.5825  156.4715 C   0  0  0  0  0  0  0  0  0  0  0  0
  151.2118  141.7966  157.7167 N   0  0  0  0  0  0  0  0  0  0  0  0
  150.8249  142.9185  158.4242 N   0  0  0  0  0  0  0  0  0  0  0  0
  151.4048  143.2497  159.5309 C   0  0  0  0  0  0  0  0  0  0  0  0
  150.9062  144.4985  160.2070 C   0  0  0  0  0  0  0  0  0  0  0  0
  152.4841  142.4203  160.0583 C   0  0  0  0  0  0  0  0  0  0  0  0
  153.1291  142.8555  161.3672 C   0  0  0  0  0  0  0  0  0  0  0  0
  152.8555  141.3220  159.3541 C   0  0  0  0  0  0  0  0  0  0  0  0
  153.9056  140.4573  159.7869 C   0  0  0  0  0  0  0  0  0  0  0  0
  154.7503  139.7573  160.1569 N   0  0  0  0  0  0  0  0  0  0  0  0
  152.2075  140.9446  158.0960 C   0  0  0  0  0  0  0  0  0  0  0  0
  152.5221  139.9558  157.4315 O   0  0  0  0  0  0  0  0  0  0  0  0
  146.1263  144.6178  161.7645 H   0  0  0  0  0  0  0  0  0  0  0  0
  144.5555  144.7255  160.9738 H   0  0  0  0  0  0  0  0  0  0  0  0
  146.0133  144.4798  160.0119 H   0  0  0  0  0  0  0  0  0  0  0  0
  146.3420  142.2373  161.0921 H   0  0  0  0  0  0  0  0  0  0  0  0
  144.8986  142.4748  162.0475 H   0  0  0  0  0  0  0  0  0  0  0  0
  144.4306  141.0226  160.0756 H   0  0  0  0  0  0  0  0  0  0  0  0
  143.4841  142.4902  159.9945 H   0  0  0  0  0  0  0  0  0  0  0  0
  144.4467  142.5992  157.8959 H   0  0  0  0  0  0  0  0  0  0  0  0
  146.4273  143.6326  156.6138 H   0  0  0  0  0  0  0  0  0  0  0  0
  145.0514  141.5947  156.0912 H   0  0  0  0  0  0  0  0  0  0  0  0
  146.4731  140.5678  156.2687 H   0  0  0  0  0  0  0  0  0  0  0  0
  146.3869  141.7426  154.9609 H   0  0  0  0  0  0  0  0  0  0  0  0
  148.7285  143.4343  156.6097 H   0  0  0  0  0  0  0  0  0  0  0  0
  150.8186  140.6858  155.9630 H   0  0  0  0  0  0  0  0  0  0  0  0
  150.6455  142.4046  155.7773 H   0  0  0  0  0  0  0  0  0  0  0  0
  150.4193  144.2579  161.1522 H   0  0  0  0  0  0  0  0  0  0  0  0
  150.1830  145.0337  159.5896 H   0  0  0  0  0  0  0  0  0  0  0  0
  151.7289  145.1834  160.4139 H   0  0  0  0  0  0  0  0  0  0  0  0
  153.8107  142.1016  161.7597 H   0  0  0  0  0  0  0  0  0  0  0  0
  152.3734  143.0354  162.1326 H   0  0  0  0  0  0  0  0  0  0  0  0
  153.6982  143.7744  161.2220 H   0  0  0  0  0  0  0  0  0  0  0  0
  1  2  1  0  0  0  0
  1 24  1  0  0  0  0
  1 25  1  0  0  0  0
  1 26  1  0  0  0  0
  2  3  1  0  0  0  0
  2 27  1  0  0  0  0
  2 28  1  0  0  0  0
  3  4  1  0  0  0  0
  3 29  1  0  0  0  0
  3 30  1  0  0  0  0
  4  5  1  0  0  0  0
  4 31  1  0  0  0  0
  5  6  2  0  0  0  0
  5  7  1  0  0  0  0
  7  8  1  0  0  0  0
  7  9  1  0  0  0  0
  7 32  1  0  0  0  0
  8 33  1  0  0  0  0
  8 34  1  0  0  0  0
  8 35  1  0  0  0  0
  9 10  1  0  0  0  0
  9 36  1  0  0  0  0
 10 11  2  0  0  0  0
 10 12  1  0  0  0  0
 12 13  1  0  0  0  0
 12 37  1  0  0  0  0
 12 38  1  0  0  0  0
 13 22  1  0  0  0  0
 13 14  1  0  0  0  0
 14 15  2  0  0  0  0
 15 16  1  0  0  0  0
 15 17  1  0  0  0  0
 16 39  1  0  0  0  0
 16 40  1  0  0  0  0
 16 41  1  0  0  0  0
 17 18  1  0  0  0  0
 17 19  2  0  0  0  0
 18 42  1  0  0  0  0
 18 43  1  0  0  0  0
 18 44  1  0  0  0  0
 19 20  1  0  0  0  0
 19 22  1  0  0  0  0
 20 21  3  0  0  0  0
 22 23  2  0  0  0  0
M  END
> <s_m_source_file>
AV-unprocessed.smi

> <i_m_source_file_index>
483

> <i_lp_mmshare_version>
43012

> <i_f3d_flags>
0

> <s_epik_input>
W0NIM11bQ0gyXVtDSDJdW05IXUMoPU8pW0NASF0oW0NIM10pW05IXUMoPU8pW0NIMl1uMW5jKFtDSDNdKWMoW0NIM10pYyhDI04pYzE9Tw==

> <s_epik_cmdline>
J2VwaWtfcHl0aG9uJywgJy1waCcsICc3LjAnLCAnLXRuJywgJzgnLCAnLW1hJywgJzIwMCcsICctbWV0YWxfYmluZGluZycsICctaW1hZScsICc8aW5maWxlLm1hZT4nLCAnLW9tYWUnLCAnPG91dGZpbGUubWFlPic=

> <r_lp_tautomer_probability>
1

> <r_epik_Ionization_Penalty>
5.96698e-08

> <r_epik_Ionization_Penalty_Charging>
1.88177e-11

> <r_epik_Ionization_Penalty_Neutral>
5.9651e-08

> <r_epik_State_Penalty>
-0

> <r_epik_Charging_Adjusted_Penalty>
1.88177e-11

> <i_epik_Tot_Q>
0

> <i_epik_Tot_abs_Q>
0

> <r_epik_Metal_State_Penalty>
-0

> <b_epik_Metal_Only>
0

> <s_lp_Force_Field>
OPLS_2005

> <r_lp_Energy>
17.9954

> <b_lp_Chiralities_Consistent>
1

> <s_lp_Variant>
AV-unprocessed.smi:483-1

> <Gold.Version>
5.8.1

> <Gold.Id.Protein>
6NUR|6NUR_protein|mol2

> <Gold.PLP.Fitness>
42.2813

> <Gold.PLP.PLP>
-35.8614

> <Gold.PLP.part.hbond>
-3.6199

> <Gold.PLP.part.metal>
0.0000

> <Gold.PLP.part.buried>
-6.1323

> <Gold.PLP.part.nonpolar>
-26.1533

> <Gold.PLP.part.repulsive>
0.2101

> <Gold.PLP.ligand.clash>
0.0000

> <Gold.PLP.ligand.torsion>
0.6972

> <Gold.PLP.Chemscore.Hbond>
2.5680

> <Gold.PLP.Chemscore.CHOScore>
0.0000

> <Gold.PLP.Chemscore.Metal>
0.0000

> <Gold.Chemscore.Hbonds>
donor molecule, donor type, donor heavy atom, donor atom, acceptor molecule, acceptor atom, score
      L1  H     9    36       P1  8028  0.88
      P1  H  6934  6946       L1     6  0.58
      P1  H  7997  8008       L1    23  1.00

> <Gold.PLP.Chemscore.Internal.Correction>
0.1103

> <Gold.Rescore>
     Score         DG    S(hbond)    S(metal)    S(lipo)     H(rot)  DE(clash)    DE(int)     intcor
     13.42     -15.58       2.36        0.00      71.07       2.38       0.01       2.15       ----

> <Gold.Chemscore.Fitness>
13.4235

> <Gold.Chemscore.DG>
-15.5846

> <Gold.Chemscore.ZeroCoef>
-5.4800

> <Gold.Chemscore.Hbond>
2.3590

> <Gold.Chemscore.Metal>
0.0000

> <Gold.Chemscore.Lipo>
71.0659

> <Gold.Chemscore.Internal_Hbond>
0.0000

> <Gold.Chemscore.DEClash>
0.0064

> <Gold.Chemscore.DEInternal>
2.1548

> <Gold.Chemscore.Rot>
2.3785

> <Gold.Chemscore.Internal.Correction>
   9.000000E+99

> <Gold.Chemscore.Hbonds>
donor molecule, donor type, donor heavy atom, donor atom, acceptor molecule, acceptor atom, score
      L1  H     9    36       P1  8028  0.63
      P1  H  6934  6946       L1     6  0.57
      P1  H  7997  8008       L1    23  0.78

> <Gold.Chemscore.Hbond.Weighted>
-7.8789

> <Gold.Chemscore.Metal.Weighted>
-0.0000

> <Gold.Chemscore.Lipo.Weighted>
-8.3147

> <Gold.Chemscore.Internal_Hbond.Weighted>
0.0000

> <Gold.Chemscore.DEClash.Weighted>
0.0064

> <Gold.Chemscore.DEInternal.Weighted>
2.1548

> <Gold.Chemscore.Rot.Weighted>
6.0890

> <Gold.Chemscore.Internal.Correction.Weighted>
   9.000000E+99

> <Gold.Protein.RotatedTorsions>
[ 6907 6896 6895 6894 ] final -133.53 input  -60.11 | X-H torsion
[ 7974 7965 7964 7962 ] final    1.90 input  175.53 | X-H torsion
[ 8008 7997 7996 7995 ] final  -61.91 input   59.86 | X-H torsion
[ 10167 10162 10161 10158 ] final    9.87 input  -65.29 | X-H torsion
[ 10718 10713 10712 10709 ] final -132.81 input   66.30 | X-H torsion
[ 10763 10752 10751 10750 ] final   41.04 input  -60.55 | X-H torsion
[ 11005 11000 10999 10996 ] final -101.67 input  -57.11 | X-H torsion

> <Gold.Protein.ActiveResidues>
 VAL166  LYS551  ARG553  GLY616  TRP617  ASP618  TYR619  PRO620  LYS621  CYS622 
 ASP623  PHE694  ASN695  SER759  ASP760  ASP761  ALA762  ILE779  LEU786  VAL792 
 PHE793  MET794  SER795  GLU796  ALA797  LYS798  CYS799  TRP800  GLU811  SER814 

> <Gold.Protein.RotatedAtoms>
  150.9751  133.6303  159.2731 H   0  0  0  0  0  0  0  0  0  0  0  0  # atno 6907 bound_to 6896
  151.3578  135.0896  159.9434 H   0  0  0  0  0  0  0  0  0  0  0  0  # atno 6908 bound_to 6896
  152.5196  133.9331  159.7645 H   0  0  0  0  0  0  0  0  0  0  0  0  # atno 6909 bound_to 6896
  146.2442  140.0917  142.8352 H   0  0  0  0  0  0  0  0  0  0  0  0  # atno 7974 bound_to 7965
  154.4472  140.1007  156.6505 H   0  0  0  0  0  0  0  0  0  0  0  0  # atno 8008 bound_to 7997
  155.5403  140.3483  155.4427 H   0  0  0  0  0  0  0  0  0  0  0  0  # atno 8009 bound_to 7997
  156.0602  140.1324  156.9939 H   0  0  0  0  0  0  0  0  0  0  0  0  # atno 8010 bound_to 7997
  140.6229  143.8165  150.7197 H   0  0  0  0  0  0  0  0  0  0  0  0  # atno 10167 bound_to 10162
  156.2384  130.7080  151.0931 H   0  0  0  0  0  0  0  0  0  0  0  0  # atno 10718 bound_to 10713
  152.9919  135.6173  154.2723 H   0  0  0  0  0  0  0  0  0  0  0  0  # atno 10763 bound_to 10752
  154.2455  135.2787  155.2839 H   0  0  0  0  0  0  0  0  0  0  0  0  # atno 10764 bound_to 10752
  154.5333  135.5782  153.6834 H   0  0  0  0  0  0  0  0  0  0  0  0  # atno 10765 bound_to 10752
  141.1221  133.8496  157.1261 H   0  0  0  0  0  0  0  0  0  0  0  0  # atno 11005 bound_to 11000
  145.0645  140.9111  143.4919 LP  0  0  0  0  0  0  0  0  0  0  0  0  # atno 17320 bound_to 7965
  145.1039  139.2803  143.5672 LP  0  0  0  0  0  0  0  0  0  0  0  0  # atno 17321 bound_to 7965
  140.1759  143.4155  152.1967 LP  0  0  0  0  0  0  0  0  0  0  0  0  # atno 17342 bound_to 10162
  139.5454  144.7294  151.4600 LP  0  0  0  0  0  0  0  0  0  0  0  0  # atno 17343 bound_to 10162
  157.7164  131.0707  150.6308 LP  0  0  0  0  0  0  0  0  0  0  0  0  # atno 17370 bound_to 10713
  156.6380  130.4450  149.5762 LP  0  0  0  0  0  0  0  0  0  0  0  0  # atno 17371 bound_to 10713
  140.0187  134.9955  157.0547 LP  0  0  0  0  0  0  0  0  0  0  0  0  # atno 17394 bound_to 11000
  140.4476  134.1616  155.7178 LP  0  0  0  0  0  0  0  0  0  0  0  0  # atno 17395 bound_to 11000

$$$$
