#       Name:                AV-unprocessed.smi:830
#       Creating user name   scv26
#       Creation time:       Fri Mar 27 01:32:45 2020


#       File generated by GOLD software.
#

@<TRIPOS>MOLECULE
AV-unprocessed.smi:830
    58    60     1
SMALL
NO_CHARGES


@<TRIPOS>ATOM
      1 ****        -2.6146  -1.3989  -2.2818 C.3            1 S1                 0.0000
      2 ****        -2.0771  -1.1825  -0.8576 C.3            1 S1                 0.0000
      3 ****        -0.6471  -1.4891  -0.8608 N.am           1 S1                 0.0000
      4 ****         0.0952  -1.7288   0.2301 C.2            1 S1                 0.0000
      5 ****        -0.3620  -1.7610   1.3727 O.2            1 S1                 0.0000
      6 ****         1.3883  -1.9002  -0.0890 N.am           1 S1                 0.0000
      7 ****         2.4886  -2.0507   0.8006 C.ar           1 S1                 0.0000
      8 ****         2.3704  -2.7666   2.0190 C.ar           1 S1                 0.0000
      9 ****         3.4963  -2.9235   2.8499 C.ar           1 S1                 0.0000
     10 ****         4.7249  -2.3722   2.4450 C.ar           1 S1                 0.0000
     11 ****         4.8072  -1.7095   1.2724 N.pl3          1 S1                 1.0000
     12 ****         3.7582  -1.5269   0.4325 C.ar           1 S1                 0.0000
     13 ****         3.9549  -0.7933  -0.7572 N.3            1 S1                 0.0000
     14 ****         3.2869   0.5060  -0.7805 C.3            1 S1                 0.0000
     15 ****         4.2167   1.4585  -1.5350 C.3            1 S1                 0.0000
     16 ****         5.5953   0.8513  -1.3061 C.3            1 S1                 0.0000
     17 ****         5.3001  -0.6473  -1.3112 C.3            1 S1                 0.0000
     18 ****        -2.3215   0.2850  -0.4688 C.2            1 S1                 0.0000
     19 ****        -1.5258   1.1648  -0.8031 O.2            1 S1                 0.0000
     20 ****        -3.4407   0.5327   0.2282 N.am           1 S1                 0.0000
     21 ****        -3.8619   1.8478   0.7034 C.3            1 S1                 0.0000
     22 ****        -4.9254   1.7153   1.8102 C.3            1 S1                 0.0000
     23 ****        -6.0376   2.7003   1.4471 C.3            1 S1                 0.0000
     24 ****        -6.0018   2.7628  -0.0763 C.3            1 S1                 0.0000
     25 ****        -4.5143   2.6791  -0.4202 C.3            1 S1                 0.0000
     26 ****        -3.6843  -1.1924  -2.3378 H              1 S1                 0.0000
     27 ****        -2.4678  -2.4313  -2.6006 H              1 S1                 0.0000
     28 ****        -2.1139  -0.7554  -3.0071 H              1 S1                 0.0000
     29 ****        -2.5968  -1.8471  -0.1643 H              1 S1                 0.0000
     30 ****        -0.1863  -1.4774  -1.7588 H              1 S1                 0.0000
     31 ****         1.6274  -1.7655  -1.0607 H              1 S1                 0.0000
     32 ****         1.4347  -3.2119   2.3217 H              1 S1                 0.0000
     33 ****         3.4180  -3.4644   3.7817 H              1 S1                 0.0000
     34 ****         5.6389  -2.4430   3.0166 H              1 S1                 0.0000
     35 ****         2.3123   0.4421  -1.2650 H              1 S1                 0.0000
     36 ****         3.1312   0.8662   0.2379 H              1 S1                 0.0000
     37 ****         3.9798   1.4419  -2.5998 H              1 S1                 0.0000
     38 ****         4.1401   2.4894  -1.1882 H              1 S1                 0.0000
     39 ****         6.3234   1.1441  -2.0633 H              1 S1                 0.0000
     40 ****         5.9779   1.1536  -0.3302 H              1 S1                 0.0000
     41 ****         6.0735  -1.2125  -0.7916 H              1 S1                 0.0000
     42 ****         5.2764  -1.0164  -2.3371 H              1 S1                 0.0000
     43 ****        -4.0399  -0.2477   0.4552 H              1 S1                 0.0000
     44 ****        -2.9972   2.3854   1.0969 H              1 S1                 0.0000
     45 ****        -5.3401   0.7059   1.8265 H              1 S1                 0.0000
     46 ****        -4.5151   1.9100   2.8016 H              1 S1                 0.0000
     47 ****        -7.0111   2.3962   1.8329 H              1 S1                 0.0000
     48 ****        -5.8077   3.6835   1.8598 H              1 S1                 0.0000
     49 ****        -6.5246   1.9003  -0.4916 H              1 S1                 0.0000
     50 ****        -6.4743   3.6623  -0.4720 H              1 S1                 0.0000
     51 ****        -4.0874   3.6827  -0.4155 H              1 S1                 0.0000
     52 ****        -4.3511   2.2690  -1.4179 H              1 S1                 0.0000
     53 ****         5.7111  -1.3190   1.0053 H              1 S1                 0.0000
     54 ****        -1.3376  -1.6032   1.5255 LP             1 S1                 0.0000
     55 ****         0.2422  -1.9450   2.1480 LP             1 S1                 0.0000
     56 ****         3.5087  -1.4407  -1.3751 LP             1 S1                 0.0000
     57 ****        -0.7114   0.9274  -1.3326 LP             1 S1                 0.0000
     58 ****        -1.6946   2.1160  -0.5448 LP             1 S1                 0.0000
@<TRIPOS>BOND
    1    1    2 1     
    2    1   26 1     
    3    1   27 1     
    4    1   28 1     
    5    2    3 1     
    6    2   18 1     
    7    2   29 1     
    8    3    4 am    
    9    3   30 1     
   10    4    5 2     
   11    4    6 am    
   12    6    7 1     
   13    6   31 1     
   14    7   12 ar    
   15    7    8 ar    
   16    8    9 ar    
   17    8   32 1     
   18    9   10 ar    
   19    9   33 1     
   20   10   11 ar    
   21   10   34 1     
   22   11   12 ar    
   23   11   53 1     
   24   12   13 1     
   25   13   17 1     
   26   13   14 1     
   27   14   15 1     
   28   14   35 1     
   29   14   36 1     
   30   15   16 1     
   31   15   37 1     
   32   15   38 1     
   33   16   17 1     
   34   16   39 1     
   35   16   40 1     
   36   17   41 1     
   37   17   42 1     
   38   18   19 2     
   39   18   20 am    
   40   20   21 1     
   41   20   43 1     
   42   21   25 1     
   43   21   22 1     
   44   21   44 1     
   45   22   23 1     
   46   22   45 1     
   47   22   46 1     
   48   23   24 1     
   49   23   47 1     
   50   23   48 1     
   51   24   25 1     
   52   24   49 1     
   53   24   50 1     
   54   25   51 1     
   55   25   52 1     
   56    5   54 1     
   57    5   55 1     
   58   13   56 1     
   59   19   57 1     
   60   19   58 1     
@<TRIPOS>SUBSTRUCTURE
      1 S1             1
@<TRIPOS>SET
LONE_PAIRS      STATIC     ATOMS    <user>   **** ""
5 54 55 56 57 58
DONOR_HYDROGENS      STATIC     ATOMS    <user>   **** ""
4 30 31 53 43
ATOM$BLUE        STATIC     ATOMS    COLORGROUP SYSTEM
5 54 55 56 57 58
ATOM$RED        STATIC     ATOMS    COLORGROUP SYSTEM
4 30 31 53 43
