AV-unprocessed.smi:283|AV-procd|sdf|2131|dock4
  -GOLD-   2262021443D 1   1.00000     0.00000
 Structure written by MMmdl.
 48 51  0  0  0  0  0  0  0  0  1 V2000
  148.0245  133.1882  153.6589 C   0  0  0  0  0  0  0  0  0  0  0  0
  146.7254  132.8644  152.9095 C   0  0  2  0  0  0  0  0  0  0  0  0
  145.5993  133.5501  153.5413 N   0  0  0  0  0  0  0  0  0  0  0  0
  145.5099  134.8997  153.5320 C   0  0  0  0  0  0  0  0  0  0  0  0
  144.6597  135.5429  152.6895 N   0  0  0  0  0  0  0  0  0  0  0  0
  144.5897  136.8767  152.6991 C   0  0  0  0  0  0  0  0  0  0  0  0
  145.2731  137.7413  153.4515 N   0  0  0  0  0  0  0  0  0  0  0  0
  146.1355  137.1031  154.2945 C   0  0  0  0  0  0  0  0  0  0  0  0
  146.3088  135.6938  154.3949 C   0  0  0  0  0  0  0  0  0  0  0  0
  147.2634  135.4047  155.3609 N   0  0  0  0  0  0  0  0  0  0  0  0
  147.6327  136.5776  155.8006 C   0  0  0  0  0  0  0  0  0  0  0  0
  147.0056  137.6548  155.2146 N   0  0  0  0  0  0  0  0  0  0  0  0
  147.2275  139.1056  155.5145 C   0  0  1  0  0  0  0  0  0  0  0  0
  148.4030  139.2608  156.2522 O   0  0  0  0  0  0  0  0  0  0  0  0
  149.1270  140.4172  155.8241 C   0  0  1  0  0  0  0  0  0  0  0  0
  150.4963  139.9488  155.2908 C   0  0  0  0  0  0  0  0  0  0  0  0
  150.3920  139.5264  153.9471 O   0  0  0  0  0  0  0  0  0  0  0  0
  148.2019  141.1086  154.8048 C   0  0  1  0  0  0  0  0  0  0  0  0
  148.8459  141.8653  153.7970 O   0  0  0  0  0  0  0  0  0  0  0  0
  147.3533  139.9736  154.2566 C   0  0  1  0  0  0  0  0  0  0  0  0
  147.9608  139.3027  153.1644 O   0  0  0  0  0  0  0  0  0  0  0  0
  146.5438  131.3506  152.7827 C   0  0  0  0  0  0  0  0  0  0  0  0
  147.4480  130.4841  153.4390 C   0  0  0  0  0  0  0  0  0  0  0  0
  147.3050  129.0875  153.3392 C   0  0  0  0  0  0  0  0  0  0  0  0
  146.2559  128.5419  152.5780 C   0  0  0  0  0  0  0  0  0  0  0  0
  145.3549  129.3946  151.9141 C   0  0  0  0  0  0  0  0  0  0  0  0
  145.4945  130.7938  152.0086 C   0  0  0  0  0  0  0  0  0  0  0  0
  144.3635  131.7905  151.1615 Cl  0  0  0  0  0  0  0  0  0  0  0  0
  146.3810  139.3967  156.1379 H   0  0  0  0  0  0  0  0  0  0  0  0
  149.2814  141.0614  156.6908 H   0  0  0  0  0  0  0  0  0  0  0  0
  147.5467  141.7861  155.3546 H   0  0  0  0  0  0  0  0  0  0  0  0
  146.3651  140.3137  153.9449 H   0  0  0  0  0  0  0  0  0  0  0  0
  148.8858  132.7492  153.1545 H   0  0  0  0  0  0  0  0  0  0  0  0
  148.0033  132.8018  154.6785 H   0  0  0  0  0  0  0  0  0  0  0  0
  148.1894  134.2646  153.7133 H   0  0  0  0  0  0  0  0  0  0  0  0
  146.8171  133.2982  151.9146 H   0  0  0  0  0  0  0  0  0  0  0  0
  144.8599  132.9543  153.8850 H   0  0  0  0  0  0  0  0  0  0  0  0
  143.8870  137.3135  152.0052 H   0  0  0  0  0  0  0  0  0  0  0  0
  148.3797  136.6904  156.5729 H   0  0  0  0  0  0  0  0  0  0  0  0
  151.2060  140.7761  155.3169 H   0  0  0  0  0  0  0  0  0  0  0  0
  150.9184  139.1504  155.9006 H   0  0  0  0  0  0  0  0  0  0  0  0
  149.5894  139.0370  153.8480 H   0  0  0  0  0  0  0  0  0  0  0  0
  148.8379  142.7737  154.0593 H   0  0  0  0  0  0  0  0  0  0  0  0
  148.4681  139.9307  152.6728 H   0  0  0  0  0  0  0  0  0  0  0  0
  148.2602  130.8892  154.0246 H   0  0  0  0  0  0  0  0  0  0  0  0
  148.0011  128.4356  153.8460 H   0  0  0  0  0  0  0  0  0  0  0  0
  146.1437  127.4704  152.5008 H   0  0  0  0  0  0  0  0  0  0  0  0
  144.5527  128.9719  151.3275 H   0  0  0  0  0  0  0  0  0  0  0  0
  1  2  1  0  0  0  0
  1 33  1  0  0  0  0
  1 34  1  0  0  0  0
  1 35  1  0  0  0  0
  2  3  1  0  0  0  0
  2 22  1  0  0  0  0
  2 36  1  0  0  0  0
  3  4  1  0  0  0  0
  3 37  1  0  0  0  0
  4  9  1  0  0  0  0
  4  5  2  0  0  0  0
  5  6  1  0  0  0  0
  6  7  2  0  0  0  0
  6 38  1  0  0  0  0
  7  8  1  0  0  0  0
  8 12  1  0  0  0  0
  8  9  2  0  0  0  0
  9 10  1  0  0  0  0
 10 11  2  0  0  0  0
 11 12  1  0  0  0  0
 11 39  1  0  0  0  0
 12 13  1  0  0  0  0
 13 29  1  0  0  0  0
 13 20  1  0  0  0  0
 13 14  1  0  0  0  0
 14 15  1  0  0  0  0
 15 30  1  0  0  0  0
 15 16  1  0  0  0  0
 15 18  1  0  0  0  0
 16 17  1  0  0  0  0
 16 40  1  0  0  0  0
 16 41  1  0  0  0  0
 17 42  1  0  0  0  0
 18 31  1  0  0  0  0
 18 19  1  0  0  0  0
 18 20  1  0  0  0  0
 19 43  1  0  0  0  0
 20 32  1  0  0  0  0
 20 21  1  0  0  0  0
 21 44  1  0  0  0  0
 22 27  1  0  0  0  0
 22 23  2  0  0  0  0
 23 24  1  0  0  0  0
 23 45  1  0  0  0  0
 24 25  2  0  0  0  0
 24 46  1  0  0  0  0
 25 26  1  0  0  0  0
 25 47  1  0  0  0  0
 26 27  2  0  0  0  0
 26 48  1  0  0  0  0
 27 28  1  0  0  0  0
M  END
> <s_m_source_file>
AV-unprocessed.smi

> <i_m_source_file_index>
283

> <i_lp_mmshare_version>
43012

> <i_f3d_flags>
0

> <s_epik_input>
Q2xjMVtjSF1bY0hdW2NIXVtjSF1jMVtDQEhdKFtDSDNdKVtOSF1jKG5bY0hdbjIpYyhjMjMpbltjSF1uM1tDQEBIXTRPW0NASF0oW0NIMl1bT0hdKVtDQEBIXShbT0hdKVtDQEhdNFtPSF0=

> <s_epik_cmdline>
J2VwaWtfcHl0aG9uJywgJy1waCcsICc3LjAnLCAnLXRuJywgJzgnLCAnLW1hJywgJzIwMCcsICctbWV0YWxfYmluZGluZycsICctaW1hZScsICc8aW5maWxlLm1hZT4nLCAnLW9tYWUnLCAnPG91dGZpbGUubWFlPic=

> <r_lp_tautomer_probability>
1

> <r_epik_Ionization_Penalty>
0.000266407

> <r_epik_Ionization_Penalty_Charging>
0

> <r_epik_Ionization_Penalty_Neutral>
0.000266407

> <r_epik_State_Penalty>
-0

> <r_epik_Charging_Adjusted_Penalty>
0

> <i_epik_Tot_Q>
0

> <i_epik_Tot_abs_Q>
0

> <r_epik_Metal_State_Penalty>
-0

> <b_epik_Metal_Only>
0

> <s_epik_Chemistry_Notes>
This compound contains an acetal/aminal-like group ( X-CH(R)-Y where X, Y are N, S, or O) that may be acid/base labile, releasing an aldehyde.

> <s_lp_Force_Field>
OPLS_2005

> <r_lp_Energy>
56.5757

> <b_lp_Chiralities_Consistent>
1

> <s_lp_Variant>
AV-unprocessed.smi:283-7

> <Gold.Version>
5.8.1

> <Gold.Id.Protein>
6NUR|6NUR_protein|mol2

> <Gold.PLP.Fitness>
44.5740

> <Gold.PLP.PLP>
-35.0697

> <Gold.PLP.part.hbond>
-4.9027

> <Gold.PLP.part.metal>
0.0000

> <Gold.PLP.part.buried>
-4.8577

> <Gold.PLP.part.nonpolar>
-25.4871

> <Gold.PLP.part.repulsive>
0.5354

> <Gold.PLP.ligand.clash>
0.0000

> <Gold.PLP.ligand.torsion>
1.4545

> <Gold.PLP.Chemscore.Hbond>
2.6993

> <Gold.PLP.Chemscore.CHOScore>
1.4239

> <Gold.PLP.Chemscore.Metal>
0.0000

> <Gold.Chemscore.Hbonds>
donor molecule, donor type, donor heavy atom, donor atom, acceptor molecule, acceptor atom, score
      L1  H    21    44       P1  7957  0.82
      P1  H  7989  7998       L1    17  0.45
      P1  H  8011  8017       L1    19  0.16
      L1  C     6    38       P1 10171  1.00

> <Gold.PLP.Chemscore.Internal.Correction>
0.0436

> <Gold.Rescore>
     Score         DG    S(hbond)    S(metal)    S(lipo)     H(rot)  DE(clash)    DE(int)     intcor
     10.29     -13.73       2.50        0.00      88.77       4.10       0.47       2.97       ----

> <Gold.Chemscore.Fitness>
10.2929

> <Gold.Chemscore.DG>
-13.7302

> <Gold.Chemscore.ZeroCoef>
-5.4800

> <Gold.Chemscore.Hbond>
2.5007

> <Gold.Chemscore.Metal>
0.0000

> <Gold.Chemscore.Lipo>
88.7687

> <Gold.Chemscore.Internal_Hbond>
0.0000

> <Gold.Chemscore.DEClash>
0.4699

> <Gold.Chemscore.DEInternal>
2.9674

> <Gold.Chemscore.Rot>
4.0968

> <Gold.Chemscore.Internal.Correction>
   9.000000E+99

> <Gold.Chemscore.Hbonds>
donor molecule, donor type, donor heavy atom, donor atom, acceptor molecule, acceptor atom, score
      L1  H    19    43       P1  8028  0.02
      L1  H    21    44       P1  7957  0.81
      P1  H  7989  7998       L1    17  0.02

> <Gold.Chemscore.Hbond.Weighted>
-8.3522

> <Gold.Chemscore.Metal.Weighted>
-0.0000

> <Gold.Chemscore.Lipo.Weighted>
-10.3859

> <Gold.Chemscore.Internal_Hbond.Weighted>
0.0000

> <Gold.Chemscore.DEClash.Weighted>
0.4699

> <Gold.Chemscore.DEInternal.Weighted>
2.9674

> <Gold.Chemscore.Rot.Weighted>
10.4879

> <Gold.Chemscore.Internal.Correction.Weighted>
   9.000000E+99

> <Gold.Protein.RotatedTorsions>
[ 6907 6896 6895 6894 ] final -173.05 input  -60.11 | X-H torsion
[ 7974 7965 7964 7962 ] final    4.31 input  175.53 | X-H torsion
[ 8008 7997 7996 7995 ] final   47.91 input   59.86 | X-H torsion
[ 10167 10162 10161 10158 ] final  -90.85 input  -65.29 | X-H torsion
[ 10718 10713 10712 10709 ] final   13.71 input   66.30 | X-H torsion
[ 10763 10752 10751 10750 ] final -159.36 input  -60.55 | X-H torsion
[ 11005 11000 10999 10996 ] final  -30.60 input  -57.11 | X-H torsion

> <Gold.Protein.ActiveResidues>
 VAL166  LYS551  ARG553  GLY616  TRP617  ASP618  TYR619  PRO620  LYS621  CYS622 
 ASP623  PHE694  ASN695  SER759  ASP760  ASP761  ALA762  ILE779  LEU786  VAL792 
 PHE793  MET794  SER795  GLU796  ALA797  LYS798  CYS799  TRP800  GLU811  SER814 

> <Gold.Protein.RotatedAtoms>
  151.5499  133.3419  159.2950 H   0  0  0  0  0  0  0  0  0  0  0  0  # atno 6907 bound_to 6896
  150.8485  134.7805  159.7001 H   0  0  0  0  0  0  0  0  0  0  0  0  # atno 6908 bound_to 6896
  152.4537  134.5346  159.9873 H   0  0  0  0  0  0  0  0  0  0  0  0  # atno 6909 bound_to 6896
  146.2444  140.0554  142.8372 H   0  0  0  0  0  0  0  0  0  0  0  0  # atno 7974 bound_to 7965
  155.3769  140.3426  155.4245 H   0  0  0  0  0  0  0  0  0  0  0  0  # atno 8008 bound_to 7997
  156.1632  140.1607  156.8610 H   0  0  0  0  0  0  0  0  0  0  0  0  # atno 8009 bound_to 7997
  154.5159  140.0778  156.8063 H   0  0  0  0  0  0  0  0  0  0  0  0  # atno 8010 bound_to 7997
  140.3507  143.2892  151.9729 H   0  0  0  0  0  0  0  0  0  0  0  0  # atno 10167 bound_to 10162
  157.0286  130.6183  149.5732 H   0  0  0  0  0  0  0  0  0  0  0  0  # atno 10718 bound_to 10713
  154.7481  135.3085  154.8608 H   0  0  0  0  0  0  0  0  0  0  0  0  # atno 10763 bound_to 10752
  153.9403  135.6775  153.4748 H   0  0  0  0  0  0  0  0  0  0  0  0  # atno 10764 bound_to 10752
  153.1077  135.4881  154.8907 H   0  0  0  0  0  0  0  0  0  0  0  0  # atno 10765 bound_to 10752
  140.9396  133.7287  156.1057 H   0  0  0  0  0  0  0  0  0  0  0  0  # atno 11005 bound_to 11000
  145.0947  140.9307  143.4748 LP  0  0  0  0  0  0  0  0  0  0  0  0  # atno 17320 bound_to 7965
  145.0734  139.3014  143.5820 LP  0  0  0  0  0  0  0  0  0  0  0  0  # atno 17321 bound_to 7965
  139.4827  144.6078  151.7489 LP  0  0  0  0  0  0  0  0  0  0  0  0  # atno 17342 bound_to 10162
  140.5221  144.0862  150.6026 LP  0  0  0  0  0  0  0  0  0  0  0  0  # atno 17343 bound_to 10162
  156.0077  130.5166  150.7886 LP  0  0  0  0  0  0  0  0  0  0  0  0  # atno 17370 bound_to 10713
  157.5195  131.0930  151.0096 LP  0  0  0  0  0  0  0  0  0  0  0  0  # atno 17371 bound_to 10713
  140.7752  134.3788  157.5499 LP  0  0  0  0  0  0  0  0  0  0  0  0  # atno 17394 bound_to 11000
  139.8817  134.9047  156.2883 LP  0  0  0  0  0  0  0  0  0  0  0  0  # atno 17395 bound_to 11000

$$$$
