#       Name:                AV-unprocessed.smi:1843
#       Creating user name   scv26
#       Creation time:       Fri Mar 27 09:21:02 2020


#       File generated by GOLD software.
#

@<TRIPOS>MOLECULE
AV-unprocessed.smi:1843
    43    45     1
SMALL
NO_CHARGES


@<TRIPOS>ATOM
      1 ****         0.6396   0.7240  -0.2895 O.2            1 S1                 0.0000
      2 ****        -0.0039  -0.2074  -0.7784 C.2            1 S1                 0.0000
      3 ****         0.4991  -1.3776  -1.2324 N.pl3          1 S1                -1.0000
      4 ****         1.8180  -1.6187  -1.1503 C.2            1 S1                 0.0000
      5 ****         2.6424  -1.4783  -2.1980 N.2            1 S1                 0.0000
      6 ****         3.9622  -1.7825  -1.8968 N.2            1 S1                 0.0000
      7 ****         4.1150  -2.1571  -0.6244 C.2            1 S1                 0.0000
      8 ****         5.4416  -2.5345  -0.0551 C.3            1 S1                 0.0000
      9 ****         5.8062  -2.2202   1.3796 C.3            1 S1                 0.0000
     10 ****         6.4796  -1.4796   0.2524 C.3            1 S1                 0.0000
     11 ****         2.6302  -2.1719   0.3136 S.3            1 S1                 0.0000
     12 ****        -1.3368  -0.1152  -0.8900 N.am           1 S1                 0.0000
     13 ****        -2.1639   1.0119  -0.4617 C.3            1 S1                 0.0000
     14 ****        -3.5176   0.9912  -1.1980 C.3            1 S1                 0.0000
     15 ****        -4.4056   2.1694  -0.7662 C.3            1 S1                 0.0000
     16 ****        -4.6128   2.1836   0.7565 C.3            1 S1                 0.0000
     17 ****        -3.2684   2.1964   1.5070 C.3            1 S1                 0.0000
     18 ****        -2.3488   1.0371   1.0762 C.3            1 S1                 0.0000
     19 ****        -2.8958  -0.1843   1.5387 O.3            1 S1                 0.0000
     20 ****         5.7832  -3.4802  -0.4715 H              1 S1                 0.0000
     21 ****         5.0925  -1.6632   1.9833 H              1 S1                 0.0000
     22 ****         6.3956  -2.9585   1.9191 H              1 S1                 0.0000
     23 ****         7.5189  -1.7219   0.0405 H              1 S1                 0.0000
     24 ****         6.2024  -0.4383   0.0997 H              1 S1                 0.0000
     25 ****        -1.8197  -0.9012  -1.3000 H              1 S1                 0.0000
     26 ****        -1.6528   1.9308  -0.7560 H              1 S1                 0.0000
     27 ****        -3.3554   1.0324  -2.2757 H              1 S1                 0.0000
     28 ****        -4.0369   0.0521  -1.0011 H              1 S1                 0.0000
     29 ****        -3.9468   3.1074  -1.0810 H              1 S1                 0.0000
     30 ****        -5.3698   2.1117  -1.2721 H              1 S1                 0.0000
     31 ****        -5.2043   3.0535   1.0429 H              1 S1                 0.0000
     32 ****        -5.1919   1.3083   1.0536 H              1 S1                 0.0000
     33 ****        -2.7622   3.1424   1.3101 H              1 S1                 0.0000
     34 ****        -3.4400   2.1628   2.5835 H              1 S1                 0.0000
     35 ****        -1.3798   1.1603   1.5612 H              1 S1                 0.0000
     36 ****        -2.3131  -0.8830   1.2812 H              1 S1                 0.0000
     37 ****         1.6330   0.6524  -0.1996 LP             1 S1                 0.0000
     38 ****         0.1681   1.5508   0.0171 LP             1 S1                 0.0000
     39 ****        -0.1108  -2.0636  -1.6293 LP             1 S1                 0.0000
     40 ****         2.3374  -1.1845  -3.1039 LP             1 S1                 0.0000
     41 ****         4.7120  -1.7276  -2.5562 LP             1 S1                 0.0000
     42 ****        -3.7978  -0.3277   1.1314 LP             1 S1                 0.0000
     43 ****        -2.9796  -0.1626   2.5349 LP             1 S1                 0.0000
@<TRIPOS>BOND
    1    1    2 2     
    2    2    3 1     
    3    2   12 am    
    4    3    4 1     
    5    4   11 1     
    6    4    5 2     
    7    5    6 1     
    8    6    7 2     
    9    7    8 1     
   10    7   11 1     
   11    8   10 1     
   12    8    9 1     
   13    8   20 1     
   14    9   10 1     
   15    9   21 1     
   16    9   22 1     
   17   10   23 1     
   18   10   24 1     
   19   12   13 1     
   20   12   25 1     
   21   13   18 1     
   22   13   14 1     
   23   13   26 1     
   24   14   15 1     
   25   14   27 1     
   26   14   28 1     
   27   15   16 1     
   28   15   29 1     
   29   15   30 1     
   30   16   17 1     
   31   16   31 1     
   32   16   32 1     
   33   17   18 1     
   34   17   33 1     
   35   17   34 1     
   36   18   19 1     
   37   18   35 1     
   38   19   36 1     
   39    1   37 1     
   40    1   38 1     
   41    3   39 1     
   42    5   40 1     
   43    6   41 1     
   44   19   42 1     
   45   19   43 1     
@<TRIPOS>SUBSTRUCTURE
      1 S1             1
@<TRIPOS>SET
LONE_PAIRS      STATIC     ATOMS    <user>   **** ""
7 37 38 39 40 41 42 43
DONOR_HYDROGENS      STATIC     ATOMS    <user>   **** ""
2 25 36
ATOM$BLUE        STATIC     ATOMS    COLORGROUP SYSTEM
7 37 38 39 40 41 42 43
ATOM$RED        STATIC     ATOMS    COLORGROUP SYSTEM
2 25 36
