AV-unprocessed.smi:62|AV-procd|sdf|605|dock9
  -GOLD-   2262016503D 1   1.00000     0.00000
 Structure written by MMmdl.
 30 31  0  0  0  0  0  0  0  0  2 V2000
  151.1728  144.3941  159.2257 C   0  0  0  0  0  0  0  0  0  0  0  0
  151.5004  143.1145  158.6350 N   0  0  0  0  0  0  0  0  0  0  0  0
  151.1978  142.6435  157.3782 C   0  0  0  0  0  0  0  0  0  0  0  0
  151.7066  141.3792  157.2667 C   0  0  0  0  0  0  0  0  0  0  0  0
  151.5933  140.4838  156.0557 C   0  0  0  0  0  0  0  0  0  0  0  0
  150.2077  140.2337  155.6707 N   0  0  0  0  0  0  0  0  0  0  0  0
  149.5403  141.3785  155.0728 C   0  0  0  0  0  0  0  0  0  0  0  0
  148.3415  140.8256  154.2888 C   0  0  0  0  0  0  0  0  0  0  0  0
  148.6306  139.3196  154.1776 C   0  0  1  0  0  0  0  0  0  0  0  0
  148.4797  138.8268  152.8627 O   0  0  0  0  0  0  0  0  0  0  0  0
  150.0708  139.1929  154.6747 C   0  0  0  0  0  0  0  0  0  0  0  0
  152.3235  141.1637  158.5465 C   0  0  0  0  0  0  0  0  0  0  0  0
  153.0353  139.8839  158.8999 C   0  0  0  0  0  0  0  0  0  0  0  0
  153.3266  139.6328  160.0898 O   0  0  0  0  0  0  0  0  0  0  0  0
  153.3116  139.0946  157.9691 O   0  5  0  0  0  0  0  0  0  0  0  0
  152.1896  142.2089  159.3531 N   0  0  0  0  0  0  0  0  0  0  0  0
  150.7134  145.0438  158.4803 H   0  0  0  0  0  0  0  0  0  0  0  0
  152.0784  144.8711  159.6018 H   0  0  0  0  0  0  0  0  0  0  0  0
  150.4744  144.2498  160.0505 H   0  0  0  0  0  0  0  0  0  0  0  0
  150.6437  143.2396  156.6684 H   0  0  0  0  0  0  0  0  0  0  0  0
  152.1298  140.9171  155.2105 H   0  0  0  0  0  0  0  0  0  0  0  0
  152.0904  139.5320  156.2431 H   0  0  0  0  0  0  0  0  0  0  0  0
  149.2399  142.1045  155.8289 H   0  0  0  0  0  0  0  0  0  0  0  0
  150.2152  141.8833  154.3797 H   0  0  0  0  0  0  0  0  0  0  0  0
  147.4056  140.9976  154.8213 H   0  0  0  0  0  0  0  0  0  0  0  0
  148.2657  141.3111  153.3148 H   0  0  0  0  0  0  0  0  0  0  0  0
  147.9653  138.7699  154.8449 H   0  0  0  0  0  0  0  0  0  0  0  0
  148.6658  137.9003  152.8686 H   0  0  0  0  0  0  0  0  0  0  0  0
  150.7681  139.3713  153.8541 H   0  0  0  0  0  0  0  0  0  0  0  0
  150.2844  138.2075  155.0902 H   0  0  0  0  0  0  0  0  0  0  0  0
  1  2  1  0  0  0  0
  1 17  1  0  0  0  0
  1 18  1  0  0  0  0
  1 19  1  0  0  0  0
  2 16  1  0  0  0  0
  2  3  1  0  0  0  0
  3  4  2  0  0  0  0
  3 20  1  0  0  0  0
  4  5  1  0  0  0  0
  4 12  1  0  0  0  0
  5  6  1  0  0  0  0
  5 21  1  0  0  0  0
  5 22  1  0  0  0  0
  6 11  1  0  0  0  0
  6  7  1  0  0  0  0
  7  8  1  0  0  0  0
  7 23  1  0  0  0  0
  7 24  1  0  0  0  0
  8  9  1  0  0  0  0
  8 25  1  0  0  0  0
  8 26  1  0  0  0  0
  9 10  1  0  0  0  0
  9 11  1  0  0  0  0
  9 27  1  0  0  0  0
 10 28  1  0  0  0  0
 11 29  1  0  0  0  0
 11 30  1  0  0  0  0
 12 13  1  0  0  0  0
 12 16  2  0  0  0  0
 13 14  2  0  0  0  0
 13 15  1  0  0  0  0
M  CHG  1  15  -1
M  END
> <s_m_source_file>
AV-unprocessed.smi

> <i_m_source_file_index>
62

> <i_lp_mmshare_version>
43012

> <i_f3d_flags>
0

> <s_epik_input>
W0NIM11uMVtjSF1jKGMobjEpQyg9TylbT0hdKVtDSDJdTjJbQ0gyXVtDSDJdW0NAQEhdKFtPSF0pW0NIMl0y

> <s_epik_cmdline>
J2VwaWtfcHl0aG9uJywgJy1waCcsICc3LjAnLCAnLXRuJywgJzgnLCAnLW1hJywgJzIwMCcsICctbWV0YWxfYmluZGluZycsICctaW1hZScsICc8aW5maWxlLm1hZT4nLCAnLW9tYWUnLCAnPG91dGZpbGUubWFlPic=

> <r_epik_Ionization_Penalty>
1.46526

> <r_epik_Ionization_Penalty_Charging>
0.000523675

> <r_epik_Ionization_Penalty_Neutral>
1.46474

> <r_epik_State_Penalty>
1.55202

> <r_epik_Charging_Adjusted_Penalty>
1.55254

> <i_epik_Tot_Q>
-1

> <i_epik_Tot_abs_Q>
1

> <r_epik_Metal_State_Penalty>
1.552

> <b_epik_Metal_Only>
0

> <s_lp_Force_Field>
OPLS_2005

> <r_lp_Energy>
37.4644

> <b_lp_Chiralities_Consistent>
1

> <s_lp_Variant>
AV-unprocessed.smi:62-5

> <Gold.Version>
5.8.1

> <Gold.Id.Protein>
6NUR|6NUR_protein|mol2

> <Gold.PLP.Fitness>
41.6487

> <Gold.PLP.PLP>
-29.9702

> <Gold.PLP.part.hbond>
-2.4621

> <Gold.PLP.part.metal>
0.0000

> <Gold.PLP.part.buried>
-5.6856

> <Gold.PLP.part.nonpolar>
-21.9661

> <Gold.PLP.part.repulsive>
0.0362

> <Gold.PLP.ligand.clash>
0.0000

> <Gold.PLP.ligand.torsion>
0.1521

> <Gold.PLP.Chemscore.Hbond>
2.9920

> <Gold.PLP.Chemscore.CHOScore>
1.0000

> <Gold.PLP.Chemscore.Metal>
0.0000

> <Gold.Chemscore.Hbonds>
donor molecule, donor type, donor heavy atom, donor atom, acceptor molecule, acceptor atom, score
      L1  H    10    28       P1  7948  0.96
      P1  H  7997  8010       L1    15  2.00
      L1  C     3    20       P1  8028  1.00

> <Gold.PLP.Chemscore.Internal.Correction>
0.0068

> <Gold.Rescore>
     Score         DG    S(hbond)    S(metal)    S(lipo)     H(rot)  DE(clash)    DE(int)     intcor
     13.86     -15.34       1.92        0.00      68.13       1.77       0.05       1.43       ----

> <Gold.Chemscore.Fitness>
13.8638

> <Gold.Chemscore.DG>
-15.3407

> <Gold.Chemscore.ZeroCoef>
-5.4800

> <Gold.Chemscore.Hbond>
1.9203

> <Gold.Chemscore.Metal>
0.0000

> <Gold.Chemscore.Lipo>
68.1329

> <Gold.Chemscore.Internal_Hbond>
0.0000

> <Gold.Chemscore.DEClash>
0.0485

> <Gold.Chemscore.DEInternal>
1.4284

> <Gold.Chemscore.Rot>
1.7674

> <Gold.Chemscore.Internal.Correction>
   9.000000E+99

> <Gold.Chemscore.Hbonds>
donor molecule, donor type, donor heavy atom, donor atom, acceptor molecule, acceptor atom, score
      L1  H    10    28       P1  7948  0.91
      P1  H  7997  8010       L1    15  0.40

> <Gold.Chemscore.Hbond.Weighted>
-6.4137

> <Gold.Chemscore.Metal.Weighted>
-0.0000

> <Gold.Chemscore.Lipo.Weighted>
-7.9715

> <Gold.Chemscore.Internal_Hbond.Weighted>
0.0000

> <Gold.Chemscore.DEClash.Weighted>
0.0485

> <Gold.Chemscore.DEInternal.Weighted>
1.4284

> <Gold.Chemscore.Rot.Weighted>
4.5245

> <Gold.Chemscore.Internal.Correction.Weighted>
   9.000000E+99

> <Gold.Protein.RotatedTorsions>
[ 6907 6896 6895 6894 ] final -122.45 input  -60.11 | X-H torsion
[ 7974 7965 7964 7962 ] final  -28.52 input  175.53 | X-H torsion
[ 8008 7997 7996 7995 ] final   37.07 input   59.86 | X-H torsion
[ 10167 10162 10161 10158 ] final   23.83 input  -65.29 | X-H torsion
[ 10718 10713 10712 10709 ] final  100.50 input   66.30 | X-H torsion
[ 10763 10752 10751 10750 ] final  132.36 input  -60.55 | X-H torsion
[ 11005 11000 10999 10996 ] final  -86.43 input  -57.11 | X-H torsion

> <Gold.Protein.ActiveResidues>
 VAL166  LYS551  ARG553  GLY616  TRP617  ASP618  TYR619  PRO620  LYS621  CYS622 
 ASP623  PHE694  ASN695  SER759  ASP760  ASP761  ALA762  ILE779  LEU786  VAL792 
 PHE793  MET794  SER795  GLU796  ALA797  LYS798  CYS799  TRP800  GLU811  SER814 

> <Gold.Protein.RotatedAtoms>
  150.8577  133.7690  159.3002 H   0  0  0  0  0  0  0  0  0  0  0  0  # atno 6907 bound_to 6896
  151.5342  135.1067  159.9920 H   0  0  0  0  0  0  0  0  0  0  0  0  # atno 6908 bound_to 6896
  152.4603  133.7764  159.6882 H   0  0  0  0  0  0  0  0  0  0  0  0  # atno 6909 bound_to 6896
  146.1282  140.5293  142.8705 H   0  0  0  0  0  0  0  0  0  0  0  0  # atno 7974 bound_to 7965
  155.1978  140.3313  155.4348 H   0  0  0  0  0  0  0  0  0  0  0  0  # atno 8008 bound_to 7997
  156.2418  140.1899  156.7016 H   0  0  0  0  0  0  0  0  0  0  0  0  # atno 8009 bound_to 7997
  154.6162  140.0602  156.9543 H   0  0  0  0  0  0  0  0  0  0  0  0  # atno 8010 bound_to 7997
  140.5237  143.9959  150.6429 H   0  0  0  0  0  0  0  0  0  0  0  0  # atno 10167 bound_to 10162
  157.6852  131.0700  150.5110 H   0  0  0  0  0  0  0  0  0  0  0  0  # atno 10718 bound_to 10713
  153.7895  135.3157  155.3376 H   0  0  0  0  0  0  0  0  0  0  0  0  # atno 10763 bound_to 10752
  154.8131  135.4654  154.0572 H   0  0  0  0  0  0  0  0  0  0  0  0  # atno 10764 bound_to 10752
  153.1886  135.6905  153.8468 H   0  0  0  0  0  0  0  0  0  0  0  0  # atno 10765 bound_to 10752
  141.1630  133.7454  156.9160 H   0  0  0  0  0  0  0  0  0  0  0  0  # atno 11005 bound_to 11000
  144.7664  140.5539  143.6700 LP  0  0  0  0  0  0  0  0  0  0  0  0  # atno 17320 bound_to 7965
  145.5319  139.1475  143.3495 LP  0  0  0  0  0  0  0  0  0  0  0  0  # atno 17321 bound_to 7965
  140.3315  143.3075  152.0682 LP  0  0  0  0  0  0  0  0  0  0  0  0  # atno 17342 bound_to 10162
  139.4931  144.6506  151.6684 LP  0  0  0  0  0  0  0  0  0  0  0  0  # atno 17343 bound_to 10162
  156.5427  130.4212  149.6146 LP  0  0  0  0  0  0  0  0  0  0  0  0  # atno 17370 bound_to 10713
  156.2971  130.7156  151.2019 LP  0  0  0  0  0  0  0  0  0  0  0  0  # atno 17371 bound_to 10713
  140.1484  134.9247  157.2560 LP  0  0  0  0  0  0  0  0  0  0  0  0  # atno 17394 bound_to 11000
  140.2752  134.3413  155.7360 LP  0  0  0  0  0  0  0  0  0  0  0  0  # atno 17395 bound_to 11000

$$$$
