AV-unprocessed.smi:3056|AV-procd|sdf|11660|dock2
  -GOLD-   2272017 63D 1   1.00000     0.00000
 Structure written by MMmdl.
 47 48  0  0  0  0  0  0  0  0  1 V2000
  146.1978  143.2233  153.1961 C   0  0  0  0  0  0  0  0  0  0  0  0
  146.8131  142.2526  154.1619 C   0  0  0  0  0  0  0  0  0  0  0  0
  146.4432  142.0166  155.5155 C   0  0  0  0  0  0  0  0  0  0  0  0
  147.1750  141.0778  156.0915 N   0  0  0  0  0  0  0  0  0  0  0  0
  148.0499  140.6897  155.1354 N   0  0  0  0  0  0  0  0  0  0  0  0
  149.0012  139.6092  155.3811 C   0  0  1  0  0  0  0  0  0  0  0  0
  149.8152  139.2460  154.1197 C   0  0  0  0  0  0  0  0  0  0  0  0
  149.8595  139.8985  156.6409 C   0  0  1  0  0  0  0  0  0  0  0  0
  150.1982  138.6271  157.4409 C   0  0  0  0  0  0  0  0  0  0  0  0
  151.0927  140.5942  156.2661 N   0  0  0  0  0  0  0  0  0  0  0  0
  151.3164  141.8705  156.9691 C   0  0  0  0  0  0  0  0  0  0  0  0
  151.9733  141.7415  158.3591 C   0  0  0  0  0  0  0  0  0  0  0  0
  152.0354  140.6310  158.8898 O   0  0  0  0  0  0  0  0  0  0  0  0
  152.4606  142.8514  158.9634 N   0  0  0  0  0  0  0  0  0  0  0  0
  152.2779  144.2024  158.4284 C   0  0  0  0  0  0  0  0  0  0  0  0
  151.3692  144.9762  159.4009 C   0  0  0  0  0  0  0  0  0  0  0  0
  151.9491  144.9837  160.7049 O   0  0  0  0  0  0  0  0  0  0  0  0
  152.1838  143.6785  161.2345 C   0  0  2  0  0  0  0  0  0  0  0  0
  152.7915  143.8295  162.6331 C   0  0  0  0  0  0  0  0  0  0  0  0
  153.1131  142.9109  160.2737 C   0  0  0  0  0  0  0  0  0  0  0  0
  147.8421  141.3778  153.9578 C   0  0  0  0  0  0  0  0  0  0  0  0
  145.9600  144.1726  153.6759 H   0  0  0  0  0  0  0  0  0  0  0  0
  145.2709  142.8341  152.7745 H   0  0  0  0  0  0  0  0  0  0  0  0
  146.8638  143.4434  152.3616 H   0  0  0  0  0  0  0  0  0  0  0  0
  145.6626  142.4913  156.0912 H   0  0  0  0  0  0  0  0  0  0  0  0
  148.3934  138.7324  155.6092 H   0  0  0  0  0  0  0  0  0  0  0  0
  150.3997  138.3390  154.2704 H   0  0  0  0  0  0  0  0  0  0  0  0
  150.5056  140.0401  153.8343 H   0  0  0  0  0  0  0  0  0  0  0  0
  149.1547  139.0626  153.2718 H   0  0  0  0  0  0  0  0  0  0  0  0
  149.2548  140.5353  157.2875 H   0  0  0  0  0  0  0  0  0  0  0  0
  149.2957  138.0600  157.6694 H   0  0  0  0  0  0  0  0  0  0  0  0
  150.6752  138.8651  158.3912 H   0  0  0  0  0  0  0  0  0  0  0  0
  150.8731  137.9703  156.8919 H   0  0  0  0  0  0  0  0  0  0  0  0
  151.1074  140.7284  155.2641 H   0  0  0  0  0  0  0  0  0  0  0  0
  151.9145  142.5193  156.3302 H   0  0  0  0  0  0  0  0  0  0  0  0
  150.3512  142.3596  157.1011 H   0  0  0  0  0  0  0  0  0  0  0  0
  153.2466  144.6962  158.3404 H   0  0  0  0  0  0  0  0  0  0  0  0
  151.8416  144.2110  157.4288 H   0  0  0  0  0  0  0  0  0  0  0  0
  151.2439  146.0052  159.0641 H   0  0  0  0  0  0  0  0  0  0  0  0
  150.3746  144.5289  159.4402 H   0  0  0  0  0  0  0  0  0  0  0  0
  151.2311  143.1527  161.3227 H   0  0  0  0  0  0  0  0  0  0  0  0
  152.9855  142.8557  163.0833 H   0  0  0  0  0  0  0  0  0  0  0  0
  152.1163  144.3723  163.2948 H   0  0  0  0  0  0  0  0  0  0  0  0
  153.7342  144.3760  162.5971 H   0  0  0  0  0  0  0  0  0  0  0  0
  153.3651  141.9341  160.6830 H   0  0  0  0  0  0  0  0  0  0  0  0
  154.0647  143.4356  160.1750 H   0  0  0  0  0  0  0  0  0  0  0  0
  148.4339  141.1829  153.0756 H   0  0  0  0  0  0  0  0  0  0  0  0
  1  2  1  0  0  0  0
  1 22  1  0  0  0  0
  1 23  1  0  0  0  0
  1 24  1  0  0  0  0
  2 21  2  0  0  0  0
  2  3  1  0  0  0  0
  3  4  2  0  0  0  0
  3 25  1  0  0  0  0
  4  5  1  0  0  0  0
  5  6  1  0  0  0  0
  5 21  1  0  0  0  0
  6  7  1  0  0  0  0
  6  8  1  0  0  0  0
  6 26  1  0  0  0  0
  7 27  1  0  0  0  0
  7 28  1  0  0  0  0
  7 29  1  0  0  0  0
  8  9  1  0  0  0  0
  8 10  1  0  0  0  0
  8 30  1  0  0  0  0
  9 31  1  0  0  0  0
  9 32  1  0  0  0  0
  9 33  1  0  0  0  0
 10 11  1  0  0  0  0
 10 34  1  0  0  0  0
 11 12  1  0  0  0  0
 11 35  1  0  0  0  0
 11 36  1  0  0  0  0
 12 13  2  0  0  0  0
 12 14  1  0  0  0  0
 14 20  1  0  0  0  0
 14 15  1  0  0  0  0
 15 16  1  0  0  0  0
 15 37  1  0  0  0  0
 15 38  1  0  0  0  0
 16 17  1  0  0  0  0
 16 39  1  0  0  0  0
 16 40  1  0  0  0  0
 17 18  1  0  0  0  0
 18 19  1  0  0  0  0
 18 20  1  0  0  0  0
 18 41  1  0  0  0  0
 19 42  1  0  0  0  0
 19 43  1  0  0  0  0
 19 44  1  0  0  0  0
 20 45  1  0  0  0  0
 20 46  1  0  0  0  0
 21 47  1  0  0  0  0
M  END
> <s_m_source_file>
AV-unprocessed.smi

> <i_m_source_file_index>
3056

> <i_lp_mmshare_version>
43012

> <i_f3d_flags>
0

> <s_epik_input>
W0NIM11jMVtjSF1ubihbY0hdMSlbQ0BIXShbQ0gzXSlbQ0BIXShbQ0gzXSlbTkhdW0NIMl1DKD1PKU4yW0NIMl1bQ0gyXU9bQ0BASF0oW0NIM10pW0NIMl0y

> <s_epik_cmdline>
J2VwaWtfcHl0aG9uJywgJy1waCcsICc3LjAnLCAnLXRuJywgJzgnLCAnLW1hJywgJzIwMCcsICctbWV0YWxfYmluZGluZycsICctaW1hZScsICc8aW5maWxlLm1hZT4nLCAnLW9tYWUnLCAnPG91dGZpbGUubWFlPic=

> <r_lp_tautomer_probability>
1

> <r_epik_Ionization_Penalty>
0.667689

> <r_epik_Ionization_Penalty_Charging>
0

> <r_epik_Ionization_Penalty_Neutral>
0.667689

> <r_epik_State_Penalty>
0.684601

> <r_epik_Charging_Adjusted_Penalty>
0.684601

> <i_epik_Tot_Q>
0

> <i_epik_Tot_abs_Q>
0

> <r_epik_Metal_State_Penalty>
0.681448

> <b_epik_Metal_Only>
0

> <s_lp_Force_Field>
OPLS_2005

> <r_lp_Energy>
31.287

> <b_lp_Chiralities_Consistent>
1

> <s_lp_Variant>
AV-unprocessed.smi:3056-16

> <Gold.Version>
5.8.1

> <Gold.Id.Protein>
6NUR|6NUR_protein|mol2

> <Gold.PLP.Fitness>
42.7315

> <Gold.PLP.PLP>
-43.0337

> <Gold.PLP.part.hbond>
0.0000

> <Gold.PLP.part.metal>
0.0000

> <Gold.PLP.part.buried>
-5.4511

> <Gold.PLP.part.nonpolar>
-36.7761

> <Gold.PLP.part.repulsive>
0.2323

> <Gold.PLP.ligand.clash>
0.0000

> <Gold.PLP.ligand.torsion>
1.7968

> <Gold.PLP.Chemscore.Hbond>
0.0000

> <Gold.PLP.Chemscore.CHOScore>
1.0000

> <Gold.PLP.Chemscore.Metal>
0.0000

> <Gold.Chemscore.Hbonds>
donor molecule, donor type, donor heavy atom, donor atom, acceptor molecule, acceptor atom, score
      L1  C    21    47       P1  7957  1.00

> <Gold.PLP.Chemscore.Internal.Correction>
0.2915

> <Gold.Rescore>
     Score         DG    S(hbond)    S(metal)    S(lipo)     H(rot)  DE(clash)    DE(int)     intcor
     12.06     -14.27       0.00        0.00     111.88       1.68       0.35       1.87       ----

> <Gold.Chemscore.Fitness>
12.0566

> <Gold.Chemscore.DG>
-14.2711

> <Gold.Chemscore.ZeroCoef>
-5.4800

> <Gold.Chemscore.Hbond>
0.0000

> <Gold.Chemscore.Metal>
0.0000

> <Gold.Chemscore.Lipo>
111.8815

> <Gold.Chemscore.Internal_Hbond>
0.0000

> <Gold.Chemscore.DEClash>
0.3487

> <Gold.Chemscore.DEInternal>
1.8658

> <Gold.Chemscore.Rot>
1.6793

> <Gold.Chemscore.Internal.Correction>
   9.000000E+99

> <Gold.Chemscore.Hbond.Weighted>
-0.0000

> <Gold.Chemscore.Metal.Weighted>
-0.0000

> <Gold.Chemscore.Lipo.Weighted>
-13.0901

> <Gold.Chemscore.Internal_Hbond.Weighted>
0.0000

> <Gold.Chemscore.DEClash.Weighted>
0.3487

> <Gold.Chemscore.DEInternal.Weighted>
1.8658

> <Gold.Chemscore.Rot.Weighted>
4.2990

> <Gold.Chemscore.Internal.Correction.Weighted>
   9.000000E+99

> <Gold.Protein.RotatedTorsions>
[ 6907 6896 6895 6894 ] final  142.81 input  -60.11 | X-H torsion
[ 7974 7965 7964 7962 ] final  144.42 input  175.53 | X-H torsion
[ 8008 7997 7996 7995 ] final -177.11 input   59.86 | X-H torsion
[ 10167 10162 10161 10158 ] final  109.32 input  -65.29 | X-H torsion
[ 10718 10713 10712 10709 ] final   93.82 input   66.30 | X-H torsion
[ 10763 10752 10751 10750 ] final   83.67 input  -60.55 | X-H torsion
[ 11005 11000 10999 10996 ] final -115.59 input  -57.11 | X-H torsion

> <Gold.Protein.ActiveResidues>
 VAL166  LYS551  ARG553  GLY616  TRP617  ASP618  TYR619  PRO620  LYS621  CYS622 
 ASP623  PHE694  ASN695  SER759  ASP760  ASP761  ALA762  ILE779  LEU786  VAL792 
 PHE793  MET794  SER795  GLU796  ALA797  LYS798  CYS799  TRP800  GLU811  SER814 

> <Gold.Protein.RotatedAtoms>
  152.2140  133.4933  159.5125 H   0  0  0  0  0  0  0  0  0  0  0  0  # atno 6907 bound_to 6896
  150.6997  134.1429  159.4121 H   0  0  0  0  0  0  0  0  0  0  0  0  # atno 6908 bound_to 6896
  151.9349  135.0239  160.0582 H   0  0  0  0  0  0  0  0  0  0  0  0  # atno 6909 bound_to 6896
  144.8837  139.5660  143.5831 H   0  0  0  0  0  0  0  0  0  0  0  0  # atno 7974 bound_to 7965
  156.0030  140.1224  157.0529 H   0  0  0  0  0  0  0  0  0  0  0  0  # atno 8008 bound_to 7997
  154.4249  140.1103  156.5792 H   0  0  0  0  0  0  0  0  0  0  0  0  # atno 8009 bound_to 7997
  155.6186  140.3472  155.4647 H   0  0  0  0  0  0  0  0  0  0  0  0  # atno 8010 bound_to 7997
  139.6776  144.7121  151.1574 H   0  0  0  0  0  0  0  0  0  0  0  0  # atno 10167 bound_to 10162
  157.6952  131.0491  150.4091 H   0  0  0  0  0  0  0  0  0  0  0  0  # atno 10718 bound_to 10713
  153.1312  135.4682  154.9352 H   0  0  0  0  0  0  0  0  0  0  0  0  # atno 10763 bound_to 10752
  154.7666  135.3146  154.8277 H   0  0  0  0  0  0  0  0  0  0  0  0  # atno 10764 bound_to 10752
  153.8819  135.6893  153.4820 H   0  0  0  0  0  0  0  0  0  0  0  0  # atno 10765 bound_to 10752
  141.0477  133.9736  157.2889 H   0  0  0  0  0  0  0  0  0  0  0  0  # atno 11005 bound_to 11000
  146.3011  139.7429  142.9090 LP  0  0  0  0  0  0  0  0  0  0  0  0  # atno 17320 bound_to 7965
  145.3907  141.0372  143.3125 LP  0  0  0  0  0  0  0  0  0  0  0  0  # atno 17321 bound_to 7965
  140.7641  143.5748  150.8957 LP  0  0  0  0  0  0  0  0  0  0  0  0  # atno 17342 bound_to 10162
  139.9418  143.6373  152.3052 LP  0  0  0  0  0  0  0  0  0  0  0  0  # atno 17343 bound_to 10162
  156.4477  130.4005  149.6656 LP  0  0  0  0  0  0  0  0  0  0  0  0  # atno 17370 bound_to 10713
  156.3816  130.7582  151.2575 LP  0  0  0  0  0  0  0  0  0  0  0  0  # atno 17371 bound_to 10713
  139.9325  135.0199  156.8448 LP  0  0  0  0  0  0  0  0  0  0  0  0  # atno 17394 bound_to 11000
  140.6114  134.0079  155.7578 LP  0  0  0  0  0  0  0  0  0  0  0  0  # atno 17395 bound_to 11000

$$$$
