AV-unprocessed.smi:1232|AV-procd|sdf|5170|dock7
  -GOLD-   22720 4243D 1   1.00000     0.00000
 Structure written by MMmdl.
 53 54  0  0  0  0  0  0  0  0  1 V2000
  149.6547  133.7650  154.0451 C   0  0  0  0  0  0  0  0  0  0  0  0
  148.5715  134.5123  154.8152 C   0  0  0  0  0  0  0  0  0  0  0  0
  148.1732  134.0720  155.8921 O   0  0  0  0  0  0  0  0  0  0  0  0
  148.1084  135.6357  154.2379 N   0  0  0  0  0  0  0  0  0  0  0  0
  147.1025  136.5824  154.7406 C   0  0  1  0  0  0  0  0  0  0  0  0
  147.5852  138.0369  154.5908 C   0  0  0  0  0  0  0  0  0  0  0  0
  147.0704  138.9372  155.2545 O   0  0  0  0  0  0  0  0  0  0  0  0
  148.5921  138.2508  153.7288 N   0  0  0  0  0  0  0  0  0  0  0  0
  149.1981  139.5503  153.4574 C   0  0  0  0  0  0  0  0  0  0  0  0
  149.8580  140.2032  154.6642 C   0  0  0  0  0  0  0  0  0  0  0  0
  150.9753  139.6329  155.3093 C   0  0  0  0  0  0  0  0  0  0  0  0
  151.5306  140.2894  156.4240 C   0  0  0  0  0  0  0  0  0  0  0  0
  150.9546  141.5029  156.8700 C   0  0  0  0  0  0  0  0  0  0  0  0
  151.4969  142.1824  157.9832 N   0  0  0  0  0  0  0  0  0  0  0  0
  151.7516  143.6160  157.8539 C   0  0  0  0  0  0  0  0  0  0  0  0
  152.0566  144.2326  159.2289 C   0  0  0  0  0  0  0  0  0  0  0  0
  153.1352  143.5323  159.8395 O   0  0  0  0  0  0  0  0  0  0  0  0
  152.8254  142.1596  160.0628 C   0  0  2  0  0  0  0  0  0  0  0  0
  154.0024  141.5156  160.8033 C   0  0  0  0  0  0  0  0  0  0  0  0
  152.5472  141.4736  158.7108 C   0  0  0  0  0  0  0  0  0  0  0  0
  149.8714  142.0393  156.2553 N   0  0  0  0  0  0  0  0  0  0  0  0
  149.3435  141.4063  155.1865 C   0  0  0  0  0  0  0  0  0  0  0  0
  145.6493  136.3024  154.2436 C   0  0  0  0  0  0  0  0  0  0  0  0
  145.1547  134.8886  154.6081 C   0  0  0  0  0  0  0  0  0  0  0  0
  145.5045  136.5120  152.7236 C   0  0  0  0  0  0  0  0  0  0  0  0
  149.3853  133.6711  152.9925 H   0  0  0  0  0  0  0  0  0  0  0  0
  149.7958  132.7626  154.4504 H   0  0  0  0  0  0  0  0  0  0  0  0
  150.6028  134.2991  154.1139 H   0  0  0  0  0  0  0  0  0  0  0  0
  148.5123  135.8751  153.3444 H   0  0  0  0  0  0  0  0  0  0  0  0
  147.0897  136.3861  155.8142 H   0  0  0  0  0  0  0  0  0  0  0  0
  148.9677  137.4572  153.2299 H   0  0  0  0  0  0  0  0  0  0  0  0
  149.9225  139.4531  152.6468 H   0  0  0  0  0  0  0  0  0  0  0  0
  148.4177  140.2187  153.0934 H   0  0  0  0  0  0  0  0  0  0  0  0
  151.4036  138.7036  154.9644 H   0  0  0  0  0  0  0  0  0  0  0  0
  152.3769  139.8483  156.9285 H   0  0  0  0  0  0  0  0  0  0  0  0
  152.5945  143.7737  157.1793 H   0  0  0  0  0  0  0  0  0  0  0  0
  150.8859  144.1172  157.4188 H   0  0  0  0  0  0  0  0  0  0  0  0
  152.3323  145.2810  159.1165 H   0  0  0  0  0  0  0  0  0  0  0  0
  151.1765  144.2021  159.8734 H   0  0  0  0  0  0  0  0  0  0  0  0
  151.9393  142.0921  160.6967 H   0  0  0  0  0  0  0  0  0  0  0  0
  153.8082  140.4626  161.0083 H   0  0  0  0  0  0  0  0  0  0  0  0
  154.1810  142.0123  161.7572 H   0  0  0  0  0  0  0  0  0  0  0  0
  154.9195  141.5794  160.2173 H   0  0  0  0  0  0  0  0  0  0  0  0
  152.2800  140.4336  158.8916 H   0  0  0  0  0  0  0  0  0  0  0  0
  153.4512  141.4659  158.1001 H   0  0  0  0  0  0  0  0  0  0  0  0
  148.4834  141.8782  154.7348 H   0  0  0  0  0  0  0  0  0  0  0  0
  144.9677  136.9953  154.7361 H   0  0  0  0  0  0  0  0  0  0  0  0
  145.8112  134.1209  154.1977 H   0  0  0  0  0  0  0  0  0  0  0  0
  144.1532  134.7110  154.2155 H   0  0  0  0  0  0  0  0  0  0  0  0
  145.0996  134.7417  155.6869 H   0  0  0  0  0  0  0  0  0  0  0  0
  146.1653  135.8458  152.1684 H   0  0  0  0  0  0  0  0  0  0  0  0
  145.7373  137.5341  152.4269 H   0  0  0  0  0  0  0  0  0  0  0  0
  144.4840  136.3125  152.3961 H   0  0  0  0  0  0  0  0  0  0  0  0
  1  2  1  0  0  0  0
  1 26  1  0  0  0  0
  1 27  1  0  0  0  0
  1 28  1  0  0  0  0
  2  3  2  0  0  0  0
  2  4  1  0  0  0  0
  4  5  1  0  0  0  0
  4 29  1  0  0  0  0
  5  6  1  0  0  0  0
  5 23  1  0  0  0  0
  5 30  1  0  0  0  0
  6  7  2  0  0  0  0
  6  8  1  0  0  0  0
  8  9  1  0  0  0  0
  8 31  1  0  0  0  0
  9 10  1  0  0  0  0
  9 32  1  0  0  0  0
  9 33  1  0  0  0  0
 10 22  1  0  0  0  0
 10 11  2  0  0  0  0
 11 12  1  0  0  0  0
 11 34  1  0  0  0  0
 12 13  2  0  0  0  0
 12 35  1  0  0  0  0
 13 14  1  0  0  0  0
 13 21  1  0  0  0  0
 14 20  1  0  0  0  0
 14 15  1  0  0  0  0
 15 16  1  0  0  0  0
 15 36  1  0  0  0  0
 15 37  1  0  0  0  0
 16 17  1  0  0  0  0
 16 38  1  0  0  0  0
 16 39  1  0  0  0  0
 17 18  1  0  0  0  0
 18 19  1  0  0  0  0
 18 20  1  0  0  0  0
 18 40  1  0  0  0  0
 19 41  1  0  0  0  0
 19 42  1  0  0  0  0
 19 43  1  0  0  0  0
 20 44  1  0  0  0  0
 20 45  1  0  0  0  0
 21 22  2  0  0  0  0
 22 46  1  0  0  0  0
 23 24  1  0  0  0  0
 23 25  1  0  0  0  0
 23 47  1  0  0  0  0
 24 48  1  0  0  0  0
 24 49  1  0  0  0  0
 24 50  1  0  0  0  0
 25 51  1  0  0  0  0
 25 52  1  0  0  0  0
 25 53  1  0  0  0  0
M  END
> <s_m_source_file>
AV-unprocessed.smi

> <i_m_source_file_index>
1232

> <i_lp_mmshare_version>
43012

> <i_f3d_flags>
0

> <s_epik_input>
W0NIM11DKD1PKVtOSF1bQ0BASF0oW0NIXShbQ0gzXSlbQ0gzXSlDKD1PKVtOSF1bQ0gyXWMxW2NIXVtjSF1jKG5bY0hdMSlOMltDSDJdW0NIMl1PW0NAQEhdKFtDSDNdKVtDSDJdMg==

> <s_epik_cmdline>
J2VwaWtfcHl0aG9uJywgJy1waCcsICc3LjAnLCAnLXRuJywgJzgnLCAnLW1hJywgJzIwMCcsICctbWV0YWxfYmluZGluZycsICctaW1hZScsICc8aW5maWxlLm1hZT4nLCAnLW9tYWUnLCAnPG91dGZpbGUubWFlPic=

> <r_lp_tautomer_probability>
1

> <r_epik_Ionization_Penalty>
0.00557618

> <r_epik_Ionization_Penalty_Charging>
0

> <r_epik_Ionization_Penalty_Neutral>
0.00557618

> <r_epik_State_Penalty>
0.00408363

> <r_epik_Charging_Adjusted_Penalty>
0.00408363

> <i_epik_Tot_Q>
0

> <i_epik_Tot_abs_Q>
0

> <r_epik_Metal_State_Penalty>
-0

> <b_epik_Metal_Only>
0

> <s_lp_Force_Field>
OPLS_2005

> <r_lp_Energy>
20.9167

> <b_lp_Chiralities_Consistent>
1

> <s_lp_Variant>
AV-unprocessed.smi:1232-4

> <Gold.Version>
5.8.1

> <Gold.Id.Protein>
6NUR|6NUR_protein|mol2

> <Gold.PLP.Fitness>
43.2861

> <Gold.PLP.PLP>
-38.1875

> <Gold.PLP.part.hbond>
-2.0285

> <Gold.PLP.part.metal>
0.0000

> <Gold.PLP.part.buried>
-0.8674

> <Gold.PLP.part.nonpolar>
-36.7010

> <Gold.PLP.part.repulsive>
1.2903

> <Gold.PLP.ligand.clash>
0.0000

> <Gold.PLP.ligand.torsion>
0.7877

> <Gold.PLP.Chemscore.Hbond>
2.0000

> <Gold.PLP.Chemscore.CHOScore>
0.0000

> <Gold.PLP.Chemscore.Metal>
0.0000

> <Gold.Chemscore.Hbonds>
donor molecule, donor type, donor heavy atom, donor atom, acceptor molecule, acceptor atom, score
      L1  H     4    29       P1  7948  1.00
      L1  H     8    31       P1  7948  1.00

> <Gold.PLP.Chemscore.Internal.Correction>
0.6741

> <Gold.Rescore>
     Score         DG    S(hbond)    S(metal)    S(lipo)     H(rot)  DE(clash)    DE(int)     intcor
     14.67     -19.35       2.00        0.00     108.09       2.13       3.53       1.15       ----

> <Gold.Chemscore.Fitness>
14.6690

> <Gold.Chemscore.DG>
-19.3492

> <Gold.Chemscore.ZeroCoef>
-5.4800

> <Gold.Chemscore.Hbond>
1.9998

> <Gold.Chemscore.Metal>
0.0000

> <Gold.Chemscore.Lipo>
108.0930

> <Gold.Chemscore.Internal_Hbond>
0.0000

> <Gold.Chemscore.DEClash>
3.5283

> <Gold.Chemscore.DEInternal>
1.1519

> <Gold.Chemscore.Rot>
2.1317

> <Gold.Chemscore.Internal.Correction>
   9.000000E+99

> <Gold.Chemscore.Hbonds>
donor molecule, donor type, donor heavy atom, donor atom, acceptor molecule, acceptor atom, score
      L1  H     4    29       P1  7948  0.97
      L1  H     8    31       P1  7948  0.97

> <Gold.Chemscore.Hbond.Weighted>
-6.6795

> <Gold.Chemscore.Metal.Weighted>
-0.0000

> <Gold.Chemscore.Lipo.Weighted>
-12.6469

> <Gold.Chemscore.Internal_Hbond.Weighted>
0.0000

> <Gold.Chemscore.DEClash.Weighted>
3.5283

> <Gold.Chemscore.DEInternal.Weighted>
1.1519

> <Gold.Chemscore.Rot.Weighted>
5.4572

> <Gold.Chemscore.Internal.Correction.Weighted>
   9.000000E+99

> <Gold.Protein.RotatedTorsions>
[ 6907 6896 6895 6894 ] final -157.85 input  -60.11 | X-H torsion
[ 7974 7965 7964 7962 ] final   62.19 input  175.53 | X-H torsion
[ 8008 7997 7996 7995 ] final -179.72 input   59.86 | X-H torsion
[ 10167 10162 10161 10158 ] final  175.46 input  -65.29 | X-H torsion
[ 10718 10713 10712 10709 ] final -116.74 input   66.30 | X-H torsion
[ 10763 10752 10751 10750 ] final  117.37 input  -60.55 | X-H torsion
[ 11005 11000 10999 10996 ] final  -78.88 input  -57.11 | X-H torsion

> <Gold.Protein.ActiveResidues>
 VAL166  LYS551  ARG553  GLY616  TRP617  ASP618  TYR619  PRO620  LYS621  CYS622 
 ASP623  PHE694  ASN695  SER759  ASP760  ASP761  ALA762  ILE779  LEU786  VAL792 
 PHE793  MET794  SER795  GLU796  ALA797  LYS798  CYS799  TRP800  GLU811  SER814 

> <Gold.Protein.RotatedAtoms>
  151.3091  133.4088  159.2645 H   0  0  0  0  0  0  0  0  0  0  0  0  # atno 6907 bound_to 6896
  151.0129  134.9411  159.8028 H   0  0  0  0  0  0  0  0  0  0  0  0  # atno 6908 bound_to 6896
  152.5305  134.3055  159.9147 H   0  0  0  0  0  0  0  0  0  0  0  0  # atno 6909 bound_to 6896
  145.8761  139.3411  143.0733 H   0  0  0  0  0  0  0  0  0  0  0  0  # atno 7974 bound_to 7965
  156.0337  140.1288  157.0230 H   0  0  0  0  0  0  0  0  0  0  0  0  # atno 8008 bound_to 7997
  154.4361  140.1044  156.6207 H   0  0  0  0  0  0  0  0  0  0  0  0  # atno 8009 bound_to 7997
  155.5769  140.3467  155.4532 H   0  0  0  0  0  0  0  0  0  0  0  0  # atno 8010 bound_to 7997
  139.5178  144.3028  152.0363 H   0  0  0  0  0  0  0  0  0  0  0  0  # atno 10167 bound_to 10162
  156.0985  130.6152  150.9075 H   0  0  0  0  0  0  0  0  0  0  0  0  # atno 10718 bound_to 10713
  153.5513  135.3539  155.2761 H   0  0  0  0  0  0  0  0  0  0  0  0  # atno 10763 bound_to 10752
  154.8706  135.4114  154.2933 H   0  0  0  0  0  0  0  0  0  0  0  0  # atno 10764 bound_to 10752
  153.3660  135.7062  153.6743 H   0  0  0  0  0  0  0  0  0  0  0  0  # atno 10765 bound_to 10752
  141.1666  133.7082  156.8039 H   0  0  0  0  0  0  0  0  0  0  0  0  # atno 11005 bound_to 11000
  145.9079  140.9200  143.0469 LP  0  0  0  0  0  0  0  0  0  0  0  0  # atno 17320 bound_to 7965
  144.6726  140.1120  143.7455 LP  0  0  0  0  0  0  0  0  0  0  0  0  # atno 17321 bound_to 7965
  140.2475  144.4204  150.6235 LP  0  0  0  0  0  0  0  0  0  0  0  0  # atno 17342 bound_to 10162
  140.6247  143.2180  151.6620 LP  0  0  0  0  0  0  0  0  0  0  0  0  # atno 17343 bound_to 10162
  157.6151  131.0934  150.8726 LP  0  0  0  0  0  0  0  0  0  0  0  0  # atno 17370 bound_to 10713
  156.8859  130.5195  149.5288 LP  0  0  0  0  0  0  0  0  0  0  0  0  # atno 17371 bound_to 10713
  140.2236  134.8738  157.3403 LP  0  0  0  0  0  0  0  0  0  0  0  0  # atno 17394 bound_to 11000
  140.1962  134.4310  155.7688 LP  0  0  0  0  0  0  0  0  0  0  0  0  # atno 17395 bound_to 11000

$$$$
