#       Name:                AV-unprocessed.smi:2881
#       Creating user name   scv26
#       Creation time:       Fri Mar 27 15:53:12 2020


#       File generated by GOLD software.
#

@<TRIPOS>MOLECULE
AV-unprocessed.smi:2881
    45    47     1
SMALL
NO_CHARGES


@<TRIPOS>ATOM
      1 ****        -3.3487   4.2432   0.6116 C.3            1 S1                 0.0000
      2 ****        -3.1121   2.8997   1.2129 C.2            1 S1                 0.0000
      3 ****        -2.7021   1.7207   0.6575 C.2            1 S1                 0.0000
      4 ****        -2.6619   0.8077   1.7537 C.2            1 S1                 0.0000
      5 ****        -2.2704  -0.6461   1.7378 C.3            1 S1                 0.0000
      6 ****        -0.7485  -0.7790   1.6749 C.2            1 S1                 0.0000
      7 ****        -0.1018  -0.9725   2.7041 O.2            1 S1                 0.0000
      8 ****        -0.1894  -0.6714   0.4601 N.am           1 S1                 0.0000
      9 ****         1.2444  -0.7336   0.1895 C.3            1 S1                 0.0000
     10 ****         1.8246  -2.1694   0.2417 C.3            1 S1                 0.0000
     11 ****         1.0148  -3.1401  -0.6448 C.3            1 S1                 0.0000
     12 ****         1.3640  -2.6667  -2.0681 C.3            1 S1                 0.0000
     13 ****         2.3456  -1.5070  -1.8106 C.3            1 S1                 0.0000
     14 ****         3.0954  -2.0120  -0.5828 C.3            1 S1                 0.0000
     15 ****         1.5649  -0.2888  -1.2609 C.3            1 S1                 0.0000
     16 ****         2.3557   1.0325  -1.3161 C.3            1 S1                 0.0000
     17 ****         2.5224   1.4500  -2.6546 O.3            1 S1                 0.0000
     18 ****        -3.0285   1.3755   2.8945 N.2            1 S1                 0.0000
     19 ****        -3.2978   2.6490   2.5526 N.pl3          1 S1                 0.0000
     20 ****        -3.6023   3.3274   3.2362 H              1 S1                 0.0000
     21 ****        -2.8920   4.3130  -0.3759 H              1 S1                 0.0000
     22 ****        -2.9230   5.0301   1.2349 H              1 S1                 0.0000
     23 ****        -4.4163   4.4355   0.5038 H              1 S1                 0.0000
     24 ****        -2.4594   1.5366  -0.3785 H              1 S1                 0.0000
     25 ****        -2.6410  -1.1618   2.6250 H              1 S1                 0.0000
     26 ****        -2.7161  -1.1508   0.8796 H              1 S1                 0.0000
     27 ****        -0.7972  -0.5165  -0.3309 H              1 S1                 0.0000
     28 ****         1.7756  -0.1007   0.9037 H              1 S1                 0.0000
     29 ****         1.9836  -2.5381   1.2555 H              1 S1                 0.0000
     30 ****         1.3537  -4.1658  -0.4943 H              1 S1                 0.0000
     31 ****        -0.0567  -3.1213  -0.4462 H              1 S1                 0.0000
     32 ****         1.8470  -3.4675  -2.6293 H              1 S1                 0.0000
     33 ****         0.4841  -2.3505  -2.6297 H              1 S1                 0.0000
     34 ****         2.9750  -1.2805  -2.6716 H              1 S1                 0.0000
     35 ****         3.7948  -1.2865  -0.1647 H              1 S1                 0.0000
     36 ****         3.6216  -2.9530  -0.7532 H              1 S1                 0.0000
     37 ****         0.6460  -0.1538  -1.8350 H              1 S1                 0.0000
     38 ****         1.8166   1.8142  -0.7798 H              1 S1                 0.0000
     39 ****         3.3333   0.9344  -0.8441 H              1 S1                 0.0000
     40 ****         3.0035   2.2635  -2.6585 H              1 S1                 0.0000
     41 ****        -0.5717  -1.0431   3.5840 LP             1 S1                 0.0000
     42 ****         0.8935  -1.0591   2.6604 LP             1 S1                 0.0000
     43 ****         1.6272   1.5858  -3.0793 LP             1 S1                 0.0000
     44 ****         3.0308   0.7553  -3.1635 LP             1 S1                 0.0000
     45 ****        -3.0906   0.9548   3.7996 LP             1 S1                 0.0000
@<TRIPOS>BOND
    1    1    2 1     
    2    1   21 1     
    3    1   22 1     
    4    1   23 1     
    5    2   19 1     
    6    2    3 2     
    7    3    4 1     
    8    3   24 1     
    9    4    5 1     
   10    4   18 2     
   11    5    6 1     
   12    5   25 1     
   13    5   26 1     
   14    6    7 2     
   15    6    8 am    
   16    8    9 1     
   17    8   27 1     
   18    9   15 1     
   19    9   10 1     
   20    9   28 1     
   21   10   14 1     
   22   10   11 1     
   23   10   29 1     
   24   11   12 1     
   25   11   30 1     
   26   11   31 1     
   27   12   13 1     
   28   12   32 1     
   29   12   33 1     
   30   13   14 1     
   31   13   15 1     
   32   13   34 1     
   33   14   35 1     
   34   14   36 1     
   35   15   16 1     
   36   15   37 1     
   37   16   17 1     
   38   16   38 1     
   39   16   39 1     
   40   17   40 1     
   41   18   19 1     
   42   19   20 1     
   43    7   41 1     
   44    7   42 1     
   45   17   43 1     
   46   17   44 1     
   47   18   45 1     
@<TRIPOS>SUBSTRUCTURE
      1 S1             1
@<TRIPOS>SET
LONE_PAIRS      STATIC     ATOMS    <user>   **** ""
5 41 42 43 44 45
DONOR_HYDROGENS      STATIC     ATOMS    <user>   **** ""
3 27 40 20
ATOM$BLUE        STATIC     ATOMS    COLORGROUP SYSTEM
5 41 42 43 44 45
ATOM$RED        STATIC     ATOMS    COLORGROUP SYSTEM
3 27 40 20
