AV-unprocessed.smi:3229|AV-procd|sdf|12327|dock1
  -GOLD-   2272018173D 1   1.00000     0.00000
 Structure written by MMmdl.
 35 36  0  0  0  0  0  0  0  0  1 V2000
  152.2301  145.1125  158.7629 C   0  0  0  0  0  0  0  0  0  0  0  0
  151.9947  144.3795  160.0882 C   0  0  0  0  0  0  0  0  0  0  0  0
  152.3440  142.9289  160.0299 C   0  0  0  0  0  0  0  0  0  0  0  0
  153.3001  142.2687  160.7613 C   0  0  0  0  0  0  0  0  0  0  0  0
  153.3875  140.9047  160.4763 N   0  0  0  0  0  0  0  0  0  0  0  0
  152.5198  140.5226  159.5354 C   0  0  0  0  0  0  0  0  0  0  0  0
  152.3767  139.1103  159.0650 C   0  0  0  0  0  0  0  0  0  0  0  0
  152.3653  138.9606  157.5308 C   0  0  0  0  0  0  0  0  0  0  0  0
  151.0939  139.3549  156.9321 N   0  0  0  0  0  0  0  0  0  0  0  0
  150.8909  139.5784  155.6244 C   0  0  0  0  0  0  0  0  0  0  0  0
  151.7860  139.4983  154.7826 O   0  0  0  0  0  0  0  0  0  0  0  0
  149.4547  139.9123  155.2006 C   0  0  2  0  0  0  0  0  0  0  0  0
  149.3024  141.2496  154.4687 C   0  0  0  0  0  0  0  0  0  0  0  0
  147.8696  141.6112  154.7887 C   0  0  0  0  0  0  0  0  0  0  0  0
  147.7410  141.1335  156.2312 C   0  0  0  0  0  0  0  0  0  0  0  0
  148.6139  140.0135  156.3512 O   0  0  0  0  0  0  0  0  0  0  0  0
  151.5116  141.8398  158.9492 S   0  0  0  0  0  0  0  0  0  0  0  0
  151.9520  146.1633  158.8461 H   0  0  0  0  0  0  0  0  0  0  0  0
  151.6367  144.6732  157.9603 H   0  0  0  0  0  0  0  0  0  0  0  0
  153.2787  145.0689  158.4678 H   0  0  0  0  0  0  0  0  0  0  0  0
  152.5774  144.8592  160.8751 H   0  0  0  0  0  0  0  0  0  0  0  0
  150.9491  144.4902  160.3777 H   0  0  0  0  0  0  0  0  0  0  0  0
  153.9602  142.6900  161.5051 H   0  0  0  0  0  0  0  0  0  0  0  0
  153.1932  138.5215  159.4835 H   0  0  0  0  0  0  0  0  0  0  0  0
  151.4589  138.6972  159.4854 H   0  0  0  0  0  0  0  0  0  0  0  0
  153.1399  139.5951  157.0997 H   0  0  0  0  0  0  0  0  0  0  0  0
  152.6136  137.9368  157.2472 H   0  0  0  0  0  0  0  0  0  0  0  0
  150.3015  139.4396  157.5525 H   0  0  0  0  0  0  0  0  0  0  0  0
  149.0713  139.1047  154.5750 H   0  0  0  0  0  0  0  0  0  0  0  0
  149.9773  142.0058  154.8737 H   0  0  0  0  0  0  0  0  0  0  0  0
  149.4836  141.1668  153.3965 H   0  0  0  0  0  0  0  0  0  0  0  0
  147.6561  142.6738  154.6693 H   0  0  0  0  0  0  0  0  0  0  0  0
  147.1904  141.0503  154.1452 H   0  0  0  0  0  0  0  0  0  0  0  0
  148.0794  141.9094  156.9190 H   0  0  0  0  0  0  0  0  0  0  0  0
  146.7159  140.8718  156.4943 H   0  0  0  0  0  0  0  0  0  0  0  0
  1  2  1  0  0  0  0
  1 18  1  0  0  0  0
  1 19  1  0  0  0  0
  1 20  1  0  0  0  0
  2  3  1  0  0  0  0
  2 21  1  0  0  0  0
  2 22  1  0  0  0  0
  3 17  1  0  0  0  0
  3  4  2  0  0  0  0
  4  5  1  0  0  0  0
  4 23  1  0  0  0  0
  5  6  2  0  0  0  0
  6  7  1  0  0  0  0
  6 17  1  0  0  0  0
  7  8  1  0  0  0  0
  7 24  1  0  0  0  0
  7 25  1  0  0  0  0
  8  9  1  0  0  0  0
  8 26  1  0  0  0  0
  8 27  1  0  0  0  0
  9 10  1  0  0  0  0
  9 28  1  0  0  0  0
 10 11  2  0  0  0  0
 10 12  1  0  0  0  0
 12 16  1  0  0  0  0
 12 13  1  0  0  0  0
 12 29  1  0  0  0  0
 13 14  1  0  0  0  0
 13 30  1  0  0  0  0
 13 31  1  0  0  0  0
 14 15  1  0  0  0  0
 14 32  1  0  0  0  0
 14 33  1  0  0  0  0
 15 16  1  0  0  0  0
 15 34  1  0  0  0  0
 15 35  1  0  0  0  0
M  END
> <s_m_source_file>
AV-unprocessed.smi

> <i_m_source_file_index>
3229

> <i_lp_mmshare_version>
43012

> <i_f3d_flags>
0

> <s_epik_input>
W0NIM11bQ0gyXWMxW2NIXW5jKHMxKVtDSDJdW0NIMl1bTkhdQyg9TylbQ0BASF0yW0NIMl1bQ0gyXVtDSDJdTzI=

> <s_epik_cmdline>
J2VwaWtfcHl0aG9uJywgJy1waCcsICc3LjAnLCAnLXRuJywgJzgnLCAnLW1hJywgJzIwMCcsICctbWV0YWxfYmluZGluZycsICctaW1hZScsICc8aW5maWxlLm1hZT4nLCAnLW9tYWUnLCAnPG91dGZpbGUubWFlPic=

> <r_epik_Ionization_Penalty>
0.000508191

> <r_epik_Ionization_Penalty_Charging>
0

> <r_epik_Ionization_Penalty_Neutral>
0.000508191

> <r_epik_State_Penalty>
0.000316483

> <r_epik_Charging_Adjusted_Penalty>
0.000316483

> <i_epik_Tot_Q>
0

> <i_epik_Tot_abs_Q>
0

> <r_epik_Metal_State_Penalty>
-0

> <b_epik_Metal_Only>
0

> <s_lp_Force_Field>
OPLS_2005

> <r_lp_Energy>
9.62318

> <b_lp_Chiralities_Consistent>
1

> <s_lp_Variant>
AV-unprocessed.smi:3229-1

> <Gold.Version>
5.8.1

> <Gold.Id.Protein>
6NUR|6NUR_protein|mol2

> <Gold.PLP.Fitness>
38.9222

> <Gold.PLP.PLP>
-36.4081

> <Gold.PLP.part.hbond>
-1.0000

> <Gold.PLP.part.metal>
0.0000

> <Gold.PLP.part.buried>
-3.4714

> <Gold.PLP.part.nonpolar>
-31.0491

> <Gold.PLP.part.repulsive>
0.1357

> <Gold.PLP.ligand.clash>
0.0000

> <Gold.PLP.ligand.torsion>
0.2722

> <Gold.PLP.Chemscore.Hbond>
1.0000

> <Gold.PLP.Chemscore.CHOScore>
0.0000

> <Gold.PLP.Chemscore.Metal>
0.0000

> <Gold.Chemscore.Hbonds>
donor molecule, donor type, donor heavy atom, donor atom, acceptor molecule, acceptor atom, score
      P1  H  7989  7998       L1    11  1.00

> <Gold.PLP.Chemscore.Internal.Correction>
0.0585

> <Gold.Rescore>
     Score         DG    S(hbond)    S(metal)    S(lipo)     H(rot)  DE(clash)    DE(int)     intcor
     15.75     -16.12       0.96        0.00      98.60       1.60       0.03       0.34       ----

> <Gold.Chemscore.Fitness>
15.7523

> <Gold.Chemscore.DG>
-16.1201

> <Gold.Chemscore.ZeroCoef>
-5.4800

> <Gold.Chemscore.Hbond>
0.9611

> <Gold.Chemscore.Metal>
0.0000

> <Gold.Chemscore.Lipo>
98.6003

> <Gold.Chemscore.Internal_Hbond>
0.0000

> <Gold.Chemscore.DEClash>
0.0308

> <Gold.Chemscore.DEInternal>
0.3370

> <Gold.Chemscore.Rot>
1.6040

> <Gold.Chemscore.Internal.Correction>
   9.000000E+99

> <Gold.Chemscore.Hbonds>
donor molecule, donor type, donor heavy atom, donor atom, acceptor molecule, acceptor atom, score
      P1  H  7989  7998       L1    11  0.79

> <Gold.Chemscore.Hbond.Weighted>
-3.2101

> <Gold.Chemscore.Metal.Weighted>
-0.0000

> <Gold.Chemscore.Lipo.Weighted>
-11.5362

> <Gold.Chemscore.Internal_Hbond.Weighted>
0.0000

> <Gold.Chemscore.DEClash.Weighted>
0.0308

> <Gold.Chemscore.DEInternal.Weighted>
0.3370

> <Gold.Chemscore.Rot.Weighted>
4.1062

> <Gold.Chemscore.Internal.Correction.Weighted>
   9.000000E+99

> <Gold.Protein.RotatedTorsions>
[ 6907 6896 6895 6894 ] final  -96.57 input  -60.11 | X-H torsion
[ 7974 7965 7964 7962 ] final   41.79 input  175.53 | X-H torsion
[ 8008 7997 7996 7995 ] final   34.19 input   59.86 | X-H torsion
[ 10167 10162 10161 10158 ] final  -40.81 input  -65.29 | X-H torsion
[ 10718 10713 10712 10709 ] final -161.00 input   66.30 | X-H torsion
[ 10763 10752 10751 10750 ] final  -84.09 input  -60.55 | X-H torsion
[ 11005 11000 10999 10996 ] final   -7.67 input  -57.11 | X-H torsion

> <Gold.Protein.ActiveResidues>
 VAL166  LYS551  ARG553  GLY616  TRP617  ASP618  TYR619  PRO620  LYS621  CYS622 
 ASP623  PHE694  ASN695  SER759  ASP760  ASP761  ALA762  ILE779  LEU786  VAL792 
 PHE793  MET794  SER795  GLU796  ALA797  LYS798  CYS799  TRP800  GLU811  SER814 

> <Gold.Protein.RotatedAtoms>
  150.6992  134.1483  159.4130 H   0  0  0  0  0  0  0  0  0  0  0  0  # atno 6907 bound_to 6896
  151.9466  135.0186  160.0548 H   0  0  0  0  0  0  0  0  0  0  0  0  # atno 6908 bound_to 6896
  152.2047  133.4832  159.5114 H   0  0  0  0  0  0  0  0  0  0  0  0  # atno 6909 bound_to 6896
  146.0794  139.5374  142.9547 H   0  0  0  0  0  0  0  0  0  0  0  0  # atno 7974 bound_to 7965
  155.1507  140.3274  155.4432 H   0  0  0  0  0  0  0  0  0  0  0  0  # atno 8008 bound_to 7997
  156.2575  140.1977  156.6569 H   0  0  0  0  0  0  0  0  0  0  0  0  # atno 8009 bound_to 7997
  154.6475  140.0562  156.9903 H   0  0  0  0  0  0  0  0  0  0  0  0  # atno 8010 bound_to 7997
  140.7022  143.3131  151.2977 H   0  0  0  0  0  0  0  0  0  0  0  0  # atno 10167 bound_to 10162
  156.5901  130.8766  151.2887 H   0  0  0  0  0  0  0  0  0  0  0  0  # atno 10718 bound_to 10713
  154.5954  135.5533  153.7321 H   0  0  0  0  0  0  0  0  0  0  0  0  # atno 10763 bound_to 10752
  153.0133  135.6353  154.1789 H   0  0  0  0  0  0  0  0  0  0  0  0  # atno 10764 bound_to 10752
  154.1730  135.2891  155.3055 H   0  0  0  0  0  0  0  0  0  0  0  0  # atno 10765 bound_to 10752
  140.7153  133.8874  155.8780 H   0  0  0  0  0  0  0  0  0  0  0  0  # atno 11005 bound_to 11000
  145.6246  141.0316  143.1896 LP  0  0  0  0  0  0  0  0  0  0  0  0  # atno 17320 bound_to 7965
  144.7283  139.7805  143.7357 LP  0  0  0  0  0  0  0  0  0  0  0  0  # atno 17321 bound_to 7965
  139.6561  144.0274  152.2660 LP  0  0  0  0  0  0  0  0  0  0  0  0  # atno 17342 bound_to 10162
  139.9826  144.6417  150.7886 LP  0  0  0  0  0  0  0  0  0  0  0  0  # atno 17343 bound_to 10162
  157.7305  130.9687  150.1839 LP  0  0  0  0  0  0  0  0  0  0  0  0  # atno 17370 bound_to 10713
  156.2557  130.3705  149.8184 LP  0  0  0  0  0  0  0  0  0  0  0  0  # atno 17371 bound_to 10713
  141.0050  134.1098  157.4279 LP  0  0  0  0  0  0  0  0  0  0  0  0  # atno 17394 bound_to 11000
  139.8861  135.0079  156.6480 LP  0  0  0  0  0  0  0  0  0  0  0  0  # atno 17395 bound_to 11000

$$$$
