AV-unprocessed.smi:2597|AV-procd|sdf|10170|dock8
  -GOLD-   2272014183D 1   1.00000     0.00000
 Structure written by MMmdl.
 31 32  0  0  0  0  0  0  0  0  2 V2000
  147.4373  133.8010  152.3604 N   0  3  0  0  0  0  0  0  0  0  0  0
  146.4841  133.1501  151.4417 C   0  0  1  0  0  0  0  0  0  0  0  0
  145.8590  131.8974  152.0890 C   0  0  0  0  0  0  0  0  0  0  0  0
  144.8699  131.2109  151.1337 C   0  0  0  0  0  0  0  0  0  0  0  0
  143.7786  132.1803  150.6535 C   0  0  0  0  0  0  0  0  0  0  0  0
  144.3873  133.4392  150.0077 C   0  0  0  0  0  0  0  0  0  0  0  0
  145.4288  134.1533  150.9008 C   0  0  1  0  0  0  0  0  0  0  0  0
  144.8116  134.9865  151.9342 N   0  0  0  0  0  0  0  0  0  0  0  0
  143.9246  136.0286  151.7494 C   0  0  0  0  0  0  0  0  0  0  0  0
  143.6773  136.4752  153.0163 C   0  0  0  0  0  0  0  0  0  0  0  0
  142.7986  137.5993  153.4729 C   0  0  0  0  0  0  0  0  0  0  0  0
  143.6428  138.5493  154.0866 O   0  0  0  0  0  0  0  0  0  0  0  0
  144.4066  135.6962  153.9112 N   0  0  0  0  0  0  0  0  0  0  0  0
  145.0777  134.8065  153.2522 N   0  0  0  0  0  0  0  0  0  0  0  0
  147.0741  132.8094  150.5897 H   0  0  0  0  0  0  0  0  0  0  0  0
  145.9633  134.8484  150.2511 H   0  0  0  0  0  0  0  0  0  0  0  0
  146.9590  134.0617  153.2112 H   0  0  0  0  0  0  0  0  0  0  0  0
  147.8171  134.6284  151.9231 H   0  0  0  0  0  0  0  0  0  0  0  0
  146.6448  131.1909  152.3589 H   0  0  0  0  0  0  0  0  0  0  0  0
  145.3549  132.1510  153.0210 H   0  0  0  0  0  0  0  0  0  0  0  0
  145.4104  130.8181  150.2716 H   0  0  0  0  0  0  0  0  0  0  0  0
  144.4123  130.3527  151.6266 H   0  0  0  0  0  0  0  0  0  0  0  0
  143.1345  131.6765  149.9322 H   0  0  0  0  0  0  0  0  0  0  0  0
  143.1325  132.4525  151.4872 H   0  0  0  0  0  0  0  0  0  0  0  0
  144.8736  133.1443  149.0767 H   0  0  0  0  0  0  0  0  0  0  0  0
  143.5953  134.1329  149.7226 H   0  0  0  0  0  0  0  0  0  0  0  0
  143.5668  136.3523  150.7830 H   0  0  0  0  0  0  0  0  0  0  0  0
  142.2773  138.0594  152.6335 H   0  0  0  0  0  0  0  0  0  0  0  0
  142.0474  137.2613  154.1875 H   0  0  0  0  0  0  0  0  0  0  0  0
  143.7108  139.3010  153.5178 H   0  0  0  0  0  0  0  0  0  0  0  0
  148.1876  133.1611  152.5791 H   0  0  0  0  0  0  0  0  0  0  0  0
  1  2  1  0  0  0  0
  1 17  1  0  0  0  0
  1 18  1  0  0  0  0
  1 31  1  0  0  0  0
  2 15  1  0  0  0  0
  2  7  1  0  0  0  0
  2  3  1  0  0  0  0
  3  4  1  0  0  0  0
  3 19  1  0  0  0  0
  3 20  1  0  0  0  0
  4  5  1  0  0  0  0
  4 21  1  0  0  0  0
  4 22  1  0  0  0  0
  5  6  1  0  0  0  0
  5 23  1  0  0  0  0
  5 24  1  0  0  0  0
  6  7  1  0  0  0  0
  6 25  1  0  0  0  0
  6 26  1  0  0  0  0
  7 16  1  0  0  0  0
  7  8  1  0  0  0  0
  8 14  1  0  0  0  0
  8  9  1  0  0  0  0
  9 10  2  0  0  0  0
  9 27  1  0  0  0  0
 10 11  1  0  0  0  0
 10 13  1  0  0  0  0
 11 12  1  0  0  0  0
 11 28  1  0  0  0  0
 11 29  1  0  0  0  0
 12 30  1  0  0  0  0
 13 14  2  0  0  0  0
M  CHG  1   1   1
M  END
> <s_m_source_file>
AV-unprocessed.smi

> <i_m_source_file_index>
2597

> <i_lp_mmshare_version>
43012

> <i_f3d_flags>
0

> <s_epik_input>
W05IMl1bQ0BIXTFbQ0gyXVtDSDJdW0NIMl1bQ0gyXVtDQEhdMW4yW2NIXWMobm4yKVtDSDJdW09IXQ==

> <s_epik_cmdline>
J2VwaWtfcHl0aG9uJywgJy1waCcsICc3LjAnLCAnLXRuJywgJzgnLCAnLW1hJywgJzIwMCcsICctbWV0YWxfYmluZGluZycsICctaW1hZScsICc8aW5maWxlLm1hZT4nLCAnLW9tYWUnLCAnPG91dGZpbGUubWFlPic=

> <r_lp_tautomer_probability>
1

> <r_epik_Ionization_Penalty>
0.014346

> <r_epik_Ionization_Penalty_Charging>
0.014316

> <r_epik_Ionization_Penalty_Neutral>
3.00097e-05

> <r_epik_State_Penalty>
0.0111909

> <r_epik_Charging_Adjusted_Penalty>
0.0255069

> <i_epik_Tot_Q>
1

> <i_epik_Tot_abs_Q>
1

> <r_epik_Metal_State_Penalty>
0.011192

> <b_epik_Metal_Only>
0

> <s_lp_Force_Field>
OPLS_2005

> <r_lp_Energy>
16.1833

> <b_lp_Chiralities_Consistent>
1

> <s_lp_Variant>
AV-unprocessed.smi:2597-1

> <Gold.Version>
5.8.1

> <Gold.Id.Protein>
6NUR|6NUR_protein|mol2

> <Gold.PLP.Fitness>
37.2694

> <Gold.PLP.PLP>
-25.6841

> <Gold.PLP.part.hbond>
-1.9302

> <Gold.PLP.part.metal>
0.0000

> <Gold.PLP.part.buried>
-3.7307

> <Gold.PLP.part.nonpolar>
-19.1725

> <Gold.PLP.part.repulsive>
0.1268

> <Gold.PLP.ligand.clash>
0.0000

> <Gold.PLP.ligand.torsion>
0.0446

> <Gold.PLP.Chemscore.Hbond>
3.0000

> <Gold.PLP.Chemscore.CHOScore>
0.8698

> <Gold.PLP.Chemscore.Metal>
0.0000

> <Gold.Chemscore.Hbonds>
donor molecule, donor type, donor heavy atom, donor atom, acceptor molecule, acceptor atom, score
      L1  H     1    18       P1  7948  2.00
      L1  H    12    30       P1 10175  1.00
      L1  C     9    27       P1 10171  0.94

> <Gold.PLP.Chemscore.Internal.Correction>
0.0650

> <Gold.Rescore>
     Score         DG    S(hbond)    S(metal)    S(lipo)     H(rot)  DE(clash)    DE(int)     intcor
     11.81     -13.42       1.95        0.00      52.74       1.86       0.07       1.54       ----

> <Gold.Chemscore.Fitness>
11.8127

> <Gold.Chemscore.DG>
-13.4219

> <Gold.Chemscore.ZeroCoef>
-5.4800

> <Gold.Chemscore.Hbond>
1.9522

> <Gold.Chemscore.Metal>
0.0000

> <Gold.Chemscore.Lipo>
52.7383

> <Gold.Chemscore.Internal_Hbond>
0.0000

> <Gold.Chemscore.DEClash>
0.0650

> <Gold.Chemscore.DEInternal>
1.5442

> <Gold.Chemscore.Rot>
1.8551

> <Gold.Chemscore.Internal.Correction>
   9.000000E+99

> <Gold.Chemscore.Hbonds>
donor molecule, donor type, donor heavy atom, donor atom, acceptor molecule, acceptor atom, score
      L1  H     1    18       P1  7948  0.29
      L1  H    12    30       P1 10175  0.94

> <Gold.Chemscore.Hbond.Weighted>
-6.5205

> <Gold.Chemscore.Metal.Weighted>
-0.0000

> <Gold.Chemscore.Lipo.Weighted>
-6.1704

> <Gold.Chemscore.Internal_Hbond.Weighted>
0.0000

> <Gold.Chemscore.DEClash.Weighted>
0.0650

> <Gold.Chemscore.DEInternal.Weighted>
1.5442

> <Gold.Chemscore.Rot.Weighted>
4.7489

> <Gold.Chemscore.Internal.Correction.Weighted>
   9.000000E+99

> <Gold.Protein.RotatedTorsions>
[ 6907 6896 6895 6894 ] final -165.35 input  -60.11 | X-H torsion
[ 7974 7965 7964 7962 ] final -142.11 input  175.53 | X-H torsion
[ 8008 7997 7996 7995 ] final -126.13 input   59.86 | X-H torsion
[ 10167 10162 10161 10158 ] final -105.83 input  -65.29 | X-H torsion
[ 10718 10713 10712 10709 ] final  -22.08 input   66.30 | X-H torsion
[ 10763 10752 10751 10750 ] final   63.84 input  -60.55 | X-H torsion
[ 11005 11000 10999 10996 ] final   86.25 input  -57.11 | X-H torsion

> <Gold.Protein.ActiveResidues>
 VAL166  LYS551  ARG553  GLY616  TRP617  ASP618  TYR619  PRO620  LYS621  CYS622 
 ASP623  PHE694  ASN695  SER759  ASP760  ASP761  ALA762  ILE779  LEU786  VAL792 
 PHE793  MET794  SER795  GLU796  ALA797  LYS798  CYS799  TRP800  GLU811  SER814 

> <Gold.Protein.RotatedAtoms>
  151.4262  133.3683  159.2762 H   0  0  0  0  0  0  0  0  0  0  0  0  # atno 6907 bound_to 6896
  150.9257  134.8676  159.7529 H   0  0  0  0  0  0  0  0  0  0  0  0  # atno 6908 bound_to 6896
  152.5004  134.4203  159.9530 H   0  0  0  0  0  0  0  0  0  0  0  0  # atno 6909 bound_to 6896
  144.8468  140.5997  143.5416 H   0  0  0  0  0  0  0  0  0  0  0  0  # atno 7974 bound_to 7965
  155.2246  140.0423  157.2953 H   0  0  0  0  0  0  0  0  0  0  0  0  # atno 8008 bound_to 7997
  154.5927  140.2431  155.7869 H   0  0  0  0  0  0  0  0  0  0  0  0  # atno 8009 bound_to 7997
  156.2270  140.2951  156.0100 H   0  0  0  0  0  0  0  0  0  0  0  0  # atno 8010 bound_to 7997
  140.1943  143.3867  152.1181 H   0  0  0  0  0  0  0  0  0  0  0  0  # atno 10167 bound_to 10162
  156.5094  130.4606  149.6656 H   0  0  0  0  0  0  0  0  0  0  0  0  # atno 10718 bound_to 10713
  153.0033  135.5414  154.6415 H   0  0  0  0  0  0  0  0  0  0  0  0  # atno 10763 bound_to 10752
  154.5669  135.2838  155.0867 H   0  0  0  0  0  0  0  0  0  0  0  0  # atno 10764 bound_to 10752
  154.2048  135.6477  153.5150 H   0  0  0  0  0  0  0  0  0  0  0  0  # atno 10765 bound_to 10752
  139.8949  134.8343  156.2695 H   0  0  0  0  0  0  0  0  0  0  0  0  # atno 11005 bound_to 11000
  145.4581  139.1516  143.3881 LP  0  0  0  0  0  0  0  0  0  0  0  0  # atno 17320 bound_to 7965
  146.2751  140.4710  142.8799 LP  0  0  0  0  0  0  0  0  0  0  0  0  # atno 17321 bound_to 7965
  139.5243  144.7082  151.5289 LP  0  0  0  0  0  0  0  0  0  0  0  0  # atno 17342 bound_to 10162
  140.6434  143.8843  150.6714 LP  0  0  0  0  0  0  0  0  0  0  0  0  # atno 17343 bound_to 10162
  156.3255  130.7303  151.2223 LP  0  0  0  0  0  0  0  0  0  0  0  0  # atno 17370 bound_to 10713
  157.7452  131.0444  150.4791 LP  0  0  0  0  0  0  0  0  0  0  0  0  # atno 17371 bound_to 10713
  141.0110  133.7096  156.1111 LP  0  0  0  0  0  0  0  0  0  0  0  0  # atno 17394 bound_to 11000
  140.7367  134.4195  157.5559 LP  0  0  0  0  0  0  0  0  0  0  0  0  # atno 17395 bound_to 11000

$$$$
