AV-unprocessed.smi:2150|AV-procd|sdf|8756|dock4
  -GOLD-   2272011533D 1   1.00000     0.00000
 Structure written by MMmdl.
 35 36  0  0  0  0  0  0  0  0  1 V2000
  151.4716  140.8550  155.5399 O   0  0  0  0  0  0  0  0  0  0  0  0
  150.3512  140.7128  156.0314 C   0  0  0  0  0  0  0  0  0  0  0  0
  149.2068  140.1042  155.2095 C   0  0  0  0  0  0  0  0  0  0  0  0
  148.0548  141.0101  155.0739 N   0  0  0  0  0  0  0  0  0  0  0  0
  147.7701  141.5144  153.7937 C   0  0  0  0  0  0  0  0  0  0  0  0
  146.7440  142.3546  153.5976 C   0  0  0  0  0  0  0  0  0  0  0  0
  145.9531  142.7071  154.7840 C   0  0  0  0  0  0  0  0  0  0  0  0
  146.2107  142.2505  155.9524 N   0  0  0  0  0  0  0  0  0  0  0  0
  147.2904  141.3704  156.1563 C   0  0  0  0  0  0  0  0  0  0  0  0
  147.5476  140.9322  157.2779 O   0  0  0  0  0  0  0  0  0  0  0  0
  150.0534  141.0565  157.2945 N   0  0  0  0  0  0  0  0  0  0  0  0
  150.9748  141.6937  158.2380 C   0  0  2  0  0  0  0  0  0  0  0  0
  151.3106  143.1005  157.6918 C   0  0  0  0  0  0  0  0  0  0  0  0
  151.8056  144.0810  158.7696 C   0  0  0  0  0  0  0  0  0  0  0  0
  153.1455  143.7082  159.4228 C   0  0  0  0  0  0  0  0  0  0  0  0
  153.1129  142.3726  160.1856 C   0  0  0  0  0  0  0  0  0  0  0  0
  153.1844  141.2277  159.2874 N   0  0  0  0  0  0  0  0  0  0  0  0
  152.2801  140.8725  158.3626 C   0  0  0  0  0  0  0  0  0  0  0  0
  152.4920  139.9110  157.6235 O   0  0  0  0  0  0  0  0  0  0  0  0
  149.6006  139.8335  154.2288 H   0  0  0  0  0  0  0  0  0  0  0  0
  148.8880  139.1628  155.6615 H   0  0  0  0  0  0  0  0  0  0  0  0
  148.4306  141.1858  153.0044 H   0  0  0  0  0  0  0  0  0  0  0  0
  146.4729  142.7809  152.6432 H   0  0  0  0  0  0  0  0  0  0  0  0
  145.1211  143.3924  154.6039 H   0  0  0  0  0  0  0  0  0  0  0  0
  149.1082  140.9052  157.6150 H   0  0  0  0  0  0  0  0  0  0  0  0
  150.4885  141.7756  159.2118 H   0  0  0  0  0  0  0  0  0  0  0  0
  152.0319  143.0417  156.8746 H   0  0  0  0  0  0  0  0  0  0  0  0
  150.4107  143.5358  157.2542 H   0  0  0  0  0  0  0  0  0  0  0  0
  151.9042  145.0692  158.3196 H   0  0  0  0  0  0  0  0  0  0  0  0
  151.0431  144.1835  159.5426 H   0  0  0  0  0  0  0  0  0  0  0  0
  153.9394  143.6954  158.6746 H   0  0  0  0  0  0  0  0  0  0  0  0
  153.4104  144.4993  160.1250 H   0  0  0  0  0  0  0  0  0  0  0  0
  153.9781  142.3161  160.8464 H   0  0  0  0  0  0  0  0  0  0  0  0
  152.2329  142.3035  160.8266 H   0  0  0  0  0  0  0  0  0  0  0  0
  154.0198  140.6637  159.3506 H   0  0  0  0  0  0  0  0  0  0  0  0
  1  2  2  0  0  0  0
  2  3  1  0  0  0  0
  2 11  1  0  0  0  0
  3  4  1  0  0  0  0
  3 20  1  0  0  0  0
  3 21  1  0  0  0  0
  4  9  1  0  0  0  0
  4  5  1  0  0  0  0
  5  6  2  0  0  0  0
  5 22  1  0  0  0  0
  6  7  1  0  0  0  0
  6 23  1  0  0  0  0
  7  8  2  0  0  0  0
  7 24  1  0  0  0  0
  8  9  1  0  0  0  0
  9 10  2  0  0  0  0
 11 12  1  0  0  0  0
 11 25  1  0  0  0  0
 12 18  1  0  0  0  0
 12 13  1  0  0  0  0
 12 26  1  0  0  0  0
 13 14  1  0  0  0  0
 13 27  1  0  0  0  0
 13 28  1  0  0  0  0
 14 15  1  0  0  0  0
 14 29  1  0  0  0  0
 14 30  1  0  0  0  0
 15 16  1  0  0  0  0
 15 31  1  0  0  0  0
 15 32  1  0  0  0  0
 16 17  1  0  0  0  0
 16 33  1  0  0  0  0
 16 34  1  0  0  0  0
 17 18  1  0  0  0  0
 17 35  1  0  0  0  0
 18 19  2  0  0  0  0
M  END
> <s_m_source_file>
AV-unprocessed.smi

> <i_m_source_file_index>
2150

> <i_lp_mmshare_version>
43012

> <i_f3d_flags>
0

> <s_epik_input>
Tz1jMW5bY0hdW2NIXVtjSF1uMVtDSDJdQyg9TylbTkhdW0NAQEhdMltDSDJdW0NIMl1bQ0gyXVtDSDJdW05IXUMyPU8=

> <s_epik_cmdline>
J2VwaWtfcHl0aG9uJywgJy1waCcsICc3LjAnLCAnLXRuJywgJzgnLCAnLW1hJywgJzIwMCcsICctbWV0YWxfYmluZGluZycsICctaW1hZScsICc8aW5maWxlLm1hZT4nLCAnLW9tYWUnLCAnPG91dGZpbGUubWFlPic=

> <r_lp_tautomer_probability>
1

> <r_epik_Ionization_Penalty>
6.25431e-06

> <r_epik_Ionization_Penalty_Charging>
1.47848e-08

> <r_epik_Ionization_Penalty_Neutral>
6.23953e-06

> <r_epik_State_Penalty>
-0

> <r_epik_Charging_Adjusted_Penalty>
1.47848e-08

> <i_epik_Tot_Q>
0

> <i_epik_Tot_abs_Q>
0

> <r_epik_Metal_State_Penalty>
-0

> <b_epik_Metal_Only>
0

> <s_lp_Force_Field>
OPLS_2005

> <r_lp_Energy>
13.567

> <b_lp_Chiralities_Consistent>
1

> <s_lp_Variant>
AV-unprocessed.smi:2150-1

> <Gold.Version>
5.8.1

> <Gold.Id.Protein>
6NUR|6NUR_protein|mol2

> <Gold.PLP.Fitness>
41.7776

> <Gold.PLP.PLP>
-33.9906

> <Gold.PLP.part.hbond>
-2.0000

> <Gold.PLP.part.metal>
0.0000

> <Gold.PLP.part.buried>
-4.0480

> <Gold.PLP.part.nonpolar>
-27.7491

> <Gold.PLP.part.repulsive>
0.3094

> <Gold.PLP.ligand.clash>
0.0000

> <Gold.PLP.ligand.torsion>
0.0790

> <Gold.PLP.Chemscore.Hbond>
1.6473

> <Gold.PLP.Chemscore.CHOScore>
1.0000

> <Gold.PLP.Chemscore.Metal>
0.0000

> <Gold.Chemscore.Hbonds>
donor molecule, donor type, donor heavy atom, donor atom, acceptor molecule, acceptor atom, score
      P1  H  7989  7998       L1     1  0.65
      P1  H  7997  8009       L1    19  0.80
      L1  C     5    22       P1  7957  1.00

> <Gold.PLP.Chemscore.Internal.Correction>
0.0032

> <Gold.Rescore>
     Score         DG    S(hbond)    S(metal)    S(lipo)     H(rot)  DE(clash)    DE(int)     intcor
     11.07     -15.76       1.54        0.00      80.91       1.69       0.15       4.55       ----

> <Gold.Chemscore.Fitness>
11.0712

> <Gold.Chemscore.DG>
-15.7632

> <Gold.Chemscore.ZeroCoef>
-5.4800

> <Gold.Chemscore.Hbond>
1.5436

> <Gold.Chemscore.Metal>
0.0000

> <Gold.Chemscore.Lipo>
80.9052

> <Gold.Chemscore.Internal_Hbond>
0.0000

> <Gold.Chemscore.DEClash>
0.1453

> <Gold.Chemscore.DEInternal>
4.5466

> <Gold.Chemscore.Rot>
1.6947

> <Gold.Chemscore.Internal.Correction>
   9.000000E+99

> <Gold.Chemscore.Hbonds>
donor molecule, donor type, donor heavy atom, donor atom, acceptor molecule, acceptor atom, score
      P1  H  7989  7998       L1     1  0.59
      P1  H  7997  8009       L1    19  0.58

> <Gold.Chemscore.Hbond.Weighted>
-5.1558

> <Gold.Chemscore.Metal.Weighted>
-0.0000

> <Gold.Chemscore.Lipo.Weighted>
-9.4659

> <Gold.Chemscore.Internal_Hbond.Weighted>
0.0000

> <Gold.Chemscore.DEClash.Weighted>
0.1453

> <Gold.Chemscore.DEInternal.Weighted>
4.5466

> <Gold.Chemscore.Rot.Weighted>
4.3385

> <Gold.Chemscore.Internal.Correction.Weighted>
   9.000000E+99

> <Gold.Protein.RotatedTorsions>
[ 6907 6896 6895 6894 ] final -154.23 input  -60.11 | X-H torsion
[ 7974 7965 7964 7962 ] final -158.07 input  175.53 | X-H torsion
[ 8008 7997 7996 7995 ] final  174.11 input   59.86 | X-H torsion
[ 10167 10162 10161 10158 ] final  -39.58 input  -65.29 | X-H torsion
[ 10718 10713 10712 10709 ] final  -55.25 input   66.30 | X-H torsion
[ 10763 10752 10751 10750 ] final   63.23 input  -60.55 | X-H torsion
[ 11005 11000 10999 10996 ] final  101.44 input  -57.11 | X-H torsion

> <Gold.Protein.ActiveResidues>
 VAL166  LYS551  ARG553  GLY616  TRP617  ASP618  TYR619  PRO620  LYS621  CYS622 
 ASP623  PHE694  ASN695  SER759  ASP760  ASP761  ALA762  ILE779  LEU786  VAL792 
 PHE793  MET794  SER795  GLU796  ALA797  LYS798  CYS799  TRP800  GLU811  SER814 

> <Gold.Protein.RotatedAtoms>
  151.2544  133.4333  159.2612 H   0  0  0  0  0  0  0  0  0  0  0  0  # atno 6907 bound_to 6896
  151.0588  134.9722  159.8259 H   0  0  0  0  0  0  0  0  0  0  0  0  # atno 6908 bound_to 6896
  152.5395  134.2495  159.8946 H   0  0  0  0  0  0  0  0  0  0  0  0  # atno 6909 bound_to 6896
  144.7521  140.3879  143.6040 H   0  0  0  0  0  0  0  0  0  0  0  0  # atno 7974 bound_to 7965
  156.1007  140.1443  156.9471 H   0  0  0  0  0  0  0  0  0  0  0  0  # atno 8008 bound_to 7997
  154.4701  140.0913  156.7167 H   0  0  0  0  0  0  0  0  0  0  0  0  # atno 8009 bound_to 7997
  155.4764  140.3443  155.4335 H   0  0  0  0  0  0  0  0  0  0  0  0  # atno 8010 bound_to 7997
  140.7060  143.3205  151.2803 H   0  0  0  0  0  0  0  0  0  0  0  0  # atno 10167 bound_to 10162
  156.1384  130.4155  150.0146 H   0  0  0  0  0  0  0  0  0  0  0  0  # atno 10718 bound_to 10713
  153.0010  135.5436  154.6320 H   0  0  0  0  0  0  0  0  0  0  0  0  # atno 10763 bound_to 10752
  154.5595  135.2833  155.0935 H   0  0  0  0  0  0  0  0  0  0  0  0  # atno 10764 bound_to 10752
  154.2143  135.6462  153.5177 H   0  0  0  0  0  0  0  0  0  0  0  0  # atno 10765 bound_to 10752
  139.8773  134.9183  156.4908 H   0  0  0  0  0  0  0  0  0  0  0  0  # atno 11005 bound_to 11000
  145.6907  139.1638  143.2648 LP  0  0  0  0  0  0  0  0  0  0  0  0  # atno 17320 bound_to 7965
  146.1485  140.6959  142.9333 LP  0  0  0  0  0  0  0  0  0  0  0  0  # atno 17321 bound_to 7965
  139.6658  144.0108  152.2722 LP  0  0  0  0  0  0  0  0  0  0  0  0  # atno 17342 bound_to 10162
  139.9690  144.6506  150.8007 LP  0  0  0  0  0  0  0  0  0  0  0  0  # atno 17343 bound_to 10162
  156.8039  130.9300  151.3645 LP  0  0  0  0  0  0  0  0  0  0  0  0  # atno 17370 bound_to 10713
  157.6553  130.8919  149.9716 LP  0  0  0  0  0  0  0  0  0  0  0  0  # atno 17371 bound_to 10713
  140.8660  133.8024  155.9314 LP  0  0  0  0  0  0  0  0  0  0  0  0  # atno 17394 bound_to 11000
  140.9001  134.2389  157.5046 LP  0  0  0  0  0  0  0  0  0  0  0  0  # atno 17395 bound_to 11000

$$$$
