AV-unprocessed.smi:2401|AV-procd|sdf|9504|dock9
  -GOLD-   2272013133D 1   1.00000     0.00000
 Structure written by MMmdl.
 34 35  0  0  0  0  0  0  0  0  1 V2000
  152.2095  144.3735  160.0823 C   0  0  0  0  0  0  0  0  0  0  0  0
  151.8667  143.2423  159.1290 C   0  0  0  0  0  0  0  0  0  0  0  0
  150.7031  143.4196  158.3751 N   0  0  0  0  0  0  0  0  0  0  0  0
  150.3301  142.5056  157.5400 C   0  0  0  0  0  0  0  0  0  0  0  0
  151.0675  141.3236  157.3622 N   0  0  0  0  0  0  0  0  0  0  0  0
  150.5280  140.3574  156.3904 C   0  0  0  0  0  0  0  0  0  0  0  0
  150.0323  141.0433  155.0980 C   0  0  1  0  0  0  0  0  0  0  0  0
  150.2775  140.1804  154.0047 O   0  0  0  0  0  0  0  0  0  0  0  0
  148.5571  141.4001  155.2010 C   0  0  0  0  0  0  0  0  0  0  0  0
  147.8763  141.9799  154.1074 C   0  0  0  0  0  0  0  0  0  0  0  0
  146.5090  142.3011  154.2117 C   0  0  0  0  0  0  0  0  0  0  0  0
  145.8132  142.0417  155.4082 C   0  0  0  0  0  0  0  0  0  0  0  0
  144.1385  142.4360  155.5364 Cl  0  0  0  0  0  0  0  0  0  0  0  0
  146.4855  141.4584  156.4996 C   0  0  0  0  0  0  0  0  0  0  0  0
  147.8529  141.1372  156.3957 C   0  0  0  0  0  0  0  0  0  0  0  0
  152.2124  141.0693  158.0597 C   0  0  0  0  0  0  0  0  0  0  0  0
  152.8457  140.0232  157.9039 O   0  0  0  0  0  0  0  0  0  0  0  0
  152.6260  142.1197  159.0039 C   0  0  0  0  0  0  0  0  0  0  0  0
  153.9024  141.8714  159.7980 C   0  0  0  0  0  0  0  0  0  0  0  0
  153.1893  144.7898  159.8466 H   0  0  0  0  0  0  0  0  0  0  0  0
  152.2208  144.0143  161.1118 H   0  0  0  0  0  0  0  0  0  0  0  0
  151.4796  145.1815  160.0191 H   0  0  0  0  0  0  0  0  0  0  0  0
  149.4277  142.5926  156.9323 H   0  0  0  0  0  0  0  0  0  0  0  0
  151.2372  139.5606  156.1548 H   0  0  0  0  0  0  0  0  0  0  0  0
  149.6919  139.8393  156.8644 H   0  0  0  0  0  0  0  0  0  0  0  0
  150.5911  141.9633  154.9206 H   0  0  0  0  0  0  0  0  0  0  0  0
  149.6809  140.4052  153.3069 H   0  0  0  0  0  0  0  0  0  0  0  0
  148.4003  142.1789  153.1839 H   0  0  0  0  0  0  0  0  0  0  0  0
  145.9953  142.7459  153.3721 H   0  0  0  0  0  0  0  0  0  0  0  0
  145.9538  141.2556  157.4177 H   0  0  0  0  0  0  0  0  0  0  0  0
  148.3586  140.6869  157.2375 H   0  0  0  0  0  0  0  0  0  0  0  0
  153.8011  140.9667  160.3983 H   0  0  0  0  0  0  0  0  0  0  0  0
  154.1539  142.6868  160.4739 H   0  0  0  0  0  0  0  0  0  0  0  0
  154.7458  141.7359  159.1202 H   0  0  0  0  0  0  0  0  0  0  0  0
  1  2  1  0  0  0  0
  1 20  1  0  0  0  0
  1 21  1  0  0  0  0
  1 22  1  0  0  0  0
  2 18  2  0  0  0  0
  2  3  1  0  0  0  0
  3  4  2  0  0  0  0
  4  5  1  0  0  0  0
  4 23  1  0  0  0  0
  5  6  1  0  0  0  0
  5 16  1  0  0  0  0
  6  7  1  0  0  0  0
  6 24  1  0  0  0  0
  6 25  1  0  0  0  0
  7  8  1  0  0  0  0
  7  9  1  0  0  0  0
  7 26  1  0  0  0  0
  8 27  1  0  0  0  0
  9 15  1  0  0  0  0
  9 10  2  0  0  0  0
 10 11  1  0  0  0  0
 10 28  1  0  0  0  0
 11 12  2  0  0  0  0
 11 29  1  0  0  0  0
 12 13  1  0  0  0  0
 12 14  1  0  0  0  0
 14 15  2  0  0  0  0
 14 30  1  0  0  0  0
 15 31  1  0  0  0  0
 16 17  2  0  0  0  0
 16 18  1  0  0  0  0
 18 19  1  0  0  0  0
 19 32  1  0  0  0  0
 19 33  1  0  0  0  0
 19 34  1  0  0  0  0
M  END
> <s_m_source_file>
AV-unprocessed.smi

> <i_m_source_file_index>
2401

> <i_lp_mmshare_version>
43012

> <i_f3d_flags>
0

> <s_epik_input>
W0NIM11jMW5bY0hdbihjKD1PKWMxW0NIM10pW0NIMl1bQ0BIXShbT0hdKWMyW2NIXVtjSF1jKENsKVtjSF1bY0hdMg==

> <s_epik_cmdline>
J2VwaWtfcHl0aG9uJywgJy1waCcsICc3LjAnLCAnLXRuJywgJzgnLCAnLW1hJywgJzIwMCcsICctbWV0YWxfYmluZGluZycsICctaW1hZScsICc8aW5maWxlLm1hZT4nLCAnLW9tYWUnLCAnPG91dGZpbGUubWFlPic=

> <r_lp_tautomer_probability>
1

> <r_epik_Ionization_Penalty>
5.07713e-05

> <r_epik_Ionization_Penalty_Charging>
7.56727e-08

> <r_epik_Ionization_Penalty_Neutral>
5.06957e-05

> <r_epik_State_Penalty>
-0

> <r_epik_Charging_Adjusted_Penalty>
7.56727e-08

> <i_epik_Tot_Q>
0

> <i_epik_Tot_abs_Q>
0

> <r_epik_Metal_State_Penalty>
-0

> <b_epik_Metal_Only>
0

> <s_lp_Force_Field>
OPLS_2005

> <r_lp_Energy>
18.5783

> <b_lp_Chiralities_Consistent>
1

> <s_lp_Variant>
AV-unprocessed.smi:2401-2

> <Gold.Version>
5.8.1

> <Gold.Id.Protein>
6NUR|6NUR_protein|mol2

> <Gold.PLP.Fitness>
46.9581

> <Gold.PLP.PLP>
-38.9994

> <Gold.PLP.part.hbond>
-2.9062

> <Gold.PLP.part.metal>
0.0000

> <Gold.PLP.part.buried>
-3.0009

> <Gold.PLP.part.nonpolar>
-32.7119

> <Gold.PLP.part.repulsive>
0.1361

> <Gold.PLP.ligand.clash>
0.0000

> <Gold.PLP.ligand.torsion>
0.6798

> <Gold.PLP.Chemscore.Hbond>
2.2531

> <Gold.PLP.Chemscore.CHOScore>
0.8504

> <Gold.PLP.Chemscore.Metal>
0.0000

> <Gold.Chemscore.Hbonds>
donor molecule, donor type, donor heavy atom, donor atom, acceptor molecule, acceptor atom, score
      L1  H     8    27       P1  7957  0.45
      P1  H  7989  7998       L1     8  0.85
      P1  H  7997  8010       L1    17  0.96
      L1  C     4    23       P1  8028  0.82

> <Gold.PLP.Chemscore.Internal.Correction>
0.0077

> <Gold.Rescore>
     Score         DG    S(hbond)    S(metal)    S(lipo)     H(rot)  DE(clash)    DE(int)     intcor
     15.28     -16.04       1.59        0.00      86.99       1.93       0.07       0.69       ----

> <Gold.Chemscore.Fitness>
15.2800

> <Gold.Chemscore.DG>
-16.0398

> <Gold.Chemscore.ZeroCoef>
-5.4800

> <Gold.Chemscore.Hbond>
1.5910

> <Gold.Chemscore.Metal>
0.0000

> <Gold.Chemscore.Lipo>
86.9873

> <Gold.Chemscore.Internal_Hbond>
0.0000

> <Gold.Chemscore.DEClash>
0.0716

> <Gold.Chemscore.DEInternal>
0.6881

> <Gold.Chemscore.Rot>
1.9265

> <Gold.Chemscore.Internal.Correction>
   9.000000E+99

> <Gold.Chemscore.Hbonds>
donor molecule, donor type, donor heavy atom, donor atom, acceptor molecule, acceptor atom, score
      L1  H     8    27       P1  7957  0.44
      P1  H  7989  7998       L1     8  0.04
      P1  H  7997  8010       L1    17  0.89

> <Gold.Chemscore.Hbond.Weighted>
-5.3140

> <Gold.Chemscore.Metal.Weighted>
-0.0000

> <Gold.Chemscore.Lipo.Weighted>
-10.1775

> <Gold.Chemscore.Internal_Hbond.Weighted>
0.0000

> <Gold.Chemscore.DEClash.Weighted>
0.0716

> <Gold.Chemscore.DEInternal.Weighted>
0.6881

> <Gold.Chemscore.Rot.Weighted>
4.9317

> <Gold.Chemscore.Internal.Correction.Weighted>
   9.000000E+99

> <Gold.Protein.RotatedTorsions>
[ 6907 6896 6895 6894 ] final   10.96 input  -60.11 | X-H torsion
[ 7974 7965 7964 7962 ] final  122.50 input  175.53 | X-H torsion
[ 8008 7997 7996 7995 ] final   31.29 input   59.86 | X-H torsion
[ 10167 10162 10161 10158 ] final  159.86 input  -65.29 | X-H torsion
[ 10718 10713 10712 10709 ] final  100.15 input   66.30 | X-H torsion
[ 10763 10752 10751 10750 ] final    7.94 input  -60.55 | X-H torsion
[ 11005 11000 10999 10996 ] final  -27.34 input  -57.11 | X-H torsion

> <Gold.Protein.ActiveResidues>
 VAL166  LYS551  ARG553  GLY616  TRP617  ASP618  TYR619  PRO620  LYS621  CYS622 
 ASP623  PHE694  ASN695  SER759  ASP760  ASP761  ALA762  ILE779  LEU786  VAL792 
 PHE793  MET794  SER795  GLU796  ALA797  LYS798  CYS799  TRP800  GLU811  SER814 

> <Gold.Protein.RotatedAtoms>
  151.7466  135.0842  160.0323 H   0  0  0  0  0  0  0  0  0  0  0  0  # atno 6907 bound_to 6896
  152.3444  133.6101  159.5908 H   0  0  0  0  0  0  0  0  0  0  0  0  # atno 6908 bound_to 6896
  150.7499  133.9588  159.3550 H   0  0  0  0  0  0  0  0  0  0  0  0  # atno 6909 bound_to 6896
  145.1069  139.3480  143.4783 H   0  0  0  0  0  0  0  0  0  0  0  0  # atno 7974 bound_to 7965
  155.1041  140.3232  155.4539 H   0  0  0  0  0  0  0  0  0  0  0  0  # atno 8008 bound_to 7997
  156.2709  140.2056  156.6114 H   0  0  0  0  0  0  0  0  0  0  0  0  # atno 8009 bound_to 7997
  154.6806  140.0526  157.0249 H   0  0  0  0  0  0  0  0  0  0  0  0  # atno 8010 bound_to 7997
  139.4835  144.4689  151.8603 H   0  0  0  0  0  0  0  0  0  0  0  0  # atno 10167 bound_to 10162
  157.6860  131.0690  150.5056 H   0  0  0  0  0  0  0  0  0  0  0  0  # atno 10718 bound_to 10713
  153.2306  135.6892  153.7894 H   0  0  0  0  0  0  0  0  0  0  0  0  # atno 10763 bound_to 10752
  153.7059  135.3290  155.3236 H   0  0  0  0  0  0  0  0  0  0  0  0  # atno 10764 bound_to 10752
  154.8312  135.4579  154.1191 H   0  0  0  0  0  0  0  0  0  0  0  0  # atno 10765 bound_to 10752
  140.9111  133.7460  156.0671 H   0  0  0  0  0  0  0  0  0  0  0  0  # atno 11005 bound_to 11000
  146.3528  140.0970  142.8610 LP  0  0  0  0  0  0  0  0  0  0  0  0  # atno 17320 bound_to 7965
  145.0892  140.9273  143.4779 LP  0  0  0  0  0  0  0  0  0  0  0  0  # atno 17321 bound_to 7965
  140.4157  144.2311  150.5888 LP  0  0  0  0  0  0  0  0  0  0  0  0  # atno 17342 bound_to 10162
  140.4923  143.2343  151.8800 LP  0  0  0  0  0  0  0  0  0  0  0  0  # atno 17343 bound_to 10162
  156.5376  130.4200  149.6170 LP  0  0  0  0  0  0  0  0  0  0  0  0  # atno 17370 bound_to 10713
  156.3014  130.7179  151.2051 LP  0  0  0  0  0  0  0  0  0  0  0  0  # atno 17371 bound_to 10713
  140.8109  134.3400  157.5412 LP  0  0  0  0  0  0  0  0  0  0  0  0  # atno 17394 bound_to 11000
  139.8757  134.9253  156.3372 LP  0  0  0  0  0  0  0  0  0  0  0  0  # atno 17395 bound_to 11000

$$$$
