AV-unprocessed.smi:1111|AV-procd|sdf|4794|dock10
  -GOLD-   22720 3343D 1   1.00000     0.00000
 Structure written by MMmdl.
 33 34  0  0  0  0  0  0  0  0  2 V2000
  149.4276  140.4406  156.2898 C   0  0  0  0  0  0  0  0  0  0  0  0
  150.9098  140.0264  156.4090 C   0  0  1  0  0  0  0  0  0  0  0  0
  151.7004  141.1069  157.0146 N   0  0  0  0  0  0  0  0  0  0  0  0
  151.6058  141.6146  158.2562 C   0  0  0  0  0  0  0  0  0  0  0  0
  150.8152  141.2114  159.1081 O   0  0  0  0  0  0  0  0  0  0  0  0
  152.5606  142.7595  158.5935 C   0  0  0  0  0  0  0  0  0  0  0  0
  152.4819  143.1146  160.0132 N   0  0  0  0  0  0  0  0  0  0  0  0
  153.2866  142.6656  161.0292 C   0  0  0  0  0  0  0  0  0  0  0  0
  152.8367  143.2642  162.1779 C   0  0  0  0  0  0  0  0  0  0  0  0
  151.7759  144.0506  161.8155 N   0  3  0  0  0  0  0  0  0  0  0  0
  151.5610  143.9579  160.4992 C   0  0  0  0  0  0  0  0  0  0  0  0
  151.0386  138.7918  157.3336 C   0  0  0  0  0  0  0  0  0  0  0  0
  152.4185  138.1473  157.1494 C   0  0  0  0  0  0  0  0  0  0  0  0
  152.8738  138.4413  155.4017 S   0  0  0  0  0  0  0  0  0  0  0  0
  154.1515  139.1688  155.3605 O   0  0  0  0  0  0  0  0  0  0  0  0
  152.6771  137.2085  154.6244 O   0  0  0  0  0  0  0  0  0  0  0  0
  151.5003  139.6023  155.0442 C   0  0  0  0  0  0  0  0  0  0  0  0
  148.8140  139.6128  155.9327 H   0  0  0  0  0  0  0  0  0  0  0  0
  149.2872  141.2632  155.5890 H   0  0  0  0  0  0  0  0  0  0  0  0
  149.0253  140.7526  157.2540 H   0  0  0  0  0  0  0  0  0  0  0  0
  152.3897  141.5270  156.4080 H   0  0  0  0  0  0  0  0  0  0  0  0
  153.5914  142.4859  158.3619 H   0  0  0  0  0  0  0  0  0  0  0  0
  152.3166  143.6419  157.9998 H   0  0  0  0  0  0  0  0  0  0  0  0
  154.0987  141.9723  160.8638 H   0  0  0  0  0  0  0  0  0  0  0  0
  153.1824  143.1911  163.1988 H   0  0  0  0  0  0  0  0  0  0  0  0
  150.7937  144.4626  159.9392 H   0  0  0  0  0  0  0  0  0  0  0  0
  150.8504  139.0373  158.3797 H   0  0  0  0  0  0  0  0  0  0  0  0
  150.2846  138.0556  157.0507 H   0  0  0  0  0  0  0  0  0  0  0  0
  153.1645  138.6320  157.7792 H   0  0  0  0  0  0  0  0  0  0  0  0
  152.4213  137.0789  157.3654 H   0  0  0  0  0  0  0  0  0  0  0  0
  150.7603  139.0514  154.4629 H   0  0  0  0  0  0  0  0  0  0  0  0
  151.8576  140.4241  154.4243 H   0  0  0  0  0  0  0  0  0  0  0  0
  151.2307  144.6210  162.4500 H   0  0  0  0  0  0  0  0  0  0  0  0
  1  2  1  0  0  0  0
  1 18  1  0  0  0  0
  1 19  1  0  0  0  0
  1 20  1  0  0  0  0
  2 17  1  0  0  0  0
  2  3  1  0  0  0  0
  2 12  1  0  0  0  0
  3  4  1  0  0  0  0
  3 21  1  0  0  0  0
  4  5  2  0  0  0  0
  4  6  1  0  0  0  0
  6  7  1  0  0  0  0
  6 22  1  0  0  0  0
  6 23  1  0  0  0  0
  7 11  1  0  0  0  0
  7  8  1  0  0  0  0
  8  9  2  0  0  0  0
  8 24  1  0  0  0  0
  9 10  1  0  0  0  0
  9 25  1  0  0  0  0
 10 11  2  0  0  0  0
 10 33  1  0  0  0  0
 11 26  1  0  0  0  0
 12 13  1  0  0  0  0
 12 27  1  0  0  0  0
 12 28  1  0  0  0  0
 13 14  1  0  0  0  0
 13 29  1  0  0  0  0
 13 30  1  0  0  0  0
 14 15  2  0  0  0  0
 14 16  2  0  0  0  0
 14 17  1  0  0  0  0
 17 31  1  0  0  0  0
 17 32  1  0  0  0  0
M  CHG  1  10   1
M  END
> <s_m_source_file>
AV-unprocessed.smi

> <i_m_source_file_index>
1111

> <i_lp_mmshare_version>
43012

> <i_f3d_flags>
0

> <s_epik_input>
Tz1TKD1PKShbQ0gyXTEpW0NIMl1bQ0gyXVtDQEBdMShbQ0gzXSlbTkhdQyg9TylbQ0gyXW4yW2NIXVtjSF1uW2NIXTI=

> <s_epik_cmdline>
J2VwaWtfcHl0aG9uJywgJy1waCcsICc3LjAnLCAnLXRuJywgJzgnLCAnLW1hJywgJzIwMCcsICctbWV0YWxfYmluZGluZycsICctaW1hZScsICc8aW5maWxlLm1hZT4nLCAnLW9tYWUnLCAnPG91dGZpbGUubWFlPic=

> <r_lp_tautomer_probability>
1

> <r_epik_Ionization_Penalty>
0.638881

> <r_epik_Ionization_Penalty_Charging>
0

> <r_epik_Ionization_Penalty_Neutral>
0.638881

> <r_epik_State_Penalty>
0.656385

> <r_epik_Charging_Adjusted_Penalty>
0.656385

> <i_epik_Tot_Q>
1

> <i_epik_Tot_abs_Q>
1

> <r_epik_Metal_State_Penalty>
0.832701

> <b_epik_Metal_Only>
0

> <s_lp_Force_Field>
OPLS_2005

> <r_lp_Energy>
7.94824

> <b_lp_Chiralities_Consistent>
1

> <s_lp_Variant>
AV-unprocessed.smi:1111-3

> <Gold.Version>
5.8.1

> <Gold.Id.Protein>
6NUR|6NUR_protein|mol2

> <Gold.PLP.Fitness>
39.6494

> <Gold.PLP.PLP>
-34.6002

> <Gold.PLP.part.hbond>
-3.9861

> <Gold.PLP.part.metal>
0.0000

> <Gold.PLP.part.buried>
-3.2987

> <Gold.PLP.part.nonpolar>
-27.2009

> <Gold.PLP.part.repulsive>
0.3183

> <Gold.PLP.ligand.clash>
0.0000

> <Gold.PLP.ligand.torsion>
0.4598

> <Gold.PLP.Chemscore.Hbond>
1.9840

> <Gold.PLP.Chemscore.CHOScore>
0.0000

> <Gold.PLP.Chemscore.Metal>
0.0000

> <Gold.Chemscore.Hbonds>
donor molecule, donor type, donor heavy atom, donor atom, acceptor molecule, acceptor atom, score
      P1  H  7997  8008       L1    15  0.10
      P1  H 10752 10764       L1    16  0.53

> <Gold.PLP.Chemscore.Internal.Correction>
0.0169

> <Gold.Rescore>
     Score         DG    S(hbond)    S(metal)    S(lipo)     H(rot)  DE(clash)    DE(int)     intcor
     12.59     -14.14       1.85        0.00      60.14       1.78       0.43       1.11       ----

> <Gold.Chemscore.Fitness>
12.5924

> <Gold.Chemscore.DG>
-14.1363

> <Gold.Chemscore.ZeroCoef>
-5.4800

> <Gold.Chemscore.Hbond>
1.8482

> <Gold.Chemscore.Metal>
0.0000

> <Gold.Chemscore.Lipo>
60.1435

> <Gold.Chemscore.Internal_Hbond>
0.0000

> <Gold.Chemscore.DEClash>
0.4340

> <Gold.Chemscore.DEInternal>
1.1099

> <Gold.Chemscore.Rot>
1.7787

> <Gold.Chemscore.Internal.Correction>
   9.000000E+99

> <Gold.Chemscore.Hbonds>
donor molecule, donor type, donor heavy atom, donor atom, acceptor molecule, acceptor atom, score
      P1  H  7997  8008       L1    15  0.10
      P1  H 10752 10764       L1    16  0.51

> <Gold.Chemscore.Hbond.Weighted>
-6.1730

> <Gold.Chemscore.Metal.Weighted>
-0.0000

> <Gold.Chemscore.Lipo.Weighted>
-7.0368

> <Gold.Chemscore.Internal_Hbond.Weighted>
0.0000

> <Gold.Chemscore.DEClash.Weighted>
0.4340

> <Gold.Chemscore.DEInternal.Weighted>
1.1099

> <Gold.Chemscore.Rot.Weighted>
4.5536

> <Gold.Chemscore.Internal.Correction.Weighted>
   9.000000E+99

> <Gold.Protein.RotatedTorsions>
[ 6907 6896 6895 6894 ] final  165.60 input  -60.11 | X-H torsion
[ 7974 7965 7964 7962 ] final  -94.95 input  175.53 | X-H torsion
[ 8008 7997 7996 7995 ] final  -21.75 input   59.86 | X-H torsion
[ 10167 10162 10161 10158 ] final -172.04 input  -65.29 | X-H torsion
[ 10718 10713 10712 10709 ] final -128.26 input   66.30 | X-H torsion
[ 10763 10752 10751 10750 ] final  -72.34 input  -60.55 | X-H torsion
[ 11005 11000 10999 10996 ] final  106.46 input  -57.11 | X-H torsion

> <Gold.Protein.ActiveResidues>
 VAL166  LYS551  ARG553  GLY616  TRP617  ASP618  TYR619  PRO620  LYS621  CYS622 
 ASP623  PHE694  ASN695  SER759  ASP760  ASP761  ALA762  ILE779  LEU786  VAL792 
 PHE793  MET794  SER795  GLU796  ALA797  LYS798  CYS799  TRP800  GLU811  SER814 

> <Gold.Protein.RotatedAtoms>
  151.8919  133.3518  159.3800 H   0  0  0  0  0  0  0  0  0  0  0  0  # atno 6907 bound_to 6896
  150.7101  134.4915  159.5527 H   0  0  0  0  0  0  0  0  0  0  0  0  # atno 6908 bound_to 6896
  152.2487  134.8155  160.0500 H   0  0  0  0  0  0  0  0  0  0  0  0  # atno 6909 bound_to 6896
  145.3665  140.9499  143.2471 H   0  0  0  0  0  0  0  0  0  0  0  0  # atno 7974 bound_to 7965
  154.4686  140.2026  156.0052 H   0  0  0  0  0  0  0  0  0  0  0  0  # atno 8008 bound_to 7997
  156.0972  140.3249  155.7864 H   0  0  0  0  0  0  0  0  0  0  0  0  # atno 8009 bound_to 7997
  155.4859  140.0542  157.2951 H   0  0  0  0  0  0  0  0  0  0  0  0  # atno 8010 bound_to 7997
  139.5767  144.1516  152.1460 H   0  0  0  0  0  0  0  0  0  0  0  0  # atno 10167 bound_to 10162
  156.1934  130.6810  151.0452 H   0  0  0  0  0  0  0  0  0  0  0  0  # atno 10718 bound_to 10713
  154.4443  135.5933  153.6149 H   0  0  0  0  0  0  0  0  0  0  0  0  # atno 10763 bound_to 10752
  152.9808  135.6005  154.3684 H   0  0  0  0  0  0  0  0  0  0  0  0  # atno 10764 bound_to 10752
  154.3538  135.2841  155.2336 H   0  0  0  0  0  0  0  0  0  0  0  0  # atno 10765 bound_to 10752
  139.8814  134.9370  156.5669 H   0  0  0  0  0  0  0  0  0  0  0  0  # atno 11005 bound_to 11000
  144.8608  139.5181  143.6813 LP  0  0  0  0  0  0  0  0  0  0  0  0  # atno 17320 bound_to 7965
  146.2904  139.7124  142.9165 LP  0  0  0  0  0  0  0  0  0  0  0  0  # atno 17321 bound_to 7965
  140.1060  144.5498  150.6956 LP  0  0  0  0  0  0  0  0  0  0  0  0  # atno 17342 bound_to 10162
  140.7049  143.2461  151.4756 LP  0  0  0  0  0  0  0  0  0  0  0  0  # atno 17343 bound_to 10162
  157.6943  131.0799  150.7015 LP  0  0  0  0  0  0  0  0  0  0  0  0  # atno 17370 bound_to 10713
  156.7072  130.4641  149.5557 LP  0  0  0  0  0  0  0  0  0  0  0  0  # atno 17371 bound_to 10713
  140.8127  133.8416  155.8824 LP  0  0  0  0  0  0  0  0  0  0  0  0  # atno 17394 bound_to 11000
  140.9491  134.1802  157.4741 LP  0  0  0  0  0  0  0  0  0  0  0  0  # atno 17395 bound_to 11000

$$$$
