AV-unprocessed.smi:3298|AV-procd|sdf|12643|dock10
  -GOLD-   2272018573D 1   1.00000     0.00000
 Structure written by MMmdl.
 35 36  0  0  0  0  0  0  0  0  1 V2000
  153.2038  139.5742  159.8793 C   0  0  0  0  0  0  0  0  0  0  0  0
  152.8004  140.9694  159.4498 C   0  0  0  0  0  0  0  0  0  0  0  0
  151.6870  141.1741  158.6080 C   0  0  0  0  0  0  0  0  0  0  0  0
  151.3565  142.4906  158.2253 C   0  0  0  0  0  0  0  0  0  0  0  0
  150.2193  142.6706  157.3922 N   0  0  0  0  0  0  0  0  0  0  0  0
  149.2980  141.7651  157.0200 C   0  0  0  0  0  0  0  0  0  0  0  0
  149.2553  140.5931  157.3947 O   0  0  0  0  0  0  0  0  0  0  0  0
  148.3985  142.3052  156.1857 N   0  0  0  0  0  0  0  0  0  0  0  0
  147.2772  141.5885  155.5891 C   0  0  1  0  0  0  0  0  0  0  0  0
  145.9925  141.9614  156.2792 C   0  0  0  0  0  0  0  0  0  0  0  0
  145.0963  142.4906  155.4493 C   0  0  0  0  0  0  0  0  0  0  0  0
  145.6040  142.5901  154.0341 C   0  0  1  0  0  0  0  0  0  0  0  0
  145.5495  144.0238  153.4721 C   0  0  0  0  0  0  0  0  0  0  0  0
  144.2297  144.5326  153.4598 O   0  0  0  0  0  0  0  0  0  0  0  0
  147.0312  141.9888  154.1096 C   0  0  0  0  0  0  0  0  0  0  0  0
  152.1501  143.5501  158.7270 C   0  0  0  0  0  0  0  0  0  0  0  0
  153.2408  143.2375  159.5623 C   0  0  0  0  0  0  0  0  0  0  0  0
  153.5678  141.9772  159.9183 N   0  0  0  0  0  0  0  0  0  0  0  0
  147.4248  140.5113  155.6829 H   0  0  0  0  0  0  0  0  0  0  0  0
  144.9766  141.9472  153.4156 H   0  0  0  0  0  0  0  0  0  0  0  0
  152.4442  138.8414  159.6057 H   0  0  0  0  0  0  0  0  0  0  0  0
  153.3416  139.5313  160.9602 H   0  0  0  0  0  0  0  0  0  0  0  0
  154.1414  139.2890  159.4014 H   0  0  0  0  0  0  0  0  0  0  0  0
  151.1015  140.3360  158.2584 H   0  0  0  0  0  0  0  0  0  0  0  0
  150.0673  143.6145  157.0688 H   0  0  0  0  0  0  0  0  0  0  0  0
  148.5052  143.2758  155.9295 H   0  0  0  0  0  0  0  0  0  0  0  0
  145.8383  141.7963  157.3353 H   0  0  0  0  0  0  0  0  0  0  0  0
  144.1075  142.8214  155.7305 H   0  0  0  0  0  0  0  0  0  0  0  0
  146.1766  144.6866  154.0690 H   0  0  0  0  0  0  0  0  0  0  0  0
  145.9413  144.0454  152.4545 H   0  0  0  0  0  0  0  0  0  0  0  0
  143.6343  143.8187  153.2892 H   0  0  0  0  0  0  0  0  0  0  0  0
  147.7815  142.6947  153.7495 H   0  0  0  0  0  0  0  0  0  0  0  0
  147.1042  141.1104  153.4671 H   0  0  0  0  0  0  0  0  0  0  0  0
  151.9403  144.5842  158.5025 H   0  0  0  0  0  0  0  0  0  0  0  0
  153.8646  144.0236  159.9609 H   0  0  0  0  0  0  0  0  0  0  0  0
  1  2  1  0  0  0  0
  1 21  1  0  0  0  0
  1 22  1  0  0  0  0
  1 23  1  0  0  0  0
  2 18  1  0  0  0  0
  2  3  2  0  0  0  0
  3  4  1  0  0  0  0
  3 24  1  0  0  0  0
  4  5  1  0  0  0  0
  4 16  2  0  0  0  0
  5  6  1  0  0  0  0
  5 25  1  0  0  0  0
  6  7  2  0  0  0  0
  6  8  1  0  0  0  0
  8  9  1  0  0  0  0
  8 26  1  0  0  0  0
  9 19  1  0  0  0  0
  9 15  1  0  0  0  0
  9 10  1  0  0  0  0
 10 11  2  0  0  0  0
 10 27  1  0  0  0  0
 11 12  1  0  0  0  0
 11 28  1  0  0  0  0
 12 20  1  0  0  0  0
 12 13  1  0  0  0  0
 12 15  1  0  0  0  0
 13 14  1  0  0  0  0
 13 29  1  0  0  0  0
 13 30  1  0  0  0  0
 14 31  1  0  0  0  0
 15 32  1  0  0  0  0
 15 33  1  0  0  0  0
 16 17  1  0  0  0  0
 16 34  1  0  0  0  0
 17 18  2  0  0  0  0
 17 35  1  0  0  0  0
M  END
> <s_m_source_file>
AV-unprocessed.smi

> <i_m_source_file_index>
3298

> <i_lp_mmshare_version>
43012

> <i_f3d_flags>
0

> <s_epik_input>
W0NIM11jMVtjSF1jKFtjSF1bY0hdbjEpW05IXUMoPU8pW05IXVtDQEBIXTJbQ0hdPVtDSF1bQ0BASF0oW0NIMl0yKVtDSDJdW09IXQ==

> <s_epik_cmdline>
J2VwaWtfcHl0aG9uJywgJy1waCcsICc3LjAnLCAnLXRuJywgJzgnLCAnLW1hJywgJzIwMCcsICctbWV0YWxfYmluZGluZycsICctaW1hZScsICc8aW5maWxlLm1hZT4nLCAnLW9tYWUnLCAnPG91dGZpbGUubWFlPic=

> <r_epik_Ionization_Penalty>
0.379275

> <r_epik_Ionization_Penalty_Charging>
0

> <r_epik_Ionization_Penalty_Neutral>
0.379275

> <r_epik_State_Penalty>
0.377195

> <r_epik_Charging_Adjusted_Penalty>
0.377195

> <i_epik_Tot_Q>
0

> <i_epik_Tot_abs_Q>
0

> <r_epik_Metal_State_Penalty>
0.22815

> <b_epik_Metal_Only>
0

> <s_lp_Force_Field>
OPLS_2005

> <r_lp_Energy>
21.2721

> <b_lp_Chiralities_Consistent>
1

> <s_lp_Variant>
AV-unprocessed.smi:3298-4

> <Gold.Version>
5.8.1

> <Gold.Id.Protein>
6NUR|6NUR_protein|mol2

> <Gold.PLP.Fitness>
41.0092

> <Gold.PLP.PLP>
-33.7535

> <Gold.PLP.part.hbond>
-2.9473

> <Gold.PLP.part.metal>
0.0000

> <Gold.PLP.part.buried>
-5.9120

> <Gold.PLP.part.nonpolar>
-26.5627

> <Gold.PLP.part.repulsive>
0.0867

> <Gold.PLP.ligand.clash>
0.0000

> <Gold.PLP.ligand.torsion>
0.2672

> <Gold.PLP.Chemscore.Hbond>
2.5926

> <Gold.PLP.Chemscore.CHOScore>
0.0000

> <Gold.PLP.Chemscore.Metal>
0.0000

> <Gold.Chemscore.Hbonds>
donor molecule, donor type, donor heavy atom, donor atom, acceptor molecule, acceptor atom, score
      L1  H     5    25       P1  8028  0.62
      L1  H     8    26       P1  8028  0.94
      L1  H    14    31       P1 10174  1.00

> <Gold.PLP.Chemscore.Internal.Correction>
0.0122

> <Gold.Rescore>
     Score         DG    S(hbond)    S(metal)    S(lipo)     H(rot)  DE(clash)    DE(int)     intcor
     18.20     -20.16       2.71        0.00      87.07       1.78       0.26       1.70       ----

> <Gold.Chemscore.Fitness>
18.2044

> <Gold.Chemscore.DG>
-20.1643

> <Gold.Chemscore.ZeroCoef>
-5.4800

> <Gold.Chemscore.Hbond>
2.7106

> <Gold.Chemscore.Metal>
0.0000

> <Gold.Chemscore.Lipo>
87.0678

> <Gold.Chemscore.Internal_Hbond>
0.0000

> <Gold.Chemscore.DEClash>
0.2616

> <Gold.Chemscore.DEInternal>
1.6984

> <Gold.Chemscore.Rot>
1.7796

> <Gold.Chemscore.Internal.Correction>
   9.000000E+99

> <Gold.Chemscore.Hbonds>
donor molecule, donor type, donor heavy atom, donor atom, acceptor molecule, acceptor atom, score
      L1  H     5    25       P1  8028  0.62
      L1  H     8    26       P1  8028  0.86
      L1  H    14    31       P1 10174  0.85

> <Gold.Chemscore.Hbond.Weighted>
-9.0532

> <Gold.Chemscore.Metal.Weighted>
-0.0000

> <Gold.Chemscore.Lipo.Weighted>
-10.1869

> <Gold.Chemscore.Internal_Hbond.Weighted>
0.0000

> <Gold.Chemscore.DEClash.Weighted>
0.2616

> <Gold.Chemscore.DEInternal.Weighted>
1.6984

> <Gold.Chemscore.Rot.Weighted>
4.5558

> <Gold.Chemscore.Internal.Correction.Weighted>
   9.000000E+99

> <Gold.Protein.RotatedTorsions>
[ 6907 6896 6895 6894 ] final   71.75 input  -60.11 | X-H torsion
[ 7974 7965 7964 7962 ] final  103.77 input  175.53 | X-H torsion
[ 8008 7997 7996 7995 ] final -120.59 input   59.86 | X-H torsion
[ 10167 10162 10161 10158 ] final  -40.74 input  -65.29 | X-H torsion
[ 10718 10713 10712 10709 ] final  143.45 input   66.30 | X-H torsion
[ 10763 10752 10751 10750 ] final   91.77 input  -60.55 | X-H torsion
[ 11005 11000 10999 10996 ] final -169.24 input  -57.11 | X-H torsion

> <Gold.Protein.ActiveResidues>
 VAL166  LYS551  ARG553  GLY616  TRP617  ASP618  TYR619  PRO620  LYS621  CYS622 
 ASP623  PHE694  ASN695  SER759  ASP760  ASP761  ALA762  ILE779  LEU786  VAL792 
 PHE793  MET794  SER795  GLU796  ALA797  LYS798  CYS799  TRP800  GLU811  SER814 

> <Gold.Protein.RotatedAtoms>
  152.4828  134.4674  159.9624 H   0  0  0  0  0  0  0  0  0  0  0  0  # atno 6907 bound_to 6896
  151.4676  133.3571  159.2826 H   0  0  0  0  0  0  0  0  0  0  0  0  # atno 6908 bound_to 6896
  150.8914  134.8343  159.7356 H   0  0  0  0  0  0  0  0  0  0  0  0  # atno 6909 bound_to 6896
  145.3416  139.2461  143.3606 H   0  0  0  0  0  0  0  0  0  0  0  0  # atno 7974 bound_to 7965
  155.1342  140.0400  157.2782 H   0  0  0  0  0  0  0  0  0  0  0  0  # atno 8008 bound_to 7997
  154.6520  140.2571  155.7177 H   0  0  0  0  0  0  0  0  0  0  0  0  # atno 8009 bound_to 7997
  156.2581  140.2834  156.0957 H   0  0  0  0  0  0  0  0  0  0  0  0  # atno 8010 bound_to 7997
  140.7025  143.3135  151.2968 H   0  0  0  0  0  0  0  0  0  0  0  0  # atno 10167 bound_to 10162
  157.3688  131.0976  151.0847 H   0  0  0  0  0  0  0  0  0  0  0  0  # atno 10718 bound_to 10713
  153.2119  135.4385  155.0389 H   0  0  0  0  0  0  0  0  0  0  0  0  # atno 10763 bound_to 10752
  154.8204  135.3335  154.7056 H   0  0  0  0  0  0  0  0  0  0  0  0  # atno 10764 bound_to 10752
  153.7493  135.6999  153.5005 H   0  0  0  0  0  0  0  0  0  0  0  0  # atno 10765 bound_to 10752
  140.5330  134.5598  157.5080 H   0  0  0  0  0  0  0  0  0  0  0  0  # atno 11005 bound_to 11000
  146.3005  140.4014  142.8706 LP  0  0  0  0  0  0  0  0  0  0  0  0  # atno 17320 bound_to 7965
  144.8786  140.7370  143.6001 LP  0  0  0  0  0  0  0  0  0  0  0  0  # atno 17321 bound_to 7965
  139.6566  144.0265  152.2664 LP  0  0  0  0  0  0  0  0  0  0  0  0  # atno 17342 bound_to 10162
  139.9819  144.6422  150.7893 LP  0  0  0  0  0  0  0  0  0  0  0  0  # atno 17343 bound_to 10162
  157.1959  130.6373  149.5721 LP  0  0  0  0  0  0  0  0  0  0  0  0  # atno 17370 bound_to 10713
  155.9751  130.4707  150.6438 LP  0  0  0  0  0  0  0  0  0  0  0  0  # atno 17371 bound_to 10713
  139.9544  134.7560  156.0375 LP  0  0  0  0  0  0  0  0  0  0  0  0  # atno 17394 bound_to 11000
  141.1271  133.6596  156.3364 LP  0  0  0  0  0  0  0  0  0  0  0  0  # atno 17395 bound_to 11000

$$$$
