#       Name:                AV-unprocessed.smi:2882
#       Creating user name   scv26
#       Creation time:       Fri Mar 27 15:54:46 2020


#       File generated by GOLD software.
#

@<TRIPOS>MOLECULE
AV-unprocessed.smi:2882
    33    35     1
SMALL
NO_CHARGES


@<TRIPOS>ATOM
      1 ****        -1.0517  -3.9985   0.6349 N.1            1 S1                 0.0000
      2 ****        -1.5886  -2.9752   0.5721 C.1            1 S1                 0.0000
      3 ****        -2.2635  -1.6859   0.4930 C.ar           1 S1                 0.0000
      4 ****        -3.5943  -1.7098   0.2488 N.ar           1 S1                 0.0000
      5 ****        -4.2292  -0.5212   0.1676 C.ar           1 S1                 0.0000
      6 ****        -3.5398   0.6959   0.3306 C.ar           1 S1                 0.0000
      7 ****        -2.2129   0.7291   0.5750 N.ar           1 S1                 0.0000
      8 ****        -1.5618  -0.4582   0.6561 C.ar           1 S1                 0.0000
      9 ****        -0.1784  -0.4399   0.9112 N.pl3          1 S1                 0.0000
     10 ****         0.6042   0.7796   0.7345 C.3            1 S1                 0.0000
     11 ****         2.0636   0.6207   1.1673 C.3            1 S1                 0.0000
     12 ****         2.8177   1.0841  -0.0873 C.3            1 S1                 0.0000
     13 ****         2.7664   0.0276  -1.1985 C.3            1 S1                 0.0000
     14 ****         1.3153   0.1363  -1.6625 C.3            1 S1                 0.0000
     15 ****         0.7641   1.2303  -0.7318 C.3            1 S1                 0.0000
     16 ****         1.9155   2.0477  -0.6051 O.3            1 S1                 0.0000
     17 ****        -5.2912  -0.5409  -0.0276 H              1 S1                 0.0000
     18 ****        -4.0534   1.6437   0.2652 H              1 S1                 0.0000
     19 ****         0.3203  -1.3178   0.9290 H              1 S1                 0.0000
     20 ****         0.1574   1.5858   1.3181 H              1 S1                 0.0000
     21 ****         2.2782   1.2744   2.0134 H              1 S1                 0.0000
     22 ****         2.3311  -0.3981   1.4521 H              1 S1                 0.0000
     23 ****         3.8191   1.4657   0.1133 H              1 S1                 0.0000
     24 ****         3.4477   0.2831  -2.0108 H              1 S1                 0.0000
     25 ****         3.0232  -0.9687  -0.8372 H              1 S1                 0.0000
     26 ****         1.2754   0.4644  -2.7019 H              1 S1                 0.0000
     27 ****         0.7716  -0.8057  -1.5877 H              1 S1                 0.0000
     28 ****        -0.1060   1.7505  -1.1329 H              1 S1                 0.0000
     29 ****        -0.5878  -4.8827   0.6892 LP             1 S1                 0.0000
     30 ****        -4.0871  -2.5722   0.1333 LP             1 S1                 0.0000
     31 ****        -1.7282   1.5960   0.6919 LP             1 S1                 0.0000
     32 ****         2.2180   2.4083  -1.4874 LP             1 S1                 0.0000
     33 ****         1.7694   2.8047   0.0319 LP             1 S1                 0.0000
@<TRIPOS>BOND
    1    1    2 3     
    2    2    3 1     
    3    3    8 ar    
    4    3    4 ar    
    5    4    5 ar    
    6    5    6 ar    
    7    5   17 1     
    8    6    7 ar    
    9    6   18 1     
   10    7    8 ar    
   11    8    9 1     
   12    9   10 1     
   13    9   19 1     
   14   10   15 1     
   15   10   11 1     
   16   10   20 1     
   17   11   12 1     
   18   11   21 1     
   19   11   22 1     
   20   12   16 1     
   21   12   13 1     
   22   12   23 1     
   23   13   14 1     
   24   13   24 1     
   25   13   25 1     
   26   14   15 1     
   27   14   26 1     
   28   14   27 1     
   29   15   16 1     
   30   15   28 1     
   31    1   29 1     
   32    4   30 1     
   33    7   31 1     
   34   16   32 1     
   35   16   33 1     
@<TRIPOS>SUBSTRUCTURE
      1 S1             1
@<TRIPOS>SET
LONE_PAIRS      STATIC     ATOMS    <user>   **** ""
5 29 30 31 32 33
DONOR_HYDROGENS      STATIC     ATOMS    <user>   **** ""
1 19
ATOM$BLUE        STATIC     ATOMS    COLORGROUP SYSTEM
5 29 30 31 32 33
ATOM$RED        STATIC     ATOMS    COLORGROUP SYSTEM
1 19
