#       Name:                AV-unprocessed.smi:3165
#       Creating user name   scv26
#       Creation time:       Fri Mar 27 17:51:34 2020


#       File generated by GOLD software.
#

@<TRIPOS>MOLECULE
AV-unprocessed.smi:3165
    41    42     1
SMALL
NO_CHARGES


@<TRIPOS>ATOM
      1 ****        -1.9150  -0.5120   2.3559 C.3            1 S1                 0.0000
      2 ****        -1.4805  -0.0495   0.9552 C.3            1 S1                 0.0000
      3 ****        -2.0965  -0.9163  -0.1676 C.3            1 S1                 0.0000
      4 ****        -3.5477  -0.9358  -0.1349 N.pl3          1 S1                 0.0000
      5 ****        -4.3886  -1.9878   0.1631 C.2            1 S1                 0.0000
      6 ****        -5.6693  -1.5270   0.0523 C.2            1 S1                 0.0000
      7 ****        -5.5077  -0.1657  -0.3287 C.2            1 S1                 0.0000
      8 ****        -4.2367   0.1842  -0.4427 N.2            1 S1                 0.0000
      9 ****        -0.0025  -0.0458   0.8771 N.4            1 S1                 1.0000
     10 ****         0.5707   0.7932  -0.1969 C.3            1 S1                 0.0000
     11 ****         2.1046   0.8001  -0.1343 C.3            1 S1                 0.0000
     12 ****         2.7114   1.8168  -1.1211 C.3            1 S1                 0.0000
     13 ****         4.2418   1.7333  -1.1110 C.3            1 S1                 0.0000
     14 ****         4.6803   0.2861  -1.3560 C.3            1 S1                 0.0000
     15 ****         3.9778  -0.6581  -0.3679 C.3            1 S1                 0.0000
     16 ****         2.5647  -0.5072  -0.4723 O.3            1 S1                 0.0000
     17 ****        -2.9951  -0.4402   2.4859 H              1 S1                 0.0000
     18 ****        -1.4573   0.1031   3.1316 H              1 S1                 0.0000
     19 ****        -1.6265  -1.5475   2.5388 H              1 S1                 0.0000
     20 ****        -1.8216   0.9801   0.8356 H              1 S1                 0.0000
     21 ****        -1.7946  -0.5566  -1.1514 H              1 S1                 0.0000
     22 ****        -1.7371  -1.9433  -0.0898 H              1 S1                 0.0000
     23 ****        -4.0116  -2.9648   0.4277 H              1 S1                 0.0000
     24 ****        -6.5834  -2.0783   0.2158 H              1 S1                 0.0000
     25 ****        -6.2706   0.5730  -0.5262 H              1 S1                 0.0000
     26 ****         0.3483   0.3120   1.7541 H              1 S1                 0.0000
     27 ****         0.2418   0.4393  -1.1739 H              1 S1                 0.0000
     28 ****         0.1962   1.8111  -0.0808 H              1 S1                 0.0000
     29 ****         2.4214   1.0479   0.8808 H              1 S1                 0.0000
     30 ****         2.3432   1.6176  -2.1285 H              1 S1                 0.0000
     31 ****         2.3931   2.8283  -0.8667 H              1 S1                 0.0000
     32 ****         4.6645   2.3931  -1.8693 H              1 S1                 0.0000
     33 ****         4.6230   2.0753  -0.1479 H              1 S1                 0.0000
     34 ****         4.4314  -0.0052  -2.3772 H              1 S1                 0.0000
     35 ****         5.7628   0.1977  -1.2603 H              1 S1                 0.0000
     36 ****         4.2388  -1.6929  -0.5900 H              1 S1                 0.0000
     37 ****         4.3010  -0.4612   0.6555 H              1 S1                 0.0000
     38 ****         0.3241  -0.9955   0.7671 H              1 S1                 0.0000
     39 ****        -3.8687   1.0779  -0.6994 LP             1 S1                 0.0000
     40 ****         2.2943  -0.7039  -1.4148 LP             1 S1                 0.0000
     41 ****         2.1301  -1.1646   0.1433 LP             1 S1                 0.0000
@<TRIPOS>BOND
    1    1    2 1     
    2    1   17 1     
    3    1   18 1     
    4    1   19 1     
    5    2    3 1     
    6    2    9 1     
    7    2   20 1     
    8    3    4 1     
    9    3   21 1     
   10    3   22 1     
   11    4    8 1     
   12    4    5 1     
   13    5    6 2     
   14    5   23 1     
   15    6    7 1     
   16    6   24 1     
   17    7    8 2     
   18    7   25 1     
   19    9   10 1     
   20    9   26 1     
   21    9   38 1     
   22   10   11 1     
   23   10   27 1     
   24   10   28 1     
   25   11   16 1     
   26   11   12 1     
   27   11   29 1     
   28   12   13 1     
   29   12   30 1     
   30   12   31 1     
   31   13   14 1     
   32   13   32 1     
   33   13   33 1     
   34   14   15 1     
   35   14   34 1     
   36   14   35 1     
   37   15   16 1     
   38   15   36 1     
   39   15   37 1     
   40    8   39 1     
   41   16   40 1     
   42   16   41 1     
@<TRIPOS>SUBSTRUCTURE
      1 S1             1
@<TRIPOS>SET
LONE_PAIRS      STATIC     ATOMS    <user>   **** ""
3 39 40 41
DONOR_HYDROGENS      STATIC     ATOMS    <user>   **** ""
2 26 38
ATOM$BLUE        STATIC     ATOMS    COLORGROUP SYSTEM
3 39 40 41
ATOM$RED        STATIC     ATOMS    COLORGROUP SYSTEM
2 26 38
