AV-unprocessed.smi:686|AV-procd|sdf|3351|dock3
  -GOLD-   22720 0323D 1   1.00000     0.00000
 Structure written by MMmdl.
 40 41  0  0  0  0  0  0  0  0  3 V2000
  152.0813  138.6063  155.1455 C   0  0  0  0  0  0  0  0  0  0  0  0
  150.8510  137.8055  154.6675 C   0  0  2  0  0  0  0  0  0  0  0  0
  149.6970  138.6594  154.1423 C   0  0  0  0  0  0  0  0  0  0  0  0
  148.5487  137.7292  154.0558 N   0  3  2  0  0  0  0  0  0  0  0  0
  147.2012  138.3668  154.0567 C   0  0  0  0  0  0  0  0  0  0  0  0
  146.0973  137.3293  153.7777 C   0  0  0  0  0  0  0  0  0  0  0  0
  147.1065  139.5054  153.0225 C   0  0  0  0  0  0  0  0  0  0  0  0
  148.7544  136.6759  155.0860 C   0  0  0  0  0  0  0  0  0  0  0  0
  150.1691  136.8597  155.6755 C   0  0  2  0  0  0  0  0  0  0  0  0
  150.0821  137.4744  156.9962 N   0  5  0  0  0  0  0  0  0  0  0  0
  149.7781  136.5450  158.2902 S   0  0  0  0  0  0  0  0  0  0  0  0
  149.6362  135.1222  157.9411 O   0  0  0  0  0  0  0  0  0  0  0  0
  150.6496  136.8675  159.4320 O   0  0  0  0  0  0  0  0  0  0  0  0
  148.0920  137.1340  158.7471 C   0  0  0  0  0  0  0  0  0  0  0  0
  147.7022  136.5864  160.0913 C   0  0  0  0  0  0  0  0  0  0  0  0
  147.5059  135.2290  160.4696 C   0  0  0  0  0  0  0  0  0  0  0  0
  147.1712  135.3107  161.7902 C   0  0  0  0  0  0  0  0  0  0  0  0
  147.1686  136.6040  162.2006 O   0  0  0  0  0  0  0  0  0  0  0  0
  147.5121  137.4112  161.1097 N   0  0  0  0  0  0  0  0  0  0  0  0
  151.8330  139.3216  155.9315 H   0  0  0  0  0  0  0  0  0  0  0  0
  152.5062  139.1771  154.3197 H   0  0  0  0  0  0  0  0  0  0  0  0
  152.8691  137.9523  155.5234 H   0  0  0  0  0  0  0  0  0  0  0  0
  151.1865  137.1817  153.8370 H   0  0  0  0  0  0  0  0  0  0  0  0
  149.4723  139.4808  154.8284 H   0  0  0  0  0  0  0  0  0  0  0  0
  149.9275  139.0942  153.1690 H   0  0  0  0  0  0  0  0  0  0  0  0
  147.0304  138.7939  155.0464 H   0  0  0  0  0  0  0  0  0  0  0  0
  145.1143  137.8010  153.7582 H   0  0  0  0  0  0  0  0  0  0  0  0
  146.0590  136.5523  154.5407 H   0  0  0  0  0  0  0  0  0  0  0  0
  146.2474  136.8416  152.8139 H   0  0  0  0  0  0  0  0  0  0  0  0
  146.1004  139.9246  152.9954 H   0  0  0  0  0  0  0  0  0  0  0  0
  147.3427  139.1500  152.0188 H   0  0  0  0  0  0  0  0  0  0  0  0
  147.7823  140.3284  153.2556 H   0  0  0  0  0  0  0  0  0  0  0  0
  147.9850  136.7126  155.8584 H   0  0  0  0  0  0  0  0  0  0  0  0
  148.6675  135.7035  154.6004 H   0  0  0  0  0  0  0  0  0  0  0  0
  150.7013  135.9085  155.7044 H   0  0  0  0  0  0  0  0  0  0  0  0
  148.1034  138.2233  158.7629 H   0  0  0  0  0  0  0  0  0  0  0  0
  147.3963  136.8199  157.9688 H   0  0  0  0  0  0  0  0  0  0  0  0
  147.5899  134.3390  159.8640 H   0  0  0  0  0  0  0  0  0  0  0  0
  146.9203  134.5740  162.5390 H   0  0  0  0  0  0  0  0  0  0  0  0
  148.6492  137.2602  153.1673 H   0  0  0  0  0  0  0  0  0  0  0  0
  1  2  1  0  0  0  0
  1 20  1  0  0  0  0
  1 21  1  0  0  0  0
  1 22  1  0  0  0  0
  2  9  1  0  0  0  0
  2  3  1  0  0  0  0
  2 23  1  0  0  0  0
  3  4  1  0  0  0  0
  3 24  1  0  0  0  0
  3 25  1  0  0  0  0
  4  5  1  0  0  0  0
  4  8  1  0  0  0  0
  4 40  1  0  0  0  0
  5  6  1  0  0  0  0
  5  7  1  0  0  0  0
  5 26  1  0  0  0  0
  6 27  1  0  0  0  0
  6 28  1  0  0  0  0
  6 29  1  0  0  0  0
  7 30  1  0  0  0  0
  7 31  1  0  0  0  0
  7 32  1  0  0  0  0
  8  9  1  0  0  0  0
  8 33  1  0  0  0  0
  8 34  1  0  0  0  0
  9 10  1  0  0  0  0
  9 35  1  0  0  0  0
 10 11  1  0  0  0  0
 11 12  2  0  0  0  0
 11 13  2  0  0  0  0
 11 14  1  0  0  0  0
 14 15  1  0  0  0  0
 14 36  1  0  0  0  0
 14 37  1  0  0  0  0
 15 19  2  0  0  0  0
 15 16  1  0  0  0  0
 16 17  2  0  0  0  0
 16 38  1  0  0  0  0
 17 18  1  0  0  0  0
 17 39  1  0  0  0  0
 18 19  1  0  0  0  0
M  CHG  1   4   1
M  CHG  1  10  -1
M  END
> <s_m_source_file>
AV-unprocessed.smi

> <i_m_source_file_index>
686

> <i_lp_mmshare_version>
43012

> <i_f3d_flags>
0

> <s_epik_input>
W0NIM11bQ0BASF0xW0NIMl1OKFtDSF0oW0NIM10pW0NIM10pW0NIMl1bQ0BIXTFbTkhdUyg9TykoPU8pW0NIMl1jMltjSF1bY0hdb24y

> <s_epik_cmdline>
J2VwaWtfcHl0aG9uJywgJy1waCcsICc3LjAnLCAnLXRuJywgJzgnLCAnLW1hJywgJzIwMCcsICctbWV0YWxfYmluZGluZycsICctaW1hZScsICc8aW5maWxlLm1hZT4nLCAnLW9tYWUnLCAnPG91dGZpbGUubWFlPic=

> <r_epik_Ionization_Penalty>
3.62478

> <r_epik_Ionization_Penalty_Charging>
3.62478

> <r_epik_Ionization_Penalty_Neutral>
2.03645e-10

> <r_epik_State_Penalty>
3.6247

> <r_epik_Charging_Adjusted_Penalty>
7.24949

> <i_epik_Tot_Q>
0

> <i_epik_Tot_abs_Q>
2

> <r_epik_Metal_State_Penalty>
0.530836

> <b_epik_Metal_Only>
1

> <s_lp_Force_Field>
OPLS_2005

> <r_lp_Energy>
19.6845

> <b_lp_Chiralities_Consistent>
1

> <s_lp_Variant>
AV-unprocessed.smi:686-15

> <Gold.Version>
5.8.1

> <Gold.Id.Protein>
6NUR|6NUR_protein|mol2

> <Gold.PLP.Fitness>
42.8844

> <Gold.PLP.PLP>
-28.0459

> <Gold.PLP.part.hbond>
-5.0000

> <Gold.PLP.part.metal>
0.0000

> <Gold.PLP.part.buried>
-5.1322

> <Gold.PLP.part.nonpolar>
-19.0961

> <Gold.PLP.part.repulsive>
0.0000

> <Gold.PLP.ligand.clash>
0.0000

> <Gold.PLP.ligand.torsion>
0.9963

> <Gold.PLP.Chemscore.Hbond>
5.2604

> <Gold.PLP.Chemscore.CHOScore>
0.0000

> <Gold.PLP.Chemscore.Metal>
0.0000

> <Gold.Chemscore.Hbonds>
donor molecule, donor type, donor heavy atom, donor atom, acceptor molecule, acceptor atom, score
      L1  H     4    40       P1  7948  2.00
      P1  H  6896  6908       L1    12  0.33
      P1  H  6896  6909       L1    13  0.93
      P1  H  6931  6943       L1    19  0.69
      P1  H  6934  6947       L1    19  0.94

> <Gold.PLP.Chemscore.Internal.Correction>
1.0500

> <Gold.Rescore>
     Score         DG    S(hbond)    S(metal)    S(lipo)     H(rot)  DE(clash)    DE(int)     intcor
     18.70     -19.69       3.43        0.00      58.96       1.61       0.00       0.99       ----

> <Gold.Chemscore.Fitness>
18.6975

> <Gold.Chemscore.DG>
-19.6917

> <Gold.Chemscore.ZeroCoef>
-5.4800

> <Gold.Chemscore.Hbond>
3.4274

> <Gold.Chemscore.Metal>
0.0000

> <Gold.Chemscore.Lipo>
58.9592

> <Gold.Chemscore.Internal_Hbond>
0.0000

> <Gold.Chemscore.DEClash>
0.0030

> <Gold.Chemscore.DEInternal>
0.9912

> <Gold.Chemscore.Rot>
1.6149

> <Gold.Chemscore.Internal.Correction>
   9.000000E+99

> <Gold.Chemscore.Hbonds>
donor molecule, donor type, donor heavy atom, donor atom, acceptor molecule, acceptor atom, score
      L1  H     4    40       P1  7948  1.00
      P1  H  6896  6908       L1    12  0.28
      P1  H  6896  6909       L1    13  0.52
      P1  H  6931  6943       L1    19  0.13
      P1  H  6934  6947       L1    19  0.90

> <Gold.Chemscore.Hbond.Weighted>
-11.4476

> <Gold.Chemscore.Metal.Weighted>
-0.0000

> <Gold.Chemscore.Lipo.Weighted>
-6.8982

> <Gold.Chemscore.Internal_Hbond.Weighted>
0.0000

> <Gold.Chemscore.DEClash.Weighted>
0.0030

> <Gold.Chemscore.DEInternal.Weighted>
0.9912

> <Gold.Chemscore.Rot.Weighted>
4.1341

> <Gold.Chemscore.Internal.Correction.Weighted>
   9.000000E+99

> <Gold.Protein.RotatedTorsions>
[ 6907 6896 6895 6894 ] final  119.74 input  -60.11 | X-H torsion
[ 7974 7965 7964 7962 ] final  124.45 input  175.53 | X-H torsion
[ 8008 7997 7996 7995 ] final   82.88 input   59.86 | X-H torsion
[ 10167 10162 10161 10158 ] final -115.83 input  -65.29 | X-H torsion
[ 10718 10713 10712 10709 ] final  -60.84 input   66.30 | X-H torsion
[ 10763 10752 10751 10750 ] final  -35.75 input  -60.55 | X-H torsion
[ 11005 11000 10999 10996 ] final   52.82 input  -57.11 | X-H torsion

> <Gold.Protein.ActiveResidues>
 VAL166  LYS551  ARG553  GLY616  TRP617  ASP618  TYR619  PRO620  LYS621  CYS622 
 ASP623  PHE694  ASN695  SER759  ASP760  ASP761  ALA762  ILE779  LEU786  VAL792 
 PHE793  MET794  SER795  GLU796  ALA797  LYS798  CYS799  TRP800  GLU811  SER814 

> <Gold.Protein.RotatedAtoms>
  152.4449  133.7518  159.6697 H   0  0  0  0  0  0  0  0  0  0  0  0  # atno 6907 bound_to 6896
  150.8347  133.8022  159.3090 H   0  0  0  0  0  0  0  0  0  0  0  0  # atno 6908 bound_to 6896
  151.5665  135.1066  160.0037 H   0  0  0  0  0  0  0  0  0  0  0  0  # atno 6909 bound_to 6896
  145.0843  139.3634  143.4893 H   0  0  0  0  0  0  0  0  0  0  0  0  # atno 7974 bound_to 7965
  155.9165  140.3424  155.6139 H   0  0  0  0  0  0  0  0  0  0  0  0  # atno 8008 bound_to 7997
  155.7324  140.0797  157.2301 H   0  0  0  0  0  0  0  0  0  0  0  0  # atno 8009 bound_to 7997
  154.4063  140.1585  156.2511 H   0  0  0  0  0  0  0  0  0  0  0  0  # atno 8010 bound_to 7997
  140.0858  143.4745  152.1899 H   0  0  0  0  0  0  0  0  0  0  0  0  # atno 10167 bound_to 10162
  156.0962  130.4192  150.0911 H   0  0  0  0  0  0  0  0  0  0  0  0  # atno 10718 bound_to 10713
  153.8683  135.6833  153.4776 H   0  0  0  0  0  0  0  0  0  0  0  0  # atno 10763 bound_to 10752
  153.1302  135.4701  154.9334 H   0  0  0  0  0  0  0  0  0  0  0  0  # atno 10764 bound_to 10752
  154.7726  135.3243  154.8108 H   0  0  0  0  0  0  0  0  0  0  0  0  # atno 10765 bound_to 10752
  140.0818  134.5328  155.8939 H   0  0  0  0  0  0  0  0  0  0  0  0  # atno 11005 bound_to 11000
  146.3531  140.0647  142.8627 LP  0  0  0  0  0  0  0  0  0  0  0  0  # atno 17320 bound_to 7965
  145.1141  140.9423  143.4639 LP  0  0  0  0  0  0  0  0  0  0  0  0  # atno 17321 bound_to 7965
  139.5753  144.7484  151.3782 LP  0  0  0  0  0  0  0  0  0  0  0  0  # atno 17342 bound_to 10162
  140.7054  143.7527  150.7473 LP  0  0  0  0  0  0  0  0  0  0  0  0  # atno 17343 bound_to 10162
  156.8909  130.9588  151.3588 LP  0  0  0  0  0  0  0  0  0  0  0  0  # atno 17370 bound_to 10713
  157.6124  130.8592  149.8972 LP  0  0  0  0  0  0  0  0  0  0  0  0  # atno 17371 bound_to 10713
  141.2049  133.6643  156.6149 LP  0  0  0  0  0  0  0  0  0  0  0  0  # atno 17394 bound_to 11000
  140.3477  134.7795  157.4444 LP  0  0  0  0  0  0  0  0  0  0  0  0  # atno 17395 bound_to 11000

$$$$
