AV-unprocessed.smi:1413|AV-procd|sdf|5755|dock3
  -GOLD-   22720 5393D 1   1.00000     0.00000
 Structure written by MMmdl.
 53 55  0  0  0  0  0  0  0  0  1 V2000
  151.3190  144.9274  158.2801 C   0  0  0  0  0  0  0  0  0  0  0  0
  151.8732  143.5282  157.9930 C   0  0  2  0  0  0  0  0  0  0  0  0
  150.8119  142.6014  157.3690 C   0  0  0  0  0  0  0  0  0  0  0  0
  151.3384  141.2471  157.2261 N   0  0  0  0  0  0  0  0  0  0  0  0
  150.5802  140.3776  156.4128 C   0  0  0  0  0  0  0  0  0  0  0  0
  149.4122  139.7647  156.9238 C   0  0  0  0  0  0  0  0  0  0  0  0
  148.6686  138.9050  156.0931 C   0  0  0  0  0  0  0  0  0  0  0  0
  149.1093  138.6668  154.7771 C   0  0  0  0  0  0  0  0  0  0  0  0
  148.3289  137.8125  153.9520 N   0  0  0  0  0  0  0  0  0  0  0  0
  147.0353  137.4746  154.0903 C   0  0  0  0  0  0  0  0  0  0  0  0
  146.2790  137.9032  154.9613 O   0  0  0  0  0  0  0  0  0  0  0  0
  146.6565  136.6134  153.1344 N   0  0  0  0  0  0  0  0  0  0  0  0
  145.3130  136.0632  152.9577 C   0  0  1  0  0  0  0  0  0  0  0  0
  144.3186  137.2261  152.8255 C   0  0  0  0  0  0  0  0  0  0  0  0
  145.2636  135.1288  151.7309 C   0  0  1  0  0  0  0  0  0  0  0  0
  146.2196  133.9367  151.7802 C   0  0  0  0  0  0  0  0  0  0  0  0
  145.5819  132.9377  150.8297 C   0  0  0  0  0  0  0  0  0  0  0  0
  144.1266  133.4041  150.7237 C   0  0  0  0  0  0  0  0  0  0  0  0
  144.0035  134.4818  151.6426 O   0  0  0  0  0  0  0  0  0  0  0  0
  150.2803  139.3346  154.3476 C   0  0  0  0  0  0  0  0  0  0  0  0
  150.9930  140.1633  155.1395 N   0  0  0  0  0  0  0  0  0  0  0  0
  151.9003  140.7132  158.4646 C   0  0  0  0  0  0  0  0  0  0  0  0
  152.9357  141.6919  159.0486 C   0  0  2  0  0  0  0  0  0  0  0  0
  153.4709  141.2234  160.4058 C   0  0  0  0  0  0  0  0  0  0  0  0
  152.3247  142.9675  159.2231 O   0  0  0  0  0  0  0  0  0  0  0  0
  150.9653  145.4053  157.3662 H   0  0  0  0  0  0  0  0  0  0  0  0
  152.0865  145.5682  158.7150 H   0  0  0  0  0  0  0  0  0  0  0  0
  150.4846  144.8849  158.9808 H   0  0  0  0  0  0  0  0  0  0  0  0
  152.7208  143.6253  157.3120 H   0  0  0  0  0  0  0  0  0  0  0  0
  149.9256  142.5652  158.0038 H   0  0  0  0  0  0  0  0  0  0  0  0
  150.4977  143.0128  156.4106 H   0  0  0  0  0  0  0  0  0  0  0  0
  149.0712  139.9572  157.9300 H   0  0  0  0  0  0  0  0  0  0  0  0
  147.7700  138.4356  156.4661 H   0  0  0  0  0  0  0  0  0  0  0  0
  148.7974  137.4539  153.1330 H   0  0  0  0  0  0  0  0  0  0  0  0
  147.3515  136.3205  152.4636 H   0  0  0  0  0  0  0  0  0  0  0  0
  145.0302  135.4896  153.8421 H   0  0  0  0  0  0  0  0  0  0  0  0
  143.2959  136.8609  152.7283 H   0  0  0  0  0  0  0  0  0  0  0  0
  144.5367  137.8388  151.9500 H   0  0  0  0  0  0  0  0  0  0  0  0
  144.3519  137.8734  153.7024 H   0  0  0  0  0  0  0  0  0  0  0  0
  145.4307  135.6972  150.8134 H   0  0  0  0  0  0  0  0  0  0  0  0
  147.2404  134.1975  151.4993 H   0  0  0  0  0  0  0  0  0  0  0  0
  146.2438  133.5167  152.7868 H   0  0  0  0  0  0  0  0  0  0  0  0
  146.0618  132.9677  149.8509 H   0  0  0  0  0  0  0  0  0  0  0  0
  145.6607  131.9198  151.2122 H   0  0  0  0  0  0  0  0  0  0  0  0
  143.9110  133.7621  149.7163 H   0  0  0  0  0  0  0  0  0  0  0  0
  143.4163  132.6120  150.9620 H   0  0  0  0  0  0  0  0  0  0  0  0
  150.6585  139.2353  153.3423 H   0  0  0  0  0  0  0  0  0  0  0  0
  151.0951  140.5436  159.1811 H   0  0  0  0  0  0  0  0  0  0  0  0
  152.3782  139.7511  158.2760 H   0  0  0  0  0  0  0  0  0  0  0  0
  153.7771  141.7894  158.3601 H   0  0  0  0  0  0  0  0  0  0  0  0
  153.9576  140.2517  160.3206 H   0  0  0  0  0  0  0  0  0  0  0  0
  152.6676  141.1333  161.1376 H   0  0  0  0  0  0  0  0  0  0  0  0
  154.2033  141.9282  160.7999 H   0  0  0  0  0  0  0  0  0  0  0  0
  1  2  1  0  0  0  0
  1 26  1  0  0  0  0
  1 27  1  0  0  0  0
  1 28  1  0  0  0  0
  2 25  1  0  0  0  0
  2  3  1  0  0  0  0
  2 29  1  0  0  0  0
  3  4  1  0  0  0  0
  3 30  1  0  0  0  0
  3 31  1  0  0  0  0
  4  5  1  0  0  0  0
  4 22  1  0  0  0  0
  5 21  1  0  0  0  0
  5  6  2  0  0  0  0
  6  7  1  0  0  0  0
  6 32  1  0  0  0  0
  7  8  2  0  0  0  0
  7 33  1  0  0  0  0
  8  9  1  0  0  0  0
  8 20  1  0  0  0  0
  9 10  1  0  0  0  0
  9 34  1  0  0  0  0
 10 11  2  0  0  0  0
 10 12  1  0  0  0  0
 12 13  1  0  0  0  0
 12 35  1  0  0  0  0
 13 14  1  0  0  0  0
 13 15  1  0  0  0  0
 13 36  1  0  0  0  0
 14 37  1  0  0  0  0
 14 38  1  0  0  0  0
 14 39  1  0  0  0  0
 15 19  1  0  0  0  0
 15 16  1  0  0  0  0
 15 40  1  0  0  0  0
 16 17  1  0  0  0  0
 16 41  1  0  0  0  0
 16 42  1  0  0  0  0
 17 18  1  0  0  0  0
 17 43  1  0  0  0  0
 17 44  1  0  0  0  0
 18 19  1  0  0  0  0
 18 45  1  0  0  0  0
 18 46  1  0  0  0  0
 20 21  2  0  0  0  0
 20 47  1  0  0  0  0
 22 23  1  0  0  0  0
 22 48  1  0  0  0  0
 22 49  1  0  0  0  0
 23 24  1  0  0  0  0
 23 25  1  0  0  0  0
 23 50  1  0  0  0  0
 24 51  1  0  0  0  0
 24 52  1  0  0  0  0
 24 53  1  0  0  0  0
M  END
> <s_m_source_file>
AV-unprocessed.smi

> <i_m_source_file_index>
1413

> <i_lp_mmshare_version>
43012

> <i_f3d_flags>
0

> <s_epik_input>
W0NIM11bQ0BASF0xW0NIMl1OKFtDSDJdW0NASF0oTzEpW0NIM10pYzJbY0hdW2NIXWMoW2NIXW4yKVtOSF1DKD1PKVtOSF1bQ0BIXShbQ0gzXSlbQ0BASF0zW0NIMl1bQ0gyXVtDSDJdTzM=

> <s_epik_cmdline>
J2VwaWtfcHl0aG9uJywgJy1waCcsICc3LjAnLCAnLXRuJywgJzgnLCAnLW1hJywgJzIwMCcsICctbWV0YWxfYmluZGluZycsICctaW1hZScsICc8aW5maWxlLm1hZT4nLCAnLW9tYWUnLCAnPG91dGZpbGUubWFlPic=

> <r_lp_tautomer_probability>
1

> <r_epik_Ionization_Penalty>
0.00271172

> <r_epik_Ionization_Penalty_Charging>
0

> <r_epik_Ionization_Penalty_Neutral>
0.00271172

> <r_epik_State_Penalty>
0.00186503

> <r_epik_Charging_Adjusted_Penalty>
0.00186503

> <i_epik_Tot_Q>
0

> <i_epik_Tot_abs_Q>
0

> <r_epik_Metal_State_Penalty>
-0

> <b_epik_Metal_Only>
0

> <s_lp_Force_Field>
OPLS_2005

> <r_lp_Energy>
33.7939

> <b_lp_Chiralities_Consistent>
1

> <s_lp_Variant>
AV-unprocessed.smi:1413-8

> <Gold.Version>
5.8.1

> <Gold.Id.Protein>
6NUR|6NUR_protein|mol2

> <Gold.PLP.Fitness>
49.5318

> <Gold.PLP.PLP>
-40.2114

> <Gold.PLP.part.hbond>
-3.0000

> <Gold.PLP.part.metal>
0.0000

> <Gold.PLP.part.buried>
-7.1789

> <Gold.PLP.part.nonpolar>
-30.6779

> <Gold.PLP.part.repulsive>
0.2785

> <Gold.PLP.ligand.clash>
0.0000

> <Gold.PLP.ligand.torsion>
0.3986

> <Gold.PLP.Chemscore.Hbond>
2.2500

> <Gold.PLP.Chemscore.CHOScore>
1.0000

> <Gold.PLP.Chemscore.Metal>
0.0000

> <Gold.Chemscore.Hbonds>
donor molecule, donor type, donor heavy atom, donor atom, acceptor molecule, acceptor atom, score
      L1  H     9    34       P1  7948  1.00
      L1  H    12    35       P1  7948  1.00
      P1  H  7989  7998       L1    21  0.25
      L1  C    20    47       P1  7957  0.98

> <Gold.PLP.Chemscore.Internal.Correction>
0.3675

> <Gold.Rescore>
     Score         DG    S(hbond)    S(metal)    S(lipo)     H(rot)  DE(clash)    DE(int)     intcor
     18.96     -20.88       1.93        0.00     106.11       1.35       0.19       1.73       ----

> <Gold.Chemscore.Fitness>
18.9582

> <Gold.Chemscore.DG>
-20.8840

> <Gold.Chemscore.ZeroCoef>
-5.4800

> <Gold.Chemscore.Hbond>
1.9273

> <Gold.Chemscore.Metal>
0.0000

> <Gold.Chemscore.Lipo>
106.1125

> <Gold.Chemscore.Internal_Hbond>
0.0000

> <Gold.Chemscore.DEClash>
0.1948

> <Gold.Chemscore.DEInternal>
1.7309

> <Gold.Chemscore.Rot>
1.3471

> <Gold.Chemscore.Internal.Correction>
   9.000000E+99

> <Gold.Chemscore.Hbonds>
donor molecule, donor type, donor heavy atom, donor atom, acceptor molecule, acceptor atom, score
      L1  H     9    34       P1  7948  0.96
      L1  H    12    35       P1  7948  0.98

> <Gold.Chemscore.Hbond.Weighted>
-6.4373

> <Gold.Chemscore.Metal.Weighted>
-0.0000

> <Gold.Chemscore.Lipo.Weighted>
-12.4152

> <Gold.Chemscore.Internal_Hbond.Weighted>
0.0000

> <Gold.Chemscore.DEClash.Weighted>
0.1948

> <Gold.Chemscore.DEInternal.Weighted>
1.7309

> <Gold.Chemscore.Rot.Weighted>
3.4485

> <Gold.Chemscore.Internal.Correction.Weighted>
   9.000000E+99

> <Gold.Protein.RotatedTorsions>
[ 6907 6896 6895 6894 ] final  158.26 input  -60.11 | X-H torsion
[ 7974 7965 7964 7962 ] final   49.38 input  175.53 | X-H torsion
[ 8008 7997 7996 7995 ] final  175.83 input   59.86 | X-H torsion
[ 10167 10162 10161 10158 ] final -159.89 input  -65.29 | X-H torsion
[ 10718 10713 10712 10709 ] final -138.00 input   66.30 | X-H torsion
[ 10763 10752 10751 10750 ] final -140.33 input  -60.55 | X-H torsion
[ 11005 11000 10999 10996 ] final -124.02 input  -57.11 | X-H torsion

> <Gold.Protein.ActiveResidues>
 VAL166  LYS551  ARG553  GLY616  TRP617  ASP618  TYR619  PRO620  LYS621  CYS622 
 ASP623  PHE694  ASN695  SER759  ASP760  ASP761  ALA762  ILE779  LEU786  VAL792 
 PHE793  MET794  SER795  GLU796  ALA797  LYS798  CYS799  TRP800  GLU811  SER814 

> <Gold.Protein.RotatedAtoms>
  152.0030  133.3832  159.4188 H   0  0  0  0  0  0  0  0  0  0  0  0  # atno 6907 bound_to 6896
  150.6908  134.3814  159.5045 H   0  0  0  0  0  0  0  0  0  0  0  0  # atno 6908 bound_to 6896
  152.1563  134.8947  160.0595 H   0  0  0  0  0  0  0  0  0  0  0  0  # atno 6909 bound_to 6896
  146.0114  139.4548  142.9954 H   0  0  0  0  0  0  0  0  0  0  0  0  # atno 7974 bound_to 7965
  156.0829  140.1399  156.9690 H   0  0  0  0  0  0  0  0  0  0  0  0  # atno 8008 bound_to 7997
  154.4595  140.0948  156.6902 H   0  0  0  0  0  0  0  0  0  0  0  0  # atno 8009 bound_to 7997
  155.5047  140.3452  155.4379 H   0  0  0  0  0  0  0  0  0  0  0  0  # atno 8010 bound_to 7997
  139.6581  143.9963  152.2207 H   0  0  0  0  0  0  0  0  0  0  0  0  # atno 10167 bound_to 10162
  156.2944  130.7393  151.1428 H   0  0  0  0  0  0  0  0  0  0  0  0  # atno 10718 bound_to 10713
  154.8582  135.3556  154.5690 H   0  0  0  0  0  0  0  0  0  0  0  0  # atno 10763 bound_to 10752
  153.6303  135.7002  153.5282 H   0  0  0  0  0  0  0  0  0  0  0  0  # atno 10764 bound_to 10752
  153.3055  135.4194  155.1249 H   0  0  0  0  0  0  0  0  0  0  0  0  # atno 10765 bound_to 10752
  140.9873  134.0588  157.3695 H   0  0  0  0  0  0  0  0  0  0  0  0  # atno 11005 bound_to 11000
  145.7336  141.0033  143.1338 LP  0  0  0  0  0  0  0  0  0  0  0  0  # atno 17320 bound_to 7965
  144.6954  139.9014  143.7458 LP  0  0  0  0  0  0  0  0  0  0  0  0  # atno 17321 bound_to 7965
  139.9694  144.6504  150.8003 LP  0  0  0  0  0  0  0  0  0  0  0  0  # atno 17342 bound_to 10162
  140.7568  143.3073  151.2931 LP  0  0  0  0  0  0  0  0  0  0  0  0  # atno 17343 bound_to 10162
  157.7351  131.0575  150.5487 LP  0  0  0  0  0  0  0  0  0  0  0  0  # atno 17370 bound_to 10713
  156.5607  130.4255  149.6064 LP  0  0  0  0  0  0  0  0  0  0  0  0  # atno 17371 bound_to 10713
  139.8976  135.0151  156.7110 LP  0  0  0  0  0  0  0  0  0  0  0  0  # atno 17394 bound_to 11000
  140.7094  133.9236  155.8075 LP  0  0  0  0  0  0  0  0  0  0  0  0  # atno 17395 bound_to 11000

$$$$
