AV-unprocessed.smi:54|AV-procd|sdf|537|dock5
  -GOLD-   2262016423D 1   1.00000     0.00000
 Structure written by MMmdl.
 44 46  0  0  0  0  0  0  0  0  1 V2000
  149.8896  144.5360  159.6552 C   0  0  0  0  0  0  0  0  0  0  0  0
  151.1113  143.6663  159.3173 C   0  0  0  0  0  0  0  0  0  0  0  0
  152.2449  144.5079  158.7089 C   0  0  0  0  0  0  0  0  0  0  0  0
  150.7109  142.5291  158.3716 C   0  0  0  0  0  0  0  0  0  0  0  0
  149.5570  142.3917  157.9644 O   0  0  0  0  0  0  0  0  0  0  0  0
  151.7816  141.6354  157.9769 N   0  0  0  0  0  0  0  0  0  0  0  0
  151.6601  140.5472  157.1857 C   0  0  0  0  0  0  0  0  0  0  0  0
  150.5757  140.3141  156.4607 N   0  0  0  0  0  0  0  0  0  0  0  0
  150.6137  139.1534  155.7366 C   0  0  0  0  0  0  0  0  0  0  0  0
  151.6500  138.2417  155.7071 C   0  0  0  0  0  0  0  0  0  0  0  0
  151.3382  137.1848  154.8598 N   0  0  0  0  0  0  0  0  0  0  0  0
  150.1457  137.4739  154.4209 C   0  0  0  0  0  0  0  0  0  0  0  0
  149.6283  138.6494  154.9079 N   0  0  0  0  0  0  0  0  0  0  0  0
  148.2843  139.2395  154.6145 C   0  0  2  0  0  0  0  0  0  0  0  0
  147.6527  138.5001  153.6210 O   0  0  0  0  0  0  0  0  0  0  0  0
  146.7387  139.3406  152.9221 C   0  0  2  0  0  0  0  0  0  0  0  0
  146.8010  139.0200  151.4172 C   0  0  0  0  0  0  0  0  0  0  0  0
  147.0329  137.6468  151.1758 O   0  0  0  0  0  0  0  0  0  0  0  0
  147.0663  140.7984  153.3096 C   0  0  1  0  0  0  0  0  0  0  0  0
  146.0324  141.3109  154.1294 O   0  0  0  0  0  0  0  0  0  0  0  0
  148.3577  140.6867  154.1105 C   0  0  2  0  0  0  0  0  0  0  0  0
  149.4856  140.9391  153.2932 O   0  0  0  0  0  0  0  0  0  0  0  0
  152.8245  138.4766  156.4968 C   0  0  0  0  0  0  0  0  0  0  0  0
  153.8293  137.7755  156.5941 O   0  0  0  0  0  0  0  0  0  0  0  0
  152.7429  139.6704  157.2239 N   0  0  0  0  0  0  0  0  0  0  0  0
  147.7227  139.1477  155.5454 H   0  0  0  0  0  0  0  0  0  0  0  0
  145.7417  139.0736  153.2770 H   0  0  0  0  0  0  0  0  0  0  0  0
  147.1662  141.4615  152.4490 H   0  0  0  0  0  0  0  0  0  0  0  0
  148.3947  141.3727  154.9578 H   0  0  0  0  0  0  0  0  0  0  0  0
  149.0808  143.9377  160.0770 H   0  0  0  0  0  0  0  0  0  0  0  0
  149.5020  145.0433  158.7707 H   0  0  0  0  0  0  0  0  0  0  0  0
  150.1462  145.3010  160.3884 H   0  0  0  0  0  0  0  0  0  0  0  0
  151.4792  143.2248  160.2447 H   0  0  0  0  0  0  0  0  0  0  0  0
  153.1088  143.8904  158.4603 H   0  0  0  0  0  0  0  0  0  0  0  0
  152.5813  145.2719  159.4103 H   0  0  0  0  0  0  0  0  0  0  0  0
  151.9244  145.0153  157.7979 H   0  0  0  0  0  0  0  0  0  0  0  0
  152.7111  141.8835  158.2818 H   0  0  0  0  0  0  0  0  0  0  0  0
  149.6077  136.8331  153.7374 H   0  0  0  0  0  0  0  0  0  0  0  0
  145.8821  139.3316  150.9207 H   0  0  0  0  0  0  0  0  0  0  0  0
  147.6157  139.5789  150.9567 H   0  0  0  0  0  0  0  0  0  0  0  0
  147.5975  137.3151  151.8569 H   0  0  0  0  0  0  0  0  0  0  0  0
  145.2129  141.2346  153.6653 H   0  0  0  0  0  0  0  0  0  0  0  0
  149.5297  140.2626  152.6335 H   0  0  0  0  0  0  0  0  0  0  0  0
  153.5349  139.9008  157.8056 H   0  0  0  0  0  0  0  0  0  0  0  0
  1  2  1  0  0  0  0
  1 30  1  0  0  0  0
  1 31  1  0  0  0  0
  1 32  1  0  0  0  0
  2  3  1  0  0  0  0
  2  4  1  0  0  0  0
  2 33  1  0  0  0  0
  3 34  1  0  0  0  0
  3 35  1  0  0  0  0
  3 36  1  0  0  0  0
  4  5  2  0  0  0  0
  4  6  1  0  0  0  0
  6 37  1  0  0  0  0
  6  7  1  0  0  0  0
  7 25  1  0  0  0  0
  7  8  2  0  0  0  0
  8  9  1  0  0  0  0
  9 13  1  0  0  0  0
  9 10  2  0  0  0  0
 10 11  1  0  0  0  0
 10 23  1  0  0  0  0
 11 12  2  0  0  0  0
 12 13  1  0  0  0  0
 12 38  1  0  0  0  0
 13 14  1  0  0  0  0
 14 26  1  0  0  0  0
 14 21  1  0  0  0  0
 14 15  1  0  0  0  0
 15 16  1  0  0  0  0
 16 27  1  0  0  0  0
 16 17  1  0  0  0  0
 16 19  1  0  0  0  0
 17 18  1  0  0  0  0
 17 39  1  0  0  0  0
 17 40  1  0  0  0  0
 18 41  1  0  0  0  0
 19 28  1  0  0  0  0
 19 20  1  0  0  0  0
 19 21  1  0  0  0  0
 20 42  1  0  0  0  0
 21 29  1  0  0  0  0
 21 22  1  0  0  0  0
 22 43  1  0  0  0  0
 23 24  2  0  0  0  0
 23 25  1  0  0  0  0
 25 44  1  0  0  0  0
M  END
> <s_m_source_file>
AV-unprocessed.smi

> <i_m_source_file_index>
54

> <i_lp_mmshare_version>
43012

> <i_f3d_flags>
0

> <s_epik_input>
W0NIM11bQ0hdKFtDSDNdKUMoPU8pW05IXWMobjEpW25IXWMoPU8pYyhjMTIpbltjSF1uMltDQEBIXTNPW0NASF0oW0NIMl1bT0hdKVtDQEBIXShbT0hdKVtDQEhdM1tPSF0=

> <s_epik_cmdline>
J2VwaWtfcHl0aG9uJywgJy1waCcsICc3LjAnLCAnLXRuJywgJzgnLCAnLW1hJywgJzIwMCcsICctbWV0YWxfYmluZGluZycsICctaW1hZScsICc8aW5maWxlLm1hZT4nLCAnLW9tYWUnLCAnPG91dGZpbGUubWFlPic=

> <r_lp_tautomer_probability>
0.85571

> <r_epik_Ionization_Penalty>
0.0316551

> <r_epik_Ionization_Penalty_Charging>
0.0316043

> <r_epik_Ionization_Penalty_Neutral>
5.07097e-05

> <r_epik_State_Penalty>
3.15494e-07

> <r_epik_Charging_Adjusted_Penalty>
0.0316047

> <i_epik_Tot_Q>
0

> <i_epik_Tot_abs_Q>
0

> <r_epik_Metal_State_Penalty>
0.421206

> <b_epik_Metal_Only>
0

> <s_epik_Chemistry_Notes>
This compound contains an acetal/aminal-like group ( X-CH(R)-Y where X, Y are N, S, or O) that may be acid/base labile, releasing an aldehyde.

> <s_lp_Force_Field>
OPLS_2005

> <r_lp_Energy>
42.9464

> <b_lp_Chiralities_Consistent>
1

> <s_lp_Variant>
AV-unprocessed.smi:54-9

> <Gold.Version>
5.8.1

> <Gold.Id.Protein>
6NUR|6NUR_protein|mol2

> <Gold.PLP.Fitness>
54.6806

> <Gold.PLP.PLP>
-38.0111

> <Gold.PLP.part.hbond>
-6.4028

> <Gold.PLP.part.metal>
0.0000

> <Gold.PLP.part.buried>
-1.9105

> <Gold.PLP.part.nonpolar>
-33.1199

> <Gold.PLP.part.repulsive>
3.5655

> <Gold.PLP.ligand.clash>
0.0000

> <Gold.PLP.ligand.torsion>
0.4155

> <Gold.PLP.Chemscore.Hbond>
4.8221

> <Gold.PLP.Chemscore.CHOScore>
1.0000

> <Gold.PLP.Chemscore.Metal>
0.0000

> <Gold.Chemscore.Hbonds>
donor molecule, donor type, donor heavy atom, donor atom, acceptor molecule, acceptor atom, score
      L1  H    18    41       P1  7948  0.64
      L1  H    20    42       P1 10175  0.91
      L1  H    22    43       P1  7957  0.76
      P1  H  7954  7966       L1    18  0.85
      P1  H  7989  7998       L1    22  0.07
      P1  H  8011  8017       L1    22  1.00
      P1  H 10752 10763       L1    11  0.39
      L1  C    12    38       P1  7948  1.00

> <Gold.PLP.Chemscore.Internal.Correction>
0.0341

> <Gold.Rescore>
     Score         DG    S(hbond)    S(metal)    S(lipo)     H(rot)  DE(clash)    DE(int)     intcor
      8.85     -12.69       2.80        0.00      70.24       4.05       1.99       1.86       ----

> <Gold.Chemscore.Fitness>
8.8478

> <Gold.Chemscore.DG>
-12.6946

> <Gold.Chemscore.ZeroCoef>
-5.4800

> <Gold.Chemscore.Hbond>
2.8031

> <Gold.Chemscore.Metal>
0.0000

> <Gold.Chemscore.Lipo>
70.2434

> <Gold.Chemscore.Internal_Hbond>
0.0000

> <Gold.Chemscore.DEClash>
1.9883

> <Gold.Chemscore.DEInternal>
1.8585

> <Gold.Chemscore.Rot>
4.0493

> <Gold.Chemscore.Internal.Correction>
   9.000000E+99

> <Gold.Chemscore.Hbonds>
donor molecule, donor type, donor heavy atom, donor atom, acceptor molecule, acceptor atom, score
      L1  H    18    41       P1  7948  0.64
      L1  H    20    42       P1 10175  0.40
      L1  H    22    43       P1  7957  0.74
      P1  H  7954  7966       L1    18  0.04
      P1  H  8011  8017       L1    22  0.30
      P1  H 10752 10763       L1    11  0.38

> <Gold.Chemscore.Hbond.Weighted>
-9.3624

> <Gold.Chemscore.Metal.Weighted>
-0.0000

> <Gold.Chemscore.Lipo.Weighted>
-8.2185

> <Gold.Chemscore.Internal_Hbond.Weighted>
0.0000

> <Gold.Chemscore.DEClash.Weighted>
1.9883

> <Gold.Chemscore.DEInternal.Weighted>
1.8585

> <Gold.Chemscore.Rot.Weighted>
10.3662

> <Gold.Chemscore.Internal.Correction.Weighted>
   9.000000E+99

> <Gold.Protein.RotatedTorsions>
[ 6907 6896 6895 6894 ] final   20.43 input  -60.11 | X-H torsion
[ 7974 7965 7964 7962 ] final -131.60 input  175.53 | X-H torsion
[ 8008 7997 7996 7995 ] final  116.62 input   59.86 | X-H torsion
[ 10167 10162 10161 10158 ] final   10.59 input  -65.29 | X-H torsion
[ 10718 10713 10712 10709 ] final -141.13 input   66.30 | X-H torsion
[ 10763 10752 10751 10750 ] final   43.18 input  -60.55 | X-H torsion
[ 11005 11000 10999 10996 ] final  -12.55 input  -57.11 | X-H torsion

> <Gold.Protein.ActiveResidues>
 VAL166  LYS551  ARG553  GLY616  TRP617  ASP618  TYR619  PRO620  LYS621  CYS622 
 ASP623  PHE694  ASN695  SER759  ASP760  ASP761  ALA762  ILE779  LEU786  VAL792 
 PHE793  MET794  SER795  GLU796  ALA797  LYS798  CYS799  TRP800  GLU811  SER814 

> <Gold.Protein.RotatedAtoms>
  151.8962  135.0397  160.0502 H   0  0  0  0  0  0  0  0  0  0  0  0  # atno 6907 bound_to 6896
  152.2396  133.5119  159.5270 H   0  0  0  0  0  0  0  0  0  0  0  0  # atno 6908 bound_to 6896
  150.7049  134.1024  159.4013 H   0  0  0  0  0  0  0  0  0  0  0  0  # atno 6909 bound_to 6896
  144.9364  140.7188  143.4874 H   0  0  0  0  0  0  0  0  0  0  0  0  # atno 7974 bound_to 7965
  156.2449  140.2914  156.0551 H   0  0  0  0  0  0  0  0  0  0  0  0  # atno 8008 bound_to 7997
  155.1838  140.0405  157.2904 H   0  0  0  0  0  0  0  0  0  0  0  0  # atno 8009 bound_to 7997
  154.6241  140.2483  155.7520 H   0  0  0  0  0  0  0  0  0  0  0  0  # atno 8010 bound_to 7997
  140.6185  143.8256  150.7147 H   0  0  0  0  0  0  0  0  0  0  0  0  # atno 10167 bound_to 10162
  156.3305  130.7583  151.1700 H   0  0  0  0  0  0  0  0  0  0  0  0  # atno 10718 bound_to 10713
  152.9866  135.6109  154.3070 H   0  0  0  0  0  0  0  0  0  0  0  0  # atno 10763 bound_to 10752
  154.2787  135.2777  155.2708 H   0  0  0  0  0  0  0  0  0  0  0  0  # atno 10764 bound_to 10752
  154.5057  135.5854  153.6622 H   0  0  0  0  0  0  0  0  0  0  0  0  # atno 10765 bound_to 10752
  140.7668  133.8470  155.9172 H   0  0  0  0  0  0  0  0  0  0  0  0  # atno 11005 bound_to 11000
  145.3061  139.1834  143.4664 LP  0  0  0  0  0  0  0  0  0  0  0  0  # atno 17320 bound_to 7965
  146.3268  140.3058  142.8623 LP  0  0  0  0  0  0  0  0  0  0  0  0  # atno 17321 bound_to 7965
  140.1841  143.4091  152.1912 LP  0  0  0  0  0  0  0  0  0  0  0  0  # atno 17342 bound_to 10162
  139.5418  144.7264  151.4708 LP  0  0  0  0  0  0  0  0  0  0  0  0  # atno 17343 bound_to 10162
  157.7429  131.0482  150.4986 LP  0  0  0  0  0  0  0  0  0  0  0  0  # atno 17370 bound_to 10713
  156.5151  130.4148  149.6280 LP  0  0  0  0  0  0  0  0  0  0  0  0  # atno 17371 bound_to 10713
  140.9611  134.1654  157.4653 LP  0  0  0  0  0  0  0  0  0  0  0  0  # atno 17394 bound_to 11000
  139.8762  134.9945  156.5696 LP  0  0  0  0  0  0  0  0  0  0  0  0  # atno 17395 bound_to 11000

$$$$
