AV-unprocessed.smi:54|AV-procd|sdf|529|dock7
  -GOLD-   2262016403D 1   1.00000     0.00000
 Structure written by MMmdl.
 44 46  0  0  0  0  0  0  0  0  1 V2000
  151.7114  145.5991  160.0450 C   0  0  0  0  0  0  0  0  0  0  0  0
  150.6795  144.9228  159.1280 C   0  0  0  0  0  0  0  0  0  0  0  0
  149.3460  144.6970  159.8588 C   0  0  0  0  0  0  0  0  0  0  0  0
  151.2252  143.5978  158.5843 C   0  0  0  0  0  0  0  0  0  0  0  0
  152.2479  143.0800  159.0329 O   0  0  0  0  0  0  0  0  0  0  0  0
  150.4636  143.0070  157.5005 N   0  0  0  0  0  0  0  0  0  0  0  0
  150.7154  141.8379  156.8687 C   0  0  0  0  0  0  0  0  0  0  0  0
  150.0076  141.4071  155.8336 N   0  0  0  0  0  0  0  0  0  0  0  0
  150.4346  140.2193  155.3036 C   0  0  0  0  0  0  0  0  0  0  0  0
  151.5009  139.4631  155.7485 C   0  0  0  0  0  0  0  0  0  0  0  0
  151.6393  138.3195  154.9712 N   0  0  0  0  0  0  0  0  0  0  0  0
  150.6807  138.4167  154.0940 C   0  0  0  0  0  0  0  0  0  0  0  0
  149.9016  139.5407  154.2231 N   0  0  0  0  0  0  0  0  0  0  0  0
  148.7354  139.9360  153.3751 C   0  0  2  0  0  0  0  0  0  0  0  0
  148.1955  141.1129  153.8935 O   0  0  0  0  0  0  0  0  0  0  0  0
  146.7752  141.0267  153.9068 C   0  0  2  0  0  0  0  0  0  0  0  0
  146.2093  141.9698  154.9801 C   0  0  0  0  0  0  0  0  0  0  0  0
  144.7987  141.9761  154.9263 O   0  0  0  0  0  0  0  0  0  0  0  0
  146.5341  139.5442  154.1972 C   0  0  1  0  0  0  0  0  0  0  0  0
  145.2352  139.1152  153.8333 O   0  0  0  0  0  0  0  0  0  0  0  0
  147.6438  138.8546  153.4089 C   0  0  1  0  0  0  0  0  0  0  0  0
  147.2368  138.5087  152.0971 O   0  0  0  0  0  0  0  0  0  0  0  0
  152.2745  139.9161  156.8682 C   0  0  0  0  0  0  0  0  0  0  0  0
  153.2452  139.3745  157.3928 O   0  0  0  0  0  0  0  0  0  0  0  0
  151.8092  141.1362  157.3727 N   0  0  0  0  0  0  0  0  0  0  0  0
  149.1580  140.1054  152.3835 H   0  0  0  0  0  0  0  0  0  0  0  0
  146.3890  141.2726  152.9153 H   0  0  0  0  0  0  0  0  0  0  0  0
  146.6792  139.3461  155.2580 H   0  0  0  0  0  0  0  0  0  0  0  0
  147.9963  137.9535  153.9129 H   0  0  0  0  0  0  0  0  0  0  0  0
  152.6596  145.7548  159.5286 H   0  0  0  0  0  0  0  0  0  0  0  0
  151.9114  145.0011  160.9351 H   0  0  0  0  0  0  0  0  0  0  0  0
  151.3566  146.5754  160.3767 H   0  0  0  0  0  0  0  0  0  0  0  0
  150.4929  145.5869  158.2828 H   0  0  0  0  0  0  0  0  0  0  0  0
  148.6160  144.2098  159.2109 H   0  0  0  0  0  0  0  0  0  0  0  0
  148.9141  145.6446  160.1821 H   0  0  0  0  0  0  0  0  0  0  0  0
  149.4732  144.0732  160.7449 H   0  0  0  0  0  0  0  0  0  0  0  0
  149.6831  143.5492  157.1602 H   0  0  0  0  0  0  0  0  0  0  0  0
  150.5154  137.6706  153.3304 H   0  0  0  0  0  0  0  0  0  0  0  0
  146.4979  141.6268  155.9741 H   0  0  0  0  0  0  0  0  0  0  0  0
  146.5948  142.9826  154.8619 H   0  0  0  0  0  0  0  0  0  0  0  0
  144.5255  141.4951  154.1603 H   0  0  0  0  0  0  0  0  0  0  0  0
  144.8773  139.7365  153.2178 H   0  0  0  0  0  0  0  0  0  0  0  0
  147.7947  137.8120  151.7858 H   0  0  0  0  0  0  0  0  0  0  0  0
  152.3122  141.5198  158.1594 H   0  0  0  0  0  0  0  0  0  0  0  0
  1  2  1  0  0  0  0
  1 30  1  0  0  0  0
  1 31  1  0  0  0  0
  1 32  1  0  0  0  0
  2  3  1  0  0  0  0
  2  4  1  0  0  0  0
  2 33  1  0  0  0  0
  3 34  1  0  0  0  0
  3 35  1  0  0  0  0
  3 36  1  0  0  0  0
  4  5  2  0  0  0  0
  4  6  1  0  0  0  0
  6 37  1  0  0  0  0
  6  7  1  0  0  0  0
  7 25  1  0  0  0  0
  7  8  2  0  0  0  0
  8  9  1  0  0  0  0
  9 13  1  0  0  0  0
  9 10  2  0  0  0  0
 10 11  1  0  0  0  0
 10 23  1  0  0  0  0
 11 12  2  0  0  0  0
 12 13  1  0  0  0  0
 12 38  1  0  0  0  0
 13 14  1  0  0  0  0
 14 26  1  0  0  0  0
 14 21  1  0  0  0  0
 14 15  1  0  0  0  0
 15 16  1  0  0  0  0
 16 27  1  0  0  0  0
 16 17  1  0  0  0  0
 16 19  1  0  0  0  0
 17 18  1  0  0  0  0
 17 39  1  0  0  0  0
 17 40  1  0  0  0  0
 18 41  1  0  0  0  0
 19 28  1  0  0  0  0
 19 20  1  0  0  0  0
 19 21  1  0  0  0  0
 20 42  1  0  0  0  0
 21 29  1  0  0  0  0
 21 22  1  0  0  0  0
 22 43  1  0  0  0  0
 23 24  2  0  0  0  0
 23 25  1  0  0  0  0
 25 44  1  0  0  0  0
M  END
> <s_m_source_file>
AV-unprocessed.smi

> <i_m_source_file_index>
54

> <i_lp_mmshare_version>
43012

> <i_f3d_flags>
0

> <s_epik_input>
W0NIM11bQ0hdKFtDSDNdKUMoPU8pW05IXWMobjEpW25IXWMoPU8pYyhjMTIpbltjSF1uMltDQEBIXTNPW0NASF0oW0NIMl1bT0hdKVtDQEBIXShbT0hdKVtDQEhdM1tPSF0=

> <s_epik_cmdline>
J2VwaWtfcHl0aG9uJywgJy1waCcsICc3LjAnLCAnLXRuJywgJzgnLCAnLW1hJywgJzIwMCcsICctbWV0YWxfYmluZGluZycsICctaW1hZScsICc8aW5maWxlLm1hZT4nLCAnLW9tYWUnLCAnPG91dGZpbGUubWFlPic=

> <r_lp_tautomer_probability>
0.85571

> <r_epik_Ionization_Penalty>
0.0316551

> <r_epik_Ionization_Penalty_Charging>
0.0316043

> <r_epik_Ionization_Penalty_Neutral>
5.07097e-05

> <r_epik_State_Penalty>
3.15494e-07

> <r_epik_Charging_Adjusted_Penalty>
0.0316047

> <i_epik_Tot_Q>
0

> <i_epik_Tot_abs_Q>
0

> <r_epik_Metal_State_Penalty>
0.421206

> <b_epik_Metal_Only>
0

> <s_epik_Chemistry_Notes>
This compound contains an acetal/aminal-like group ( X-CH(R)-Y where X, Y are N, S, or O) that may be acid/base labile, releasing an aldehyde.

> <s_lp_Force_Field>
OPLS_2005

> <r_lp_Energy>
41.8927

> <b_lp_Chiralities_Consistent>
1

> <s_lp_Variant>
AV-unprocessed.smi:54-1

> <Gold.Version>
5.8.1

> <Gold.Id.Protein>
6NUR|6NUR_protein|mol2

> <Gold.PLP.Fitness>
57.7943

> <Gold.PLP.PLP>
-39.8602

> <Gold.PLP.part.hbond>
-5.7760

> <Gold.PLP.part.metal>
0.0000

> <Gold.PLP.part.buried>
1.0375

> <Gold.PLP.part.nonpolar>
-35.1380

> <Gold.PLP.part.repulsive>
0.4163

> <Gold.PLP.ligand.clash>
0.0000

> <Gold.PLP.ligand.torsion>
0.2397

> <Gold.PLP.Chemscore.Hbond>
4.9588

> <Gold.PLP.Chemscore.CHOScore>
1.1700

> <Gold.PLP.Chemscore.Metal>
0.0000

> <Gold.Chemscore.Hbonds>
donor molecule, donor type, donor heavy atom, donor atom, acceptor molecule, acceptor atom, score
      L1  H     6    37       P1  8028  0.92
      L1  H    18    41       P1 10175  0.80
      L1  H    20    42       P1 10175  1.00
      L1  H    22    43       P1  7948  1.00
      P1  H  7997  8009       L1    24  1.00
      L1  C    12    38       P1  7948  0.66
      L1  C    12    38       P1  7949  0.49

> <Gold.PLP.Chemscore.Internal.Correction>
0.0272

> <Gold.Rescore>
     Score         DG    S(hbond)    S(metal)    S(lipo)     H(rot)  DE(clash)    DE(int)     intcor
     12.74     -16.75       4.67        0.00      51.50       4.05       2.19       1.82       ----

> <Gold.Chemscore.Fitness>
12.7378

> <Gold.Chemscore.DG>
-16.7521

> <Gold.Chemscore.ZeroCoef>
-5.4800

> <Gold.Chemscore.Hbond>
4.6746

> <Gold.Chemscore.Metal>
0.0000

> <Gold.Chemscore.Lipo>
51.4967

> <Gold.Chemscore.Internal_Hbond>
0.0000

> <Gold.Chemscore.DEClash>
2.1904

> <Gold.Chemscore.DEInternal>
1.8240

> <Gold.Chemscore.Rot>
4.0493

> <Gold.Chemscore.Internal.Correction>
   9.000000E+99

> <Gold.Chemscore.Hbonds>
donor molecule, donor type, donor heavy atom, donor atom, acceptor molecule, acceptor atom, score
      L1  H     6    37       P1  8028  0.78
      L1  H    18    41       P1 10175  0.27
      L1  H    20    42       P1 10175  0.95
      L1  H    22    43       P1  7948  0.99
      P1  H  7997  8009       L1    24  0.82

> <Gold.Chemscore.Hbond.Weighted>
-15.6133

> <Gold.Chemscore.Metal.Weighted>
-0.0000

> <Gold.Chemscore.Lipo.Weighted>
-6.0251

> <Gold.Chemscore.Internal_Hbond.Weighted>
0.0000

> <Gold.Chemscore.DEClash.Weighted>
2.1904

> <Gold.Chemscore.DEInternal.Weighted>
1.8240

> <Gold.Chemscore.Rot.Weighted>
10.3662

> <Gold.Chemscore.Internal.Correction.Weighted>
   9.000000E+99

> <Gold.Protein.RotatedTorsions>
[ 6907 6896 6895 6894 ] final  164.73 input  -60.11 | X-H torsion
[ 7974 7965 7964 7962 ] final -100.50 input  175.53 | X-H torsion
[ 8008 7997 7996 7995 ] final  153.56 input   59.86 | X-H torsion
[ 10167 10162 10161 10158 ] final -126.15 input  -65.29 | X-H torsion
[ 10718 10713 10712 10709 ] final   27.08 input   66.30 | X-H torsion
[ 10763 10752 10751 10750 ] final    6.98 input  -60.55 | X-H torsion
[ 11005 11000 10999 10996 ] final   20.21 input  -57.11 | X-H torsion

> <Gold.Protein.ActiveResidues>
 VAL166  LYS551  ARG553  GLY616  TRP617  ASP618  TYR619  PRO620  LYS621  CYS622 
 ASP623  PHE694  ASN695  SER759  ASP760  ASP761  ALA762  ILE779  LEU786  VAL792 
 PHE793  MET794  SER795  GLU796  ALA797  LYS798  CYS799  TRP800  GLU811  SER814 

> <Gold.Protein.RotatedAtoms>
  151.9054  133.3548  159.3844 H   0  0  0  0  0  0  0  0  0  0  0  0  # atno 6907 bound_to 6896
  150.7070  134.4786  159.5469 H   0  0  0  0  0  0  0  0  0  0  0  0  # atno 6908 bound_to 6896
  152.2382  134.8255  160.0515 H   0  0  0  0  0  0  0  0  0  0  0  0  # atno 6909 bound_to 6896
  145.2937  140.9359  143.2863 H   0  0  0  0  0  0  0  0  0  0  0  0  # atno 7974 bound_to 7965
  156.2575  140.1990  156.6510 H   0  0  0  0  0  0  0  0  0  0  0  0  # atno 8008 bound_to 7997
  154.6537  140.0569  157.0009 H   0  0  0  0  0  0  0  0  0  0  0  0  # atno 8009 bound_to 7997
  155.1380  140.3240  155.4461 H   0  0  0  0  0  0  0  0  0  0  0  0  # atno 8010 bound_to 7997
  139.9745  143.5809  152.2401 H   0  0  0  0  0  0  0  0  0  0  0  0  # atno 10167 bound_to 10162
  157.2154  130.6953  149.6246 H   0  0  0  0  0  0  0  0  0  0  0  0  # atno 10718 bound_to 10713
  153.2415  135.6904  153.7777 H   0  0  0  0  0  0  0  0  0  0  0  0  # atno 10763 bound_to 10752
  153.6905  135.3313  155.3202 H   0  0  0  0  0  0  0  0  0  0  0  0  # atno 10764 bound_to 10752
  154.8357  135.4544  154.1339 H   0  0  0  0  0  0  0  0  0  0  0  0  # atno 10765 bound_to 10752
  140.4052  134.1676  155.7665 H   0  0  0  0  0  0  0  0  0  0  0  0  # atno 11005 bound_to 11000
  144.9151  139.4480  143.6568 LP  0  0  0  0  0  0  0  0  0  0  0  0  # atno 17320 bound_to 7965
  146.3176  139.7981  142.8971 LP  0  0  0  0  0  0  0  0  0  0  0  0  # atno 17321 bound_to 7965
  139.6456  144.7658  151.2250 LP  0  0  0  0  0  0  0  0  0  0  0  0  # atno 17342 bound_to 10162
  140.7510  143.6245  150.8482 LP  0  0  0  0  0  0  0  0  0  0  0  0  # atno 17343 bound_to 10162
  155.9687  130.4537  150.5823 LP  0  0  0  0  0  0  0  0  0  0  0  0  # atno 17370 bound_to 10713
  157.3630  131.0753  151.1621 LP  0  0  0  0  0  0  0  0  0  0  0  0  # atno 17371 bound_to 10713
  141.1842  133.8349  157.1148 LP  0  0  0  0  0  0  0  0  0  0  0  0  # atno 17394 bound_to 11000
  140.0307  134.9902  157.0775 LP  0  0  0  0  0  0  0  0  0  0  0  0  # atno 17395 bound_to 11000

$$$$
