AV-unprocessed.smi:1554|AV-procd|sdf|6250|dock3
  -GOLD-   22720 6433D 1   1.00000     0.00000
 Structure written by MMmdl.
 48 50  0  0  0  0  0  0  0  0  2 V2000
  153.3186  142.6179  161.7045 C   0  0  0  0  0  0  0  0  0  0  0  0
  152.6844  142.3635  160.3482 C   0  0  0  0  0  0  0  0  0  0  0  0
  152.9976  141.1718  159.6565 C   0  0  0  0  0  0  0  0  0  0  0  0
  152.4314  140.8976  158.3925 C   0  0  0  0  0  0  0  0  0  0  0  0
  152.5969  139.8118  157.5503 N   0  0  0  0  0  0  0  0  0  0  0  0
  151.8106  140.1407  156.5300 C   0  0  0  0  0  0  0  0  0  0  0  0
  151.1636  141.3203  156.6052 N   0  0  0  0  0  0  0  0  0  0  0  0
  150.2668  141.8910  155.6154 C   0  0  0  0  0  0  0  0  0  0  0  0
  149.4049  140.8253  154.9084 C   0  0  2  0  0  0  0  0  0  0  0  0
  150.2301  140.1568  153.9755 O   0  0  0  0  0  0  0  0  0  0  0  0
  148.1794  141.4135  154.1717 C   0  0  0  0  0  0  0  0  0  0  0  0
  147.3513  142.2868  155.0413 N   0  3  2  0  0  0  0  0  0  0  0  0
  147.0216  141.6453  156.3360 C   0  0  0  0  0  0  0  0  0  0  0  0
  146.2075  142.6044  157.2204 C   0  0  0  0  0  0  0  0  0  0  0  0
  145.0356  143.0161  156.5274 O   0  0  0  0  0  0  0  0  0  0  0  0
  145.3367  143.7144  155.3241 C   0  0  2  0  0  0  0  0  0  0  0  0
  144.0197  144.1941  154.7037 C   0  0  0  0  0  0  0  0  0  0  0  0
  146.1153  142.7772  154.3813 C   0  0  0  0  0  0  0  0  0  0  0  0
  151.5360  141.8563  157.8339 C   0  0  0  0  0  0  0  0  0  0  0  0
  151.2130  143.0435  158.5148 C   0  0  0  0  0  0  0  0  0  0  0  0
  151.7902  143.3032  159.7753 C   0  0  0  0  0  0  0  0  0  0  0  0
  151.4400  144.5917  160.4984 C   0  0  0  0  0  0  0  0  0  0  0  0
  153.9001  141.7584  162.0398 H   0  0  0  0  0  0  0  0  0  0  0  0
  152.5542  142.8147  162.4564 H   0  0  0  0  0  0  0  0  0  0  0  0
  153.9871  143.4775  161.6558 H   0  0  0  0  0  0  0  0  0  0  0  0
  153.6783  140.4554  160.0929 H   0  0  0  0  0  0  0  0  0  0  0  0
  151.7075  139.4905  155.6733 H   0  0  0  0  0  0  0  0  0  0  0  0
  149.6290  142.6262  156.1088 H   0  0  0  0  0  0  0  0  0  0  0  0
  150.8688  142.4367  154.8875 H   0  0  0  0  0  0  0  0  0  0  0  0
  149.0899  140.0947  155.6513 H   0  0  0  0  0  0  0  0  0  0  0  0
  149.7634  140.0696  153.1588 H   0  0  0  0  0  0  0  0  0  0  0  0
  148.4816  141.9940  153.2995 H   0  0  0  0  0  0  0  0  0  0  0  0
  147.5768  140.5886  153.7877 H   0  0  0  0  0  0  0  0  0  0  0  0
  146.4556  140.7294  156.1568 H   0  0  0  0  0  0  0  0  0  0  0  0
  147.9385  141.3604  156.8534 H   0  0  0  0  0  0  0  0  0  0  0  0
  145.9141  142.1059  158.1445 H   0  0  0  0  0  0  0  0  0  0  0  0
  146.8024  143.4742  157.5032 H   0  0  0  0  0  0  0  0  0  0  0  0
  145.9469  144.5884  155.5592 H   0  0  0  0  0  0  0  0  0  0  0  0
  144.1986  144.7450  153.7797 H   0  0  0  0  0  0  0  0  0  0  0  0
  143.4862  144.8562  155.3860 H   0  0  0  0  0  0  0  0  0  0  0  0
  143.3627  143.3554  154.4714 H   0  0  0  0  0  0  0  0  0  0  0  0
  146.3570  143.3097  153.4623 H   0  0  0  0  0  0  0  0  0  0  0  0
  145.4912  141.9272  154.0996 H   0  0  0  0  0  0  0  0  0  0  0  0
  150.5264  143.7494  158.0722 H   0  0  0  0  0  0  0  0  0  0  0  0
  150.7891  145.2234  159.8934 H   0  0  0  0  0  0  0  0  0  0  0  0
  152.3416  145.1614  160.7247 H   0  0  0  0  0  0  0  0  0  0  0  0
  150.9222  144.3753  161.4332 H   0  0  0  0  0  0  0  0  0  0  0  0
  147.9147  143.0954  155.2627 H   0  0  0  0  0  0  0  0  0  0  0  0
  1  2  1  0  0  0  0
  1 23  1  0  0  0  0
  1 24  1  0  0  0  0
  1 25  1  0  0  0  0
  2 21  1  0  0  0  0
  2  3  2  0  0  0  0
  3  4  1  0  0  0  0
  3 26  1  0  0  0  0
  4 19  2  0  0  0  0
  4  5  1  0  0  0  0
  5  6  2  0  0  0  0
  6  7  1  0  0  0  0
  6 27  1  0  0  0  0
  7  8  1  0  0  0  0
  7 19  1  0  0  0  0
  8  9  1  0  0  0  0
  8 28  1  0  0  0  0
  8 29  1  0  0  0  0
  9 10  1  0  0  0  0
  9 11  1  0  0  0  0
  9 30  1  0  0  0  0
 10 31  1  0  0  0  0
 11 12  1  0  0  0  0
 11 32  1  0  0  0  0
 11 33  1  0  0  0  0
 12 18  1  0  0  0  0
 12 13  1  0  0  0  0
 12 48  1  0  0  0  0
 13 14  1  0  0  0  0
 13 34  1  0  0  0  0
 13 35  1  0  0  0  0
 14 15  1  0  0  0  0
 14 36  1  0  0  0  0
 14 37  1  0  0  0  0
 15 16  1  0  0  0  0
 16 17  1  0  0  0  0
 16 18  1  0  0  0  0
 16 38  1  0  0  0  0
 17 39  1  0  0  0  0
 17 40  1  0  0  0  0
 17 41  1  0  0  0  0
 18 42  1  0  0  0  0
 18 43  1  0  0  0  0
 19 20  1  0  0  0  0
 20 21  2  0  0  0  0
 20 44  1  0  0  0  0
 21 22  1  0  0  0  0
 22 45  1  0  0  0  0
 22 46  1  0  0  0  0
 22 47  1  0  0  0  0
M  CHG  1  12   1
M  END
> <s_m_source_file>
AV-unprocessed.smi

> <i_m_source_file_index>
1554

> <i_lp_mmshare_version>
43012

> <i_f3d_flags>
0

> <s_epik_input>
W0NIM11jKFtjSF0xKWMoW0NIM10pW2NIXWMoYzEyKW4oW2NIXW4yKVtDSDJdW0NASF0oW09IXSlbQ0gyXU4zW0NIMl1bQ0gyXU9bQ0BASF0oW0NIM10pW0NIMl0z

> <s_epik_cmdline>
J2VwaWtfcHl0aG9uJywgJy1waCcsICc3LjAnLCAnLXRuJywgJzgnLCAnLW1hJywgJzIwMCcsICctbWV0YWxfYmluZGluZycsICctaW1hZScsICc8aW5maWxlLm1hZT4nLCAnLW9tYWUnLCAnPG91dGZpbGUubWFlPic=

> <r_epik_Ionization_Penalty>
0.695251

> <r_epik_Ionization_Penalty_Charging>
0.608065

> <r_epik_Ionization_Penalty_Neutral>
0.0871863

> <r_epik_State_Penalty>
0.731955

> <r_epik_Charging_Adjusted_Penalty>
1.34002

> <i_epik_Tot_Q>
1

> <i_epik_Tot_abs_Q>
1

> <r_epik_Metal_State_Penalty>
0.652186

> <b_epik_Metal_Only>
0

> <s_lp_Force_Field>
OPLS_2005

> <r_lp_Energy>
21.764

> <b_lp_Chiralities_Consistent>
1

> <s_lp_Variant>
AV-unprocessed.smi:1554-11

> <Gold.Version>
5.8.1

> <Gold.Id.Protein>
6NUR|6NUR_protein|mol2

> <Gold.PLP.Fitness>
61.5277

> <Gold.PLP.PLP>
-47.7886

> <Gold.PLP.part.hbond>
-3.9212

> <Gold.PLP.part.metal>
0.0000

> <Gold.PLP.part.buried>
-6.8144

> <Gold.PLP.part.nonpolar>
-36.8113

> <Gold.PLP.part.repulsive>
0.1842

> <Gold.PLP.ligand.clash>
0.0000

> <Gold.PLP.ligand.torsion>
0.5233

> <Gold.PLP.Chemscore.Hbond>
4.9120

> <Gold.PLP.Chemscore.CHOScore>
0.0000

> <Gold.PLP.Chemscore.Metal>
0.0000

> <Gold.Chemscore.Hbonds>
donor molecule, donor type, donor heavy atom, donor atom, acceptor molecule, acceptor atom, score
      L1  H    10    31       P1  7957  1.00
      L1  H    12    48       P1  8028  2.00
      P1  H  7989  7998       L1    10  0.93
      P1  H  7997  8010       L1     5  1.00

> <Gold.PLP.Chemscore.Internal.Correction>
0.0498

> <Gold.Rescore>
     Score         DG    S(hbond)    S(metal)    S(lipo)     H(rot)  DE(clash)    DE(int)     intcor
     21.81     -23.64       2.76        0.00     121.42       2.05       0.21       1.62       ----

> <Gold.Chemscore.Fitness>
21.8136

> <Gold.Chemscore.DG>
-23.6408

> <Gold.Chemscore.ZeroCoef>
-5.4800

> <Gold.Chemscore.Hbond>
2.7588

> <Gold.Chemscore.Metal>
0.0000

> <Gold.Chemscore.Lipo>
121.4192

> <Gold.Chemscore.Internal_Hbond>
0.0000

> <Gold.Chemscore.DEClash>
0.2086

> <Gold.Chemscore.DEInternal>
1.6186

> <Gold.Chemscore.Rot>
2.0546

> <Gold.Chemscore.Internal.Correction>
   9.000000E+99

> <Gold.Chemscore.Hbonds>
donor molecule, donor type, donor heavy atom, donor atom, acceptor molecule, acceptor atom, score
      L1  H    10    31       P1  7957  0.94
      L1  H    12    48       P1  8028  0.78
      P1  H  7989  7998       L1    10  0.26
      P1  H  7997  8010       L1     5  0.15

> <Gold.Chemscore.Hbond.Weighted>
-9.2144

> <Gold.Chemscore.Metal.Weighted>
-0.0000

> <Gold.Chemscore.Lipo.Weighted>
-14.2060

> <Gold.Chemscore.Internal_Hbond.Weighted>
0.0000

> <Gold.Chemscore.DEClash.Weighted>
0.2086

> <Gold.Chemscore.DEInternal.Weighted>
1.6186

> <Gold.Chemscore.Rot.Weighted>
5.2597

> <Gold.Chemscore.Internal.Correction.Weighted>
   9.000000E+99

> <Gold.Protein.RotatedTorsions>
[ 6907 6896 6895 6894 ] final -129.52 input  -60.11 | X-H torsion
[ 7974 7965 7964 7962 ] final  -49.96 input  175.53 | X-H torsion
[ 8008 7997 7996 7995 ] final   53.09 input   59.86 | X-H torsion
[ 10167 10162 10161 10158 ] final  -95.72 input  -65.29 | X-H torsion
[ 10718 10713 10712 10709 ] final -111.57 input   66.30 | X-H torsion
[ 10763 10752 10751 10750 ] final  107.22 input  -60.55 | X-H torsion
[ 11005 11000 10999 10996 ] final -124.48 input  -57.11 | X-H torsion

> <Gold.Protein.ActiveResidues>
 VAL166  LYS551  ARG553  GLY616  TRP617  ASP618  TYR619  PRO620  LYS621  CYS622 
 ASP623  PHE694  ASN695  SER759  ASP760  ASP761  ALA762  ILE779  LEU786  VAL792 
 PHE793  MET794  SER795  GLU796  ALA797  LYS798  CYS799  TRP800  GLU811  SER814 

> <Gold.Protein.RotatedAtoms>
  150.9296  133.6782  159.2813 H   0  0  0  0  0  0  0  0  0  0  0  0  # atno 6907 bound_to 6896
  151.4208  135.0996  159.9623 H   0  0  0  0  0  0  0  0  0  0  0  0  # atno 6908 bound_to 6896
  152.5020  133.8748  159.7372 H   0  0  0  0  0  0  0  0  0  0  0  0  # atno 6909 bound_to 6896
  145.9350  140.7715  142.9581 H   0  0  0  0  0  0  0  0  0  0  0  0  # atno 7974 bound_to 7965
  155.4625  140.3462  155.4314 H   0  0  0  0  0  0  0  0  0  0  0  0  # atno 8008 bound_to 7997
  156.1152  140.1472  156.9312 H   0  0  0  0  0  0  0  0  0  0  0  0  # atno 8009 bound_to 7997
  154.4784  140.0877  156.7297 H   0  0  0  0  0  0  0  0  0  0  0  0  # atno 8010 bound_to 7997
  140.3012  143.3161  152.0246 H   0  0  0  0  0  0  0  0  0  0  0  0  # atno 10167 bound_to 10162
  156.0655  130.5874  150.8391 H   0  0  0  0  0  0  0  0  0  0  0  0  # atno 10718 bound_to 10713
  153.4038  135.3851  155.2005 H   0  0  0  0  0  0  0  0  0  0  0  0  # atno 10763 bound_to 10752
  154.8732  135.3777  154.4586 H   0  0  0  0  0  0  0  0  0  0  0  0  # atno 10764 bound_to 10752
  153.5086  135.7087  153.5855 H   0  0  0  0  0  0  0  0  0  0  0  0  # atno 10765 bound_to 10752
  140.9838  134.0636  157.3735 H   0  0  0  0  0  0  0  0  0  0  0  0  # atno 11005 bound_to 11000
  144.6770  140.2187  143.7369 LP  0  0  0  0  0  0  0  0  0  0  0  0  # atno 17320 bound_to 7965
  145.8376  139.2115  143.1846 LP  0  0  0  0  0  0  0  0  0  0  0  0  # atno 17321 bound_to 7965
  139.4914  144.6454  151.6789 LP  0  0  0  0  0  0  0  0  0  0  0  0  # atno 17342 bound_to 10162
  140.5649  144.0206  150.6188 LP  0  0  0  0  0  0  0  0  0  0  0  0  # atno 17343 bound_to 10162
  157.5693  131.0946  150.9442 LP  0  0  0  0  0  0  0  0  0  0  0  0  # atno 17370 bound_to 10713
  156.9662  130.5473  149.5288 LP  0  0  0  0  0  0  0  0  0  0  0  0  # atno 17371 bound_to 10713
  139.8961  135.0144  156.7037 LP  0  0  0  0  0  0  0  0  0  0  0  0  # atno 17394 bound_to 11000
  140.7146  133.9193  155.8107 LP  0  0  0  0  0  0  0  0  0  0  0  0  # atno 17395 bound_to 11000

$$$$
