AV-unprocessed.smi:2083|AV-procd|sdf|8491|dock5
  -GOLD-   2272011203D 1   1.00000     0.00000
 Structure written by MMmdl.
 45 46  0  0  0  0  0  0  0  0  2 V2000
  152.6418  143.7994  161.3933 C   0  0  0  0  0  0  0  0  0  0  0  0
  152.1663  143.3337  160.0599 C   0  0  0  0  0  0  0  0  0  0  0  0
  151.0480  143.6063  159.3236 C   0  0  0  0  0  0  0  0  0  0  0  0
  151.2373  142.8247  158.1533 C   0  0  0  0  0  0  0  0  0  0  0  0
  150.2739  142.8283  157.1123 N   0  0  0  0  0  0  0  0  0  0  0  0
  150.0864  141.8903  156.1687 C   0  0  0  0  0  0  0  0  0  0  0  0
  150.7522  140.8615  156.0487 O   0  0  0  0  0  0  0  0  0  0  0  0
  149.0735  142.2151  155.3514 N   0  0  0  0  0  0  0  0  0  0  0  0
  148.5917  141.4015  154.2379 C   0  0  0  0  0  0  0  0  0  0  0  0
  147.0533  141.2094  154.2657 C   0  0  1  0  0  0  0  0  0  0  0  0
  146.2679  142.5168  154.0447 C   0  0  0  0  0  0  0  0  0  0  0  0
  146.5791  140.1539  153.3229 N   0  3  1  0  0  0  0  0  0  0  0  0
  147.1678  140.2053  151.9569 C   0  0  0  0  0  0  0  0  0  0  0  0
  146.4263  139.2460  151.0135 C   0  0  0  0  0  0  0  0  0  0  0  0
  146.4510  137.8131  151.5630 C   0  0  0  0  0  0  0  0  0  0  0  0
  145.8817  137.7755  152.9921 C   0  0  1  0  0  0  0  0  0  0  0  0
  145.9267  136.3564  153.5765 C   0  0  0  0  0  0  0  0  0  0  0  0
  146.6285  138.7807  153.8926 C   0  0  0  0  0  0  0  0  0  0  0  0
  152.3682  142.1361  158.1733 N   0  0  0  0  0  0  0  0  0  0  0  0
  152.9693  142.4585  159.3957 O   0  0  0  0  0  0  0  0  0  0  0  0
  151.9586  144.5369  161.8151 H   0  0  0  0  0  0  0  0  0  0  0  0
  153.6273  144.2584  161.3132 H   0  0  0  0  0  0  0  0  0  0  0  0
  152.7119  142.9654  162.0916 H   0  0  0  0  0  0  0  0  0  0  0  0
  150.2290  144.2604  159.5832 H   0  0  0  0  0  0  0  0  0  0  0  0
  149.6585  143.6277  157.0894 H   0  0  0  0  0  0  0  0  0  0  0  0
  148.5854  143.0818  155.5247 H   0  0  0  0  0  0  0  0  0  0  0  0
  148.9142  141.8395  153.2927 H   0  0  0  0  0  0  0  0  0  0  0  0
  149.0937  140.4370  154.3098 H   0  0  0  0  0  0  0  0  0  0  0  0
  146.7844  140.8748  155.2686 H   0  0  0  0  0  0  0  0  0  0  0  0
  146.4373  143.2233  154.8571 H   0  0  0  0  0  0  0  0  0  0  0  0
  145.1944  142.3291  154.0059 H   0  0  0  0  0  0  0  0  0  0  0  0
  146.5547  143.0138  153.1179 H   0  0  0  0  0  0  0  0  0  0  0  0
  147.1123  141.2156  151.5526 H   0  0  0  0  0  0  0  0  0  0  0  0
  148.2232  139.9327  151.9922 H   0  0  0  0  0  0  0  0  0  0  0  0
  145.3938  139.5758  150.8902 H   0  0  0  0  0  0  0  0  0  0  0  0
  146.8805  139.2723  150.0226 H   0  0  0  0  0  0  0  0  0  0  0  0
  145.8771  137.1551  150.9095 H   0  0  0  0  0  0  0  0  0  0  0  0
  147.4756  137.4384  151.5599 H   0  0  0  0  0  0  0  0  0  0  0  0
  144.8342  138.0781  152.9462 H   0  0  0  0  0  0  0  0  0  0  0  0
  146.9509  135.9898  153.6515 H   0  0  0  0  0  0  0  0  0  0  0  0
  145.3682  135.6573  152.9534 H   0  0  0  0  0  0  0  0  0  0  0  0
  145.4891  136.3275  154.5749 H   0  0  0  0  0  0  0  0  0  0  0  0
  147.6662  138.4695  154.0195 H   0  0  0  0  0  0  0  0  0  0  0  0
  146.1733  138.7782  154.8837 H   0  0  0  0  0  0  0  0  0  0  0  0
  145.5953  140.3470  153.1993 H   0  0  0  0  0  0  0  0  0  0  0  0
  1  2  1  0  0  0  0
  1 21  1  0  0  0  0
  1 22  1  0  0  0  0
  1 23  1  0  0  0  0
  2 20  1  0  0  0  0
  2  3  2  0  0  0  0
  3  4  1  0  0  0  0
  3 24  1  0  0  0  0
  4  5  1  0  0  0  0
  4 19  2  0  0  0  0
  5  6  1  0  0  0  0
  5 25  1  0  0  0  0
  6  7  2  0  0  0  0
  6  8  1  0  0  0  0
  8  9  1  0  0  0  0
  8 26  1  0  0  0  0
  9 10  1  0  0  0  0
  9 27  1  0  0  0  0
  9 28  1  0  0  0  0
 10 11  1  0  0  0  0
 10 12  1  0  0  0  0
 10 29  1  0  0  0  0
 11 30  1  0  0  0  0
 11 31  1  0  0  0  0
 11 32  1  0  0  0  0
 12 18  1  0  0  0  0
 12 13  1  0  0  0  0
 12 45  1  0  0  0  0
 13 14  1  0  0  0  0
 13 33  1  0  0  0  0
 13 34  1  0  0  0  0
 14 15  1  0  0  0  0
 14 35  1  0  0  0  0
 14 36  1  0  0  0  0
 15 16  1  0  0  0  0
 15 37  1  0  0  0  0
 15 38  1  0  0  0  0
 16 17  1  0  0  0  0
 16 18  1  0  0  0  0
 16 39  1  0  0  0  0
 17 40  1  0  0  0  0
 17 41  1  0  0  0  0
 17 42  1  0  0  0  0
 18 43  1  0  0  0  0
 18 44  1  0  0  0  0
 19 20  1  0  0  0  0
M  CHG  1  12   1
M  END
> <s_m_source_file>
AV-unprocessed.smi

> <i_m_source_file_index>
2083

> <i_lp_mmshare_version>
43012

> <i_f3d_flags>
0

> <s_epik_input>
W0NIM11jMVtjSF1jKG5vMSlbTkhdQyg9TylbTkhdW0NIMl1bQ0BIXShbQ0gzXSlOMltDSDJdW0NIMl1bQ0gyXVtDQEBIXShbQ0gzXSlbQ0gyXTI=

> <s_epik_cmdline>
J2VwaWtfcHl0aG9uJywgJy1waCcsICc3LjAnLCAnLXRuJywgJzgnLCAnLW1hJywgJzIwMCcsICctbWV0YWxfYmluZGluZycsICctaW1hZScsICc8aW5maWxlLm1hZT4nLCAnLW9tYWUnLCAnPG91dGZpbGUubWFlPic=

> <r_epik_Ionization_Penalty>
0.00216453

> <r_epik_Ionization_Penalty_Charging>
0.00212879

> <r_epik_Ionization_Penalty_Neutral>
3.57418e-05

> <r_epik_State_Penalty>
0.00146033

> <r_epik_Charging_Adjusted_Penalty>
0.00358912

> <i_epik_Tot_Q>
1

> <i_epik_Tot_abs_Q>
1

> <r_epik_Metal_State_Penalty>
0.0215827

> <b_epik_Metal_Only>
0

> <s_lp_Force_Field>
OPLS_2005

> <r_lp_Energy>
17.3533

> <b_lp_Chiralities_Consistent>
1

> <s_lp_Variant>
AV-unprocessed.smi:2083-2

> <Gold.Version>
5.8.1

> <Gold.Id.Protein>
6NUR|6NUR_protein|mol2

> <Gold.PLP.Fitness>
45.0981

> <Gold.PLP.PLP>
-34.6164

> <Gold.PLP.part.hbond>
-3.0000

> <Gold.PLP.part.metal>
0.0000

> <Gold.PLP.part.buried>
2.2097

> <Gold.PLP.part.nonpolar>
-33.5596

> <Gold.PLP.part.repulsive>
0.2106

> <Gold.PLP.ligand.clash>
0.0000

> <Gold.PLP.ligand.torsion>
0.7301

> <Gold.PLP.Chemscore.Hbond>
3.9440

> <Gold.PLP.Chemscore.CHOScore>
0.0000

> <Gold.PLP.Chemscore.Metal>
0.0000

> <Gold.Chemscore.Hbonds>
donor molecule, donor type, donor heavy atom, donor atom, acceptor molecule, acceptor atom, score
      L1  H     5    25       P1  8028  0.70
      L1  H     8    26       P1  8028  0.82
      L1  H    12    45       P1 10175  1.92

> <Gold.PLP.Chemscore.Internal.Correction>
0.1101

> <Gold.Rescore>
     Score         DG    S(hbond)    S(metal)    S(lipo)     H(rot)  DE(clash)    DE(int)     intcor
     17.62     -22.89       2.95        0.00      98.37       1.55       3.74       1.53       ----

> <Gold.Chemscore.Fitness>
17.6237

> <Gold.Chemscore.DG>
-22.8912

> <Gold.Chemscore.ZeroCoef>
-5.4800

> <Gold.Chemscore.Hbond>
2.9529

> <Gold.Chemscore.Metal>
0.0000

> <Gold.Chemscore.Lipo>
98.3747

> <Gold.Chemscore.Internal_Hbond>
0.0000

> <Gold.Chemscore.DEClash>
3.7386

> <Gold.Chemscore.DEInternal>
1.5290

> <Gold.Chemscore.Rot>
1.5474

> <Gold.Chemscore.Internal.Correction>
   9.000000E+99

> <Gold.Chemscore.Hbonds>
donor molecule, donor type, donor heavy atom, donor atom, acceptor molecule, acceptor atom, score
      L1  H     5    25       P1  8028  0.64
      L1  H     8    26       P1  8028  0.81
      L1  H    12    45       P1 10175  0.88

> <Gold.Chemscore.Hbond.Weighted>
-9.8626

> <Gold.Chemscore.Metal.Weighted>
-0.0000

> <Gold.Chemscore.Lipo.Weighted>
-11.5098

> <Gold.Chemscore.Internal_Hbond.Weighted>
0.0000

> <Gold.Chemscore.DEClash.Weighted>
3.7386

> <Gold.Chemscore.DEInternal.Weighted>
1.5290

> <Gold.Chemscore.Rot.Weighted>
3.9612

> <Gold.Chemscore.Internal.Correction.Weighted>
   9.000000E+99

> <Gold.Protein.RotatedTorsions>
[ 6907 6896 6895 6894 ] final   25.98 input  -60.11 | X-H torsion
[ 7974 7965 7964 7962 ] final  -47.04 input  175.53 | X-H torsion
[ 8008 7997 7996 7995 ] final  105.70 input   59.86 | X-H torsion
[ 10167 10162 10161 10158 ] final -162.73 input  -65.29 | X-H torsion
[ 10718 10713 10712 10709 ] final   48.05 input   66.30 | X-H torsion
[ 10763 10752 10751 10750 ] final  133.17 input  -60.55 | X-H torsion
[ 11005 11000 10999 10996 ] final   70.97 input  -57.11 | X-H torsion

> <Gold.Protein.ActiveResidues>
 VAL166  LYS551  ARG553  GLY616  TRP617  ASP618  TYR619  PRO620  LYS621  CYS622 
 ASP623  PHE694  ASN695  SER759  ASP760  ASP761  ALA762  ILE779  LEU786  VAL792 
 PHE793  MET794  SER795  GLU796  ALA797  LYS798  CYS799  TRP800  GLU811  SER814 

> <Gold.Protein.RotatedAtoms>
  151.9807  135.0030  160.0557 H   0  0  0  0  0  0  0  0  0  0  0  0  # atno 6907 bound_to 6896
  152.1699  133.4632  159.4912 H   0  0  0  0  0  0  0  0  0  0  0  0  # atno 6908 bound_to 6896
  150.6900  134.1884  159.4318 H   0  0  0  0  0  0  0  0  0  0  0  0  # atno 6909 bound_to 6896
  145.9657  140.7434  142.9435 H   0  0  0  0  0  0  0  0  0  0  0  0  # atno 7974 bound_to 7965
  156.1681  140.3126  155.8925 H   0  0  0  0  0  0  0  0  0  0  0  0  # atno 8008 bound_to 7997
  155.3643  140.0478  157.3063 H   0  0  0  0  0  0  0  0  0  0  0  0  # atno 8009 bound_to 7997
  154.5213  140.2199  155.8981 H   0  0  0  0  0  0  0  0  0  0  0  0  # atno 8010 bound_to 7997
  139.6371  144.0329  152.2063 H   0  0  0  0  0  0  0  0  0  0  0  0  # atno 10167 bound_to 10162
  157.4647  130.8218  149.7923 H   0  0  0  0  0  0  0  0  0  0  0  0  # atno 10718 bound_to 10713
  153.8028  135.3139  155.3392 H   0  0  0  0  0  0  0  0  0  0  0  0  # atno 10763 bound_to 10752
  154.8082  135.4684  154.0451 H   0  0  0  0  0  0  0  0  0  0  0  0  # atno 10764 bound_to 10752
  153.1804  135.6892  153.8573 H   0  0  0  0  0  0  0  0  0  0  0  0  # atno 10765 bound_to 10752
  139.9569  134.7129  156.0733 H   0  0  0  0  0  0  0  0  0  0  0  0  # atno 11005 bound_to 11000
  144.6825  140.2665  143.7312 LP  0  0  0  0  0  0  0  0  0  0  0  0  # atno 17320 bound_to 7965
  145.7977  139.1952  143.2066 LP  0  0  0  0  0  0  0  0  0  0  0  0  # atno 17321 bound_to 7965
  140.0009  144.6294  150.7730 LP  0  0  0  0  0  0  0  0  0  0  0  0  # atno 17342 bound_to 10162
  140.7471  143.2901  151.3354 LP  0  0  0  0  0  0  0  0  0  0  0  0  # atno 17343 bound_to 10162
  156.0045  130.3863  150.2483 LP  0  0  0  0  0  0  0  0  0  0  0  0  # atno 17370 bound_to 10713
  157.0662  131.0104  151.3206 LP  0  0  0  0  0  0  0  0  0  0  0  0  # atno 17371 bound_to 10713
  141.1241  133.6604  156.3292 LP  0  0  0  0  0  0  0  0  0  0  0  0  # atno 17394 bound_to 11000
  140.5589  134.5954  157.5428 LP  0  0  0  0  0  0  0  0  0  0  0  0  # atno 17395 bound_to 11000

$$$$
