AV-unprocessed.smi:1885|AV-procd|sdf|7650|dock7
  -GOLD-   22720 9383D 1   1.00000     0.00000
 Structure written by MMmdl.
 43 45  0  0  0  0  0  0  0  0  1 V2000
  144.4862  133.7382  150.1540 C   0  0  0  0  0  0  0  0  0  0  0  0
  144.1571  134.4490  151.3387 O   0  0  0  0  0  0  0  0  0  0  0  0
  144.8318  135.6224  151.5995 C   0  0  0  0  0  0  0  0  0  0  0  0
  145.8240  136.1763  150.7518 C   0  0  0  0  0  0  0  0  0  0  0  0
  146.4655  137.3818  151.0968 C   0  0  0  0  0  0  0  0  0  0  0  0
  146.1237  138.0568  152.2859 C   0  0  0  0  0  0  0  0  0  0  0  0
  146.8352  139.3444  152.6578 C   0  0  0  0  0  0  0  0  0  0  0  0
  147.8504  139.1342  153.6257 O   0  0  0  0  0  0  0  0  0  0  0  0
  148.7697  140.2105  153.7080 C   0  0  0  0  0  0  0  0  0  0  0  0
  149.5987  140.0569  154.9913 C   0  0  2  0  0  0  0  0  0  0  0  0
  148.7710  139.5207  156.0047 O   0  0  0  0  0  0  0  0  0  0  0  0
  150.2044  141.3925  155.4651 C   0  0  0  0  0  0  0  0  0  0  0  0
  151.1394  141.2149  156.5611 N   0  0  0  0  0  0  0  0  0  0  0  0
  152.0301  140.2173  156.7226 C   0  0  0  0  0  0  0  0  0  0  0  0
  152.7943  140.2540  157.8109 N   0  0  0  0  0  0  0  0  0  0  0  0
  152.3479  141.4105  158.4275 C   0  0  0  0  0  0  0  0  0  0  0  0
  152.7536  142.0227  159.6349 C   0  0  0  0  0  0  0  0  0  0  0  0
  152.1447  143.2183  160.0703 C   0  0  0  0  0  0  0  0  0  0  0  0
  152.5458  143.7918  161.2297 F   0  0  0  0  0  0  0  0  0  0  0  0
  151.1219  143.8187  159.3062 C   0  0  0  0  0  0  0  0  0  0  0  0
  150.5428  144.9664  159.7317 F   0  0  0  0  0  0  0  0  0  0  0  0
  150.7006  143.2268  158.1001 C   0  0  0  0  0  0  0  0  0  0  0  0
  151.3115  142.0347  157.6703 C   0  0  0  0  0  0  0  0  0  0  0  0
  145.1439  137.5056  153.1367 C   0  0  0  0  0  0  0  0  0  0  0  0
  144.5034  136.3001  152.7914 C   0  0  0  0  0  0  0  0  0  0  0  0
  143.8694  132.8421  150.0890 H   0  0  0  0  0  0  0  0  0  0  0  0
  145.5297  133.4204  150.1564 H   0  0  0  0  0  0  0  0  0  0  0  0
  144.2921  134.3369  149.2630 H   0  0  0  0  0  0  0  0  0  0  0  0
  146.1131  135.6938  149.8305 H   0  0  0  0  0  0  0  0  0  0  0  0
  147.2228  137.7878  150.4424 H   0  0  0  0  0  0  0  0  0  0  0  0
  147.2669  139.7706  151.7510 H   0  0  0  0  0  0  0  0  0  0  0  0
  146.1075  140.0610  153.0423 H   0  0  0  0  0  0  0  0  0  0  0  0
  149.4203  140.2279  152.8320 H   0  0  0  0  0  0  0  0  0  0  0  0
  148.2180  141.1521  153.7278 H   0  0  0  0  0  0  0  0  0  0  0  0
  150.3983  139.3377  154.8084 H   0  0  0  0  0  0  0  0  0  0  0  0
  148.5654  140.2077  156.6200 H   0  0  0  0  0  0  0  0  0  0  0  0
  150.7360  141.8784  154.6460 H   0  0  0  0  0  0  0  0  0  0  0  0
  149.4197  142.0828  155.7784 H   0  0  0  0  0  0  0  0  0  0  0  0
  152.1242  139.4207  155.9990 H   0  0  0  0  0  0  0  0  0  0  0  0
  153.5358  141.5726  160.2278 H   0  0  0  0  0  0  0  0  0  0  0  0
  149.9184  143.6834  157.5119 H   0  0  0  0  0  0  0  0  0  0  0  0
  144.8777  138.0026  154.0581 H   0  0  0  0  0  0  0  0  0  0  0  0
  143.7526  135.8894  153.4504 H   0  0  0  0  0  0  0  0  0  0  0  0
  1  2  1  0  0  0  0
  1 26  1  0  0  0  0
  1 27  1  0  0  0  0
  1 28  1  0  0  0  0
  2  3  1  0  0  0  0
  3 25  1  0  0  0  0
  3  4  2  0  0  0  0
  4  5  1  0  0  0  0
  4 29  1  0  0  0  0
  5  6  2  0  0  0  0
  5 30  1  0  0  0  0
  6  7  1  0  0  0  0
  6 24  1  0  0  0  0
  7  8  1  0  0  0  0
  7 31  1  0  0  0  0
  7 32  1  0  0  0  0
  8  9  1  0  0  0  0
  9 10  1  0  0  0  0
  9 33  1  0  0  0  0
  9 34  1  0  0  0  0
 10 11  1  0  0  0  0
 10 12  1  0  0  0  0
 10 35  1  0  0  0  0
 11 36  1  0  0  0  0
 12 13  1  0  0  0  0
 12 37  1  0  0  0  0
 12 38  1  0  0  0  0
 13 23  1  0  0  0  0
 13 14  1  0  0  0  0
 14 15  2  0  0  0  0
 14 39  1  0  0  0  0
 15 16  1  0  0  0  0
 16 23  2  0  0  0  0
 16 17  1  0  0  0  0
 17 18  2  0  0  0  0
 17 40  1  0  0  0  0
 18 19  1  0  0  0  0
 18 20  1  0  0  0  0
 20 21  1  0  0  0  0
 20 22  2  0  0  0  0
 22 23  1  0  0  0  0
 22 41  1  0  0  0  0
 24 25  2  0  0  0  0
 24 42  1  0  0  0  0
 25 43  1  0  0  0  0
M  END
> <s_m_source_file>
AV-unprocessed.smi

> <i_m_source_file_index>
1885

> <i_lp_mmshare_version>
43012

> <i_f3d_flags>
0

> <s_epik_input>
W0NIM11PYzFbY0hdW2NIXWMoW2NIXVtjSF0xKVtDSDJdT1tDSDJdW0NASF0oW09IXSlbQ0gyXW4oW2NIXW4yKWMoYzIzKVtjSF1jKEYpYyhGKVtjSF0z

> <s_epik_cmdline>
J2VwaWtfcHl0aG9uJywgJy1waCcsICc3LjAnLCAnLXRuJywgJzgnLCAnLW1hJywgJzIwMCcsICctbWV0YWxfYmluZGluZycsICctaW1hZScsICc8aW5maWxlLm1hZT4nLCAnLW9tYWUnLCAnPG91dGZpbGUubWFlPic=

> <r_lp_tautomer_probability>
1

> <r_epik_Ionization_Penalty>
0.0160256

> <r_epik_Ionization_Penalty_Charging>
0

> <r_epik_Ionization_Penalty_Neutral>
0.0160256

> <r_epik_State_Penalty>
0.0126263

> <r_epik_Charging_Adjusted_Penalty>
0.0126263

> <i_epik_Tot_Q>
0

> <i_epik_Tot_abs_Q>
0

> <r_epik_Metal_State_Penalty>
1.27616e-05

> <b_epik_Metal_Only>
0

> <s_lp_Force_Field>
OPLS_2005

> <r_lp_Energy>
16.1682

> <b_lp_Chiralities_Consistent>
1

> <s_lp_Variant>
AV-unprocessed.smi:1885-1

> <Gold.Version>
5.8.1

> <Gold.Id.Protein>
6NUR|6NUR_protein|mol2

> <Gold.PLP.Fitness>
47.7349

> <Gold.PLP.PLP>
-46.8302

> <Gold.PLP.part.hbond>
-1.0000

> <Gold.PLP.part.metal>
0.0000

> <Gold.PLP.part.buried>
2.5554

> <Gold.PLP.part.nonpolar>
-48.4972

> <Gold.PLP.part.repulsive>
0.3587

> <Gold.PLP.ligand.clash>
0.0000

> <Gold.PLP.ligand.torsion>
0.9678

> <Gold.PLP.Chemscore.Hbond>
0.9120

> <Gold.PLP.Chemscore.CHOScore>
0.0000

> <Gold.PLP.Chemscore.Metal>
0.0000

> <Gold.Chemscore.Hbonds>
donor molecule, donor type, donor heavy atom, donor atom, acceptor molecule, acceptor atom, score
      P1  H  7997  8009       L1    15  0.88

> <Gold.PLP.Chemscore.Internal.Correction>
0.1043

> <Gold.Rescore>
     Score         DG    S(hbond)    S(metal)    S(lipo)     H(rot)  DE(clash)    DE(int)     intcor
     11.45     -15.25       0.52        0.00     132.74       2.93       2.91       0.88       ----

> <Gold.Chemscore.Fitness>
11.4497

> <Gold.Chemscore.DG>
-15.2475

> <Gold.Chemscore.ZeroCoef>
-5.4800

> <Gold.Chemscore.Hbond>
0.5229

> <Gold.Chemscore.Metal>
0.0000

> <Gold.Chemscore.Lipo>
132.7417

> <Gold.Chemscore.Internal_Hbond>
0.0000

> <Gold.Chemscore.DEClash>
2.9131

> <Gold.Chemscore.DEInternal>
0.8847

> <Gold.Chemscore.Rot>
2.9335

> <Gold.Chemscore.Internal.Correction>
   9.000000E+99

> <Gold.Chemscore.Hbonds>
donor molecule, donor type, donor heavy atom, donor atom, acceptor molecule, acceptor atom, score
      P1  H  7997  8009       L1    15  0.22

> <Gold.Chemscore.Hbond.Weighted>
-1.7464

> <Gold.Chemscore.Metal.Weighted>
-0.0000

> <Gold.Chemscore.Lipo.Weighted>
-15.5308

> <Gold.Chemscore.Internal_Hbond.Weighted>
0.0000

> <Gold.Chemscore.DEClash.Weighted>
2.9131

> <Gold.Chemscore.DEInternal.Weighted>
0.8847

> <Gold.Chemscore.Rot.Weighted>
7.5097

> <Gold.Chemscore.Internal.Correction.Weighted>
   9.000000E+99

> <Gold.Protein.RotatedTorsions>
[ 6907 6896 6895 6894 ] final  168.51 input  -60.11 | X-H torsion
[ 7974 7965 7964 7962 ] final  -37.29 input  175.53 | X-H torsion
[ 8008 7997 7996 7995 ] final  155.56 input   59.86 | X-H torsion
[ 10167 10162 10161 10158 ] final -142.00 input  -65.29 | X-H torsion
[ 10718 10713 10712 10709 ] final -159.41 input   66.30 | X-H torsion
[ 10763 10752 10751 10750 ] final   -5.28 input  -60.55 | X-H torsion
[ 11005 11000 10999 10996 ] final -104.82 input  -57.11 | X-H torsion

> <Gold.Protein.ActiveResidues>
 VAL166  LYS551  ARG553  GLY616  TRP617  ASP618  TYR619  PRO620  LYS621  CYS622 
 ASP623  PHE694  ASN695  SER759  ASP760  ASP761  ALA762  ILE779  LEU786  VAL792 
 PHE793  MET794  SER795  GLU796  ALA797  LYS798  CYS799  TRP800  GLU811  SER814 

> <Gold.Protein.RotatedAtoms>
  151.8465  133.3432  159.3659 H   0  0  0  0  0  0  0  0  0  0  0  0  # atno 6907 bound_to 6896
  150.7219  134.5341  159.5724 H   0  0  0  0  0  0  0  0  0  0  0  0  # atno 6908 bound_to 6896
  152.2825  134.7813  160.0445 H   0  0  0  0  0  0  0  0  0  0  0  0  # atno 6909 bound_to 6896
  146.0588  140.6379  142.9007 H   0  0  0  0  0  0  0  0  0  0  0  0  # atno 7974 bound_to 7965
  156.2471  140.1936  156.6821 H   0  0  0  0  0  0  0  0  0  0  0  0  # atno 8008 bound_to 7997
  154.6314  140.0595  156.9763 H   0  0  0  0  0  0  0  0  0  0  0  0  # atno 8009 bound_to 7997
  155.1704  140.3267  155.4396 H   0  0  0  0  0  0  0  0  0  0  0  0  # atno 8010 bound_to 7997
  139.8130  143.7676  152.2664 H   0  0  0  0  0  0  0  0  0  0  0  0  # atno 10167 bound_to 10162
  156.5677  130.8675  151.2828 H   0  0  0  0  0  0  0  0  0  0  0  0  # atno 10718 bound_to 10713
  153.3963  135.7003  153.6458 H   0  0  0  0  0  0  0  0  0  0  0  0  # atno 10763 bound_to 10752
  153.5010  135.3652  155.2540 H   0  0  0  0  0  0  0  0  0  0  0  0  # atno 10764 bound_to 10752
  154.8707  135.4112  154.3290 H   0  0  0  0  0  0  0  0  0  0  0  0  # atno 10765 bound_to 10752
  141.1083  133.8755  157.1658 H   0  0  0  0  0  0  0  0  0  0  0  0  # atno 11005 bound_to 11000
  144.7163  140.4220  143.7042 LP  0  0  0  0  0  0  0  0  0  0  0  0  # atno 17320 bound_to 7965
  145.6597  139.1579  143.2815 LP  0  0  0  0  0  0  0  0  0  0  0  0  # atno 17321 bound_to 7965
  139.7831  144.7437  151.0060 LP  0  0  0  0  0  0  0  0  0  0  0  0  # atno 17342 bound_to 10162
  140.7817  143.4521  151.0398 LP  0  0  0  0  0  0  0  0  0  0  0  0  # atno 17343 bound_to 10162
  157.7355  130.9763  150.2085 LP  0  0  0  0  0  0  0  0  0  0  0  0  # atno 17370 bound_to 10713
  156.2742  130.3725  149.8000 LP  0  0  0  0  0  0  0  0  0  0  0  0  # atno 17371 bound_to 10713
  139.9963  135.0045  157.0090 LP  0  0  0  0  0  0  0  0  0  0  0  0  # atno 17394 bound_to 11000
  140.4845  134.1256  155.7222 LP  0  0  0  0  0  0  0  0  0  0  0  0  # atno 17395 bound_to 11000

$$$$
