AV-unprocessed.smi:1401|AV-procd|sdf|5695|dock7
  -GOLD-   22720 5323D 1   1.00000     0.00000
 Structure written by MMmdl.
 48 50  0  0  0  0  0  0  0  0  1 V2000
  150.6283  144.9530  159.3917 C   0  0  0  0  0  0  0  0  0  0  0  0
  151.4018  143.6671  159.2778 C   0  0  0  0  0  0  0  0  0  0  0  0
  151.2400  142.9872  158.1905 N   0  0  0  0  0  0  0  0  0  0  0  0
  151.8947  141.7877  157.9885 N   0  0  0  0  0  0  0  0  0  0  0  0
  151.5630  141.1265  156.7180 C   0  0  0  0  0  0  0  0  0  0  0  0
  150.0562  140.8782  156.5713 C   0  0  0  0  0  0  0  0  0  0  0  0
  149.4284  140.3268  157.4759 O   0  0  0  0  0  0  0  0  0  0  0  0
  149.4968  141.2915  155.4233 N   0  0  0  0  0  0  0  0  0  0  0  0
  148.1055  141.0896  155.0223 C   0  0  1  0  0  0  0  0  0  0  0  0
  147.6739  142.2643  154.1314 C   0  0  0  0  0  0  0  0  0  0  0  0
  147.9649  139.7222  154.3076 C   0  0  1  0  0  0  0  0  0  0  0  0
  148.4453  138.4973  155.1221 C   0  0  0  0  0  0  0  0  0  0  0  0
  147.2738  137.5078  154.9866 C   0  0  1  0  0  0  0  0  0  0  0  0
  146.1090  137.9885  155.8708 C   0  0  0  0  0  0  0  0  0  0  0  0
  145.5808  139.2099  155.0970 C   0  0  0  0  0  0  0  0  0  0  0  0
  146.5370  139.2913  153.8890 C   0  0  2  0  0  0  0  0  0  0  0  0
  146.7538  137.8118  153.5866 C   0  0  0  0  0  0  0  0  0  0  0  0
  152.7661  141.2198  158.8723 C   0  0  0  0  0  0  0  0  0  0  0  0
  153.3380  140.1519  158.6458 O   0  0  0  0  0  0  0  0  0  0  0  0
  152.9439  141.9953  160.1014 C   0  0  0  0  0  0  0  0  0  0  0  0
  153.8355  141.4278  161.0604 C   0  0  0  0  0  0  0  0  0  0  0  0
  154.5743  140.9791  161.8306 N   0  0  0  0  0  0  0  0  0  0  0  0
  152.3009  143.1703  160.3148 C   0  0  0  0  0  0  0  0  0  0  0  0
  152.4496  144.0102  161.5758 C   0  0  0  0  0  0  0  0  0  0  0  0
  151.3032  145.8087  159.4147 H   0  0  0  0  0  0  0  0  0  0  0  0
  150.0309  144.9675  160.3034 H   0  0  0  0  0  0  0  0  0  0  0  0
  149.9460  145.0924  158.5520 H   0  0  0  0  0  0  0  0  0  0  0  0
  151.8889  141.7348  155.8724 H   0  0  0  0  0  0  0  0  0  0  0  0
  152.1126  140.1869  156.6341 H   0  0  0  0  0  0  0  0  0  0  0  0
  150.0972  141.7420  154.7479 H   0  0  0  0  0  0  0  0  0  0  0  0
  147.4718  141.1006  155.9092 H   0  0  0  0  0  0  0  0  0  0  0  0
  146.6203  142.1915  153.8616 H   0  0  0  0  0  0  0  0  0  0  0  0
  148.2531  142.2979  153.2080 H   0  0  0  0  0  0  0  0  0  0  0  0
  147.8101  143.2163  154.6457 H   0  0  0  0  0  0  0  0  0  0  0  0
  148.5654  139.7685  153.3967 H   0  0  0  0  0  0  0  0  0  0  0  0
  149.3600  138.0869  154.6926 H   0  0  0  0  0  0  0  0  0  0  0  0
  148.6486  138.7270  156.1684 H   0  0  0  0  0  0  0  0  0  0  0  0
  147.5555  136.4691  155.1613 H   0  0  0  0  0  0  0  0  0  0  0  0
  145.3374  137.2219  155.9508 H   0  0  0  0  0  0  0  0  0  0  0  0
  146.4326  138.2437  156.8805 H   0  0  0  0  0  0  0  0  0  0  0  0
  144.5599  139.0274  154.7592 H   0  0  0  0  0  0  0  0  0  0  0  0
  145.5618  140.1172  155.6991 H   0  0  0  0  0  0  0  0  0  0  0  0
  146.1348  139.8643  153.0531 H   0  0  0  0  0  0  0  0  0  0  0  0
  147.4912  137.6305  152.8024 H   0  0  0  0  0  0  0  0  0  0  0  0
  145.8333  137.2788  153.3415 H   0  0  0  0  0  0  0  0  0  0  0  0
  153.2253  143.6262  162.2377 H   0  0  0  0  0  0  0  0  0  0  0  0
  151.5133  144.0216  162.1350 H   0  0  0  0  0  0  0  0  0  0  0  0
  152.7161  145.0383  161.3281 H   0  0  0  0  0  0  0  0  0  0  0  0
  1  2  1  0  0  0  0
  1 25  1  0  0  0  0
  1 26  1  0  0  0  0
  1 27  1  0  0  0  0
  2 23  1  0  0  0  0
  2  3  2  0  0  0  0
  3  4  1  0  0  0  0
  4  5  1  0  0  0  0
  4 18  1  0  0  0  0
  5  6  1  0  0  0  0
  5 28  1  0  0  0  0
  5 29  1  0  0  0  0
  6  7  2  0  0  0  0
  6  8  1  0  0  0  0
  8  9  1  0  0  0  0
  8 30  1  0  0  0  0
  9 10  1  0  0  0  0
  9 11  1  0  0  0  0
  9 31  1  0  0  0  0
 10 32  1  0  0  0  0
 10 33  1  0  0  0  0
 10 34  1  0  0  0  0
 11 16  1  0  0  0  0
 11 12  1  0  0  0  0
 11 35  1  0  0  0  0
 12 13  1  0  0  0  0
 12 36  1  0  0  0  0
 12 37  1  0  0  0  0
 13 17  1  0  0  0  0
 13 14  1  0  0  0  0
 13 38  1  0  0  0  0
 14 15  1  0  0  0  0
 14 39  1  0  0  0  0
 14 40  1  0  0  0  0
 15 16  1  0  0  0  0
 15 41  1  0  0  0  0
 15 42  1  0  0  0  0
 16 17  1  0  0  0  0
 16 43  1  0  0  0  0
 17 44  1  0  0  0  0
 17 45  1  0  0  0  0
 18 19  2  0  0  0  0
 18 20  1  0  0  0  0
 20 21  1  0  0  0  0
 20 23  2  0  0  0  0
 21 22  3  0  0  0  0
 23 24  1  0  0  0  0
 24 46  1  0  0  0  0
 24 47  1  0  0  0  0
 24 48  1  0  0  0  0
M  END
> <s_m_source_file>
AV-unprocessed.smi

> <i_m_source_file_index>
1401

> <i_lp_mmshare_version>
43012

> <i_f3d_flags>
0

> <s_epik_input>
TiNDYyhjMVtDSDNdKWMoPU8pbihuYzFbQ0gzXSlbQ0gyXUMoPU8pW05IXVtDQEhdKFtDSDNdKVtDQEhdKFtDSDJdW0NASF0yMylbQ0BIXShbQ0gyXTMpW0NIMl1bQ0gyXTI=

> <s_epik_cmdline>
J2VwaWtfcHl0aG9uJywgJy1waCcsICc3LjAnLCAnLXRuJywgJzgnLCAnLW1hJywgJzIwMCcsICctbWV0YWxfYmluZGluZycsICctaW1hZScsICc8aW5maWxlLm1hZT4nLCAnLW9tYWUnLCAnPG91dGZpbGUubWFlPic=

> <r_lp_tautomer_probability>
1

> <r_epik_Ionization_Penalty>
2.16501e-08

> <r_epik_Ionization_Penalty_Charging>
2.29436e-11

> <r_epik_Ionization_Penalty_Neutral>
2.16271e-08

> <r_epik_State_Penalty>
-0

> <r_epik_Charging_Adjusted_Penalty>
2.29436e-11

> <i_epik_Tot_Q>
0

> <i_epik_Tot_abs_Q>
0

> <r_epik_Metal_State_Penalty>
-0

> <b_epik_Metal_Only>
0

> <s_lp_Force_Field>
OPLS_2005

> <r_lp_Energy>
66.0828

> <b_lp_Chiralities_Consistent>
1

> <s_lp_Variant>
AV-unprocessed.smi:1401-8

> <Gold.Version>
5.8.1

> <Gold.Id.Protein>
6NUR|6NUR_protein|mol2

> <Gold.PLP.Fitness>
39.8964

> <Gold.PLP.PLP>
-38.0109

> <Gold.PLP.part.hbond>
-1.8747

> <Gold.PLP.part.metal>
0.0000

> <Gold.PLP.part.buried>
-4.9364

> <Gold.PLP.part.nonpolar>
-29.7178

> <Gold.PLP.part.repulsive>
0.2221

> <Gold.PLP.ligand.clash>
0.0000

> <Gold.PLP.ligand.torsion>
0.4771

> <Gold.PLP.Chemscore.Hbond>
0.9440

> <Gold.PLP.Chemscore.CHOScore>
0.0000

> <Gold.PLP.Chemscore.Metal>
0.0000

> <Gold.Chemscore.Hbonds>
donor molecule, donor type, donor heavy atom, donor atom, acceptor molecule, acceptor atom, score
      P1  H  7997  8009       L1    19  0.91

> <Gold.PLP.Chemscore.Internal.Correction>
0.0077

> <Gold.Rescore>
     Score         DG    S(hbond)    S(metal)    S(lipo)     H(rot)  DE(clash)    DE(int)     intcor
     14.26     -15.12       0.92        0.00      91.83       1.63       0.31       0.55       ----

> <Gold.Chemscore.Fitness>
14.2563

> <Gold.Chemscore.DG>
-15.1172

> <Gold.Chemscore.ZeroCoef>
-5.4800

> <Gold.Chemscore.Hbond>
0.9166

> <Gold.Chemscore.Metal>
0.0000

> <Gold.Chemscore.Lipo>
91.8255

> <Gold.Chemscore.Internal_Hbond>
0.0000

> <Gold.Chemscore.DEClash>
0.3076

> <Gold.Chemscore.DEInternal>
0.5533

> <Gold.Chemscore.Rot>
1.6281

> <Gold.Chemscore.Internal.Correction>
   9.000000E+99

> <Gold.Chemscore.Hbonds>
donor molecule, donor type, donor heavy atom, donor atom, acceptor molecule, acceptor atom, score
      P1  H  7997  8009       L1    19  0.81

> <Gold.Chemscore.Hbond.Weighted>
-3.0615

> <Gold.Chemscore.Metal.Weighted>
-0.0000

> <Gold.Chemscore.Lipo.Weighted>
-10.7436

> <Gold.Chemscore.Internal_Hbond.Weighted>
0.0000

> <Gold.Chemscore.DEClash.Weighted>
0.3076

> <Gold.Chemscore.DEInternal.Weighted>
0.5533

> <Gold.Chemscore.Rot.Weighted>
4.1678

> <Gold.Chemscore.Internal.Correction.Weighted>
   9.000000E+99

> <Gold.Protein.RotatedTorsions>
[ 6907 6896 6895 6894 ] final -174.26 input  -60.11 | X-H torsion
[ 7974 7965 7964 7962 ] final   34.31 input  175.53 | X-H torsion
[ 8008 7997 7996 7995 ] final  140.50 input   59.86 | X-H torsion
[ 10167 10162 10161 10158 ] final  -60.24 input  -65.29 | X-H torsion
[ 10718 10713 10712 10709 ] final  -78.22 input   66.30 | X-H torsion
[ 10763 10752 10751 10750 ] final  -31.94 input  -60.55 | X-H torsion
[ 11005 11000 10999 10996 ] final  -43.82 input  -57.11 | X-H torsion

> <Gold.Protein.ActiveResidues>
 VAL166  LYS551  ARG553  GLY616  TRP617  ASP618  TYR619  PRO620  LYS621  CYS622 
 ASP623  PHE694  ASN695  SER759  ASP760  ASP761  ALA762  ILE779  LEU786  VAL792 
 PHE793  MET794  SER795  GLU796  ALA797  LYS798  CYS799  TRP800  GLU811  SER814 

> <Gold.Protein.RotatedAtoms>
  151.5695  133.3392  159.2986 H   0  0  0  0  0  0  0  0  0  0  0  0  # atno 6907 bound_to 6896
  150.8376  134.7658  159.6917 H   0  0  0  0  0  0  0  0  0  0  0  0  # atno 6908 bound_to 6896
  152.4449  134.5522  159.9921 H   0  0  0  0  0  0  0  0  0  0  0  0  # atno 6909 bound_to 6896
  146.1362  139.6286  142.9194 H   0  0  0  0  0  0  0  0  0  0  0  0  # atno 7974 bound_to 7965
  156.2978  140.2339  156.4412 H   0  0  0  0  0  0  0  0  0  0  0  0  # atno 8008 bound_to 7997
  154.8184  140.0439  157.1414 H   0  0  0  0  0  0  0  0  0  0  0  0  # atno 8009 bound_to 7997
  154.9343  140.3021  155.5156 H   0  0  0  0  0  0  0  0  0  0  0  0  # atno 8010 bound_to 7997
  140.6084  143.2380  151.5767 H   0  0  0  0  0  0  0  0  0  0  0  0  # atno 10167 bound_to 10162
  156.0123  130.4512  150.3464 H   0  0  0  0  0  0  0  0  0  0  0  0  # atno 10718 bound_to 10713
  153.8056  135.6886  153.4849 H   0  0  0  0  0  0  0  0  0  0  0  0  # atno 10763 bound_to 10752
  153.1661  135.4561  154.9837 H   0  0  0  0  0  0  0  0  0  0  0  0  # atno 10764 bound_to 10752
  154.7988  135.3329  154.7541 H   0  0  0  0  0  0  0  0  0  0  0  0  # atno 10765 bound_to 10752
  141.0409  133.6780  156.2786 H   0  0  0  0  0  0  0  0  0  0  0  0  # atno 11005 bound_to 11000
  145.5151  141.0434  143.2466 LP  0  0  0  0  0  0  0  0  0  0  0  0  # atno 17320 bound_to 7965
  144.7742  139.6667  143.7182 LP  0  0  0  0  0  0  0  0  0  0  0  0  # atno 17321 bound_to 7965
  139.5342  144.2828  152.1215 LP  0  0  0  0  0  0  0  0  0  0  0  0  # atno 17342 bound_to 10162
  140.2022  144.4646  150.6426 LP  0  0  0  0  0  0  0  0  0  0  0  0  # atno 17343 bound_to 10162
  157.1558  131.0332  151.2864 LP  0  0  0  0  0  0  0  0  0  0  0  0  # atno 17370 bound_to 10713
  157.4353  130.7514  149.7024 LP  0  0  0  0  0  0  0  0  0  0  0  0  # atno 17371 bound_to 10713
  140.6235  134.5337  157.5550 LP  0  0  0  0  0  0  0  0  0  0  0  0  # atno 17394 bound_to 11000
  139.9275  134.8027  156.1025 LP  0  0  0  0  0  0  0  0  0  0  0  0  # atno 17395 bound_to 11000

$$$$
