AV-unprocessed.smi:189|AV-procd|sdf|1478|dock5
  -GOLD-   2262019293D 1   1.00000     0.00000
 Structure written by MMmdl.
 53 57  0  0  0  0  0  0  0  0  1 V2000
  154.2507  139.9262  159.6882 C   0  0  0  0  0  0  0  0  0  0  0  0
  152.9631  140.7611  159.7390 C   0  0  1  0  0  0  0  0  0  0  0  0
  152.9228  141.7743  160.9087 C   0  0  0  0  0  0  0  0  0  0  0  0
  152.7320  143.1214  160.2120 C   0  0  2  0  0  0  0  0  0  0  0  0
  151.9462  144.2252  160.9298 C   0  0  0  0  0  0  0  0  0  0  0  0
  151.8127  145.4415  159.9878 C   0  0  0  0  0  0  0  0  0  0  0  0
  151.2216  145.0617  158.6095 C   0  0  0  0  0  0  0  0  0  0  0  0
  151.9740  143.8884  157.9467 C   0  0  0  0  0  0  0  0  0  0  0  0
  152.0239  142.7117  158.9328 C   0  0  1  0  0  0  0  0  0  0  0  0
  152.7669  141.5379  158.5114 N   0  0  0  0  0  0  0  0  0  0  0  0
  152.2503  140.8603  157.4621 C   0  0  0  0  0  0  0  0  0  0  0  0
  152.9738  139.8115  157.0004 N   0  0  0  0  0  0  0  0  0  0  0  0
  152.5279  139.0974  155.9627 C   0  0  0  0  0  0  0  0  0  0  0  0
  151.4068  139.2596  155.2571 N   0  0  0  0  0  0  0  0  0  0  0  0
  150.6751  140.3126  155.7223 C   0  0  0  0  0  0  0  0  0  0  0  0
  151.0208  141.1633  156.8097 C   0  0  0  0  0  0  0  0  0  0  0  0
  150.0364  142.1289  156.9857 N   0  0  0  0  0  0  0  0  0  0  0  0
  149.1587  141.8623  156.0579 C   0  0  0  0  0  0  0  0  0  0  0  0
  149.4586  140.7821  155.2587 N   0  0  0  0  0  0  0  0  0  0  0  0
  148.6608  140.2626  154.1590 C   0  0  0  0  0  0  0  0  0  0  0  0
  147.1481  140.5492  154.3077 C   0  0  1  0  0  0  0  0  0  0  0  0
  146.4311  139.7483  153.3846 O   0  0  0  0  0  0  0  0  0  0  0  0
  146.5972  140.2838  155.7065 C   0  0  0  0  0  0  0  0  0  0  0  0
  145.5029  141.3325  155.8473 C   0  0  0  0  0  0  0  0  0  0  0  0
  146.0814  142.4642  155.2209 O   0  0  0  0  0  0  0  0  0  0  0  0
  146.7807  142.0263  154.0606 C   0  0  0  0  0  0  0  0  0  0  0  0
  154.3875  139.3643  160.6122 H   0  0  0  0  0  0  0  0  0  0  0  0
  155.1268  140.5601  159.5487 H   0  0  0  0  0  0  0  0  0  0  0  0
  154.2237  139.2088  158.8674 H   0  0  0  0  0  0  0  0  0  0  0  0
  152.1279  140.0720  159.8683 H   0  0  0  0  0  0  0  0  0  0  0  0
  152.0775  141.5526  161.5614 H   0  0  0  0  0  0  0  0  0  0  0  0
  153.8267  141.7618  161.5185 H   0  0  0  0  0  0  0  0  0  0  0  0
  153.7224  143.5067  159.9598 H   0  0  0  0  0  0  0  0  0  0  0  0
  150.9572  143.8613  161.2112 H   0  0  0  0  0  0  0  0  0  0  0  0
  152.4519  144.5143  161.8513 H   0  0  0  0  0  0  0  0  0  0  0  0
  151.1966  146.2087  160.4572 H   0  0  0  0  0  0  0  0  0  0  0  0
  152.7967  145.8885  159.8410 H   0  0  0  0  0  0  0  0  0  0  0  0
  150.1737  144.7869  158.7353 H   0  0  0  0  0  0  0  0  0  0  0  0
  151.2322  145.9293  157.9493 H   0  0  0  0  0  0  0  0  0  0  0  0
  151.4732  143.5965  157.0231 H   0  0  0  0  0  0  0  0  0  0  0  0
  152.9844  144.1969  157.6743 H   0  0  0  0  0  0  0  0  0  0  0  0
  151.0014  142.4156  159.1725 H   0  0  0  0  0  0  0  0  0  0  0  0
  153.1600  138.2782  155.6536 H   0  0  0  0  0  0  0  0  0  0  0  0
  148.2600  142.4484  155.9332 H   0  0  0  0  0  0  0  0  0  0  0  0
  149.0360  140.7022  153.2338 H   0  0  0  0  0  0  0  0  0  0  0  0
  148.8370  139.1891  154.0798 H   0  0  0  0  0  0  0  0  0  0  0  0
  145.5905  140.1502  153.2276 H   0  0  0  0  0  0  0  0  0  0  0  0
  146.2391  139.2639  155.8541 H   0  0  0  0  0  0  0  0  0  0  0  0
  147.3640  140.4781  156.4572 H   0  0  0  0  0  0  0  0  0  0  0  0
  144.5993  141.0343  155.3131 H   0  0  0  0  0  0  0  0  0  0  0  0
  145.2423  141.5348  156.8864 H   0  0  0  0  0  0  0  0  0  0  0  0
  147.6590  142.6557  153.9131 H   0  0  0  0  0  0  0  0  0  0  0  0
  146.1423  142.1492  153.1840 H   0  0  0  0  0  0  0  0  0  0  0  0
  1  2  1  0  0  0  0
  1 27  1  0  0  0  0
  1 28  1  0  0  0  0
  1 29  1  0  0  0  0
  2 10  1  0  0  0  0
  2  3  1  0  0  0  0
  2 30  1  0  0  0  0
  3  4  1  0  0  0  0
  3 31  1  0  0  0  0
  3 32  1  0  0  0  0
  4  9  1  0  0  0  0
  4  5  1  0  0  0  0
  4 33  1  0  0  0  0
  5  6  1  0  0  0  0
  5 34  1  0  0  0  0
  5 35  1  0  0  0  0
  6  7  1  0  0  0  0
  6 36  1  0  0  0  0
  6 37  1  0  0  0  0
  7  8  1  0  0  0  0
  7 38  1  0  0  0  0
  7 39  1  0  0  0  0
  8  9  1  0  0  0  0
  8 40  1  0  0  0  0
  8 41  1  0  0  0  0
  9 10  1  0  0  0  0
  9 42  1  0  0  0  0
 10 11  1  0  0  0  0
 11 16  1  0  0  0  0
 11 12  2  0  0  0  0
 12 13  1  0  0  0  0
 13 14  2  0  0  0  0
 13 43  1  0  0  0  0
 14 15  1  0  0  0  0
 15 19  1  0  0  0  0
 15 16  2  0  0  0  0
 16 17  1  0  0  0  0
 17 18  2  0  0  0  0
 18 19  1  0  0  0  0
 18 44  1  0  0  0  0
 19 20  1  0  0  0  0
 20 21  1  0  0  0  0
 20 45  1  0  0  0  0
 20 46  1  0  0  0  0
 21 26  1  0  0  0  0
 21 22  1  0  0  0  0
 21 23  1  0  0  0  0
 22 47  1  0  0  0  0
 23 24  1  0  0  0  0
 23 48  1  0  0  0  0
 23 49  1  0  0  0  0
 24 25  1  0  0  0  0
 24 50  1  0  0  0  0
 24 51  1  0  0  0  0
 25 26  1  0  0  0  0
 26 52  1  0  0  0  0
 26 53  1  0  0  0  0
M  END
> <s_m_source_file>
AV-unprocessed.smi

> <i_m_source_file_index>
189

> <i_lp_mmshare_version>
43012

> <i_f3d_flags>
0

> <s_epik_input>
W0NIMl0xW0NIMl1bQ0gyXVtDSDJdW0NASF0oW0NASF0xMilOKFtDQEhdKFtDSDNdKVtDSDJdMiljKG5bY0hdbjMpYyhjMzQpbltjSF1uNFtDSDJdW0NAQF01KFtPSF0pW0NIMl1bQ0gyXU9bQ0gyXTU=

> <s_epik_cmdline>
J2VwaWtfcHl0aG9uJywgJy1waCcsICc3LjAnLCAnLXRuJywgJzgnLCAnLW1hJywgJzIwMCcsICctbWV0YWxfYmluZGluZycsICctaW1hZScsICc8aW5maWxlLm1hZT4nLCAnLW9tYWUnLCAnPG91dGZpbGUubWFlPic=

> <r_lp_tautomer_probability>
1

> <r_epik_Ionization_Penalty>
0.00594261

> <r_epik_Ionization_Penalty_Charging>
0

> <r_epik_Ionization_Penalty_Neutral>
0.00594261

> <r_epik_State_Penalty>
0.00429776

> <r_epik_Charging_Adjusted_Penalty>
0.00429776

> <i_epik_Tot_Q>
0

> <i_epik_Tot_abs_Q>
0

> <r_epik_Metal_State_Penalty>
-0

> <b_epik_Metal_Only>
0

> <s_lp_Force_Field>
OPLS_2005

> <r_lp_Energy>
58.2794

> <b_lp_Chiralities_Consistent>
1

> <s_lp_Variant>
AV-unprocessed.smi:189-4

> <Gold.Version>
5.8.1

> <Gold.Id.Protein>
6NUR|6NUR_protein|mol2

> <Gold.PLP.Fitness>
57.5733

> <Gold.PLP.PLP>
-50.8874

> <Gold.PLP.part.hbond>
-2.3938

> <Gold.PLP.part.metal>
0.0000

> <Gold.PLP.part.buried>
-1.3677

> <Gold.PLP.part.nonpolar>
-47.1193

> <Gold.PLP.part.repulsive>
1.3542

> <Gold.PLP.ligand.clash>
0.0000

> <Gold.PLP.ligand.torsion>
0.5270

> <Gold.PLP.Chemscore.Hbond>
1.9900

> <Gold.PLP.Chemscore.CHOScore>
0.5851

> <Gold.PLP.Chemscore.Metal>
0.0000

> <Gold.Chemscore.Hbonds>
donor molecule, donor type, donor heavy atom, donor atom, acceptor molecule, acceptor atom, score
      L1  H    22    47       P1 10175  0.89
      P1  H  7997  8009       L1    12  0.80
      L1  C    18    44       P1  8028  0.58

> <Gold.PLP.Chemscore.Internal.Correction>
0.0146

> <Gold.Rescore>
     Score         DG    S(hbond)    S(metal)    S(lipo)     H(rot)  DE(clash)    DE(int)     intcor
     12.60     -20.44       1.56        0.00     127.76       2.03       4.38       3.46       ----

> <Gold.Chemscore.Fitness>
12.5980

> <Gold.Chemscore.DG>
-20.4427

> <Gold.Chemscore.ZeroCoef>
-5.4800

> <Gold.Chemscore.Hbond>
1.5601

> <Gold.Chemscore.Metal>
0.0000

> <Gold.Chemscore.Lipo>
127.7615

> <Gold.Chemscore.Internal_Hbond>
0.0000

> <Gold.Chemscore.DEClash>
4.3804

> <Gold.Chemscore.DEInternal>
3.4644

> <Gold.Chemscore.Rot>
2.0297

> <Gold.Chemscore.Internal.Correction>
   9.000000E+99

> <Gold.Chemscore.Hbonds>
donor molecule, donor type, donor heavy atom, donor atom, acceptor molecule, acceptor atom, score
      L1  H    22    47       P1 10175  0.85
      P1  H  7997  8009       L1    12  0.12

> <Gold.Chemscore.Hbond.Weighted>
-5.2106

> <Gold.Chemscore.Metal.Weighted>
-0.0000

> <Gold.Chemscore.Lipo.Weighted>
-14.9481

> <Gold.Chemscore.Internal_Hbond.Weighted>
0.0000

> <Gold.Chemscore.DEClash.Weighted>
4.3804

> <Gold.Chemscore.DEInternal.Weighted>
3.4644

> <Gold.Chemscore.Rot.Weighted>
5.1960

> <Gold.Chemscore.Internal.Correction.Weighted>
   9.000000E+99

> <Gold.Protein.RotatedTorsions>
[ 6907 6896 6895 6894 ] final  -59.60 input  -60.11 | X-H torsion
[ 7974 7965 7964 7962 ] final  163.96 input  175.53 | X-H torsion
[ 8008 7997 7996 7995 ] final -166.60 input   59.86 | X-H torsion
[ 10167 10162 10161 10158 ] final   22.64 input  -65.29 | X-H torsion
[ 10718 10713 10712 10709 ] final   42.47 input   66.30 | X-H torsion
[ 10763 10752 10751 10750 ] final -146.06 input  -60.55 | X-H torsion
[ 11005 11000 10999 10996 ] final  -62.63 input  -57.11 | X-H torsion

> <Gold.Protein.ActiveResidues>
 VAL166  LYS551  ARG553  GLY616  TRP617  ASP618  TYR619  PRO620  LYS621  CYS622 
 ASP623  PHE694  ASN695  SER759  ASP760  ASP761  ALA762  ILE779  LEU786  VAL792 
 PHE793  MET794  SER795  GLU796  ALA797  LYS798  CYS799  TRP800  GLU811  SER814 

> <Gold.Protein.RotatedAtoms>
  150.7918  134.6947  159.6516 H   0  0  0  0  0  0  0  0  0  0  0  0  # atno 6907 bound_to 6896
  152.4024  134.6260  160.0073 H   0  0  0  0  0  0  0  0  0  0  0  0  # atno 6908 bound_to 6896
  151.6527  133.3283  159.3192 H   0  0  0  0  0  0  0  0  0  0  0  0  # atno 6909 bound_to 6896
  144.7566  139.8257  143.6347 H   0  0  0  0  0  0  0  0  0  0  0  0  # atno 7974 bound_to 7965
  155.8660  140.0986  157.1582 H   0  0  0  0  0  0  0  0  0  0  0  0  # atno 8008 bound_to 7997
  154.3993  140.1356  156.4082 H   0  0  0  0  0  0  0  0  0  0  0  0  # atno 8009 bound_to 7997
  155.7803  140.3458  155.5296 H   0  0  0  0  0  0  0  0  0  0  0  0  # atno 8010 bound_to 7997
  140.5333  143.9804  150.6477 H   0  0  0  0  0  0  0  0  0  0  0  0  # atno 10167 bound_to 10162
  157.4052  130.7882  149.7382 H   0  0  0  0  0  0  0  0  0  0  0  0  # atno 10718 bound_to 10713
  154.8354  135.3396  154.6601 H   0  0  0  0  0  0  0  0  0  0  0  0  # atno 10763 bound_to 10752
  153.7217  135.6957  153.5016 H   0  0  0  0  0  0  0  0  0  0  0  0  # atno 10764 bound_to 10752
  153.2377  135.4395  155.0617 H   0  0  0  0  0  0  0  0  0  0  0  0  # atno 10765 bound_to 10752
  141.1366  133.6642  156.5556 H   0  0  0  0  0  0  0  0  0  0  0  0  # atno 11005 bound_to 11000
  146.1584  139.4689  143.0004 LP  0  0  0  0  0  0  0  0  0  0  0  0  # atno 17320 bound_to 7965
  145.6758  141.0204  143.1633 LP  0  0  0  0  0  0  0  0  0  0  0  0  # atno 17321 bound_to 7965
  140.3185  143.3152  152.0808 LP  0  0  0  0  0  0  0  0  0  0  0  0  # atno 17342 bound_to 10162
  139.4962  144.6589  151.6509 LP  0  0  0  0  0  0  0  0  0  0  0  0  # atno 17343 bound_to 10162
  155.9834  130.4000  150.3364 LP  0  0  0  0  0  0  0  0  0  0  0  0  # atno 17370 bound_to 10713
  157.1496  131.0317  151.2891 LP  0  0  0  0  0  0  0  0  0  0  0  0  # atno 17371 bound_to 10713
  140.4029  134.7341  157.4790 LP  0  0  0  0  0  0  0  0  0  0  0  0  # atno 17394 bound_to 11000
  140.0483  134.6167  155.8893 LP  0  0  0  0  0  0  0  0  0  0  0  0  # atno 17395 bound_to 11000

$$$$
