AV-unprocessed.smi:3344|AV-procd|sdf|12898|dock4
  -GOLD-   2272019303D 1   1.00000     0.00000
 Structure written by MMmdl.
 43 44  0  0  0  0  0  0  0  0  2 V2000
  150.3437  137.4323  154.7346 C   0  0  0  0  0  0  0  0  0  0  0  0
  149.7294  138.7340  154.1809 C   0  0  1  0  0  0  0  0  0  0  0  0
  148.2232  138.6037  153.9042 C   0  0  0  0  0  0  0  0  0  0  0  0
  147.4292  138.4069  154.8247 O   0  0  0  0  0  0  0  0  0  0  0  0
  147.8396  138.7160  152.6224 N   0  0  0  0  0  0  0  0  0  0  0  0
  146.4602  138.6438  152.1554 C   0  0  0  0  0  0  0  0  0  0  0  0
  145.7650  137.3541  152.6360 C   0  0  0  0  0  0  0  0  0  0  0  0
  146.2493  136.1361  151.9318 N   0  3  0  0  0  0  0  0  0  0  0  0
  145.7043  136.0264  150.5494 C   0  0  0  0  0  0  0  0  0  0  0  0
  144.3289  135.3386  150.4545 C   0  0  0  0  0  0  0  0  0  0  0  0
  144.4409  133.8208  150.2427 C   0  0  0  0  0  0  0  0  0  0  0  0
  144.9612  133.0530  151.4650 C   0  0  0  0  0  0  0  0  0  0  0  0
  146.3001  133.5718  152.0164 C   0  0  0  0  0  0  0  0  0  0  0  0
  146.1608  134.9076  152.7728 C   0  0  0  0  0  0  0  0  0  0  0  0
  149.9856  139.8760  155.0502 N   0  0  0  0  0  0  0  0  0  0  0  0
  149.1440  140.5858  155.8052 C   0  0  0  0  0  0  0  0  0  0  0  0
  149.7297  141.5419  156.5126 N   0  0  0  0  0  0  0  0  0  0  0  0
  151.0262  141.3484  156.1279 C   0  0  0  0  0  0  0  0  0  0  0  0
  151.2363  140.3566  155.2625 N   0  0  0  0  0  0  0  0  0  0  0  0
  150.1842  136.5998  154.0484 H   0  0  0  0  0  0  0  0  0  0  0  0
  149.9153  137.1520  155.6979 H   0  0  0  0  0  0  0  0  0  0  0  0
  151.4200  137.5395  154.8724 H   0  0  0  0  0  0  0  0  0  0  0  0
  150.2206  138.9406  153.2284 H   0  0  0  0  0  0  0  0  0  0  0  0
  148.5521  138.8777  151.9252 H   0  0  0  0  0  0  0  0  0  0  0  0
  145.9082  139.5250  152.4870 H   0  0  0  0  0  0  0  0  0  0  0  0
  146.4900  138.6848  151.0669 H   0  0  0  0  0  0  0  0  0  0  0  0
  145.8927  137.2317  153.7124 H   0  0  0  0  0  0  0  0  0  0  0  0
  144.6933  137.4607  152.4641 H   0  0  0  0  0  0  0  0  0  0  0  0
  145.6405  137.0205  150.1052 H   0  0  0  0  0  0  0  0  0  0  0  0
  146.4285  135.4993  149.9273 H   0  0  0  0  0  0  0  0  0  0  0  0
  143.7017  135.5732  151.3154 H   0  0  0  0  0  0  0  0  0  0  0  0
  143.8072  135.7498  149.5895 H   0  0  0  0  0  0  0  0  0  0  0  0
  143.4588  133.4265  149.9788 H   0  0  0  0  0  0  0  0  0  0  0  0
  145.0813  133.6173  149.3835 H   0  0  0  0  0  0  0  0  0  0  0  0
  144.2086  133.0662  152.2545 H   0  0  0  0  0  0  0  0  0  0  0  0
  145.0774  132.0048  151.1869 H   0  0  0  0  0  0  0  0  0  0  0  0
  146.6631  132.8282  152.7270 H   0  0  0  0  0  0  0  0  0  0  0  0
  147.0625  133.6248  151.2385 H   0  0  0  0  0  0  0  0  0  0  0  0
  146.9641  134.9618  153.5076 H   0  0  0  0  0  0  0  0  0  0  0  0
  145.2311  134.9097  153.3437 H   0  0  0  0  0  0  0  0  0  0  0  0
  148.0807  140.3981  155.8411 H   0  0  0  0  0  0  0  0  0  0  0  0
  151.8404  141.9516  156.5019 H   0  0  0  0  0  0  0  0  0  0  0  0
  147.2370  136.2939  151.7899 H   0  0  0  0  0  0  0  0  0  0  0  0
  1  2  1  0  0  0  0
  1 20  1  0  0  0  0
  1 21  1  0  0  0  0
  1 22  1  0  0  0  0
  2  3  1  0  0  0  0
  2 15  1  0  0  0  0
  2 23  1  0  0  0  0
  3  4  2  0  0  0  0
  3  5  1  0  0  0  0
  5  6  1  0  0  0  0
  5 24  1  0  0  0  0
  6  7  1  0  0  0  0
  6 25  1  0  0  0  0
  6 26  1  0  0  0  0
  7  8  1  0  0  0  0
  7 27  1  0  0  0  0
  7 28  1  0  0  0  0
  8 14  1  0  0  0  0
  8  9  1  0  0  0  0
  8 43  1  0  0  0  0
  9 10  1  0  0  0  0
  9 29  1  0  0  0  0
  9 30  1  0  0  0  0
 10 11  1  0  0  0  0
 10 31  1  0  0  0  0
 10 32  1  0  0  0  0
 11 12  1  0  0  0  0
 11 33  1  0  0  0  0
 11 34  1  0  0  0  0
 12 13  1  0  0  0  0
 12 35  1  0  0  0  0
 12 36  1  0  0  0  0
 13 14  1  0  0  0  0
 13 37  1  0  0  0  0
 13 38  1  0  0  0  0
 14 39  1  0  0  0  0
 14 40  1  0  0  0  0
 15 19  1  0  0  0  0
 15 16  1  0  0  0  0
 16 17  2  0  0  0  0
 16 41  1  0  0  0  0
 17 18  1  0  0  0  0
 18 19  2  0  0  0  0
 18 42  1  0  0  0  0
M  CHG  1   8   1
M  END
> <s_m_source_file>
AV-unprocessed.smi

> <i_m_source_file_index>
3344

> <i_lp_mmshare_version>
43012

> <i_f3d_flags>
0

> <s_epik_input>
bjFbY0hdbltjSF1uMVtDQEhdKFtDSDNdKUMoPU8pW05IXVtDSDJdW0NIMl1OMltDSDJdW0NIMl1bQ0gyXVtDSDJdW0NIMl1bQ0gyXTI=

> <s_epik_cmdline>
J2VwaWtfcHl0aG9uJywgJy1waCcsICc3LjAnLCAnLXRuJywgJzgnLCAnLW1hJywgJzIwMCcsICctbWV0YWxfYmluZGluZycsICctaW1hZScsICc8aW5maWxlLm1hZT4nLCAnLW9tYWUnLCAnPG91dGZpbGUubWFlPic=

> <r_lp_tautomer_probability>
1

> <r_epik_Ionization_Penalty>
0.00266407

> <r_epik_Ionization_Penalty_Charging>
0.00265606

> <r_epik_Ionization_Penalty_Neutral>
8.01095e-06

> <r_epik_State_Penalty>
0.00184955

> <r_epik_Charging_Adjusted_Penalty>
0.00450561

> <i_epik_Tot_Q>
1

> <i_epik_Tot_abs_Q>
1

> <r_epik_Metal_State_Penalty>
-0

> <b_epik_Metal_Only>
0

> <s_lp_Force_Field>
OPLS_2005

> <r_lp_Energy>
28.0166

> <b_lp_Chiralities_Consistent>
1

> <s_lp_Variant>
AV-unprocessed.smi:3344-2

> <Gold.Version>
5.8.1

> <Gold.Id.Protein>
6NUR|6NUR_protein|mol2

> <Gold.PLP.Fitness>
44.9989

> <Gold.PLP.PLP>
-34.0594

> <Gold.PLP.part.hbond>
-4.0000

> <Gold.PLP.part.metal>
0.0000

> <Gold.PLP.part.buried>
-3.2896

> <Gold.PLP.part.nonpolar>
-27.1004

> <Gold.PLP.part.repulsive>
0.3301

> <Gold.PLP.ligand.clash>
0.0000

> <Gold.PLP.ligand.torsion>
0.5298

> <Gold.PLP.Chemscore.Hbond>
3.9520

> <Gold.PLP.Chemscore.CHOScore>
0.0000

> <Gold.PLP.Chemscore.Metal>
0.0000

> <Gold.Chemscore.Hbonds>
donor molecule, donor type, donor heavy atom, donor atom, acceptor molecule, acceptor atom, score
      L1  H     5    24       P1  7957  0.96
      L1  H     8    43       P1  7948  2.00
      P1  H  7989  7998       L1    19  0.94

> <Gold.PLP.Chemscore.Internal.Correction>
0.1432

> <Gold.Rescore>
     Score         DG    S(hbond)    S(metal)    S(lipo)     H(rot)  DE(clash)    DE(int)     intcor
     13.35     -15.84       2.84        0.00      62.97       2.54       0.02       2.47       ----

> <Gold.Chemscore.Fitness>
13.3492

> <Gold.Chemscore.DG>
-15.8363

> <Gold.Chemscore.ZeroCoef>
-5.4800

> <Gold.Chemscore.Hbond>
2.8399

> <Gold.Chemscore.Metal>
0.0000

> <Gold.Chemscore.Lipo>
62.9716

> <Gold.Chemscore.Internal_Hbond>
0.0000

> <Gold.Chemscore.DEClash>
0.0213

> <Gold.Chemscore.DEInternal>
2.4658

> <Gold.Chemscore.Rot>
2.5377

> <Gold.Chemscore.Internal.Correction>
   9.000000E+99

> <Gold.Chemscore.Hbonds>
donor molecule, donor type, donor heavy atom, donor atom, acceptor molecule, acceptor atom, score
      L1  H     5    24       P1  7957  0.81
      L1  H     8    43       P1  7948  1.00
      P1  H  7989  7998       L1    19  0.19

> <Gold.Chemscore.Hbond.Weighted>
-9.4852

> <Gold.Chemscore.Metal.Weighted>
-0.0000

> <Gold.Chemscore.Lipo.Weighted>
-7.3677

> <Gold.Chemscore.Internal_Hbond.Weighted>
0.0000

> <Gold.Chemscore.DEClash.Weighted>
0.0213

> <Gold.Chemscore.DEInternal.Weighted>
2.4658

> <Gold.Chemscore.Rot.Weighted>
6.4966

> <Gold.Chemscore.Internal.Correction.Weighted>
   9.000000E+99

> <Gold.Protein.RotatedTorsions>
[ 6907 6896 6895 6894 ] final -109.99 input  -60.11 | X-H torsion
[ 7974 7965 7964 7962 ] final   92.16 input  175.53 | X-H torsion
[ 8008 7997 7996 7995 ] final  111.39 input   59.86 | X-H torsion
[ 10167 10162 10161 10158 ] final -101.53 input  -65.29 | X-H torsion
[ 10718 10713 10712 10709 ] final -155.19 input   66.30 | X-H torsion
[ 10763 10752 10751 10750 ] final  -74.27 input  -60.55 | X-H torsion
[ 11005 11000 10999 10996 ] final  -34.73 input  -57.11 | X-H torsion

> <Gold.Protein.ActiveResidues>
 VAL166  LYS551  ARG553  GLY616  TRP617  ASP618  TYR619  PRO620  LYS621  CYS622 
 ASP623  PHE694  ASN695  SER759  ASP760  ASP761  ALA762  ILE779  LEU786  VAL792 
 PHE793  MET794  SER795  GLU796  ALA797  LYS798  CYS799  TRP800  GLU811  SER814 

> <Gold.Protein.RotatedAtoms>
  150.7597  133.9447  159.3466 H   0  0  0  0  0  0  0  0  0  0  0  0  # atno 6907 bound_to 6896
  151.7359  135.0863  160.0317 H   0  0  0  0  0  0  0  0  0  0  0  0  # atno 6908 bound_to 6896
  152.3560  133.6200  159.6015 H   0  0  0  0  0  0  0  0  0  0  0  0  # atno 6909 bound_to 6896
  145.4960  139.2276  143.2803 H   0  0  0  0  0  0  0  0  0  0  0  0  # atno 7974 bound_to 7965
  156.2120  140.3020  155.9754 H   0  0  0  0  0  0  0  0  0  0  0  0  # atno 8008 bound_to 7997
  155.2699  140.0433  157.3023 H   0  0  0  0  0  0  0  0  0  0  0  0  # atno 8009 bound_to 7997
  154.5713  140.2349  155.8195 H   0  0  0  0  0  0  0  0  0  0  0  0  # atno 8010 bound_to 7997
  140.2404  143.3543  152.0807 H   0  0  0  0  0  0  0  0  0  0  0  0  # atno 10167 bound_to 10162
  156.5095  130.8428  151.2641 H   0  0  0  0  0  0  0  0  0  0  0  0  # atno 10718 bound_to 10713
  154.4709  135.5870  153.6321 H   0  0  0  0  0  0  0  0  0  0  0  0  # atno 10763 bound_to 10752
  152.9834  135.6066  154.3368 H   0  0  0  0  0  0  0  0  0  0  0  0  # atno 10764 bound_to 10752
  154.3250  135.2843  155.2480 H   0  0  0  0  0  0  0  0  0  0  0  0  # atno 10765 bound_to 10752
  140.9739  133.7094  156.1570 H   0  0  0  0  0  0  0  0  0  0  0  0  # atno 11005 bound_to 11000
  146.2255  140.5758  142.8998 LP  0  0  0  0  0  0  0  0  0  0  0  0  # atno 17320 bound_to 7965
  144.7807  140.5833  143.6608 LP  0  0  0  0  0  0  0  0  0  0  0  0  # atno 17321 bound_to 7965
  139.5079  144.6841  151.5933 LP  0  0  0  0  0  0  0  0  0  0  0  0  # atno 17342 bound_to 10162
  140.6118  143.9422  150.6459 LP  0  0  0  0  0  0  0  0  0  0  0  0  # atno 17343 bound_to 10162
  157.7452  130.9954  150.2743 LP  0  0  0  0  0  0  0  0  0  0  0  0  # atno 17370 bound_to 10713
  156.3254  130.3792  149.7538 LP  0  0  0  0  0  0  0  0  0  0  0  0  # atno 17371 bound_to 10713
  140.7287  134.4278  157.5568 LP  0  0  0  0  0  0  0  0  0  0  0  0  # atno 17394 bound_to 11000
  139.8923  134.8758  156.2278 LP  0  0  0  0  0  0  0  0  0  0  0  0  # atno 17395 bound_to 11000

$$$$
