AV-unprocessed.smi:1804|AV-procd|sdf|7295|dock1
  -GOLD-   22720 8553D 1   1.00000     0.00000
 Structure written by MMmdl.
 44 45  0  0  0  0  0  0  0  0  2 V2000
  150.4843  139.1254  154.5704 C   0  0  0  0  0  0  0  0  0  0  0  0
  151.3865  139.2368  155.7476 N   0  3  0  0  0  0  0  0  0  0  0  0
  152.6061  138.4167  155.5220 C   0  0  0  0  0  0  0  0  0  0  0  0
  150.7218  139.0741  157.0921 C   0  0  0  0  0  0  0  0  0  0  0  0
  150.1737  137.6144  157.2338 C   0  0  0  0  0  0  0  0  0  0  0  0
  149.4703  137.3608  158.4926 N   0  0  0  0  0  0  0  0  0  0  0  0
  149.0396  136.1654  158.9224 C   0  0  0  0  0  0  0  0  0  0  0  0
  149.1902  135.1217  158.2871 O   0  0  0  0  0  0  0  0  0  0  0  0
  148.4284  136.2689  160.1154 N   0  0  0  0  0  0  0  0  0  0  0  0
  147.8218  135.2413  160.8853 C   0  0  0  0  0  0  0  0  0  0  0  0
  147.4289  134.0632  160.3762 N   0  0  0  0  0  0  0  0  0  0  0  0
  146.8657  133.2413  161.3439 N   0  0  0  0  0  0  0  0  0  0  0  0
  146.8558  133.8311  162.5426 C   0  0  0  0  0  0  0  0  0  0  0  0
  147.5322  135.4491  162.6065 S   0  0  0  0  0  0  0  0  0  0  0  0
  151.7210  139.3135  158.2723 C   0  0  0  0  0  0  0  0  0  0  0  0
  152.5283  140.6251  158.2881 C   0  0  0  0  0  0  0  0  0  0  0  0
  151.6880  141.9063  158.3555 C   0  0  0  0  0  0  0  0  0  0  0  0
  151.0267  142.2358  157.0136 C   0  0  0  0  0  0  0  0  0  0  0  0
  149.6874  141.5293  156.7572 C   0  0  0  0  0  0  0  0  0  0  0  0
  149.5296  140.0716  157.2493 C   0  0  0  0  0  0  0  0  0  0  0  0
  150.1960  138.0907  154.3835 H   0  0  0  0  0  0  0  0  0  0  0  0
  150.9966  139.4839  153.6771 H   0  0  0  0  0  0  0  0  0  0  0  0
  149.5746  139.7139  154.6671 H   0  0  0  0  0  0  0  0  0  0  0  0
  152.3738  137.3526  155.4815 H   0  0  0  0  0  0  0  0  0  0  0  0
  153.3719  138.5695  156.2794 H   0  0  0  0  0  0  0  0  0  0  0  0
  153.0626  138.6849  154.5689 H   0  0  0  0  0  0  0  0  0  0  0  0
  149.5220  137.3553  156.3992 H   0  0  0  0  0  0  0  0  0  0  0  0
  150.9918  136.8960  157.1971 H   0  0  0  0  0  0  0  0  0  0  0  0
  149.3009  138.1620  159.0834 H   0  0  0  0  0  0  0  0  0  0  0  0
  148.3859  137.1925  160.5200 H   0  0  0  0  0  0  0  0  0  0  0  0
  146.4470  133.3099  163.3955 H   0  0  0  0  0  0  0  0  0  0  0  0
  151.1828  139.2625  159.2194 H   0  0  0  0  0  0  0  0  0  0  0  0
  152.4281  138.4851  158.3254 H   0  0  0  0  0  0  0  0  0  0  0  0
  153.1750  140.6020  159.1660 H   0  0  0  0  0  0  0  0  0  0  0  0
  153.2069  140.6754  157.4374 H   0  0  0  0  0  0  0  0  0  0  0  0
  150.9521  141.8581  159.1592 H   0  0  0  0  0  0  0  0  0  0  0  0
  152.3574  142.7286  158.6111 H   0  0  0  0  0  0  0  0  0  0  0  0
  150.8525  143.3112  156.9616 H   0  0  0  0  0  0  0  0  0  0  0  0
  151.7210  142.0226  156.2004 H   0  0  0  0  0  0  0  0  0  0  0  0
  148.8954  142.1158  157.2244 H   0  0  0  0  0  0  0  0  0  0  0  0
  149.4781  141.5847  155.6893 H   0  0  0  0  0  0  0  0  0  0  0  0
  148.6495  139.6669  156.7482 H   0  0  0  0  0  0  0  0  0  0  0  0
  149.2395  140.1092  158.2999 H   0  0  0  0  0  0  0  0  0  0  0  0
  151.7080  140.1944  155.7436 H   0  0  0  0  0  0  0  0  0  0  0  0
  1  2  1  0  0  0  0
  1 21  1  0  0  0  0
  1 22  1  0  0  0  0
  1 23  1  0  0  0  0
  2  3  1  0  0  0  0
  2  4  1  0  0  0  0
  2 44  1  0  0  0  0
  3 24  1  0  0  0  0
  3 25  1  0  0  0  0
  3 26  1  0  0  0  0
  4 20  1  0  0  0  0
  4  5  1  0  0  0  0
  4 15  1  0  0  0  0
  5  6  1  0  0  0  0
  5 27  1  0  0  0  0
  5 28  1  0  0  0  0
  6  7  1  0  0  0  0
  6 29  1  0  0  0  0
  7  8  2  0  0  0  0
  7  9  1  0  0  0  0
  9 10  1  0  0  0  0
  9 30  1  0  0  0  0
 10 14  1  0  0  0  0
 10 11  2  0  0  0  0
 11 12  1  0  0  0  0
 12 13  2  0  0  0  0
 13 14  1  0  0  0  0
 13 31  1  0  0  0  0
 15 16  1  0  0  0  0
 15 32  1  0  0  0  0
 15 33  1  0  0  0  0
 16 17  1  0  0  0  0
 16 34  1  0  0  0  0
 16 35  1  0  0  0  0
 17 18  1  0  0  0  0
 17 36  1  0  0  0  0
 17 37  1  0  0  0  0
 18 19  1  0  0  0  0
 18 38  1  0  0  0  0
 18 39  1  0  0  0  0
 19 20  1  0  0  0  0
 19 40  1  0  0  0  0
 19 41  1  0  0  0  0
 20 42  1  0  0  0  0
 20 43  1  0  0  0  0
M  CHG  1   2   1
M  END
> <s_m_source_file>
AV-unprocessed.smi

> <i_m_source_file_index>
1804

> <i_lp_mmshare_version>
43012

> <i_f3d_flags>
0

> <s_epik_input>
W0NIMl0xW0NIMl1bQ0gyXVtDSDJdW0NIMl1bQ0gyXUMxKE4oW0NIM10pW0NIM10pW0NIMl1bTkhdQyg9TylbTkhdYzJubltjSF1zMg==

> <s_epik_cmdline>
J2VwaWtfcHl0aG9uJywgJy1waCcsICc3LjAnLCAnLXRuJywgJzgnLCAnLW1hJywgJzIwMCcsICctbWV0YWxfYmluZGluZycsICctaW1hZScsICc8aW5maWxlLm1hZT4nLCAnLW9tYWUnLCAnPG91dGZpbGUubWFlPic=

> <r_lp_tautomer_probability>
1

> <r_epik_Ionization_Penalty>
0.00320238

> <r_epik_Ionization_Penalty_Charging>
0.00244219

> <r_epik_Ionization_Penalty_Neutral>
0.000760187

> <r_epik_State_Penalty>
-0

> <r_epik_Charging_Adjusted_Penalty>
0.00244219

> <i_epik_Tot_Q>
1

> <i_epik_Tot_abs_Q>
1

> <r_epik_Metal_State_Penalty>
0.262153

> <b_epik_Metal_Only>
0

> <s_lp_Force_Field>
OPLS_2005

> <r_lp_Energy>
34.4391

> <b_lp_Chiralities_Consistent>
1

> <s_lp_Variant>
AV-unprocessed.smi:1804-1

> <Gold.Version>
5.8.1

> <Gold.Id.Protein>
6NUR|6NUR_protein|mol2

> <Gold.PLP.Fitness>
34.5199

> <Gold.PLP.PLP>
-31.6477

> <Gold.PLP.part.hbond>
-1.0000

> <Gold.PLP.part.metal>
0.0000

> <Gold.PLP.part.buried>
-5.4219

> <Gold.PLP.part.nonpolar>
-25.8346

> <Gold.PLP.part.repulsive>
0.4778

> <Gold.PLP.ligand.clash>
0.0000

> <Gold.PLP.ligand.torsion>
0.1585

> <Gold.PLP.Chemscore.Hbond>
1.0000

> <Gold.PLP.Chemscore.CHOScore>
0.0000

> <Gold.PLP.Chemscore.Metal>
0.0000

> <Gold.Chemscore.Hbonds>
donor molecule, donor type, donor heavy atom, donor atom, acceptor molecule, acceptor atom, score
      P1  H  6896  6908       L1     8  0.75

> <Gold.PLP.Chemscore.Internal.Correction>
0.1891

> <Gold.Rescore>
     Score         DG    S(hbond)    S(metal)    S(lipo)     H(rot)  DE(clash)    DE(int)     intcor
     12.56     -14.07       0.99        0.00      81.19       1.65       0.10       1.41       ----

> <Gold.Chemscore.Fitness>
12.5639

> <Gold.Chemscore.DG>
-14.0683

> <Gold.Chemscore.ZeroCoef>
-5.4800

> <Gold.Chemscore.Hbond>
0.9908

> <Gold.Chemscore.Metal>
0.0000

> <Gold.Chemscore.Lipo>
81.1946

> <Gold.Chemscore.Internal_Hbond>
0.0000

> <Gold.Chemscore.DEClash>
0.0961

> <Gold.Chemscore.DEInternal>
1.4083

> <Gold.Chemscore.Rot>
1.6487

> <Gold.Chemscore.Internal.Correction>
   9.000000E+99

> <Gold.Chemscore.Hbonds>
donor molecule, donor type, donor heavy atom, donor atom, acceptor molecule, acceptor atom, score
      P1  H  6896  6908       L1     8  0.09

> <Gold.Chemscore.Hbond.Weighted>
-3.3092

> <Gold.Chemscore.Metal.Weighted>
-0.0000

> <Gold.Chemscore.Lipo.Weighted>
-9.4998

> <Gold.Chemscore.Internal_Hbond.Weighted>
0.0000

> <Gold.Chemscore.DEClash.Weighted>
0.0961

> <Gold.Chemscore.DEInternal.Weighted>
1.4083

> <Gold.Chemscore.Rot.Weighted>
4.2207

> <Gold.Chemscore.Internal.Correction.Weighted>
   9.000000E+99

> <Gold.Protein.RotatedTorsions>
[ 6907 6896 6895 6894 ] final  158.40 input  -60.11 | X-H torsion
[ 7974 7965 7964 7962 ] final -172.74 input  175.53 | X-H torsion
[ 8008 7997 7996 7995 ] final   16.38 input   59.86 | X-H torsion
[ 10167 10162 10161 10158 ] final  146.37 input  -65.29 | X-H torsion
[ 10718 10713 10712 10709 ] final   40.96 input   66.30 | X-H torsion
[ 10763 10752 10751 10750 ] final  -71.68 input  -60.55 | X-H torsion
[ 11005 11000 10999 10996 ] final  -35.45 input  -57.11 | X-H torsion

> <Gold.Protein.ActiveResidues>
 VAL166  LYS551  ARG553  GLY616  TRP617  ASP618  TYR619  PRO620  LYS621  CYS622 
 ASP623  PHE694  ASN695  SER759  ASP760  ASP761  ALA762  ILE779  LEU786  VAL792 
 PHE793  MET794  SER795  GLU796  ALA797  LYS798  CYS799  TRP800  GLU811  SER814 

> <Gold.Protein.RotatedAtoms>
  152.0009  133.3825  159.4181 H   0  0  0  0  0  0  0  0  0  0  0  0  # atno 6907 bound_to 6896
  150.6910  134.3835  159.5054 H   0  0  0  0  0  0  0  0  0  0  0  0  # atno 6908 bound_to 6896
  152.1582  134.8933  160.0594 H   0  0  0  0  0  0  0  0  0  0  0  0  # atno 6909 bound_to 6896
  144.7143  140.1727  143.6366 H   0  0  0  0  0  0  0  0  0  0  0  0  # atno 7974 bound_to 7965
  154.8761  140.2966  155.5453 H   0  0  0  0  0  0  0  0  0  0  0  0  # atno 8008 bound_to 7997
  156.3022  140.2451  156.3690 H   0  0  0  0  0  0  0  0  0  0  0  0  # atno 8009 bound_to 7997
  154.8766  140.0399  157.1746 H   0  0  0  0  0  0  0  0  0  0  0  0  # atno 8010 bound_to 7997
  139.4908  144.5834  151.6826 H   0  0  0  0  0  0  0  0  0  0  0  0  # atno 10167 bound_to 10162
  157.3881  130.7791  149.7247 H   0  0  0  0  0  0  0  0  0  0  0  0  # atno 10718 bound_to 10713
  154.4351  135.5954  153.6093 H   0  0  0  0  0  0  0  0  0  0  0  0  # atno 10763 bound_to 10752
  152.9801  135.5984  154.3791 H   0  0  0  0  0  0  0  0  0  0  0  0  # atno 10764 bound_to 10752
  154.3634  135.2841  155.2286 H   0  0  0  0  0  0  0  0  0  0  0  0  # atno 10765 bound_to 10752
  140.9797  133.7063  156.1663 H   0  0  0  0  0  0  0  0  0  0  0  0  # atno 11005 bound_to 11000
  145.8929  139.2386  143.1539 LP  0  0  0  0  0  0  0  0  0  0  0  0  # atno 17320 bound_to 7965
  145.9886  140.8622  143.0078 LP  0  0  0  0  0  0  0  0  0  0  0  0  # atno 17321 bound_to 7965
  140.5445  144.0525  150.6101 LP  0  0  0  0  0  0  0  0  0  0  0  0  # atno 17342 bound_to 10162
  140.3559  143.2936  152.0437 LP  0  0  0  0  0  0  0  0  0  0  0  0  # atno 17343 bound_to 10162
  155.9791  130.4043  150.3604 LP  0  0  0  0  0  0  0  0  0  0  0  0  # atno 17370 bound_to 10713
  157.1717  131.0370  151.2792 LP  0  0  0  0  0  0  0  0  0  0  0  0  # atno 17371 bound_to 10713
  140.7205  134.4364  157.5575 LP  0  0  0  0  0  0  0  0  0  0  0  0  # atno 17394 bound_to 11000
  139.8945  134.8705  156.2174 LP  0  0  0  0  0  0  0  0  0  0  0  0  # atno 17395 bound_to 11000

$$$$
