AV-unprocessed.smi:1561|AV-procd|sdf|6283|dock1
  -GOLD-   22720 6483D 1   1.00000     0.00000
 Structure written by MMmdl.
 33 34  0  0  0  0  0  0  0  0  1 V2000
  151.9337  144.4945  158.7660 C   0  0  0  0  0  0  0  0  0  0  0  0
  152.6388  143.1769  159.1486 C   0  0  2  0  0  0  0  0  0  0  0  0
  151.9072  141.9352  158.6169 C   0  0  0  0  0  0  0  0  0  0  0  0
  152.4528  140.8310  158.6267 O   0  0  0  0  0  0  0  0  0  0  0  0
  150.6718  142.1403  158.1322 N   0  0  0  0  0  0  0  0  0  0  0  0
  149.8371  141.1323  157.4878 C   0  0  0  0  0  0  0  0  0  0  0  0
  150.3219  140.8309  156.0571 C   0  0  2  0  0  0  0  0  0  0  0  0
  149.4687  139.8086  155.3173 C   0  0  0  0  0  0  0  0  0  0  0  0
  150.4694  139.0294  154.4564 C   0  0  0  0  0  0  0  0  0  0  0  0
  151.7254  139.6641  154.6555 O   0  0  0  0  0  0  0  0  0  0  0  0
  151.7209  140.2239  155.9569 C   0  0  0  0  0  0  0  0  0  0  0  0
  152.8441  143.0538  160.5878 N   0  0  0  0  0  0  0  0  0  0  0  0
  152.4114  143.9087  161.5816 C   0  0  0  0  0  0  0  0  0  0  0  0
  152.8757  143.4255  162.7713 C   0  0  0  0  0  0  0  0  0  0  0  0
  153.6061  142.2627  162.4013 C   0  0  0  0  0  0  0  0  0  0  0  0
  153.5933  142.0476  161.0963 N   0  0  0  0  0  0  0  0  0  0  0  0
  151.8392  144.5885  157.6837 H   0  0  0  0  0  0  0  0  0  0  0  0
  152.5022  145.3552  159.1194 H   0  0  0  0  0  0  0  0  0  0  0  0
  150.9315  144.5642  159.1911 H   0  0  0  0  0  0  0  0  0  0  0  0
  153.6263  143.1963  158.6847 H   0  0  0  0  0  0  0  0  0  0  0  0
  150.3005  143.0785  158.1701 H   0  0  0  0  0  0  0  0  0  0  0  0
  149.7977  140.2176  158.0820 H   0  0  0  0  0  0  0  0  0  0  0  0
  148.8174  141.5167  157.4534 H   0  0  0  0  0  0  0  0  0  0  0  0
  150.3173  141.7553  155.4772 H   0  0  0  0  0  0  0  0  0  0  0  0
  148.9658  139.1298  156.0075 H   0  0  0  0  0  0  0  0  0  0  0  0
  148.7024  140.2962  154.7137 H   0  0  0  0  0  0  0  0  0  0  0  0
  150.5335  137.9922  154.7884 H   0  0  0  0  0  0  0  0  0  0  0  0
  150.2002  139.0317  153.3999 H   0  0  0  0  0  0  0  0  0  0  0  0
  152.5131  140.9637  156.0760 H   0  0  0  0  0  0  0  0  0  0  0  0
  151.8685  139.4355  156.6971 H   0  0  0  0  0  0  0  0  0  0  0  0
  151.8163  144.7827  161.3618 H   0  0  0  0  0  0  0  0  0  0  0  0
  152.7227  143.8429  163.7554 H   0  0  0  0  0  0  0  0  0  0  0  0
  154.1457  141.5761  163.0370 H   0  0  0  0  0  0  0  0  0  0  0  0
  1  2  1  0  0  0  0
  1 17  1  0  0  0  0
  1 18  1  0  0  0  0
  1 19  1  0  0  0  0
  2  3  1  0  0  0  0
  2 12  1  0  0  0  0
  2 20  1  0  0  0  0
  3  4  2  0  0  0  0
  3  5  1  0  0  0  0
  5  6  1  0  0  0  0
  5 21  1  0  0  0  0
  6  7  1  0  0  0  0
  6 22  1  0  0  0  0
  6 23  1  0  0  0  0
  7 11  1  0  0  0  0
  7  8  1  0  0  0  0
  7 24  1  0  0  0  0
  8  9  1  0  0  0  0
  8 25  1  0  0  0  0
  8 26  1  0  0  0  0
  9 10  1  0  0  0  0
  9 27  1  0  0  0  0
  9 28  1  0  0  0  0
 10 11  1  0  0  0  0
 11 29  1  0  0  0  0
 11 30  1  0  0  0  0
 12 16  1  0  0  0  0
 12 13  1  0  0  0  0
 13 14  2  0  0  0  0
 13 31  1  0  0  0  0
 14 15  1  0  0  0  0
 14 32  1  0  0  0  0
 15 16  2  0  0  0  0
 15 33  1  0  0  0  0
M  END
> <s_m_source_file>
AV-unprocessed.smi

> <i_m_source_file_index>
1561

> <i_lp_mmshare_version>
43012

> <i_f3d_flags>
0

> <s_epik_input>
bjFbY0hdW2NIXVtjSF1uMVtDQEhdKFtDSDNdKUMoPU8pW05IXVtDSDJdW0NAQEhdMltDSDJdW0NIMl1PW0NIMl0y

> <s_epik_cmdline>
J2VwaWtfcHl0aG9uJywgJy1waCcsICc3LjAnLCAnLXRuJywgJzgnLCAnLW1hJywgJzIwMCcsICctbWV0YWxfYmluZGluZycsICctaW1hZScsICc8aW5maWxlLm1hZT4nLCAnLW9tYWUnLCAnPG91dGZpbGUubWFlPic=

> <r_lp_tautomer_probability>
1

> <r_epik_Ionization_Penalty>
3.82077e-05

> <r_epik_Ionization_Penalty_Charging>
0

> <r_epik_Ionization_Penalty_Neutral>
3.82077e-05

> <r_epik_State_Penalty>
-0

> <r_epik_Charging_Adjusted_Penalty>
0

> <i_epik_Tot_Q>
0

> <i_epik_Tot_abs_Q>
0

> <r_epik_Metal_State_Penalty>
-0

> <b_epik_Metal_Only>
0

> <s_lp_Force_Field>
OPLS_2005

> <r_lp_Energy>
22.2594

> <b_lp_Chiralities_Consistent>
1

> <s_lp_Variant>
AV-unprocessed.smi:1561-1

> <Gold.Version>
5.8.1

> <Gold.Id.Protein>
6NUR|6NUR_protein|mol2

> <Gold.PLP.Fitness>
42.0490

> <Gold.PLP.PLP>
-39.7291

> <Gold.PLP.part.hbond>
-1.0000

> <Gold.PLP.part.metal>
0.0000

> <Gold.PLP.part.buried>
-5.3038

> <Gold.PLP.part.nonpolar>
-33.8843

> <Gold.PLP.part.repulsive>
0.1313

> <Gold.PLP.ligand.clash>
0.1718

> <Gold.PLP.ligand.torsion>
0.3157

> <Gold.PLP.Chemscore.Hbond>
1.0000

> <Gold.PLP.Chemscore.CHOScore>
0.0000

> <Gold.PLP.Chemscore.Metal>
0.0000

> <Gold.Chemscore.Hbonds>
donor molecule, donor type, donor heavy atom, donor atom, acceptor molecule, acceptor atom, score
      P1  H  7989  7998       L1    10  1.00

> <Gold.PLP.Chemscore.Internal.Correction>
0.1229

> <Gold.Rescore>
     Score         DG    S(hbond)    S(metal)    S(lipo)     H(rot)  DE(clash)    DE(int)     intcor
     12.84     -14.35       0.72        0.00      90.53       1.61       0.07       1.44       ----

> <Gold.Chemscore.Fitness>
12.8391

> <Gold.Chemscore.DG>
-14.3529

> <Gold.Chemscore.ZeroCoef>
-5.4800

> <Gold.Chemscore.Hbond>
0.7187

> <Gold.Chemscore.Metal>
0.0000

> <Gold.Chemscore.Lipo>
90.5349

> <Gold.Chemscore.Internal_Hbond>
0.0000

> <Gold.Chemscore.DEClash>
0.0727

> <Gold.Chemscore.DEInternal>
1.4412

> <Gold.Chemscore.Rot>
1.6094

> <Gold.Chemscore.Internal.Correction>
   9.000000E+99

> <Gold.Chemscore.Hbonds>
donor molecule, donor type, donor heavy atom, donor atom, acceptor molecule, acceptor atom, score
      P1  H  7989  7998       L1    10  0.23

> <Gold.Chemscore.Hbond.Weighted>
-2.4004

> <Gold.Chemscore.Metal.Weighted>
-0.0000

> <Gold.Chemscore.Lipo.Weighted>
-10.5926

> <Gold.Chemscore.Internal_Hbond.Weighted>
0.0000

> <Gold.Chemscore.DEClash.Weighted>
0.0727

> <Gold.Chemscore.DEInternal.Weighted>
1.4412

> <Gold.Chemscore.Rot.Weighted>
4.1201

> <Gold.Chemscore.Internal.Correction.Weighted>
   9.000000E+99

> <Gold.Protein.RotatedTorsions>
[ 6907 6896 6895 6894 ] final  -42.60 input  -60.11 | X-H torsion
[ 7974 7965 7964 7962 ] final  -39.11 input  175.53 | X-H torsion
[ 8008 7997 7996 7995 ] final  -49.09 input   59.86 | X-H torsion
[ 10167 10162 10161 10158 ] final  170.14 input  -65.29 | X-H torsion
[ 10718 10713 10712 10709 ] final  111.17 input   66.30 | X-H torsion
[ 10763 10752 10751 10750 ] final   37.49 input  -60.55 | X-H torsion
[ 11005 11000 10999 10996 ] final  -93.17 input  -57.11 | X-H torsion

> <Gold.Protein.ActiveResidues>
 VAL166  LYS551  ARG553  GLY616  TRP617  ASP618  TYR619  PRO620  LYS621  CYS622 
 ASP623  PHE694  ASN695  SER759  ASP760  ASP761  ALA762  ILE779  LEU786  VAL792 
 PHE793  MET794  SER795  GLU796  ALA797  LYS798  CYS799  TRP800  GLU811  SER814 

> <Gold.Protein.RotatedAtoms>
  150.9534  134.8931  159.7685 H   0  0  0  0  0  0  0  0  0  0  0  0  # atno 6907 bound_to 6896
  152.5128  134.3774  159.9349 H   0  0  0  0  0  0  0  0  0  0  0  0  # atno 6908 bound_to 6896
  151.3789  133.3788  159.2742 H   0  0  0  0  0  0  0  0  0  0  0  0  # atno 6909 bound_to 6896
  146.0426  140.6589  142.9080 H   0  0  0  0  0  0  0  0  0  0  0  0  # atno 7974 bound_to 7965
  154.4038  140.1305  156.4445 H   0  0  0  0  0  0  0  0  0  0  0  0  # atno 8008 bound_to 7997
  155.7426  140.3489  155.5091 H   0  0  0  0  0  0  0  0  0  0  0  0  # atno 8009 bound_to 7997
  155.9025  140.1022  157.1330 H   0  0  0  0  0  0  0  0  0  0  0  0  # atno 8010 bound_to 7997
  139.5010  144.3629  151.9806 H   0  0  0  0  0  0  0  0  0  0  0  0  # atno 10167 bound_to 10162
  157.6458  131.0946  150.6709 H   0  0  0  0  0  0  0  0  0  0  0  0  # atno 10718 bound_to 10713
  153.0036  135.6276  154.2153 H   0  0  0  0  0  0  0  0  0  0  0  0  # atno 10763 bound_to 10752
  154.1896  135.2809  155.3028 H   0  0  0  0  0  0  0  0  0  0  0  0  # atno 10764 bound_to 10752
  154.5770  135.5659  153.7208 H   0  0  0  0  0  0  0  0  0  0  0  0  # atno 10765 bound_to 10752
  141.1504  133.7869  157.0122 H   0  0  0  0  0  0  0  0  0  0  0  0  # atno 11005 bound_to 11000
  144.7082  140.3935  143.7101 LP  0  0  0  0  0  0  0  0  0  0  0  0  # atno 17320 bound_to 7965
  145.6860  139.1628  143.2674 LP  0  0  0  0  0  0  0  0  0  0  0  0  # atno 17321 bound_to 7965
  140.3065  144.3587  150.6045 LP  0  0  0  0  0  0  0  0  0  0  0  0  # atno 17342 bound_to 10162
  140.5832  143.2171  151.7390 LP  0  0  0  0  0  0  0  0  0  0  0  0  # atno 17343 bound_to 10162
  156.7027  130.4628  149.5568 LP  0  0  0  0  0  0  0  0  0  0  0  0  # atno 17370 bound_to 10713
  156.1784  130.6483  151.0922 LP  0  0  0  0  0  0  0  0  0  0  0  0  # atno 17371 bound_to 10713
  140.0870  134.9615  157.1716 LP  0  0  0  0  0  0  0  0  0  0  0  0  # atno 17394 bound_to 11000
  140.3498  134.2612  155.7200 LP  0  0  0  0  0  0  0  0  0  0  0  0  # atno 17395 bound_to 11000

$$$$
