AV-unprocessed.smi:3131|AV-procd|sdf|11928|dock4
  -GOLD-   2272017313D 1   1.00000     0.00000
 Structure written by MMmdl.
 43 43  0  0  0  0  0  0  0  0  2 V2000
  146.8316  142.4254  153.8129 C   0  0  0  0  0  0  0  0  0  0  0  0
  146.4785  141.2128  154.6872 C   0  0  0  0  0  0  0  0  0  0  0  0
  147.4872  140.0427  154.5993 C   0  0  0  0  0  0  0  0  0  0  0  0
  148.9409  140.5473  154.7758 C   0  0  0  0  0  0  0  0  0  0  0  0
  149.2977  140.9519  156.2139 C   0  0  0  0  0  0  0  0  0  0  0  0
  147.3302  139.2686  153.2711 C   0  0  0  0  0  0  0  0  0  0  0  0
  146.0133  138.6080  153.1768 N   0  3  0  0  0  0  0  0  0  0  0  0
  145.9175  137.5813  152.1177 C   0  0  0  0  0  0  0  0  0  0  0  0
  144.7936  136.5635  152.4097 C   0  0  2  0  0  0  0  0  0  0  0  0
  143.4207  137.1587  152.0542 C   0  0  0  0  0  0  0  0  0  0  0  0
  144.7735  136.3451  153.8087 O   0  0  0  0  0  0  0  0  0  0  0  0
  145.0138  135.2785  151.6396 C   0  0  0  0  0  0  0  0  0  0  0  0
  146.1380  134.4039  151.7106 C   0  0  0  0  0  0  0  0  0  0  0  0
  146.0247  133.3482  150.9231 N   0  0  0  0  0  0  0  0  0  0  0  0
  144.8340  133.5117  150.3130 N   0  0  0  0  0  0  0  0  0  0  0  0
  144.3806  132.5232  149.3582 C   0  0  0  0  0  0  0  0  0  0  0  0
  144.2029  134.6660  150.7231 C   0  0  0  0  0  0  0  0  0  0  0  0
  146.0319  143.1657  153.8465 H   0  0  0  0  0  0  0  0  0  0  0  0
  146.9673  142.1347  152.7708 H   0  0  0  0  0  0  0  0  0  0  0  0
  147.7414  142.9224  154.1473 H   0  0  0  0  0  0  0  0  0  0  0  0
  146.3677  141.5301  155.7248 H   0  0  0  0  0  0  0  0  0  0  0  0
  145.4922  140.8729  154.3746 H   0  0  0  0  0  0  0  0  0  0  0  0
  147.2704  139.3512  155.4153 H   0  0  0  0  0  0  0  0  0  0  0  0
  149.6441  139.7680  154.4817 H   0  0  0  0  0  0  0  0  0  0  0  0
  149.1288  141.3838  154.1014 H   0  0  0  0  0  0  0  0  0  0  0  0
  150.3531  141.2152  156.2874 H   0  0  0  0  0  0  0  0  0  0  0  0
  149.1143  140.1333  156.9105 H   0  0  0  0  0  0  0  0  0  0  0  0
  148.7267  141.8160  156.5517 H   0  0  0  0  0  0  0  0  0  0  0  0
  147.4174  139.9415  152.4189 H   0  0  0  0  0  0  0  0  0  0  0  0
  148.1218  138.5244  153.1718 H   0  0  0  0  0  0  0  0  0  0  0  0
  145.8185  138.1638  154.0629 H   0  0  0  0  0  0  0  0  0  0  0  0
  145.7568  138.0694  151.1552 H   0  0  0  0  0  0  0  0  0  0  0  0
  146.8748  137.0621  152.0501 H   0  0  0  0  0  0  0  0  0  0  0  0
  143.3504  137.3890  150.9905 H   0  0  0  0  0  0  0  0  0  0  0  0
  143.2317  138.0835  152.6008 H   0  0  0  0  0  0  0  0  0  0  0  0
  142.6138  136.4644  152.2928 H   0  0  0  0  0  0  0  0  0  0  0  0
  144.6666  135.4197  153.9701 H   0  0  0  0  0  0  0  0  0  0  0  0
  147.0267  134.5031  152.3163 H   0  0  0  0  0  0  0  0  0  0  0  0
  143.3829  132.7784  149.0000 H   0  0  0  0  0  0  0  0  0  0  0  0
  144.3470  131.5408  149.8303 H   0  0  0  0  0  0  0  0  0  0  0  0
  145.0643  132.4900  148.5093 H   0  0  0  0  0  0  0  0  0  0  0  0
  143.2363  134.9524  150.3351 H   0  0  0  0  0  0  0  0  0  0  0  0
  145.3053  139.3083  153.0080 H   0  0  0  0  0  0  0  0  0  0  0  0
  1  2  1  0  0  0  0
  1 18  1  0  0  0  0
  1 19  1  0  0  0  0
  1 20  1  0  0  0  0
  2  3  1  0  0  0  0
  2 21  1  0  0  0  0
  2 22  1  0  0  0  0
  3  4  1  0  0  0  0
  3  6  1  0  0  0  0
  3 23  1  0  0  0  0
  4  5  1  0  0  0  0
  4 24  1  0  0  0  0
  4 25  1  0  0  0  0
  5 26  1  0  0  0  0
  5 27  1  0  0  0  0
  5 28  1  0  0  0  0
  6  7  1  0  0  0  0
  6 29  1  0  0  0  0
  6 30  1  0  0  0  0
  7  8  1  0  0  0  0
  7 31  1  0  0  0  0
  7 43  1  0  0  0  0
  8  9  1  0  0  0  0
  8 32  1  0  0  0  0
  8 33  1  0  0  0  0
  9 10  1  0  0  0  0
  9 11  1  0  0  0  0
  9 12  1  0  0  0  0
 10 34  1  0  0  0  0
 10 35  1  0  0  0  0
 10 36  1  0  0  0  0
 11 37  1  0  0  0  0
 12 17  2  0  0  0  0
 12 13  1  0  0  0  0
 13 14  2  0  0  0  0
 13 38  1  0  0  0  0
 14 15  1  0  0  0  0
 15 16  1  0  0  0  0
 15 17  1  0  0  0  0
 16 39  1  0  0  0  0
 16 40  1  0  0  0  0
 16 41  1  0  0  0  0
 17 42  1  0  0  0  0
M  CHG  1   7   1
M  END
> <s_m_source_file>
AV-unprocessed.smi

> <i_m_source_file_index>
3131

> <i_lp_mmshare_version>
43012

> <i_f3d_flags>
0

> <s_epik_input>
W0NIM11bQ0gyXVtDSF0oW0NIMl1bQ0gzXSlbQ0gyXVtOSF1bQ0gyXVtDQEBdKFtDSDNdKShbT0hdKWMxW2NIXW5uKFtDSDNdKVtjSF0x

> <s_epik_cmdline>
J2VwaWtfcHl0aG9uJywgJy1waCcsICc3LjAnLCAnLXRuJywgJzgnLCAnLW1hJywgJzIwMCcsICctbWV0YWxfYmluZGluZycsICctaW1hZScsICc8aW5maWxlLm1hZT4nLCAnLW9tYWUnLCAnPG91dGZpbGUubWFlPic=

> <r_lp_tautomer_probability>
1

> <r_epik_Ionization_Penalty>
0.00304809

> <r_epik_Ionization_Penalty_Charging>
0.00302982

> <r_epik_Ionization_Penalty_Neutral>
1.82731e-05

> <r_epik_State_Penalty>
0.00212874

> <r_epik_Charging_Adjusted_Penalty>
0.00515857

> <i_epik_Tot_Q>
1

> <i_epik_Tot_abs_Q>
1

> <r_epik_Metal_State_Penalty>
-0

> <b_epik_Metal_Only>
0

> <s_lp_Force_Field>
OPLS_2005

> <r_lp_Energy>
9.85369

> <b_lp_Chiralities_Consistent>
1

> <s_lp_Variant>
AV-unprocessed.smi:3131-2

> <Gold.Version>
5.8.1

> <Gold.Id.Protein>
6NUR|6NUR_protein|mol2

> <Gold.PLP.Fitness>
43.1160

> <Gold.PLP.PLP>
-32.4491

> <Gold.PLP.part.hbond>
-1.0000

> <Gold.PLP.part.metal>
0.0000

> <Gold.PLP.part.buried>
-2.3674

> <Gold.PLP.part.nonpolar>
-29.6148

> <Gold.PLP.part.repulsive>
0.1961

> <Gold.PLP.ligand.clash>
0.0000

> <Gold.PLP.ligand.torsion>
0.6963

> <Gold.PLP.Chemscore.Hbond>
2.0000

> <Gold.PLP.Chemscore.CHOScore>
1.9402

> <Gold.PLP.Chemscore.Metal>
0.0000

> <Gold.Chemscore.Hbonds>
donor molecule, donor type, donor heavy atom, donor atom, acceptor molecule, acceptor atom, score
      L1  H     7    43       P1 10175  1.82
      L1  C    13    38       P1  7948  0.75
      L1  C    17    42       P1 10186  1.00

> <Gold.PLP.Chemscore.Internal.Correction>
0.2388

> <Gold.Rescore>
     Score         DG    S(hbond)    S(metal)    S(lipo)     H(rot)  DE(clash)    DE(int)     intcor
     10.82     -11.89       1.00        0.00      77.55       2.34       0.26       0.81       ----

> <Gold.Chemscore.Fitness>
10.8216

> <Gold.Chemscore.DG>
-11.8915

> <Gold.Chemscore.ZeroCoef>
-5.4800

> <Gold.Chemscore.Hbond>
0.9985

> <Gold.Chemscore.Metal>
0.0000

> <Gold.Chemscore.Lipo>
77.5521

> <Gold.Chemscore.Internal_Hbond>
0.0000

> <Gold.Chemscore.DEClash>
0.2602

> <Gold.Chemscore.DEInternal>
0.8098

> <Gold.Chemscore.Rot>
2.3426

> <Gold.Chemscore.Internal.Correction>
   9.000000E+99

> <Gold.Chemscore.Hbonds>
donor molecule, donor type, donor heavy atom, donor atom, acceptor molecule, acceptor atom, score
      L1  H     7    43       P1 10175  0.87

> <Gold.Chemscore.Hbond.Weighted>
-3.3351

> <Gold.Chemscore.Metal.Weighted>
-0.0000

> <Gold.Chemscore.Lipo.Weighted>
-9.0736

> <Gold.Chemscore.Internal_Hbond.Weighted>
0.0000

> <Gold.Chemscore.DEClash.Weighted>
0.2602

> <Gold.Chemscore.DEInternal.Weighted>
0.8098

> <Gold.Chemscore.Rot.Weighted>
5.9972

> <Gold.Chemscore.Internal.Correction.Weighted>
   9.000000E+99

> <Gold.Protein.RotatedTorsions>
[ 6907 6896 6895 6894 ] final  121.47 input  -60.11 | X-H torsion
[ 7974 7965 7964 7962 ] final   24.82 input  175.53 | X-H torsion
[ 8008 7997 7996 7995 ] final  -28.98 input   59.86 | X-H torsion
[ 10167 10162 10161 10158 ] final -134.17 input  -65.29 | X-H torsion
[ 10718 10713 10712 10709 ] final -116.47 input   66.30 | X-H torsion
[ 10763 10752 10751 10750 ] final -177.64 input  -60.55 | X-H torsion
[ 11005 11000 10999 10996 ] final  174.70 input  -57.11 | X-H torsion

> <Gold.Protein.ActiveResidues>
 VAL166  LYS551  ARG553  GLY616  TRP617  ASP618  TYR619  PRO620  LYS621  CYS622 
 ASP623  PHE694  ASN695  SER759  ASP760  ASP761  ALA762  ILE779  LEU786  VAL792 
 PHE793  MET794  SER795  GLU796  ALA797  LYS798  CYS799  TRP800  GLU811  SER814 

> <Gold.Protein.RotatedAtoms>
  152.4319  133.7292  159.6577 H   0  0  0  0  0  0  0  0  0  0  0  0  # atno 6907 bound_to 6896
  150.8199  133.8261  159.3150 H   0  0  0  0  0  0  0  0  0  0  0  0  # atno 6908 bound_to 6896
  151.5946  135.1053  160.0098 H   0  0  0  0  0  0  0  0  0  0  0  0  # atno 6909 bound_to 6896
  146.1919  139.7551  142.8825 H   0  0  0  0  0  0  0  0  0  0  0  0  # atno 7974 bound_to 7965
  154.4309  140.1830  156.1175 H   0  0  0  0  0  0  0  0  0  0  0  0  # atno 8008 bound_to 7997
  156.0169  140.3345  155.6973 H   0  0  0  0  0  0  0  0  0  0  0  0  # atno 8009 bound_to 7997
  155.6031  140.0642  157.2718 H   0  0  0  0  0  0  0  0  0  0  0  0  # atno 8010 bound_to 7997
  139.8908  143.6725  152.2612 H   0  0  0  0  0  0  0  0  0  0  0  0  # atno 10167 bound_to 10162
  156.0966  130.6137  150.9040 H   0  0  0  0  0  0  0  0  0  0  0  0  # atno 10718 bound_to 10713
  154.5576  135.2817  155.0950 H   0  0  0  0  0  0  0  0  0  0  0  0  # atno 10763 bound_to 10752
  154.2372  135.6363  153.5198 H   0  0  0  0  0  0  0  0  0  0  0  0  # atno 10764 bound_to 10752
  153.0020  135.5551  154.6160 H   0  0  0  0  0  0  0  0  0  0  0  0  # atno 10765 bound_to 10752
  140.3541  134.7169  157.4288 H   0  0  0  0  0  0  0  0  0  0  0  0  # atno 11005 bound_to 11000
  145.3766  141.0351  143.3201 LP  0  0  0  0  0  0  0  0  0  0  0  0  # atno 17320 bound_to 7965
  144.8503  139.5332  143.6859 LP  0  0  0  0  0  0  0  0  0  0  0  0  # atno 17321 bound_to 7965
  139.7112  144.7620  151.1110 LP  0  0  0  0  0  0  0  0  0  0  0  0  # atno 17342 bound_to 10162
  140.7727  143.5329  150.9402 LP  0  0  0  0  0  0  0  0  0  0  0  0  # atno 17343 bound_to 10162
  157.6128  131.0935  150.8764 LP  0  0  0  0  0  0  0  0  0  0  0  0  # atno 17370 bound_to 10713
  156.8901  130.5209  149.5286 LP  0  0  0  0  0  0  0  0  0  0  0  0  # atno 17371 bound_to 10713
  140.0679  134.5904  155.8675 LP  0  0  0  0  0  0  0  0  0  0  0  0  # atno 17394 bound_to 11000
  141.2003  133.6612  156.5891 LP  0  0  0  0  0  0  0  0  0  0  0  0  # atno 17395 bound_to 11000

$$$$
