AV-unprocessed.smi:2923|AV-procd|sdf|11206|dock5
  -GOLD-   2272016 93D 1   1.00000     0.00000
 Structure written by MMmdl.
 47 49  0  0  0  0  0  0  0  0  2 V2000
  144.1766  132.4290  149.3023 C   0  0  0  0  0  0  0  0  0  0  0  0
  145.0021  132.4328  150.5050 N   0  0  0  0  0  0  0  0  0  0  0  0
  145.5412  131.1857  151.0318 C   0  0  0  0  0  0  0  0  0  0  0  0
  145.2999  133.6539  151.1479 C   0  0  0  0  0  0  0  0  0  0  0  0
  144.8554  134.9108  150.6701 C   0  0  0  0  0  0  0  0  0  0  0  0
  145.1960  136.0869  151.3689 C   0  0  0  0  0  0  0  0  0  0  0  0
  145.9800  136.0102  152.5389 C   0  0  0  0  0  0  0  0  0  0  0  0
  146.2869  137.2309  153.2017 N   0  0  0  0  0  0  0  0  0  0  0  0
  146.4641  138.4599  152.6862 C   0  0  0  0  0  0  0  0  0  0  0  0
  146.3824  138.7559  151.4949 O   0  0  0  0  0  0  0  0  0  0  0  0
  146.7469  139.3474  153.6486 N   0  0  0  0  0  0  0  0  0  0  0  0
  147.0009  140.7726  153.4295 C   0  0  2  0  0  0  0  0  0  0  0  0
  148.4279  141.2102  153.8354 C   0  0  2  0  0  0  0  0  0  0  0  0
  149.5305  140.2322  154.1630 C   0  0  0  0  0  0  0  0  0  0  0  0
  149.4811  140.1638  155.6919 C   0  0  0  0  0  0  0  0  0  0  0  0
  148.1724  140.6153  156.0344 O   0  0  0  0  0  0  0  0  0  0  0  0
  147.8389  141.6858  155.1537 C   0  0  2  0  0  0  0  0  0  0  0  0
  146.4172  141.6667  154.5552 C   0  0  0  0  0  0  0  0  0  0  0  0
  145.9253  143.0361  154.0765 C   0  0  0  0  0  0  0  0  0  0  0  0
  145.3065  141.0979  155.4490 C   0  0  0  0  0  0  0  0  0  0  0  0
  146.3962  134.7303  152.9785 C   0  0  0  0  0  0  0  0  0  0  0  0
  146.0466  133.6292  152.2786 N   0  3  0  0  0  0  0  0  0  0  0  0
  144.6553  133.0032  148.5084 H   0  0  0  0  0  0  0  0  0  0  0  0
  143.1984  132.8657  149.5062 H   0  0  0  0  0  0  0  0  0  0  0  0
  144.0179  131.4158  148.9323 H   0  0  0  0  0  0  0  0  0  0  0  0
  145.1874  131.0147  152.0489 H   0  0  0  0  0  0  0  0  0  0  0  0
  146.6313  131.2123  151.0406 H   0  0  0  0  0  0  0  0  0  0  0  0
  145.2345  130.3334  150.4252 H   0  0  0  0  0  0  0  0  0  0  0  0
  144.2563  134.9946  149.7757 H   0  0  0  0  0  0  0  0  0  0  0  0
  144.8548  137.0440  151.0018 H   0  0  0  0  0  0  0  0  0  0  0  0
  146.3680  137.1648  154.2058 H   0  0  0  0  0  0  0  0  0  0  0  0
  146.7987  139.0213  154.6028 H   0  0  0  0  0  0  0  0  0  0  0  0
  146.7214  141.1224  152.4340 H   0  0  0  0  0  0  0  0  0  0  0  0
  148.7591  142.0547  153.2289 H   0  0  0  0  0  0  0  0  0  0  0  0
  149.3605  139.2529  153.7171 H   0  0  0  0  0  0  0  0  0  0  0  0
  150.5048  140.5791  153.8181 H   0  0  0  0  0  0  0  0  0  0  0  0
  149.6724  139.1611  156.0746 H   0  0  0  0  0  0  0  0  0  0  0  0
  150.2158  140.8422  156.1284 H   0  0  0  0  0  0  0  0  0  0  0  0
  148.2107  142.6567  155.4849 H   0  0  0  0  0  0  0  0  0  0  0  0
  145.7522  143.7149  154.9124 H   0  0  0  0  0  0  0  0  0  0  0  0
  144.9921  142.9536  153.5184 H   0  0  0  0  0  0  0  0  0  0  0  0
  146.6504  143.5174  153.4195 H   0  0  0  0  0  0  0  0  0  0  0  0
  145.0478  141.7876  156.2530 H   0  0  0  0  0  0  0  0  0  0  0  0
  145.5973  140.1607  155.9238 H   0  0  0  0  0  0  0  0  0  0  0  0
  144.3981  140.9027  154.8783 H   0  0  0  0  0  0  0  0  0  0  0  0
  146.9882  134.5292  153.8577 H   0  0  0  0  0  0  0  0  0  0  0  0
  146.3653  132.7236  152.6238 H   0  0  0  0  0  0  0  0  0  0  0  0
  1  2  1  0  0  0  0
  1 23  1  0  0  0  0
  1 24  1  0  0  0  0
  1 25  1  0  0  0  0
  2  3  1  0  0  0  0
  2  4  1  0  0  0  0
  3 26  1  0  0  0  0
  3 27  1  0  0  0  0
  3 28  1  0  0  0  0
  4 22  1  0  0  0  0
  4  5  2  0  0  0  0
  5  6  1  0  0  0  0
  5 29  1  0  0  0  0
  6  7  2  0  0  0  0
  6 30  1  0  0  0  0
  7  8  1  0  0  0  0
  7 21  1  0  0  0  0
  8  9  1  0  0  0  0
  8 31  1  0  0  0  0
  9 10  2  0  0  0  0
  9 11  1  0  0  0  0
 11 12  1  0  0  0  0
 11 32  1  0  0  0  0
 12 18  1  0  0  0  0
 12 13  1  0  0  0  0
 12 33  1  0  0  0  0
 13 17  1  0  0  0  0
 13 14  1  0  0  0  0
 13 34  1  0  0  0  0
 14 15  1  0  0  0  0
 14 35  1  0  0  0  0
 14 36  1  0  0  0  0
 15 16  1  0  0  0  0
 15 37  1  0  0  0  0
 15 38  1  0  0  0  0
 16 17  1  0  0  0  0
 17 18  1  0  0  0  0
 17 39  1  0  0  0  0
 18 19  1  0  0  0  0
 18 20  1  0  0  0  0
 19 40  1  0  0  0  0
 19 41  1  0  0  0  0
 19 42  1  0  0  0  0
 20 43  1  0  0  0  0
 20 44  1  0  0  0  0
 20 45  1  0  0  0  0
 21 22  2  0  0  0  0
 21 46  1  0  0  0  0
 22 47  1  0  0  0  0
M  CHG  1  22   1
M  END
> <s_m_source_file>
AV-unprocessed.smi

> <i_m_source_file_index>
2923

> <i_lp_mmshare_version>
43012

> <i_f3d_flags>
0

> <s_epik_input>
W0NIM11OKFtDSDNdKWMxW2NIXVtjSF1jKFtjSF1uMSlbTkhdQyg9TylbTkhdW0NASF0yQyhbQ0gzXSkoW0NIM10pW0NAQEhdKFtDQEhdMjMpT1tDSDJdW0NIMl0z

> <s_epik_cmdline>
J2VwaWtfcHl0aG9uJywgJy1waCcsICc3LjAnLCAnLXRuJywgJzgnLCAnLW1hJywgJzIwMCcsICctbWV0YWxfYmluZGluZycsICctaW1hZScsICc8aW5maWxlLm1hZT4nLCAnLW9tYWUnLCAnPG91dGZpbGUubWFlPic=

> <r_lp_tautomer_probability>
0.999994

> <r_epik_Ionization_Penalty>
0.252205

> <r_epik_Ionization_Penalty_Charging>
0.252185

> <r_epik_Ionization_Penalty_Neutral>
1.99479e-05

> <r_epik_State_Penalty>
0.243573

> <r_epik_Charging_Adjusted_Penalty>
0.495758

> <i_epik_Tot_Q>
1

> <i_epik_Tot_abs_Q>
1

> <r_epik_Metal_State_Penalty>
0.534372

> <b_epik_Metal_Only>
0

> <s_lp_Force_Field>
OPLS_2005

> <r_lp_Energy>
46.9132

> <b_lp_Chiralities_Consistent>
1

> <s_lp_Variant>
AV-unprocessed.smi:2923-5

> <Gold.Version>
5.8.1

> <Gold.Id.Protein>
6NUR|6NUR_protein|mol2

> <Gold.PLP.Fitness>
39.0543

> <Gold.PLP.PLP>
-38.8202

> <Gold.PLP.part.hbond>
-0.9104

> <Gold.PLP.part.metal>
0.0000

> <Gold.PLP.part.buried>
-1.7594

> <Gold.PLP.part.nonpolar>
-36.6875

> <Gold.PLP.part.repulsive>
0.3968

> <Gold.PLP.ligand.clash>
0.0000

> <Gold.PLP.ligand.torsion>
0.3677

> <Gold.PLP.Chemscore.Hbond>
0.2600

> <Gold.PLP.Chemscore.CHOScore>
0.0000

> <Gold.PLP.Chemscore.Metal>
0.0000

> <Gold.PLP.Chemscore.Internal.Correction>
0.1894

> <Gold.Rescore>
     Score         DG    S(hbond)    S(metal)    S(lipo)     H(rot)  DE(clash)    DE(int)     intcor
     11.11     -12.95       0.00        0.00      85.74       1.00       0.27       1.58       ----

> <Gold.Chemscore.Fitness>
11.1054

> <Gold.Chemscore.DG>
-12.9511

> <Gold.Chemscore.ZeroCoef>
-5.4800

> <Gold.Chemscore.Hbond>
0.0000

> <Gold.Chemscore.Metal>
0.0000

> <Gold.Chemscore.Lipo>
85.7352

> <Gold.Chemscore.Internal_Hbond>
0.0000

> <Gold.Chemscore.DEClash>
0.2681

> <Gold.Chemscore.DEInternal>
1.5775

> <Gold.Chemscore.Rot>
1.0000

> <Gold.Chemscore.Internal.Correction>
   9.000000E+99

> <Gold.Chemscore.Hbond.Weighted>
-0.0000

> <Gold.Chemscore.Metal.Weighted>
-0.0000

> <Gold.Chemscore.Lipo.Weighted>
-10.0310

> <Gold.Chemscore.Internal_Hbond.Weighted>
0.0000

> <Gold.Chemscore.DEClash.Weighted>
0.2681

> <Gold.Chemscore.DEInternal.Weighted>
1.5775

> <Gold.Chemscore.Rot.Weighted>
2.5600

> <Gold.Chemscore.Internal.Correction.Weighted>
   9.000000E+99

> <Gold.Protein.RotatedTorsions>
[ 6907 6896 6895 6894 ] final  179.21 input  -60.11 | X-H torsion
[ 7974 7965 7964 7962 ] final  -45.14 input  175.53 | X-H torsion
[ 8008 7997 7996 7995 ] final -161.60 input   59.86 | X-H torsion
[ 10167 10162 10161 10158 ] final  103.57 input  -65.29 | X-H torsion
[ 10718 10713 10712 10709 ] final  141.65 input   66.30 | X-H torsion
[ 10763 10752 10751 10750 ] final  -20.93 input  -60.55 | X-H torsion
[ 11005 11000 10999 10996 ] final   24.19 input  -57.11 | X-H torsion

> <Gold.Protein.ActiveResidues>
 VAL166  LYS551  ARG553  GLY616  TRP617  ASP618  TYR619  PRO620  LYS621  CYS622 
 ASP623  PHE694  ASN695  SER759  ASP760  ASP761  ALA762  ILE779  LEU786  VAL792 
 PHE793  MET794  SER795  GLU796  ALA797  LYS798  CYS799  TRP800  GLU811  SER814 

> <Gold.Protein.RotatedAtoms>
  151.6753  133.3313  159.3206 H   0  0  0  0  0  0  0  0  0  0  0  0  # atno 6907 bound_to 6896
  150.7848  134.6827  159.6462 H   0  0  0  0  0  0  0  0  0  0  0  0  # atno 6908 bound_to 6896
  152.3915  134.6437  160.0158 H   0  0  0  0  0  0  0  0  0  0  0  0  # atno 6909 bound_to 6896
  145.9850  140.7243  142.9345 H   0  0  0  0  0  0  0  0  0  0  0  0  # atno 7974 bound_to 7965
  155.7946  140.0883  157.1990 H   0  0  0  0  0  0  0  0  0  0  0  0  # atno 8008 bound_to 7997
  154.3984  140.1483  156.3261 H   0  0  0  0  0  0  0  0  0  0  0  0  # atno 8009 bound_to 7997
  155.8524  140.3434  155.5704 H   0  0  0  0  0  0  0  0  0  0  0  0  # atno 8010 bound_to 7997
  139.7252  144.7049  151.0809 H   0  0  0  0  0  0  0  0  0  0  0  0  # atno 10167 bound_to 10162
  157.3895  131.1003  151.0660 H   0  0  0  0  0  0  0  0  0  0  0  0  # atno 10718 bound_to 10713
  153.6281  135.6990  153.5285 H   0  0  0  0  0  0  0  0  0  0  0  0  # atno 10763 bound_to 10752
  153.2882  135.4165  155.1141 H   0  0  0  0  0  0  0  0  0  0  0  0  # atno 10764 bound_to 10752
  154.8528  135.3618  154.5824 H   0  0  0  0  0  0  0  0  0  0  0  0  # atno 10765 bound_to 10752
  140.3614  134.2121  155.7672 H   0  0  0  0  0  0  0  0  0  0  0  0  # atno 11005 bound_to 11000
  144.6872  140.2973  143.7269 LP  0  0  0  0  0  0  0  0  0  0  0  0  # atno 17320 bound_to 7965
  145.7714  139.1858  143.2210 LP  0  0  0  0  0  0  0  0  0  0  0  0  # atno 17321 bound_to 7965
  140.7761  143.5114  150.9647 LP  0  0  0  0  0  0  0  0  0  0  0  0  # atno 17342 bound_to 10162
  139.8802  143.7082  152.3158 LP  0  0  0  0  0  0  0  0  0  0  0  0  # atno 17343 bound_to 10162
  157.1699  130.6263  149.5637 LP  0  0  0  0  0  0  0  0  0  0  0  0  # atno 17370 bound_to 10713
  155.9795  130.4789  150.6718 LP  0  0  0  0  0  0  0  0  0  0  0  0  # atno 17371 bound_to 10713
  141.1983  133.8039  157.0590 LP  0  0  0  0  0  0  0  0  0  0  0  0  # atno 17394 bound_to 11000
  140.0623  134.9748  157.1326 LP  0  0  0  0  0  0  0  0  0  0  0  0  # atno 17395 bound_to 11000

$$$$
