AV-unprocessed.smi:72|AV-procd|sdf|748|dock2
  -GOLD-   2262017 83D 1   1.00000     0.00000
 Structure written by MMmdl.
 29 30  0  0  0  0  0  0  0  0  1 V2000
  152.9609  143.3236  160.3346 N   0  0  0  0  0  0  0  0  0  0  0  0
  152.2611  142.5560  159.4271 C   0  0  0  0  0  0  0  0  0  0  0  0
  151.3725  143.2400  158.5863 N   0  0  0  0  0  0  0  0  0  0  0  0
  150.7111  142.5231  157.7335 C   0  0  0  0  0  0  0  0  0  0  0  0
  150.8903  141.0826  157.6589 N   0  0  0  0  0  0  0  0  0  0  0  0
  150.1278  140.2141  156.6721 C   0  0  1  0  0  0  0  0  0  0  0  0
  149.1783  140.9819  155.9895 O   0  0  0  0  0  0  0  0  0  0  0  0
  149.5808  141.1748  154.6367 C   0  0  2  0  0  0  0  0  0  0  0  0
  148.3762  141.5065  153.7389 C   0  0  0  0  0  0  0  0  0  0  0  0
  147.7448  142.6858  154.1901 O   0  0  0  0  0  0  0  0  0  0  0  0
  150.3123  139.8673  154.3074 C   0  0  2  0  0  0  0  0  0  0  0  0
  149.3972  138.8353  153.9842 O   0  0  0  0  0  0  0  0  0  0  0  0
  151.0362  139.5483  155.6089 C   0  0  1  0  0  0  0  0  0  0  0  0
  152.3505  140.0771  155.5629 O   0  0  0  0  0  0  0  0  0  0  0  0
  151.8118  140.4558  158.5420 C   0  0  0  0  0  0  0  0  0  0  0  0
  151.9866  139.2383  158.4881 O   0  0  0  0  0  0  0  0  0  0  0  0
  152.4983  141.2759  159.4450 N   0  0  0  0  0  0  0  0  0  0  0  0
  149.5815  139.4925  157.2812 H   0  0  0  0  0  0  0  0  0  0  0  0
  150.3106  141.9854  154.5941 H   0  0  0  0  0  0  0  0  0  0  0  0
  150.9953  139.9847  153.4647 H   0  0  0  0  0  0  0  0  0  0  0  0
  151.1027  138.4761  155.7989 H   0  0  0  0  0  0  0  0  0  0  0  0
  153.6272  142.9392  160.9889 H   0  0  0  0  0  0  0  0  0  0  0  0
  152.8615  144.3255  160.4103 H   0  0  0  0  0  0  0  0  0  0  0  0
  149.9935  142.9514  157.0340 H   0  0  0  0  0  0  0  0  0  0  0  0
  148.7086  141.6867  152.7161 H   0  0  0  0  0  0  0  0  0  0  0  0
  147.6620  140.6832  153.7102 H   0  0  0  0  0  0  0  0  0  0  0  0
  148.4101  143.2941  154.4740 H   0  0  0  0  0  0  0  0  0  0  0  0
  149.5071  138.6104  153.0731 H   0  0  0  0  0  0  0  0  0  0  0  0
  152.4313  140.6085  154.7855 H   0  0  0  0  0  0  0  0  0  0  0  0
  1  2  1  0  0  0  0
  1 22  1  0  0  0  0
  1 23  1  0  0  0  0
  2 17  2  0  0  0  0
  2  3  1  0  0  0  0
  3  4  2  0  0  0  0
  4  5  1  0  0  0  0
  4 24  1  0  0  0  0
  5  6  1  0  0  0  0
  5 15  1  0  0  0  0
  6 18  1  0  0  0  0
  6 13  1  0  0  0  0
  6  7  1  0  0  0  0
  7  8  1  0  0  0  0
  8 19  1  0  0  0  0
  8  9  1  0  0  0  0
  8 11  1  0  0  0  0
  9 10  1  0  0  0  0
  9 25  1  0  0  0  0
  9 26  1  0  0  0  0
 10 27  1  0  0  0  0
 11 20  1  0  0  0  0
 11 12  1  0  0  0  0
 11 13  1  0  0  0  0
 12 28  1  0  0  0  0
 13 21  1  0  0  0  0
 13 14  1  0  0  0  0
 14 29  1  0  0  0  0
 15 16  2  0  0  0  0
 15 17  1  0  0  0  0
M  END
> <s_m_source_file>
AV-unprocessed.smi

> <i_m_source_file_index>
72

> <i_lp_mmshare_version>
43012

> <i_f3d_flags>
0

> <s_epik_input>
W05IMl1jMW5bY0hdbihjKD1PKW4xKVtDQEBIXTJPW0NASF0oW0NIMl1bT0hdKVtDQEBIXShbT0hdKVtDQEhdMltPSF0=

> <s_epik_cmdline>
J2VwaWtfcHl0aG9uJywgJy1waCcsICc3LjAnLCAnLXRuJywgJzgnLCAnLW1hJywgJzIwMCcsICctbWV0YWxfYmluZGluZycsICctaW1hZScsICc8aW5maWxlLm1hZT4nLCAnLW9tYWUnLCAnPG91dGZpbGUubWFlPic=

> <r_lp_tautomer_probability>
4.77166e-05

> <r_epik_Ionization_Penalty>
1.3546

> <r_epik_Ionization_Penalty_Charging>
1.46833e-10

> <r_epik_Ionization_Penalty_Neutral>
1.3546

> <r_epik_State_Penalty>
3.51908

> <r_epik_Charging_Adjusted_Penalty>
3.51908

> <i_epik_Tot_Q>
0

> <i_epik_Tot_abs_Q>
0

> <r_epik_Metal_State_Penalty>
3.44088

> <b_epik_Metal_Only>
1

> <s_epik_Chemistry_Notes>
This compound contains an acetal/aminal-like group ( X-CH(R)-Y where X, Y are N, S, or O) that may be acid/base labile, releasing an aldehyde.

> <s_lp_Force_Field>
OPLS_2005

> <r_lp_Energy>
33.7939

> <b_lp_Chiralities_Consistent>
1

> <s_lp_Variant>
AV-unprocessed.smi:72-86

> <Gold.Version>
5.8.1

> <Gold.Id.Protein>
6NUR|6NUR_protein|mol2

> <Gold.PLP.Fitness>
33.9475

> <Gold.PLP.PLP>
-25.3838

> <Gold.PLP.part.hbond>
-3.7727

> <Gold.PLP.part.metal>
0.0000

> <Gold.PLP.part.buried>
1.4096

> <Gold.PLP.part.nonpolar>
-21.6971

> <Gold.PLP.part.repulsive>
0.1454

> <Gold.PLP.ligand.clash>
0.0000

> <Gold.PLP.ligand.torsion>
0.0695

> <Gold.PLP.Chemscore.Hbond>
1.8917

> <Gold.PLP.Chemscore.CHOScore>
0.9947

> <Gold.PLP.Chemscore.Metal>
0.0000

> <Gold.Chemscore.Hbonds>
donor molecule, donor type, donor heavy atom, donor atom, acceptor molecule, acceptor atom, score
      L1  H    10    27       P1  8028  0.93
      L1  H    12    28       P1  7957  0.08
      P1  H  7997  8009       L1    14  0.80
      L1  C     4    24       P1  8028  1.00

> <Gold.PLP.Chemscore.Internal.Correction>
0.0434

> <Gold.Rescore>
     Score         DG    S(hbond)    S(metal)    S(lipo)     H(rot)  DE(clash)    DE(int)     intcor
      4.26      -7.26       2.54        0.00      31.44       4.06       2.81       0.19       ----

> <Gold.Chemscore.Fitness>
4.2554

> <Gold.Chemscore.DG>
-7.2567

> <Gold.Chemscore.ZeroCoef>
-5.4800

> <Gold.Chemscore.Hbond>
2.5425

> <Gold.Chemscore.Metal>
0.0000

> <Gold.Chemscore.Lipo>
31.4388

> <Gold.Chemscore.Internal_Hbond>
0.0000

> <Gold.Chemscore.DEClash>
2.8108

> <Gold.Chemscore.DEInternal>
0.1905

> <Gold.Chemscore.Rot>
4.0600

> <Gold.Chemscore.Internal.Correction>
   9.000000E+99

> <Gold.Chemscore.Hbonds>
donor molecule, donor type, donor heavy atom, donor atom, acceptor molecule, acceptor atom, score
      L1  H    10    27       P1  8028  0.91
      L1  H    12    28       P1  7957  0.09
      P1  H  7997  8009       L1    14  0.20

> <Gold.Chemscore.Hbond.Weighted>
-8.4920

> <Gold.Chemscore.Metal.Weighted>
-0.0000

> <Gold.Chemscore.Lipo.Weighted>
-3.6783

> <Gold.Chemscore.Internal_Hbond.Weighted>
0.0000

> <Gold.Chemscore.DEClash.Weighted>
2.8108

> <Gold.Chemscore.DEInternal.Weighted>
0.1905

> <Gold.Chemscore.Rot.Weighted>
10.3936

> <Gold.Chemscore.Internal.Correction.Weighted>
   9.000000E+99

> <Gold.Protein.RotatedTorsions>
[ 6907 6896 6895 6894 ] final   10.86 input  -60.11 | X-H torsion
[ 7974 7965 7964 7962 ] final -109.13 input  175.53 | X-H torsion
[ 8008 7997 7996 7995 ] final -159.94 input   59.86 | X-H torsion
[ 10167 10162 10161 10158 ] final  -19.15 input  -65.29 | X-H torsion
[ 10718 10713 10712 10709 ] final   20.31 input   66.30 | X-H torsion
[ 10763 10752 10751 10750 ] final   81.06 input  -60.55 | X-H torsion
[ 11005 11000 10999 10996 ] final -177.52 input  -57.11 | X-H torsion

> <Gold.Protein.ActiveResidues>
 VAL166  LYS551  ARG553  GLY616  TRP617  ASP618  TYR619  PRO620  LYS621  CYS622 
 ASP623  PHE694  ASN695  SER759  ASP760  ASP761  ALA762  ILE779  LEU786  VAL792 
 PHE793  MET794  SER795  GLU796  ALA797  LYS798  CYS799  TRP800  GLU811  SER814 

> <Gold.Protein.RotatedAtoms>
  151.7450  135.0845  160.0321 H   0  0  0  0  0  0  0  0  0  0  0  0  # atno 6907 bound_to 6896
  152.3454  133.6112  159.5915 H   0  0  0  0  0  0  0  0  0  0  0  0  # atno 6908 bound_to 6896
  150.7505  133.9573  159.3546 H   0  0  0  0  0  0  0  0  0  0  0  0  # atno 6909 bound_to 6896
  145.1844  140.8986  143.3461 H   0  0  0  0  0  0  0  0  0  0  0  0  # atno 7974 bound_to 7965
  155.7701  140.0851  157.2112 H   0  0  0  0  0  0  0  0  0  0  0  0  # atno 8008 bound_to 7997
  154.3997  140.1527  156.2989 H   0  0  0  0  0  0  0  0  0  0  0  0  # atno 8009 bound_to 7997
  155.8755  140.3423  155.5854 H   0  0  0  0  0  0  0  0  0  0  0  0  # atno 8010 bound_to 7997
  140.7265  143.4847  151.0071 H   0  0  0  0  0  0  0  0  0  0  0  0  # atno 10167 bound_to 10162
  157.1227  130.6556  149.5928 H   0  0  0  0  0  0  0  0  0  0  0  0  # atno 10718 bound_to 10713
  153.1085  135.4779  154.8994 H   0  0  0  0  0  0  0  0  0  0  0  0  # atno 10763 bound_to 10752
  154.7456  135.3093  154.8653 H   0  0  0  0  0  0  0  0  0  0  0  0  # atno 10764 bound_to 10752
  153.9249  135.6851  153.4800 H   0  0  0  0  0  0  0  0  0  0  0  0  # atno 10765 bound_to 10752
  140.4400  134.6440  157.4753 H   0  0  0  0  0  0  0  0  0  0  0  0  # atno 11005 bound_to 11000
  145.0104  139.3515  143.6123 LP  0  0  0  0  0  0  0  0  0  0  0  0  # atno 17320 bound_to 7965
  146.3447  139.9364  142.8746 LP  0  0  0  0  0  0  0  0  0  0  0  0  # atno 17321 bound_to 7965
  139.8547  143.7392  152.3176 LP  0  0  0  0  0  0  0  0  0  0  0  0  # atno 17342 bound_to 10162
  139.7586  144.7513  151.0397 LP  0  0  0  0  0  0  0  0  0  0  0  0  # atno 17343 bound_to 10162
  155.9825  130.4839  150.6884 LP  0  0  0  0  0  0  0  0  0  0  0  0  # atno 17370 bound_to 10713
  157.4462  131.0867  151.0893 LP  0  0  0  0  0  0  0  0  0  0  0  0  # atno 17371 bound_to 10713
  140.0076  134.6739  155.9430 LP  0  0  0  0  0  0  0  0  0  0  0  0  # atno 17394 bound_to 11000
  141.1709  133.6537  156.4650 LP  0  0  0  0  0  0  0  0  0  0  0  0  # atno 17395 bound_to 11000

$$$$
