AV-unprocessed.smi:157|AV-procd|sdf|1300|dock8
  -GOLD-   2262018583D 1   1.00000     0.00000
 Structure written by MMmdl.
 35 37  0  0  0  0  0  0  0  0  1 V2000
  151.8710  137.3268  154.5025 O   0  0  0  0  0  0  0  0  0  0  0  0
  152.7158  138.3277  155.0301 C   0  0  0  0  0  0  0  0  0  0  0  0
  151.9851  139.1405  156.1103 C   0  0  2  0  0  0  0  0  0  0  0  0
  152.9164  139.5241  157.1206 O   0  0  0  0  0  0  0  0  0  0  0  0
  152.3243  139.4471  158.3838 C   0  0  1  0  0  0  0  0  0  0  0  0
  152.4815  140.7695  159.0680 N   0  0  0  0  0  0  0  0  0  0  0  0
  153.2048  141.0089  160.1700 C   0  0  0  0  0  0  0  0  0  0  0  0
  153.1907  142.2678  160.5738 N   0  0  0  0  0  0  0  0  0  0  0  0
  152.3776  142.9106  159.6420 C   0  0  0  0  0  0  0  0  0  0  0  0
  151.9282  141.9989  158.6972 C   0  0  0  0  0  0  0  0  0  0  0  0
  151.1378  142.0485  157.5649 N   0  0  0  0  0  0  0  0  0  0  0  0
  150.3471  143.0649  157.4197 C   0  0  0  0  0  0  0  0  0  0  0  0
  150.2125  144.2113  158.1896 N   0  0  0  0  0  0  0  0  0  0  0  0
  151.3415  145.0202  158.6166 C   0  0  0  0  0  0  0  0  0  0  0  0
  152.1505  144.3906  159.7574 C   0  0  1  0  0  0  0  0  0  0  0  0
  151.4789  144.6114  160.9808 O   0  0  0  0  0  0  0  0  0  0  0  0
  150.8452  139.1318  158.1728 C   0  0  0  0  0  0  0  0  0  0  0  0
  150.8957  138.3710  156.8665 C   0  0  1  0  0  0  0  0  0  0  0  0
  149.6445  138.4195  156.2124 O   0  0  0  0  0  0  0  0  0  0  0  0
  151.5751  140.0599  155.6879 H   0  0  0  0  0  0  0  0  0  0  0  0
  152.8518  138.7141  158.9946 H   0  0  0  0  0  0  0  0  0  0  0  0
  153.1083  144.9072  159.8261 H   0  0  0  0  0  0  0  0  0  0  0  0
  151.1956  137.3368  157.0420 H   0  0  0  0  0  0  0  0  0  0  0  0
  151.1450  137.7463  154.0666 H   0  0  0  0  0  0  0  0  0  0  0  0
  153.6219  137.8712  155.4296 H   0  0  0  0  0  0  0  0  0  0  0  0
  153.0193  138.9828  154.2130 H   0  0  0  0  0  0  0  0  0  0  0  0
  153.7604  140.2405  160.6873 H   0  0  0  0  0  0  0  0  0  0  0  0
  149.6639  143.0723  156.5694 H   0  0  0  0  0  0  0  0  0  0  0  0
  149.3839  144.7761  158.0699 H   0  0  0  0  0  0  0  0  0  0  0  0
  151.9939  145.1458  157.7512 H   0  0  0  0  0  0  0  0  0  0  0  0
  151.0012  146.0199  158.8880 H   0  0  0  0  0  0  0  0  0  0  0  0
  150.8369  145.2919  160.8457 H   0  0  0  0  0  0  0  0  0  0  0  0
  150.4368  138.5605  159.0069 H   0  0  0  0  0  0  0  0  0  0  0  0
  150.2812  140.0603  158.0618 H   0  0  0  0  0  0  0  0  0  0  0  0
  149.4299  137.5483  155.9145 H   0  0  0  0  0  0  0  0  0  0  0  0
  1  2  1  0  0  0  0
  1 24  1  0  0  0  0
  2  3  1  0  0  0  0
  2 25  1  0  0  0  0
  2 26  1  0  0  0  0
  3 20  1  0  0  0  0
  3 18  1  0  0  0  0
  3  4  1  0  0  0  0
  4  5  1  0  0  0  0
  5 21  1  0  0  0  0
  5  6  1  0  0  0  0
  5 17  1  0  0  0  0
  6 10  1  0  0  0  0
  6  7  1  0  0  0  0
  7  8  2  0  0  0  0
  7 27  1  0  0  0  0
  8  9  1  0  0  0  0
  9 15  1  0  0  0  0
  9 10  2  0  0  0  0
 10 11  1  0  0  0  0
 11 12  2  0  0  0  0
 12 13  1  0  0  0  0
 12 28  1  0  0  0  0
 13 14  1  0  0  0  0
 13 29  1  0  0  0  0
 14 15  1  0  0  0  0
 14 30  1  0  0  0  0
 14 31  1  0  0  0  0
 15 22  1  0  0  0  0
 15 16  1  0  0  0  0
 16 32  1  0  0  0  0
 17 18  1  0  0  0  0
 17 33  1  0  0  0  0
 17 34  1  0  0  0  0
 18 23  1  0  0  0  0
 18 19  1  0  0  0  0
 19 35  1  0  0  0  0
M  END
> <s_m_source_file>
AV-unprocessed.smi

> <i_m_source_file_index>
157

> <i_lp_mmshare_version>
43012

> <i_f3d_flags>
0

> <s_epik_input>
W09IXVtDSDJdW0NASF0xT1tDQEhdKFtDSDJdW0NAQEhdMVtPSF0pbihbY0hdbjIpYyhjMjMpTj1bQ0hdW05IXVtDSDJdW0NASF0zW09IXQ==

> <s_epik_cmdline>
J2VwaWtfcHl0aG9uJywgJy1waCcsICc3LjAnLCAnLXRuJywgJzgnLCAnLW1hJywgJzIwMCcsICctbWV0YWxfYmluZGluZycsICctaW1hZScsICc8aW5maWxlLm1hZT4nLCAnLW9tYWUnLCAnPG91dGZpbGUubWFlPic=

> <r_lp_tautomer_probability>
1

> <r_epik_Ionization_Penalty>
0.0357149

> <r_epik_Ionization_Penalty_Charging>
0.0355056

> <r_epik_Ionization_Penalty_Neutral>
0.000209255

> <r_epik_State_Penalty>
0.0296046

> <r_epik_Charging_Adjusted_Penalty>
0.0651102

> <i_epik_Tot_Q>
0

> <i_epik_Tot_abs_Q>
0

> <r_epik_Metal_State_Penalty>
3.03559e-05

> <b_epik_Metal_Only>
0

> <s_epik_Chemistry_Notes>
This compound has an imine and may undergo hydrolysis. This compound contains an acetal/aminal-like group ( X-CH(R)-Y where X, Y are N, S, or O) that may be acid/base labile, releasing an aldehyde.

> <s_lp_Force_Field>
OPLS_2005

> <r_lp_Energy>
44.6585

> <b_lp_Chiralities_Consistent>
1

> <s_lp_Variant>
AV-unprocessed.smi:157-10

> <Gold.Version>
5.8.1

> <Gold.Id.Protein>
6NUR|6NUR_protein|mol2

> <Gold.PLP.Fitness>
44.9577

> <Gold.PLP.PLP>
-34.9631

> <Gold.PLP.part.hbond>
-4.7918

> <Gold.PLP.part.metal>
0.0000

> <Gold.PLP.part.buried>
-3.9577

> <Gold.PLP.part.nonpolar>
-27.1442

> <Gold.PLP.part.repulsive>
0.1334

> <Gold.PLP.ligand.clash>
0.0000

> <Gold.PLP.ligand.torsion>
0.5167

> <Gold.PLP.Chemscore.Hbond>
2.7603

> <Gold.PLP.Chemscore.CHOScore>
0.9123

> <Gold.PLP.Chemscore.Metal>
0.0000

> <Gold.Chemscore.Hbonds>
donor molecule, donor type, donor heavy atom, donor atom, acceptor molecule, acceptor atom, score
      L1  H    13    29       P1  8029  0.83
      P1  H  7997  8010       L1     4  1.00
      P1  H 10752 10765       L1     1  0.88
      L1  C    12    28       P1  8028  0.92

> <Gold.PLP.Chemscore.Internal.Correction>
0.0102

> <Gold.Rescore>
     Score         DG    S(hbond)    S(metal)    S(lipo)     H(rot)  DE(clash)    DE(int)     intcor
      6.81      -9.39       1.87        0.00      59.56       3.64       0.81       1.76       ----

> <Gold.Chemscore.Fitness>
6.8146

> <Gold.Chemscore.DG>
-9.3852

> <Gold.Chemscore.ZeroCoef>
-5.4800

> <Gold.Chemscore.Hbond>
1.8699

> <Gold.Chemscore.Metal>
0.0000

> <Gold.Chemscore.Lipo>
59.5608

> <Gold.Chemscore.Internal_Hbond>
0.0000

> <Gold.Chemscore.DEClash>
0.8130

> <Gold.Chemscore.DEInternal>
1.7575

> <Gold.Chemscore.Rot>
3.6362

> <Gold.Chemscore.Internal.Correction>
   9.000000E+99

> <Gold.Chemscore.Hbonds>
donor molecule, donor type, donor heavy atom, donor atom, acceptor molecule, acceptor atom, score
      L1  H    13    29       P1  8029  0.13
      P1  H  7997  8010       L1     4  0.85
      P1  H 10752 10765       L1     1  0.53

> <Gold.Chemscore.Hbond.Weighted>
-6.2453

> <Gold.Chemscore.Metal.Weighted>
-0.0000

> <Gold.Chemscore.Lipo.Weighted>
-6.9686

> <Gold.Chemscore.Internal_Hbond.Weighted>
0.0000

> <Gold.Chemscore.DEClash.Weighted>
0.8130

> <Gold.Chemscore.DEInternal.Weighted>
1.7575

> <Gold.Chemscore.Rot.Weighted>
9.3087

> <Gold.Chemscore.Internal.Correction.Weighted>
   9.000000E+99

> <Gold.Protein.RotatedTorsions>
[ 6907 6896 6895 6894 ] final -133.99 input  -60.11 | X-H torsion
[ 7974 7965 7964 7962 ] final   -9.11 input  175.53 | X-H torsion
[ 8008 7997 7996 7995 ] final   69.67 input   59.86 | X-H torsion
[ 10167 10162 10161 10158 ] final  -60.38 input  -65.29 | X-H torsion
[ 10718 10713 10712 10709 ] final -172.83 input   66.30 | X-H torsion
[ 10763 10752 10751 10750 ] final  148.55 input  -60.55 | X-H torsion
[ 11005 11000 10999 10996 ] final -126.90 input  -57.11 | X-H torsion

> <Gold.Protein.ActiveResidues>
 VAL166  LYS551  ARG553  GLY616  TRP617  ASP618  TYR619  PRO620  LYS621  CYS622 
 ASP623  PHE694  ASN695  SER759  ASP760  ASP761  ALA762  ILE779  LEU786  VAL792 
 PHE793  MET794  SER795  GLU796  ALA797  LYS798  CYS799  TRP800  GLU811  SER814 

> <Gold.Protein.RotatedAtoms>
  150.9805  133.6250  159.2723 H   0  0  0  0  0  0  0  0  0  0  0  0  # atno 6907 bound_to 6896
  151.3507  135.0882  159.9411 H   0  0  0  0  0  0  0  0  0  0  0  0  # atno 6908 bound_to 6896
  152.5214  133.9398  159.7675 H   0  0  0  0  0  0  0  0  0  0  0  0  # atno 6909 bound_to 6896
  146.2261  140.2568  142.8350 H   0  0  0  0  0  0  0  0  0  0  0  0  # atno 7974 bound_to 7965
  155.7272  140.3492  155.5042 H   0  0  0  0  0  0  0  0  0  0  0  0  # atno 8008 bound_to 7997
  155.9216  140.1068  157.1224 H   0  0  0  0  0  0  0  0  0  0  0  0  # atno 8009 bound_to 7997
  154.4070  140.1248  156.4674 H   0  0  0  0  0  0  0  0  0  0  0  0  # atno 8010 bound_to 7997
  140.6075  143.2377  151.5787 H   0  0  0  0  0  0  0  0  0  0  0  0  # atno 10167 bound_to 10162
  156.7614  130.9415  151.3118 H   0  0  0  0  0  0  0  0  0  0  0  0  # atno 10718 bound_to 10713
  154.0565  135.2877  155.3332 H   0  0  0  0  0  0  0  0  0  0  0  0  # atno 10763 bound_to 10752
  154.6835  135.5254  153.8299 H   0  0  0  0  0  0  0  0  0  0  0  0  # atno 10764 bound_to 10752
  153.0539  135.6587  154.0757 H   0  0  0  0  0  0  0  0  0  0  0  0  # atno 10765 bound_to 10752
  140.9644  134.0892  157.3935 H   0  0  0  0  0  0  0  0  0  0  0  0  # atno 11005 bound_to 11000
  144.9369  140.8037  143.5654 LP  0  0  0  0  0  0  0  0  0  0  0  0  # atno 17320 bound_to 7965
  145.2517  139.2029  143.4939 LP  0  0  0  0  0  0  0  0  0  0  0  0  # atno 17321 bound_to 7965
  139.5336  144.2845  152.1202 LP  0  0  0  0  0  0  0  0  0  0  0  0  # atno 17342 bound_to 10162
  140.2038  144.4631  150.6418 LP  0  0  0  0  0  0  0  0  0  0  0  0  # atno 17343 bound_to 10162
  157.6733  130.9071  150.0090 LP  0  0  0  0  0  0  0  0  0  0  0  0  # atno 17370 bound_to 10713
  156.1336  130.3643  149.9692 LP  0  0  0  0  0  0  0  0  0  0  0  0  # atno 17371 bound_to 10713
  139.8889  135.0101  156.6649 LP  0  0  0  0  0  0  0  0  0  0  0  0  # atno 17394 bound_to 11000
  140.7421  133.8969  155.8285 LP  0  0  0  0  0  0  0  0  0  0  0  0  # atno 17395 bound_to 11000

$$$$
