AV-unprocessed.smi:35|AV-procd|sdf|261|dock4
  -GOLD-   2262016 23D 1   1.00000     0.00000
 Structure written by MMmdl.
 29 30  0  0  0  0  0  0  0  0  1 V2000
  151.3679  136.9323  159.6825 O   0  0  0  0  0  0  0  0  0  0  0  0
  150.9663  137.8853  159.0183 C   0  0  0  0  0  0  0  0  0  0  0  0
  151.7865  138.9986  158.8138 N   0  0  0  0  0  0  0  0  0  0  0  0
  151.4439  140.1355  158.0787 C   0  0  0  0  0  0  0  0  0  0  0  0
  152.2556  141.0509  157.9502 O   0  0  0  0  0  0  0  0  0  0  0  0
  150.1551  140.1643  157.4994 N   0  0  0  0  0  0  0  0  0  0  0  0
  149.7295  141.3650  156.6808 C   0  0  2  0  0  0  0  0  0  0  0  0
  148.3506  141.2956  156.4763 O   0  0  0  0  0  0  0  0  0  0  0  0
  148.0460  141.6836  155.1408 C   0  0  2  0  0  0  0  0  0  0  0  0
  146.6731  141.1439  154.7025 C   0  0  0  0  0  0  0  0  0  0  0  0
  146.4929  141.3421  153.3165 O   0  0  0  0  0  0  0  0  0  0  0  0
  149.2475  141.1649  154.3386 C   0  0  2  0  0  0  0  0  0  0  0  0
  149.0930  139.7911  154.0205 O   0  0  0  0  0  0  0  0  0  0  0  0
  150.4088  141.4187  155.2948 C   0  0  2  0  0  0  0  0  0  0  0  0
  151.4950  140.5277  155.1030 O   0  0  0  0  0  0  0  0  0  0  0  0
  149.3073  139.0781  157.6704 C   0  0  0  0  0  0  0  0  0  0  0  0
  149.6564  137.9821  158.3837 C   0  0  0  0  0  0  0  0  0  0  0  0
  148.3049  136.5391  158.5061 Br  0  0  0  0  0  0  0  0  0  0  0  0
  152.7063  138.9767  159.2295 H   0  0  0  0  0  0  0  0  0  0  0  0
  149.9325  142.2519  157.2836 H   0  0  0  0  0  0  0  0  0  0  0  0
  148.0540  142.7745  155.0908 H   0  0  0  0  0  0  0  0  0  0  0  0
  146.6148  140.0710  154.8877 H   0  0  0  0  0  0  0  0  0  0  0  0
  145.8635  141.6151  155.2607 H   0  0  0  0  0  0  0  0  0  0  0  0
  145.5682  141.4336  153.1440 H   0  0  0  0  0  0  0  0  0  0  0  0
  149.3722  141.7139  153.4047 H   0  0  0  0  0  0  0  0  0  0  0  0
  149.2286  139.6835  153.0913 H   0  0  0  0  0  0  0  0  0  0  0  0
  150.7694  142.4381  155.1522 H   0  0  0  0  0  0  0  0  0  0  0  0
  151.8905  140.3599  155.9450 H   0  0  0  0  0  0  0  0  0  0  0  0
  148.3270  139.0955  157.2177 H   0  0  0  0  0  0  0  0  0  0  0  0
  1  2  2  0  0  0  0
  2 17  1  0  0  0  0
  2  3  1  0  0  0  0
  3 19  1  0  0  0  0
  3  4  1  0  0  0  0
  4  5  2  0  0  0  0
  4  6  1  0  0  0  0
  6  7  1  0  0  0  0
  6 16  1  0  0  0  0
  7 14  1  0  0  0  0
  7  8  1  0  0  0  0
  7 20  1  0  0  0  0
  8  9  1  0  0  0  0
  9 10  1  0  0  0  0
  9 12  1  0  0  0  0
  9 21  1  0  0  0  0
 10 11  1  0  0  0  0
 10 22  1  0  0  0  0
 10 23  1  0  0  0  0
 11 24  1  0  0  0  0
 12 13  1  0  0  0  0
 12 14  1  0  0  0  0
 12 25  1  0  0  0  0
 13 26  1  0  0  0  0
 14 15  1  0  0  0  0
 14 27  1  0  0  0  0
 15 28  1  0  0  0  0
 16 17  2  0  0  0  0
 16 29  1  0  0  0  0
 17 18  1  0  0  0  0
M  END
> <s_m_source_file>
AV-unprocessed.smi

> <i_m_source_file_index>
35

> <i_lp_mmshare_version>
43012

> <i_f3d_flags>
0

> <s_epik_input>
Tz1jMVtuSF1jKD1PKW4oW2NIXWMxQnIpW0NAQEhdMk9bQ0BASF0oW0NIMl1bT0hdKVtDQEBIXShbT0hdKVtDQEhdMltPSF0=

> <s_epik_cmdline>
J2VwaWtfcHl0aG9uJywgJy1waCcsICc3LjAnLCAnLXRuJywgJzgnLCAnLW1hJywgJzIwMCcsICctbWV0YWxfYmluZGluZycsICctaW1hZScsICc8aW5maWxlLm1hZT4nLCAnLW9tYWUnLCAnPG91dGZpbGUubWFlPic=

> <r_lp_tautomer_probability>
0.999537

> <r_epik_Ionization_Penalty>
0.10812

> <r_epik_Ionization_Penalty_Charging>
0.108119

> <r_epik_Ionization_Penalty_Neutral>
4.93006e-07

> <r_epik_State_Penalty>
0.0979238

> <r_epik_Charging_Adjusted_Penalty>
0.206043

> <i_epik_Tot_Q>
0

> <i_epik_Tot_abs_Q>
0

> <r_epik_Metal_State_Penalty>
3.07911

> <b_epik_Metal_Only>
0

> <s_epik_Chemistry_Notes>
This compound contains an acetal/aminal-like group ( X-CH(R)-Y where X, Y are N, S, or O) that may be acid/base labile, releasing an aldehyde.

> <s_lp_Force_Field>
OPLS_2005

> <r_lp_Energy>
38.5572

> <b_lp_Chiralities_Consistent>
1

> <s_lp_Variant>
AV-unprocessed.smi:35-15

> <Gold.Version>
5.8.1

> <Gold.Id.Protein>
6NUR|6NUR_protein|mol2

> <Gold.PLP.Fitness>
32.7716

> <Gold.PLP.PLP>
-22.0071

> <Gold.PLP.part.hbond>
-4.0000

> <Gold.PLP.part.metal>
0.0000

> <Gold.PLP.part.buried>
-3.8911

> <Gold.PLP.part.nonpolar>
-14.4766

> <Gold.PLP.part.repulsive>
0.1519

> <Gold.PLP.ligand.clash>
0.0000

> <Gold.PLP.ligand.torsion>
0.3755

> <Gold.PLP.Chemscore.Hbond>
3.8320

> <Gold.PLP.Chemscore.CHOScore>
0.0000

> <Gold.PLP.Chemscore.Metal>
0.0000

> <Gold.Chemscore.Hbonds>
donor molecule, donor type, donor heavy atom, donor atom, acceptor molecule, acceptor atom, score
      L1  H    11    24       P1 10175  0.40
      L1  H    13    26       P1  7957  1.00
      P1  H  6896  6907       L1     1  1.00
      P1  H  7989  7998       L1    15  0.60

> <Gold.PLP.Chemscore.Internal.Correction>
0.0196

> <Gold.Rescore>
     Score         DG    S(hbond)    S(metal)    S(lipo)     H(rot)  DE(clash)    DE(int)     intcor
     10.86     -11.63       3.64        0.00      28.87       3.67       0.11       0.65       ----

> <Gold.Chemscore.Fitness>
10.8637

> <Gold.Chemscore.DG>
-11.6280

> <Gold.Chemscore.ZeroCoef>
-5.4800

> <Gold.Chemscore.Hbond>
3.6423

> <Gold.Chemscore.Metal>
0.0000

> <Gold.Chemscore.Lipo>
28.8745

> <Gold.Chemscore.Internal_Hbond>
0.0000

> <Gold.Chemscore.DEClash>
0.1132

> <Gold.Chemscore.DEInternal>
0.6512

> <Gold.Chemscore.Rot>
3.6701

> <Gold.Chemscore.Internal.Correction>
   9.000000E+99

> <Gold.Chemscore.Hbonds>
donor molecule, donor type, donor heavy atom, donor atom, acceptor molecule, acceptor atom, score
      L1  H    11    24       P1 10175  0.04
      L1  H    13    26       P1  7957  0.96
      P1  H  6896  6907       L1     1  1.00
      P1  H  7989  7998       L1    15  0.06

> <Gold.Chemscore.Hbond.Weighted>
-12.1652

> <Gold.Chemscore.Metal.Weighted>
-0.0000

> <Gold.Chemscore.Lipo.Weighted>
-3.3783

> <Gold.Chemscore.Internal_Hbond.Weighted>
0.0000

> <Gold.Chemscore.DEClash.Weighted>
0.1132

> <Gold.Chemscore.DEInternal.Weighted>
0.6512

> <Gold.Chemscore.Rot.Weighted>
9.3955

> <Gold.Chemscore.Internal.Correction.Weighted>
   9.000000E+99

> <Gold.Protein.RotatedTorsions>
[ 6907 6896 6895 6894 ] final    0.58 input  -60.11 | X-H torsion
[ 7974 7965 7964 7962 ] final   -6.85 input  175.53 | X-H torsion
[ 8008 7997 7996 7995 ] final  -84.52 input   59.86 | X-H torsion
[ 10167 10162 10161 10158 ] final   36.04 input  -65.29 | X-H torsion
[ 10718 10713 10712 10709 ] final  153.60 input   66.30 | X-H torsion
[ 10763 10752 10751 10750 ] final  -18.63 input  -60.55 | X-H torsion
[ 11005 11000 10999 10996 ] final  -95.95 input  -57.11 | X-H torsion

> <Gold.Protein.ActiveResidues>
 VAL166  LYS551  ARG553  GLY616  TRP617  ASP618  TYR619  PRO620  LYS621  CYS622 
 ASP623  PHE694  ASN695  SER759  ASP760  ASP761  ALA762  ILE779  LEU786  VAL792 
 PHE793  MET794  SER795  GLU796  ALA797  LYS798  CYS799  TRP800  GLU811  SER814 

> <Gold.Protein.RotatedAtoms>
  151.5787  135.1059  160.0012 H   0  0  0  0  0  0  0  0  0  0  0  0  # atno 6907 bound_to 6896
  152.4365  133.7365  159.6627 H   0  0  0  0  0  0  0  0  0  0  0  0  # atno 6908 bound_to 6896
  150.8263  133.8096  159.3140 H   0  0  0  0  0  0  0  0  0  0  0  0  # atno 6909 bound_to 6896
  146.2321  140.2232  142.8338 H   0  0  0  0  0  0  0  0  0  0  0  0  # atno 7974 bound_to 7965
  154.6307  140.0604  156.9729 H   0  0  0  0  0  0  0  0  0  0  0  0  # atno 8008 bound_to 7997
  155.1670  140.3287  155.4382 H   0  0  0  0  0  0  0  0  0  0  0  0  # atno 8009 bound_to 7997
  156.2481  140.1921  156.6774 H   0  0  0  0  0  0  0  0  0  0  0  0  # atno 8010 bound_to 7997
  140.4165  144.1519  150.6144 H   0  0  0  0  0  0  0  0  0  0  0  0  # atno 10167 bound_to 10162
  157.2426  131.0762  151.1783 H   0  0  0  0  0  0  0  0  0  0  0  0  # atno 10718 bound_to 10713
  153.5922  135.7002  153.5418 H   0  0  0  0  0  0  0  0  0  0  0  0  # atno 10763 bound_to 10752
  153.3168  135.4085  155.1383 H   0  0  0  0  0  0  0  0  0  0  0  0  # atno 10764 bound_to 10752
  154.8598  135.3686  154.5454 H   0  0  0  0  0  0  0  0  0  0  0  0  # atno 10765 bound_to 10752
  141.1426  133.8062  157.0505 H   0  0  0  0  0  0  0  0  0  0  0  0  # atno 11005 bound_to 11000
  144.9615  140.8280  143.5510 LP  0  0  0  0  0  0  0  0  0  0  0  0  # atno 17320 bound_to 7965
  145.2204  139.2162  143.5096 LP  0  0  0  0  0  0  0  0  0  0  0  0  # atno 17321 bound_to 7965
  140.4580  143.2460  151.9258 LP  0  0  0  0  0  0  0  0  0  0  0  0  # atno 17342 bound_to 10162
  139.4782  144.5496  151.8406 LP  0  0  0  0  0  0  0  0  0  0  0  0  # atno 17343 bound_to 10162
  157.3363  130.7010  149.6354 LP  0  0  0  0  0  0  0  0  0  0  0  0  # atno 17370 bound_to 10713
  155.9669  130.4293  150.4825 LP  0  0  0  0  0  0  0  0  0  0  0  0  # atno 17371 bound_to 10713
  140.0635  134.9742  157.1346 LP  0  0  0  0  0  0  0  0  0  0  0  0  # atno 17394 bound_to 11000
  140.3814  134.2283  155.7171 LP  0  0  0  0  0  0  0  0  0  0  0  0  # atno 17395 bound_to 11000

$$$$
