AV-unprocessed.smi:1893|AV-procd|sdf|7672|dock4
  -GOLD-   22720 9413D 1   1.00000     0.00000
 Structure written by MMmdl.
 43 44  0  0  0  0  0  0  0  0  2 V2000
  144.7888  134.3130  150.7054 C   0  0  0  0  0  0  0  0  0  0  0  0
  144.2980  133.3245  151.7855 C   0  0  1  0  0  0  0  0  0  0  0  0
  145.4272  132.4056  152.2979 C   0  0  0  0  0  0  0  0  0  0  0  0
  146.4155  133.1542  153.2044 C   0  0  0  0  0  0  0  0  0  0  0  0
  145.6609  133.8464  154.3461 C   0  0  0  0  0  0  0  0  0  0  0  0
  144.5452  134.7547  153.8046 C   0  0  0  0  0  0  0  0  0  0  0  0
  143.6110  133.9911  152.9322 N   0  3  1  0  0  0  0  0  0  0  0  0
  142.4018  134.7601  152.5417 C   0  0  0  0  0  0  0  0  0  0  0  0
  141.5661  135.1846  153.7647 C   0  0  0  0  0  0  0  0  0  0  0  0
  140.6294  136.2514  153.4337 N   0  0  0  0  0  0  0  0  0  0  0  0
  139.9296  136.9645  154.3308 C   0  0  0  0  0  0  0  0  0  0  0  0
  140.0386  136.8017  155.5468 O   0  0  0  0  0  0  0  0  0  0  0  0
  138.9594  138.0115  153.7628 C   0  0  2  0  0  0  0  0  0  0  0  0
  139.1031  138.1842  152.2370 C   0  0  0  0  0  0  0  0  0  0  0  0
  139.1082  139.2717  154.4812 N   0  0  0  0  0  0  0  0  0  0  0  0
  139.3540  140.4991  154.0172 C   0  0  0  0  0  0  0  0  0  0  0  0
  139.3738  141.4363  154.9543 N   0  0  0  0  0  0  0  0  0  0  0  0
  139.1030  140.6678  156.0507 C   0  0  0  0  0  0  0  0  0  0  0  0
  138.9217  139.3674  155.8214 N   0  0  0  0  0  0  0  0  0  0  0  0
  145.2585  133.7774  149.8801 H   0  0  0  0  0  0  0  0  0  0  0  0
  145.5234  135.0195  151.0900 H   0  0  0  0  0  0  0  0  0  0  0  0
  143.9671  134.8894  150.2808 H   0  0  0  0  0  0  0  0  0  0  0  0
  143.5619  132.6756  151.3086 H   0  0  0  0  0  0  0  0  0  0  0  0
  144.9888  131.5794  152.8596 H   0  0  0  0  0  0  0  0  0  0  0  0
  145.9577  131.9525  151.4597 H   0  0  0  0  0  0  0  0  0  0  0  0
  147.1524  132.4597  153.6090 H   0  0  0  0  0  0  0  0  0  0  0  0
  146.9724  133.8920  152.6262 H   0  0  0  0  0  0  0  0  0  0  0  0
  145.2292  133.0936  155.0072 H   0  0  0  0  0  0  0  0  0  0  0  0
  146.3551  134.4289  154.9528 H   0  0  0  0  0  0  0  0  0  0  0  0
  144.0065  135.1840  154.6484 H   0  0  0  0  0  0  0  0  0  0  0  0
  144.9714  135.5948  153.2557 H   0  0  0  0  0  0  0  0  0  0  0  0
  142.6960  135.6255  151.9457 H   0  0  0  0  0  0  0  0  0  0  0  0
  141.7697  134.1433  151.9010 H   0  0  0  0  0  0  0  0  0  0  0  0
  140.9923  134.3343  154.1344 H   0  0  0  0  0  0  0  0  0  0  0  0
  142.2000  135.5112  154.5895 H   0  0  0  0  0  0  0  0  0  0  0  0
  140.4826  136.4455  152.4535 H   0  0  0  0  0  0  0  0  0  0  0  0
  137.9448  137.6558  153.9503 H   0  0  0  0  0  0  0  0  0  0  0  0
  138.9436  137.2385  151.7182 H   0  0  0  0  0  0  0  0  0  0  0  0
  140.0906  138.5518  151.9545 H   0  0  0  0  0  0  0  0  0  0  0  0
  138.3670  138.8928  151.8565 H   0  0  0  0  0  0  0  0  0  0  0  0
  139.5162  140.7129  152.9709 H   0  0  0  0  0  0  0  0  0  0  0  0
  139.0286  141.0803  157.0460 H   0  0  0  0  0  0  0  0  0  0  0  0
  143.2677  133.2307  153.5014 H   0  0  0  0  0  0  0  0  0  0  0  0
  1  2  1  0  0  0  0
  1 20  1  0  0  0  0
  1 21  1  0  0  0  0
  1 22  1  0  0  0  0
  2  7  1  0  0  0  0
  2  3  1  0  0  0  0
  2 23  1  0  0  0  0
  3  4  1  0  0  0  0
  3 24  1  0  0  0  0
  3 25  1  0  0  0  0
  4  5  1  0  0  0  0
  4 26  1  0  0  0  0
  4 27  1  0  0  0  0
  5  6  1  0  0  0  0
  5 28  1  0  0  0  0
  5 29  1  0  0  0  0
  6  7  1  0  0  0  0
  6 30  1  0  0  0  0
  6 31  1  0  0  0  0
  7  8  1  0  0  0  0
  7 43  1  0  0  0  0
  8  9  1  0  0  0  0
  8 32  1  0  0  0  0
  8 33  1  0  0  0  0
  9 10  1  0  0  0  0
  9 34  1  0  0  0  0
  9 35  1  0  0  0  0
 10 11  1  0  0  0  0
 10 36  1  0  0  0  0
 11 12  2  0  0  0  0
 11 13  1  0  0  0  0
 13 14  1  0  0  0  0
 13 15  1  0  0  0  0
 13 37  1  0  0  0  0
 14 38  1  0  0  0  0
 14 39  1  0  0  0  0
 14 40  1  0  0  0  0
 15 19  1  0  0  0  0
 15 16  1  0  0  0  0
 16 17  2  0  0  0  0
 16 41  1  0  0  0  0
 17 18  1  0  0  0  0
 18 19  2  0  0  0  0
 18 42  1  0  0  0  0
M  CHG  1   7   1
M  END
> <s_m_source_file>
AV-unprocessed.smi

> <i_m_source_file_index>
1893

> <i_lp_mmshare_version>
43012

> <i_f3d_flags>
0

> <s_epik_input>
W0NIM11bQ0BASF0xW0NIMl1bQ0gyXVtDSDJdW0NIMl1OMVtDSDJdW0NIMl1bTkhdQyg9TylbQ0BIXShbQ0gzXSluMltjSF1uW2NIXW4y

> <s_epik_cmdline>
J2VwaWtfcHl0aG9uJywgJy1waCcsICc3LjAnLCAnLXRuJywgJzgnLCAnLW1hJywgJzIwMCcsICctbWV0YWxfYmluZGluZycsICctaW1hZScsICc8aW5maWxlLm1hZT4nLCAnLW9tYWUnLCAnPG91dGZpbGUubWFlPic=

> <r_lp_tautomer_probability>
1

> <r_epik_Ionization_Penalty>
0.00266409

> <r_epik_Ionization_Penalty_Charging>
0.00265606

> <r_epik_Ionization_Penalty_Neutral>
8.02794e-06

> <r_epik_State_Penalty>
0.00184955

> <r_epik_Charging_Adjusted_Penalty>
0.00450561

> <i_epik_Tot_Q>
1

> <i_epik_Tot_abs_Q>
1

> <r_epik_Metal_State_Penalty>
-0

> <b_epik_Metal_Only>
0

> <s_lp_Force_Field>
OPLS_2005

> <r_lp_Energy>
25.286

> <b_lp_Chiralities_Consistent>
1

> <s_lp_Variant>
AV-unprocessed.smi:1893-2

> <Gold.Version>
5.8.1

> <Gold.Id.Protein>
6NUR|6NUR_protein|mol2

> <Gold.PLP.Fitness>
34.4408

> <Gold.PLP.PLP>
-23.5497

> <Gold.PLP.part.hbond>
-2.3515

> <Gold.PLP.part.metal>
0.0000

> <Gold.PLP.part.buried>
-3.7859

> <Gold.PLP.part.nonpolar>
-17.5501

> <Gold.PLP.part.repulsive>
0.1460

> <Gold.PLP.ligand.clash>
0.4310

> <Gold.PLP.ligand.torsion>
0.4078

> <Gold.PLP.Chemscore.Hbond>
2.9920

> <Gold.PLP.Chemscore.CHOScore>
1.0000

> <Gold.PLP.Chemscore.Metal>
0.0000

> <Gold.Chemscore.Hbonds>
donor molecule, donor type, donor heavy atom, donor atom, acceptor molecule, acceptor atom, score
      L1  H     7    43       P1 10957  1.98
      P1  H 11000 11005       L1    12  0.98
      L1  C    16    41       P1 10160  1.00

> <Gold.PLP.Chemscore.Internal.Correction>
0.1616

> <Gold.Rescore>
     Score         DG    S(hbond)    S(metal)    S(lipo)     H(rot)  DE(clash)    DE(int)     intcor
     10.47     -12.35       1.96        0.00      58.23       2.54       0.25       1.63       ----

> <Gold.Chemscore.Fitness>
10.4713

> <Gold.Chemscore.DG>
-12.3479

> <Gold.Chemscore.ZeroCoef>
-5.4800

> <Gold.Chemscore.Hbond>
1.9615

> <Gold.Chemscore.Metal>
0.0000

> <Gold.Chemscore.Lipo>
58.2312

> <Gold.Chemscore.Internal_Hbond>
0.0000

> <Gold.Chemscore.DEClash>
0.2474

> <Gold.Chemscore.DEInternal>
1.6292

> <Gold.Chemscore.Rot>
2.5377

> <Gold.Chemscore.Internal.Correction>
   9.000000E+99

> <Gold.Chemscore.Hbonds>
donor molecule, donor type, donor heavy atom, donor atom, acceptor molecule, acceptor atom, score
      L1  H     7    43       P1 10957  0.89
      P1  H 11000 11005       L1    12  0.85

> <Gold.Chemscore.Hbond.Weighted>
-6.5515

> <Gold.Chemscore.Metal.Weighted>
-0.0000

> <Gold.Chemscore.Lipo.Weighted>
-6.8131

> <Gold.Chemscore.Internal_Hbond.Weighted>
0.0000

> <Gold.Chemscore.DEClash.Weighted>
0.2474

> <Gold.Chemscore.DEInternal.Weighted>
1.6292

> <Gold.Chemscore.Rot.Weighted>
6.4966

> <Gold.Chemscore.Internal.Correction.Weighted>
   9.000000E+99

> <Gold.Protein.RotatedTorsions>
[ 6907 6896 6895 6894 ] final  170.65 input  -60.11 | X-H torsion
[ 7974 7965 7964 7962 ] final  116.63 input  175.53 | X-H torsion
[ 8008 7997 7996 7995 ] final  130.82 input   59.86 | X-H torsion
[ 10167 10162 10161 10158 ] final  126.98 input  -65.29 | X-H torsion
[ 10718 10713 10712 10709 ] final  -30.16 input   66.30 | X-H torsion
[ 10763 10752 10751 10750 ] final  -65.60 input  -60.55 | X-H torsion
[ 11005 11000 10999 10996 ] final   94.86 input  -57.11 | X-H torsion

> <Gold.Protein.ActiveResidues>
 VAL166  LYS551  ARG553  GLY616  TRP617  ASP618  TYR619  PRO620  LYS621  CYS622 
 ASP623  PHE694  ASN695  SER759  ASP760  ASP761  ALA762  ILE779  LEU786  VAL792 
 PHE793  MET794  SER795  GLU796  ALA797  LYS798  CYS799  TRP800  GLU811  SER814 

> <Gold.Protein.RotatedAtoms>
  151.8127  133.3384  159.3560 H   0  0  0  0  0  0  0  0  0  0  0  0  # atno 6907 bound_to 6896
  150.7320  134.5648  159.5870 H   0  0  0  0  0  0  0  0  0  0  0  0  # atno 6908 bound_to 6896
  152.3063  134.7552  160.0398 H   0  0  0  0  0  0  0  0  0  0  0  0  # atno 6909 bound_to 6896
  145.1773  139.3069  143.4436 H   0  0  0  0  0  0  0  0  0  0  0  0  # atno 7974 bound_to 7965
  156.2960  140.2586  156.2825 H   0  0  0  0  0  0  0  0  0  0  0  0  # atno 8008 bound_to 7997
  154.9588  140.0393  157.2199 H   0  0  0  0  0  0  0  0  0  0  0  0  # atno 8009 bound_to 7997
  154.7966  140.2821  155.5957 H   0  0  0  0  0  0  0  0  0  0  0  0  # atno 8010 bound_to 7997
  139.5602  144.6876  151.4065 H   0  0  0  0  0  0  0  0  0  0  0  0  # atno 10167 bound_to 10162
  156.4033  130.4394  149.7306 H   0  0  0  0  0  0  0  0  0  0  0  0  # atno 10718 bound_to 10713
  154.3475  135.6143  153.5626 H   0  0  0  0  0  0  0  0  0  0  0  0  # atno 10763 bound_to 10752
  152.9800  135.5784  154.4782 H   0  0  0  0  0  0  0  0  0  0  0  0  # atno 10764 bound_to 10752
  154.4497  135.2852  155.1767 H   0  0  0  0  0  0  0  0  0  0  0  0  # atno 10765 bound_to 10752
  139.8794  134.8868  156.3926 H   0  0  0  0  0  0  0  0  0  0  0  0  # atno 11005 bound_to 11000
  146.3459  140.1940  142.8589 LP  0  0  0  0  0  0  0  0  0  0  0  0  # atno 17320 bound_to 7965
  145.0172  140.8763  143.5188 LP  0  0  0  0  0  0  0  0  0  0  0  0  # atno 17321 bound_to 7965
  140.6881  143.7927  150.7215 LP  0  0  0  0  0  0  0  0  0  0  0  0  # atno 17342 bound_to 10162
  140.1401  143.4449  152.2199 LP  0  0  0  0  0  0  0  0  0  0  0  0  # atno 17343 bound_to 10162
  156.4314  130.7817  151.2836 LP  0  0  0  0  0  0  0  0  0  0  0  0  # atno 17370 bound_to 10713
  157.7504  131.0153  150.3498 LP  0  0  0  0  0  0  0  0  0  0  0  0  # atno 17371 bound_to 10713
  140.9322  133.7571  156.0040 LP  0  0  0  0  0  0  0  0  0  0  0  0  # atno 17394 bound_to 11000
  140.8317  134.3171  157.5346 LP  0  0  0  0  0  0  0  0  0  0  0  0  # atno 17395 bound_to 11000

$$$$
