#       Name:                AV-unprocessed.smi:1421
#       Creating user name   scv26
#       Creation time:       Fri Mar 27 05:43:46 2020


#       File generated by GOLD software.
#

@<TRIPOS>MOLECULE
AV-unprocessed.smi:1421
    52    53     1
SMALL
NO_CHARGES


@<TRIPOS>ATOM
      1 ****        -4.9096   4.1468   1.6220 C.3            1 S1                 0.0000
      2 ****        -4.6555   2.3414   1.8525 S.o2           1 S1                 0.0000
      3 ****        -3.6302   2.1456   2.8886 O.2            1 S1                 0.0000
      4 ****        -5.9657   1.6854   1.9776 O.2            1 S1                 0.0000
      5 ****        -3.9828   1.8667   0.3347 N.3            1 S1                 0.0000
      6 ****        -3.2802   0.5856   0.2412 C.3            1 S1                 0.0000
      7 ****        -1.7794   0.7541   0.5440 C.3            1 S1                 0.0000
      8 ****        -1.0056  -0.5653   0.4681 C.2            1 S1                 0.0000
      9 ****        -1.3238  -1.4278  -0.3507 O.2            1 S1                 0.0000
     10 ****         0.0210  -0.6998   1.3223 N.am           1 S1                 0.0000
     11 ****         0.9315  -1.8393   1.3906 C.3            1 S1                 0.0000
     12 ****         2.3837  -1.4375   1.1653 C.ar           1 S1                 0.0000
     13 ****         3.2956  -1.5013   2.2408 C.ar           1 S1                 0.0000
     14 ****         4.6329  -1.1173   2.0333 C.ar           1 S1                 0.0000
     15 ****         5.0094  -0.6811   0.7502 C.ar           1 S1                 0.0000
     16 ****         4.1515  -0.6156  -0.2887 N.ar           1 S1                 0.0000
     17 ****         2.8618  -0.9843  -0.0929 C.ar           1 S1                 0.0000
     18 ****         1.9995  -0.9273  -1.2005 N.3            1 S1                 0.0000
     19 ****         2.0458   0.3041  -1.9798 C.3            1 S1                 0.0000
     20 ****         0.9298   0.2919  -3.0378 C.3            1 S1                 0.0000
     21 ****         1.0642  -0.8675  -3.8549 O.3            1 S1                 0.0000
     22 ****         0.9493  -2.0719  -3.1015 C.3            1 S1                 0.0000
     23 ****         2.0511  -2.1246  -2.0282 C.3            1 S1                 0.0000
     24 ****        -5.3406   4.5704   2.5289 H              1 S1                 0.0000
     25 ****        -5.5875   4.3172   0.7862 H              1 S1                 0.0000
     26 ****        -3.9529   4.6270   1.4180 H              1 S1                 0.0000
     27 ****        -4.6749   1.9534  -0.4093 H              1 S1                 0.0000
     28 ****        -3.7421  -0.1317   0.9213 H              1 S1                 0.0000
     29 ****        -3.4170   0.1987  -0.7691 H              1 S1                 0.0000
     30 ****        -1.3334   1.4495  -0.1678 H              1 S1                 0.0000
     31 ****        -1.6408   1.1905   1.5332 H              1 S1                 0.0000
     32 ****         0.2030   0.0610   1.9606 H              1 S1                 0.0000
     33 ****         0.8242  -2.2932   2.3761 H              1 S1                 0.0000
     34 ****         0.6661  -2.6185   0.6749 H              1 S1                 0.0000
     35 ****         2.9766  -1.8371   3.2166 H              1 S1                 0.0000
     36 ****         5.3516  -1.1546   2.8385 H              1 S1                 0.0000
     37 ****         6.0267  -0.3772   0.5520 H              1 S1                 0.0000
     38 ****         1.9274   1.1631  -1.3186 H              1 S1                 0.0000
     39 ****         3.0162   0.3995  -2.4692 H              1 S1                 0.0000
     40 ****        -0.0547   0.3079  -2.5669 H              1 S1                 0.0000
     41 ****         0.9976   1.1797  -3.6665 H              1 S1                 0.0000
     42 ****        -0.0406  -2.1335  -2.6477 H              1 S1                 0.0000
     43 ****         1.0417  -2.9231  -3.7760 H              1 S1                 0.0000
     44 ****         3.0312  -2.1937  -2.5020 H              1 S1                 0.0000
     45 ****         1.9285  -3.0146  -1.4100 H              1 S1                 0.0000
     46 ****        -3.2349   2.5215   0.2259 LP             1 S1                 0.0000
     47 ****        -2.0916  -1.2690  -0.9713 LP             1 S1                 0.0000
     48 ****        -0.8144  -2.2872  -0.3951 LP             1 S1                 0.0000
     49 ****         4.4610  -0.3011  -1.1861 LP             1 S1                 0.0000
     50 ****         1.0918  -0.9033  -0.7815 LP             1 S1                 0.0000
     51 ****         1.9610  -0.8482  -4.2968 LP             1 S1                 0.0000
     52 ****         0.3483  -0.8546  -4.5530 LP             1 S1                 0.0000
@<TRIPOS>BOND
    1    1    2 1     
    2    1   24 1     
    3    1   25 1     
    4    1   26 1     
    5    2    3 2     
    6    2    4 2     
    7    2    5 1     
    8    5    6 1     
    9    5   27 1     
   10    6    7 1     
   11    6   28 1     
   12    6   29 1     
   13    7    8 1     
   14    7   30 1     
   15    7   31 1     
   16    8    9 2     
   17    8   10 am    
   18   10   11 1     
   19   10   32 1     
   20   11   12 1     
   21   11   33 1     
   22   11   34 1     
   23   12   17 ar    
   24   12   13 ar    
   25   13   14 ar    
   26   13   35 1     
   27   14   15 ar    
   28   14   36 1     
   29   15   16 ar    
   30   15   37 1     
   31   16   17 ar    
   32   17   18 1     
   33   18   23 1     
   34   18   19 1     
   35   19   20 1     
   36   19   38 1     
   37   19   39 1     
   38   20   21 1     
   39   20   40 1     
   40   20   41 1     
   41   21   22 1     
   42   22   23 1     
   43   22   42 1     
   44   22   43 1     
   45   23   44 1     
   46   23   45 1     
   47    5   46 1     
   48    9   47 1     
   49    9   48 1     
   50   16   49 1     
   51   18   50 1     
   52   21   51 1     
   53   21   52 1     
@<TRIPOS>SUBSTRUCTURE
      1 S1             1
@<TRIPOS>SET
LONE_PAIRS      STATIC     ATOMS    <user>   **** ""
9 3 4 46 47 48 49 50 51 52
DONOR_HYDROGENS      STATIC     ATOMS    <user>   **** ""
2 27 32
ATOM$BLUE        STATIC     ATOMS    COLORGROUP SYSTEM
9 3 4 46 47 48 49 50 51 52
ATOM$RED        STATIC     ATOMS    COLORGROUP SYSTEM
2 27 32
