#       Name:                AV-unprocessed.smi:3
#       Creating user name   scv26
#       Creation time:       Thu Mar 26 15:14:30 2020


#       File generated by GOLD software.
#

@<TRIPOS>MOLECULE
AV-unprocessed.smi:3
    37    39     1
SMALL
NO_CHARGES


@<TRIPOS>ATOM
      1 ****        -0.4499   2.2521   0.0364 C.3            1 S1                 0.0000
      2 ****        -0.3221   1.2617  -1.0227 N.pl3          1 S1                 0.0000
      3 ****         0.8968   1.2379  -1.8272 C.3            1 S1                 0.0000
      4 ****         2.0450   0.5319  -1.1089 C.3            1 S1                 0.0000
      5 ****         2.0366  -0.9980  -0.9673 C.3            1 S1                 0.0000
      6 ****         3.5455  -1.0120  -1.2277 C.3            1 S1                 0.0000
      7 ****         4.3887  -1.1516  -0.1048 O.3            1 S1                 0.0000
      8 ****         3.3999   0.3946  -1.8168 C.3            1 S1                 0.0000
      9 ****        -1.1257   0.1022  -1.0132 C.2            1 S1                 0.0000
     10 ****        -0.9401  -0.7847  -2.0233 N.2            1 S1                 0.0000
     11 ****        -1.7025  -1.9068  -2.0305 C.2            1 S1                 0.0000
     12 ****        -2.6489  -2.2764  -1.1340 N.pl3          1 S1                 0.0000
     13 ****        -2.8460  -1.4052  -0.1010 C.2            1 S1                 0.0000
     14 ****        -3.6904  -1.5318   0.9174 N.2            1 S1                 0.0000
     15 ****        -3.5134  -0.4474   1.6896 C.2            1 S1                 0.0000
     16 ****        -2.5062   0.4588   1.1817 C.2            1 S1                 0.0000
     17 ****        -2.0967  -0.2051  -0.0171 C.2            1 S1                 0.0000
     18 ****         2.2235   0.9725  -0.1262 H              1 S1                 0.0000
     19 ****         3.8298  -1.7459  -1.9823 H              1 S1                 0.0000
     20 ****        -1.4704   2.2974   0.4175 H              1 S1                 0.0000
     21 ****        -0.1981   3.2418  -0.3457 H              1 S1                 0.0000
     22 ****         0.2291   2.0293   0.8592 H              1 S1                 0.0000
     23 ****         0.7114   0.7782  -2.7982 H              1 S1                 0.0000
     24 ****         1.1785   2.2684  -2.0446 H              1 S1                 0.0000
     25 ****         1.7353  -1.3505   0.0197 H              1 S1                 0.0000
     26 ****         1.4717  -1.4968  -1.7565 H              1 S1                 0.0000
     27 ****         4.3568  -2.0599   0.1540 H              1 S1                 0.0000
     28 ****         3.3137   0.3841  -2.9044 H              1 S1                 0.0000
     29 ****         4.1517   1.1111  -1.4844 H              1 S1                 0.0000
     30 ****        -1.5325  -2.5894  -2.8498 H              1 S1                 0.0000
     31 ****        -4.0845  -0.3076   2.5991 H              1 S1                 0.0000
     32 ****        -2.1642   1.3895   1.6142 H              1 S1                 0.0000
     33 ****        -3.1407  -3.1493  -1.2612 H              1 S1                 0.0000
     34 ****         4.0653  -0.5703   0.6418 LP             1 S1                 0.0000
     35 ****         5.3252  -0.8957  -0.3448 LP             1 S1                 0.0000
     36 ****        -0.2628  -0.6165  -2.7396 LP             1 S1                 0.0000
     37 ****        -4.3297  -2.2840   1.0768 LP             1 S1                 0.0000
@<TRIPOS>BOND
    1    1    2 1     
    2    1   20 1     
    3    1   21 1     
    4    1   22 1     
    5    2    3 1     
    6    2    9 1     
    7    3    4 1     
    8    3   23 1     
    9    3   24 1     
   10    4   18 1     
   11    4    8 1     
   12    4    5 1     
   13    5    6 1     
   14    5   25 1     
   15    5   26 1     
   16    6   19 1     
   17    6    7 1     
   18    6    8 1     
   19    7   27 1     
   20    8   28 1     
   21    8   29 1     
   22    9   17 2     
   23    9   10 1     
   24   10   11 2     
   25   11   12 1     
   26   11   30 1     
   27   12   13 1     
   28   12   33 1     
   29   13   17 1     
   30   13   14 2     
   31   14   15 1     
   32   15   16 2     
   33   15   31 1     
   34   16   17 1     
   35   16   32 1     
   36    7   34 1     
   37    7   35 1     
   38   10   36 1     
   39   14   37 1     
@<TRIPOS>SUBSTRUCTURE
      1 S1             1
@<TRIPOS>SET
LONE_PAIRS      STATIC     ATOMS    <user>   **** ""
4 34 35 36 37
DONOR_HYDROGENS      STATIC     ATOMS    <user>   **** ""
2 27 33
ATOM$BLUE        STATIC     ATOMS    COLORGROUP SYSTEM
4 34 35 36 37
ATOM$RED        STATIC     ATOMS    COLORGROUP SYSTEM
2 27 33
