AV-unprocessed.smi:528|AV-procd|sdf|2838|dock2
  -GOLD-   2262023323D 1   1.00000     0.00000
 Structure written by MMmdl.
 45 47  0  0  0  0  0  0  0  0  1 V2000
  151.7871  139.4515  155.0348 C   0  0  0  0  0  0  0  0  0  0  0  0
  150.6416  140.2889  155.6291 C   0  0  1  0  0  0  0  0  0  0  0  0
  151.1926  141.4605  156.3060 N   0  0  0  0  0  0  0  0  0  0  0  0
  150.7245  141.9974  157.4430 C   0  0  0  0  0  0  0  0  0  0  0  0
  149.7714  141.5307  158.0688 O   0  0  0  0  0  0  0  0  0  0  0  0
  151.4667  143.2438  157.9461 C   0  0  0  0  0  0  0  0  0  0  0  0
  152.0925  143.0633  159.2668 N   0  0  0  0  0  0  0  0  0  0  0  0
  153.0360  142.0247  159.3925 C   0  0  0  0  0  0  0  0  0  0  0  0
  153.6900  141.7630  160.5404 C   0  0  0  0  0  0  0  0  0  0  0  0
  154.6605  140.5981  160.6583 C   0  0  0  0  0  0  0  0  0  0  0  0
  155.7156  140.7676  159.8612 F   0  0  0  0  0  0  0  0  0  0  0  0
  155.0989  140.4622  161.9103 F   0  0  0  0  0  0  0  0  0  0  0  0
  154.0526  139.4659  160.3072 F   0  0  0  0  0  0  0  0  0  0  0  0
  153.3516  142.5939  161.6794 C   0  0  0  0  0  0  0  0  0  0  0  0
  152.4428  143.5838  161.5795 C   0  0  0  0  0  0  0  0  0  0  0  0
  151.7536  143.8679  160.3186 C   0  0  0  0  0  0  0  0  0  0  0  0
  150.9233  144.7715  160.2141 O   0  0  0  0  0  0  0  0  0  0  0  0
  149.6301  140.7387  154.5486 C   0  0  1  0  0  0  0  0  0  0  0  0
  148.7454  139.6088  153.9749 C   0  0  0  0  0  0  0  0  0  0  0  0
  147.3247  140.1951  154.0764 C   0  0  1  0  0  0  0  0  0  0  0  0
  146.8793  140.1801  155.5499 C   0  0  0  0  0  0  0  0  0  0  0  0
  147.7305  141.3024  156.1710 C   0  0  0  0  0  0  0  0  0  0  0  0
  148.5760  141.7916  154.9769 C   0  0  2  0  0  0  0  0  0  0  0  0
  147.5683  141.6806  153.8370 C   0  0  0  0  0  0  0  0  0  0  0  0
  151.4101  138.5546  154.5435 H   0  0  0  0  0  0  0  0  0  0  0  0
  152.4816  139.1272  155.8102 H   0  0  0  0  0  0  0  0  0  0  0  0
  152.3547  140.0202  154.2974 H   0  0  0  0  0  0  0  0  0  0  0  0
  150.1194  139.6670  156.3574 H   0  0  0  0  0  0  0  0  0  0  0  0
  151.9825  141.9082  155.8640 H   0  0  0  0  0  0  0  0  0  0  0  0
  152.2163  143.5159  157.2016 H   0  0  0  0  0  0  0  0  0  0  0  0
  150.7744  144.0875  157.9739 H   0  0  0  0  0  0  0  0  0  0  0  0
  153.1887  141.4452  158.4935 H   0  0  0  0  0  0  0  0  0  0  0  0
  153.8372  142.4224  162.6288 H   0  0  0  0  0  0  0  0  0  0  0  0
  152.2167  144.1840  162.4486 H   0  0  0  0  0  0  0  0  0  0  0  0
  150.1992  141.1722  153.7238 H   0  0  0  0  0  0  0  0  0  0  0  0
  149.0125  139.4045  152.9374 H   0  0  0  0  0  0  0  0  0  0  0  0
  148.8337  138.6730  154.5284 H   0  0  0  0  0  0  0  0  0  0  0  0
  146.6094  139.7282  153.3989 H   0  0  0  0  0  0  0  0  0  0  0  0
  145.8171  140.4114  155.6387 H   0  0  0  0  0  0  0  0  0  0  0  0
  147.0525  139.2141  156.0256 H   0  0  0  0  0  0  0  0  0  0  0  0
  147.0875  142.1050  156.5347 H   0  0  0  0  0  0  0  0  0  0  0  0
  148.3284  140.9626  157.0159 H   0  0  0  0  0  0  0  0  0  0  0  0
  148.9882  142.7914  155.1171 H   0  0  0  0  0  0  0  0  0  0  0  0
  147.9944  141.8971  152.8558 H   0  0  0  0  0  0  0  0  0  0  0  0
  146.6778  142.2945  153.9836 H   0  0  0  0  0  0  0  0  0  0  0  0
  1  2  1  0  0  0  0
  1 25  1  0  0  0  0
  1 26  1  0  0  0  0
  1 27  1  0  0  0  0
  2  3  1  0  0  0  0
  2 18  1  0  0  0  0
  2 28  1  0  0  0  0
  3  4  1  0  0  0  0
  3 29  1  0  0  0  0
  4  5  2  0  0  0  0
  4  6  1  0  0  0  0
  6  7  1  0  0  0  0
  6 30  1  0  0  0  0
  6 31  1  0  0  0  0
  7 16  1  0  0  0  0
  7  8  1  0  0  0  0
  8  9  2  0  0  0  0
  8 32  1  0  0  0  0
  9 10  1  0  0  0  0
  9 14  1  0  0  0  0
 10 11  1  0  0  0  0
 10 12  1  0  0  0  0
 10 13  1  0  0  0  0
 14 15  2  0  0  0  0
 14 33  1  0  0  0  0
 15 16  1  0  0  0  0
 15 34  1  0  0  0  0
 16 17  2  0  0  0  0
 18 23  1  0  0  0  0
 18 19  1  0  0  0  0
 18 35  1  0  0  0  0
 19 20  1  0  0  0  0
 19 36  1  0  0  0  0
 19 37  1  0  0  0  0
 20 24  1  0  0  0  0
 20 21  1  0  0  0  0
 20 38  1  0  0  0  0
 21 22  1  0  0  0  0
 21 39  1  0  0  0  0
 21 40  1  0  0  0  0
 22 23  1  0  0  0  0
 22 41  1  0  0  0  0
 22 42  1  0  0  0  0
 23 24  1  0  0  0  0
 23 43  1  0  0  0  0
 24 44  1  0  0  0  0
 24 45  1  0  0  0  0
M  END
> <s_m_source_file>
AV-unprocessed.smi

> <i_m_source_file_index>
528

> <i_lp_mmshare_version>
43012

> <i_f3d_flags>
0

> <s_epik_input>
W0NIMl0xW0NIMl1bQ0BASF0oW0NIMl0yKVtDQEBIXShbQ0gyXVtDQEhdMTIpW0NASF0oW0NIM10pW05IXUMoPU8pW0NIMl1uM1tjSF1jKEMoRikoRilGKVtjSF1bY0hdYzM9Tw==

> <s_epik_cmdline>
J2VwaWtfcHl0aG9uJywgJy1waCcsICc3LjAnLCAnLXRuJywgJzgnLCAnLW1hJywgJzIwMCcsICctbWV0YWxfYmluZGluZycsICctaW1hZScsICc8aW5maWxlLm1hZT4nLCAnLW9tYWUnLCAnPG91dGZpbGUubWFlPic=

> <r_lp_tautomer_probability>
1

> <r_epik_Ionization_Penalty>
4.09479e-08

> <r_epik_Ionization_Penalty_Charging>
1.9321e-08

> <r_epik_Ionization_Penalty_Neutral>
2.16269e-08

> <r_epik_State_Penalty>
-0

> <r_epik_Charging_Adjusted_Penalty>
1.9321e-08

> <i_epik_Tot_Q>
0

> <i_epik_Tot_abs_Q>
0

> <r_epik_Metal_State_Penalty>
-0

> <b_epik_Metal_Only>
0

> <s_lp_Force_Field>
OPLS_2005

> <r_lp_Energy>
62.533

> <b_lp_Chiralities_Consistent>
1

> <s_lp_Variant>
AV-unprocessed.smi:528-8

> <Gold.Version>
5.8.1

> <Gold.Id.Protein>
6NUR|6NUR_protein|mol2

> <Gold.PLP.Fitness>
52.1251

> <Gold.PLP.PLP>
-53.1074

> <Gold.PLP.part.hbond>
0.0000

> <Gold.PLP.part.metal>
0.0000

> <Gold.PLP.part.buried>
-2.5110

> <Gold.PLP.part.nonpolar>
-50.1454

> <Gold.PLP.part.repulsive>
0.3304

> <Gold.PLP.ligand.clash>
0.0000

> <Gold.PLP.ligand.torsion>
0.5227

> <Gold.PLP.Chemscore.Hbond>
0.0000

> <Gold.PLP.Chemscore.CHOScore>
0.0000

> <Gold.PLP.Chemscore.Metal>
0.0000

> <Gold.PLP.Chemscore.Internal.Correction>
0.0630

> <Gold.Rescore>
     Score         DG    S(hbond)    S(metal)    S(lipo)     H(rot)  DE(clash)    DE(int)     intcor
     12.48     -14.64       0.00        0.00     115.80       1.71       0.07       2.10       ----

> <Gold.Chemscore.Fitness>
12.4750

> <Gold.Chemscore.DG>
-14.6442

> <Gold.Chemscore.ZeroCoef>
-5.4800

> <Gold.Chemscore.Hbond>
0.0000

> <Gold.Chemscore.Metal>
0.0000

> <Gold.Chemscore.Lipo>
115.7961

> <Gold.Chemscore.Internal_Hbond>
0.0000

> <Gold.Chemscore.DEClash>
0.0736

> <Gold.Chemscore.DEInternal>
2.0955

> <Gold.Chemscore.Rot>
1.7125

> <Gold.Chemscore.Internal.Correction>
   9.000000E+99

> <Gold.Chemscore.Hbond.Weighted>
-0.0000

> <Gold.Chemscore.Metal.Weighted>
-0.0000

> <Gold.Chemscore.Lipo.Weighted>
-13.5481

> <Gold.Chemscore.Internal_Hbond.Weighted>
0.0000

> <Gold.Chemscore.DEClash.Weighted>
0.0736

> <Gold.Chemscore.DEInternal.Weighted>
2.0955

> <Gold.Chemscore.Rot.Weighted>
4.3840

> <Gold.Chemscore.Internal.Correction.Weighted>
   9.000000E+99

> <Gold.Protein.RotatedTorsions>
[ 6907 6896 6895 6894 ] final   28.72 input  -60.11 | X-H torsion
[ 7974 7965 7964 7962 ] final -157.65 input  175.53 | X-H torsion
[ 8008 7997 7996 7995 ] final -139.76 input   59.86 | X-H torsion
[ 10167 10162 10161 10158 ] final  -43.85 input  -65.29 | X-H torsion
[ 10718 10713 10712 10709 ] final  114.25 input   66.30 | X-H torsion
[ 10763 10752 10751 10750 ] final  -18.66 input  -60.55 | X-H torsion
[ 11005 11000 10999 10996 ] final -154.72 input  -57.11 | X-H torsion

> <Gold.Protein.ActiveResidues>
 VAL166  LYS551  ARG553  GLY616  TRP617  ASP618  TYR619  PRO620  LYS621  CYS622 
 ASP623  PHE694  ASN695  SER759  ASP760  ASP761  ALA762  ILE779  LEU786  VAL792 
 PHE793  MET794  SER795  GLU796  ALA797  LYS798  CYS799  TRP800  GLU811  SER814 

> <Gold.Protein.RotatedAtoms>
  152.0210  134.9822  160.0570 H   0  0  0  0  0  0  0  0  0  0  0  0  # atno 6907 bound_to 6896
  152.1337  133.4418  159.4741 H   0  0  0  0  0  0  0  0  0  0  0  0  # atno 6908 bound_to 6896
  150.6858  134.2308  159.4477 H   0  0  0  0  0  0  0  0  0  0  0  0  # atno 6909 bound_to 6896
  144.7539  140.3938  143.6027 H   0  0  0  0  0  0  0  0  0  0  0  0  # atno 7974 bound_to 7965
  155.4501  140.0538  157.3002 H   0  0  0  0  0  0  0  0  0  0  0  0  # atno 8008 bound_to 7997
  154.4781  140.2069  155.9786 H   0  0  0  0  0  0  0  0  0  0  0  0  # atno 8009 bound_to 7997
  156.1163  140.3196  155.8149 H   0  0  0  0  0  0  0  0  0  0  0  0  # atno 8010 bound_to 7997
  140.6919  143.2961  151.3410 H   0  0  0  0  0  0  0  0  0  0  0  0  # atno 10167 bound_to 10162
  157.6292  131.0996  150.7159 H   0  0  0  0  0  0  0  0  0  0  0  0  # atno 10718 bound_to 10713
  153.5928  135.7002  153.5416 H   0  0  0  0  0  0  0  0  0  0  0  0  # atno 10763 bound_to 10752
  153.3164  135.4086  155.1379 H   0  0  0  0  0  0  0  0  0  0  0  0  # atno 10764 bound_to 10752
  154.8597  135.3685  154.5460 H   0  0  0  0  0  0  0  0  0  0  0  0  # atno 10765 bound_to 10752
  140.6943  134.4007  157.5216 H   0  0  0  0  0  0  0  0  0  0  0  0  # atno 11005 bound_to 11000
  145.6848  139.1626  143.2680 LP  0  0  0  0  0  0  0  0  0  0  0  0  # atno 17320 bound_to 7965
  146.1525  140.6905  142.9315 LP  0  0  0  0  0  0  0  0  0  0  0  0  # atno 17321 bound_to 7965
  139.6330  144.0683  152.2492 LP  0  0  0  0  0  0  0  0  0  0  0  0  # atno 17342 bound_to 10162
  140.0164  144.6185  150.7603 LP  0  0  0  0  0  0  0  0  0  0  0  0  # atno 17343 bound_to 10162
  156.7502  130.4766  149.5458 LP  0  0  0  0  0  0  0  0  0  0  0  0  # atno 17370 bound_to 10713
  156.1483  130.6292  151.0562 LP  0  0  0  0  0  0  0  0  0  0  0  0  # atno 17371 bound_to 10713
  139.8914  134.8779  156.2319 LP  0  0  0  0  0  0  0  0  0  0  0  0  # atno 17394 bound_to 11000
  141.0216  133.7038  156.1278 LP  0  0  0  0  0  0  0  0  0  0  0  0  # atno 17395 bound_to 11000

$$$$
