AV-unprocessed.smi:631|AV-procd|sdf|3125|dock1
  -GOLD-   22720 0 43D 1   1.00000     0.00000
 Structure written by MMmdl.
 38 39  0  0  0  0  0  0  0  0  1 V2000
  148.5194  142.3299  155.3684 C   0  0  0  0  0  0  0  0  0  0  0  0
  149.6531  141.3885  155.6737 C   0  0  0  0  0  0  0  0  0  0  0  0
  150.4183  141.7039  156.6662 N   0  0  0  0  0  0  0  0  0  0  0  0
  151.4836  140.9050  157.0390 N   0  0  0  0  0  0  0  0  0  0  0  0
  152.2338  141.4061  158.2022 C   0  0  0  0  0  0  0  0  0  0  0  0
  151.6555  142.7027  158.8414 C   0  0  0  0  0  0  0  0  0  0  0  0
  150.2982  142.4489  159.1553 O   0  0  0  0  0  0  0  0  0  0  0  0
  152.3733  142.9756  160.1864 C   0  0  0  0  0  0  0  0  0  0  0  0
  151.9135  144.2764  160.8697 C   0  0  0  0  0  0  0  0  0  0  0  0
  152.0567  145.4797  159.9286 C   0  0  0  0  0  0  0  0  0  0  0  0
  151.2882  145.2458  158.6208 C   0  0  0  0  0  0  0  0  0  0  0  0
  151.7412  143.9503  157.9237 C   0  0  0  0  0  0  0  0  0  0  0  0
  151.8579  139.7641  156.3921 C   0  0  0  0  0  0  0  0  0  0  0  0
  152.8458  139.1063  156.7208 O   0  0  0  0  0  0  0  0  0  0  0  0
  150.9793  139.4063  155.2762 C   0  0  0  0  0  0  0  0  0  0  0  0
  151.3193  138.2020  154.5897 C   0  0  0  0  0  0  0  0  0  0  0  0
  151.5884  137.2134  154.0508 N   0  0  0  0  0  0  0  0  0  0  0  0
  149.9162  140.1687  154.9181 C   0  0  0  0  0  0  0  0  0  0  0  0
  148.9777  139.8431  153.7640 C   0  0  0  0  0  0  0  0  0  0  0  0
  148.5801  142.6899  154.3413 H   0  0  0  0  0  0  0  0  0  0  0  0
  148.5279  143.2028  156.0230 H   0  0  0  0  0  0  0  0  0  0  0  0
  147.5585  141.8317  155.4970 H   0  0  0  0  0  0  0  0  0  0  0  0
  152.3480  140.6244  158.9560 H   0  0  0  0  0  0  0  0  0  0  0  0
  153.2547  141.6069  157.8711 H   0  0  0  0  0  0  0  0  0  0  0  0
  149.9385  141.8806  158.4916 H   0  0  0  0  0  0  0  0  0  0  0  0
  152.2328  142.1350  160.8675 H   0  0  0  0  0  0  0  0  0  0  0  0
  153.4479  143.0440  160.0126 H   0  0  0  0  0  0  0  0  0  0  0  0
  150.8757  144.1825  161.1913 H   0  0  0  0  0  0  0  0  0  0  0  0
  152.4987  144.4439  161.7743 H   0  0  0  0  0  0  0  0  0  0  0  0
  151.6911  146.3819  160.4196 H   0  0  0  0  0  0  0  0  0  0  0  0
  153.1114  145.6512  159.7095 H   0  0  0  0  0  0  0  0  0  0  0  0
  150.2185  145.1991  158.8281 H   0  0  0  0  0  0  0  0  0  0  0  0
  151.4323  146.0941  157.9513 H   0  0  0  0  0  0  0  0  0  0  0  0
  152.7712  144.0774  157.5883 H   0  0  0  0  0  0  0  0  0  0  0  0
  151.1427  143.8071  157.0234 H   0  0  0  0  0  0  0  0  0  0  0  0
  149.2178  138.8906  153.2931 H   0  0  0  0  0  0  0  0  0  0  0  0
  149.0371  140.6140  152.9952 H   0  0  0  0  0  0  0  0  0  0  0  0
  147.9463  139.7827  154.1123 H   0  0  0  0  0  0  0  0  0  0  0  0
  1  2  1  0  0  0  0
  1 20  1  0  0  0  0
  1 21  1  0  0  0  0
  1 22  1  0  0  0  0
  2 18  1  0  0  0  0
  2  3  2  0  0  0  0
  3  4  1  0  0  0  0
  4  5  1  0  0  0  0
  4 13  1  0  0  0  0
  5  6  1  0  0  0  0
  5 23  1  0  0  0  0
  5 24  1  0  0  0  0
  6 12  1  0  0  0  0
  6  7  1  0  0  0  0
  6  8  1  0  0  0  0
  7 25  1  0  0  0  0
  8  9  1  0  0  0  0
  8 26  1  0  0  0  0
  8 27  1  0  0  0  0
  9 10  1  0  0  0  0
  9 28  1  0  0  0  0
  9 29  1  0  0  0  0
 10 11  1  0  0  0  0
 10 30  1  0  0  0  0
 10 31  1  0  0  0  0
 11 12  1  0  0  0  0
 11 32  1  0  0  0  0
 11 33  1  0  0  0  0
 12 34  1  0  0  0  0
 12 35  1  0  0  0  0
 13 14  2  0  0  0  0
 13 15  1  0  0  0  0
 15 16  1  0  0  0  0
 15 18  2  0  0  0  0
 16 17  3  0  0  0  0
 18 19  1  0  0  0  0
 19 36  1  0  0  0  0
 19 37  1  0  0  0  0
 19 38  1  0  0  0  0
M  END
> <s_m_source_file>
AV-unprocessed.smi

> <i_m_source_file_index>
631

> <i_lp_mmshare_version>
43012

> <i_f3d_flags>
0

> <s_epik_input>
TiNDYyhjMVtDSDNdKWMoPU8pbihuYzFbQ0gzXSlbQ0gyXUMyKFtPSF0pW0NIMl1bQ0gyXVtDSDJdW0NIMl1bQ0gyXTI=

> <s_epik_cmdline>
J2VwaWtfcHl0aG9uJywgJy1waCcsICc3LjAnLCAnLXRuJywgJzgnLCAnLW1hJywgJzIwMCcsICctbWV0YWxfYmluZGluZycsICctaW1hZScsICc8aW5maWxlLm1hZT4nLCAnLW9tYWUnLCAnPG91dGZpbGUubWFlPic=

> <r_lp_tautomer_probability>
1

> <r_epik_Ionization_Penalty>
3.87467e-07

> <r_epik_Ionization_Penalty_Charging>
4.48646e-10

> <r_epik_Ionization_Penalty_Neutral>
3.87018e-07

> <r_epik_State_Penalty>
-0

> <r_epik_Charging_Adjusted_Penalty>
4.48646e-10

> <i_epik_Tot_Q>
0

> <i_epik_Tot_abs_Q>
0

> <r_epik_Metal_State_Penalty>
-0

> <b_epik_Metal_Only>
0

> <s_lp_Force_Field>
OPLS_2005

> <r_lp_Energy>
32.3916

> <b_lp_Chiralities_Consistent>
1

> <s_lp_Variant>
AV-unprocessed.smi:631-1

> <Gold.Version>
5.8.1

> <Gold.Id.Protein>
6NUR|6NUR_protein|mol2

> <Gold.PLP.Fitness>
46.8314

> <Gold.PLP.PLP>
-40.9410

> <Gold.PLP.part.hbond>
-2.9610

> <Gold.PLP.part.metal>
0.0000

> <Gold.PLP.part.buried>
-0.3486

> <Gold.PLP.part.nonpolar>
-37.8971

> <Gold.PLP.part.repulsive>
0.2132

> <Gold.PLP.ligand.clash>
0.0000

> <Gold.PLP.ligand.torsion>
0.0472

> <Gold.PLP.Chemscore.Hbond>
1.9920

> <Gold.PLP.Chemscore.CHOScore>
0.0000

> <Gold.PLP.Chemscore.Metal>
0.0000

> <Gold.Chemscore.Hbonds>
donor molecule, donor type, donor heavy atom, donor atom, acceptor molecule, acceptor atom, score
      P1  H  7997  8009       L1    14  1.00
      P1  H 10752 10765       L1    17  0.93

> <Gold.PLP.Chemscore.Internal.Correction>
0.0087

> <Gold.Rescore>
     Score         DG    S(hbond)    S(metal)    S(lipo)     H(rot)  DE(clash)    DE(int)     intcor
     18.57     -19.97       1.83        0.00     108.21       1.68       0.13       1.27       ----

> <Gold.Chemscore.Fitness>
18.5745

> <Gold.Chemscore.DG>
-19.9744

> <Gold.Chemscore.ZeroCoef>
-5.4800

> <Gold.Chemscore.Hbond>
1.8331

> <Gold.Chemscore.Metal>
0.0000

> <Gold.Chemscore.Lipo>
108.2095

> <Gold.Chemscore.Internal_Hbond>
0.0000

> <Gold.Chemscore.DEClash>
0.1271

> <Gold.Chemscore.DEInternal>
1.2727

> <Gold.Chemscore.Rot>
1.6753

> <Gold.Chemscore.Internal.Correction>
   9.000000E+99

> <Gold.Chemscore.Hbonds>
donor molecule, donor type, donor heavy atom, donor atom, acceptor molecule, acceptor atom, score
      P1  H  7997  8009       L1    14  0.91
      P1  H 10752 10765       L1    17  0.88

> <Gold.Chemscore.Hbond.Weighted>
-6.1227

> <Gold.Chemscore.Metal.Weighted>
-0.0000

> <Gold.Chemscore.Lipo.Weighted>
-12.6605

> <Gold.Chemscore.Internal_Hbond.Weighted>
0.0000

> <Gold.Chemscore.DEClash.Weighted>
0.1271

> <Gold.Chemscore.DEInternal.Weighted>
1.2727

> <Gold.Chemscore.Rot.Weighted>
4.2888

> <Gold.Chemscore.Internal.Correction.Weighted>
   9.000000E+99

> <Gold.Protein.RotatedTorsions>
[ 6907 6896 6895 6894 ] final  -13.43 input  -60.11 | X-H torsion
[ 7974 7965 7964 7962 ] final  162.02 input  175.53 | X-H torsion
[ 8008 7997 7996 7995 ] final  168.85 input   59.86 | X-H torsion
[ 10167 10162 10161 10158 ] final  162.31 input  -65.29 | X-H torsion
[ 10718 10713 10712 10709 ] final   54.24 input   66.30 | X-H torsion
[ 10763 10752 10751 10750 ] final  154.07 input  -60.55 | X-H torsion
[ 11005 11000 10999 10996 ] final -143.73 input  -57.11 | X-H torsion

> <Gold.Protein.ActiveResidues>
 VAL166  LYS551  ARG553  GLY616  TRP617  ASP618  TYR619  PRO620  LYS621  CYS622 
 ASP623  PHE694  ASN695  SER759  ASP760  ASP761  ALA762  ILE779  LEU786  VAL792 
 PHE793  MET794  SER795  GLU796  ALA797  LYS798  CYS799  TRP800  GLU811  SER814 

> <Gold.Protein.RotatedAtoms>
  151.3550  135.0892  159.9415 H   0  0  0  0  0  0  0  0  0  0  0  0  # atno 6907 bound_to 6896
  152.5177  133.9315  159.7593 H   0  0  0  0  0  0  0  0  0  0  0  0  # atno 6908 bound_to 6896
  150.9698  133.6302  159.2769 H   0  0  0  0  0  0  0  0  0  0  0  0  # atno 6909 bound_to 6896
  144.7657  139.7980  143.6316 H   0  0  0  0  0  0  0  0  0  0  0  0  # atno 7974 bound_to 7965
  156.1510  140.1579  156.8770 H   0  0  0  0  0  0  0  0  0  0  0  0  # atno 8008 bound_to 7997
  154.5071  140.0810  156.7953 H   0  0  0  0  0  0  0  0  0  0  0  0  # atno 8009 bound_to 7997
  155.3896  140.3409  155.4253 H   0  0  0  0  0  0  0  0  0  0  0  0  # atno 8010 bound_to 7997
  139.4859  144.4450  151.8903 H   0  0  0  0  0  0  0  0  0  0  0  0  # atno 10167 bound_to 10162
  157.5239  130.8583  149.8595 H   0  0  0  0  0  0  0  0  0  0  0  0  # atno 10718 bound_to 10713
  154.1464  135.2817  155.3147 H   0  0  0  0  0  0  0  0  0  0  0  0  # atno 10763 bound_to 10752
  154.6249  135.5455  153.7619 H   0  0  0  0  0  0  0  0  0  0  0  0  # atno 10764 bound_to 10752
  153.0234  135.6448  154.1610 H   0  0  0  0  0  0  0  0  0  0  0  0  # atno 10765 bound_to 10752
  140.8096  134.2760  157.4946 H   0  0  0  0  0  0  0  0  0  0  0  0  # atno 11005 bound_to 11000
  146.1762  139.4934  142.9896 LP  0  0  0  0  0  0  0  0  0  0  0  0  # atno 17320 bound_to 7965
  145.6478  141.0270  143.1777 LP  0  0  0  0  0  0  0  0  0  0  0  0  # atno 17321 bound_to 7965
  140.3904  144.2623  150.5900 LP  0  0  0  0  0  0  0  0  0  0  0  0  # atno 17342 bound_to 10162
  140.5151  143.2280  151.8475 LP  0  0  0  0  0  0  0  0  0  0  0  0  # atno 17343 bound_to 10162
  156.0373  130.3748  150.1528 LP  0  0  0  0  0  0  0  0  0  0  0  0  # atno 17370 bound_to 10713
  156.9715  130.9836  151.3458 LP  0  0  0  0  0  0  0  0  0  0  0  0  # atno 17371 bound_to 10713
  139.8715  134.9475  156.3970 LP  0  0  0  0  0  0  0  0  0  0  0  0  # atno 17394 bound_to 11000
  140.9211  133.7644  155.9908 LP  0  0  0  0  0  0  0  0  0  0  0  0  # atno 17395 bound_to 11000

$$$$
