AV-unprocessed.smi:3156|AV-procd|sdf|12030|dock3
  -GOLD-   2272017443D 1   1.00000     0.00000
 Structure written by MMmdl.
 41 42  0  0  0  0  0  0  0  0  2 V2000
  149.5956  139.7795  154.8169 C   0  0  0  0  0  0  0  0  0  0  0  0
  148.8100  141.0671  155.1249 C   0  0  1  0  0  0  0  0  0  0  0  0
  149.7684  142.1853  155.2708 N   0  3  0  0  0  0  0  0  0  0  0  0
  150.9600  141.8811  156.0898 C   0  0  0  0  0  0  0  0  0  0  0  0
  150.9687  142.7162  157.3770 C   0  0  2  0  0  0  0  0  0  0  0  0
  151.4855  144.1473  157.1323 C   0  0  0  0  0  0  0  0  0  0  0  0
  151.5764  144.9199  158.4532 C   0  0  0  0  0  0  0  0  0  0  0  0
  152.4054  144.1186  159.4624 C   0  0  0  0  0  0  0  0  0  0  0  0
  151.8543  142.6900  159.5906 C   0  0  0  0  0  0  0  0  0  0  0  0
  151.8276  142.0646  158.3110 O   0  0  0  0  0  0  0  0  0  0  0  0
  147.7459  141.4061  154.0476 C   0  0  2  0  0  0  0  0  0  0  0  0
  146.6032  142.2885  154.5831 C   0  0  0  0  0  0  0  0  0  0  0  0
  147.1961  140.2031  153.4351 N   0  0  0  0  0  0  0  0  0  0  0  0
  147.1522  139.8559  152.0990 C   0  0  0  0  0  0  0  0  0  0  0  0
  146.5290  138.6443  152.0122 C   0  0  0  0  0  0  0  0  0  0  0  0
  146.2186  138.3265  153.3637 C   0  0  0  0  0  0  0  0  0  0  0  0
  146.6177  139.2606  154.2116 N   0  0  0  0  0  0  0  0  0  0  0  0
  148.9498  138.9014  154.8079 H   0  0  0  0  0  0  0  0  0  0  0  0
  150.3641  139.6003  155.5698 H   0  0  0  0  0  0  0  0  0  0  0  0
  150.0894  139.8398  153.8463 H   0  0  0  0  0  0  0  0  0  0  0  0
  148.3003  140.9071  156.0770 H   0  0  0  0  0  0  0  0  0  0  0  0
  150.0814  142.4585  154.3502 H   0  0  0  0  0  0  0  0  0  0  0  0
  150.9868  140.8182  156.3335 H   0  0  0  0  0  0  0  0  0  0  0  0
  151.8502  142.0975  155.4977 H   0  0  0  0  0  0  0  0  0  0  0  0
  149.9557  142.7614  157.7818 H   0  0  0  0  0  0  0  0  0  0  0  0
  152.4704  144.1095  156.6646 H   0  0  0  0  0  0  0  0  0  0  0  0
  150.8302  144.6742  156.4381 H   0  0  0  0  0  0  0  0  0  0  0  0
  152.0194  145.9029  158.2911 H   0  0  0  0  0  0  0  0  0  0  0  0
  150.5746  145.0886  158.8507 H   0  0  0  0  0  0  0  0  0  0  0  0
  153.4447  144.0791  159.1341 H   0  0  0  0  0  0  0  0  0  0  0  0
  152.4026  144.6148  160.4332 H   0  0  0  0  0  0  0  0  0  0  0  0
  152.4875  142.1029  160.2559 H   0  0  0  0  0  0  0  0  0  0  0  0
  150.8537  142.6952  160.0256 H   0  0  0  0  0  0  0  0  0  0  0  0
  148.2439  141.9714  153.2570 H   0  0  0  0  0  0  0  0  0  0  0  0
  146.9697  143.2601  154.9139 H   0  0  0  0  0  0  0  0  0  0  0  0
  146.0952  141.8197  155.4264 H   0  0  0  0  0  0  0  0  0  0  0  0
  145.8582  142.4749  153.8087 H   0  0  0  0  0  0  0  0  0  0  0  0
  147.5619  140.4928  151.3289 H   0  0  0  0  0  0  0  0  0  0  0  0
  146.3239  138.0725  151.1193 H   0  0  0  0  0  0  0  0  0  0  0  0
  145.7174  137.4516  153.7509 H   0  0  0  0  0  0  0  0  0  0  0  0
  149.2821  142.9674  155.6866 H   0  0  0  0  0  0  0  0  0  0  0  0
  1  2  1  0  0  0  0
  1 18  1  0  0  0  0
  1 19  1  0  0  0  0
  1 20  1  0  0  0  0
  2  3  1  0  0  0  0
  2 11  1  0  0  0  0
  2 21  1  0  0  0  0
  3  4  1  0  0  0  0
  3 22  1  0  0  0  0
  3 41  1  0  0  0  0
  4  5  1  0  0  0  0
  4 23  1  0  0  0  0
  4 24  1  0  0  0  0
  5 10  1  0  0  0  0
  5  6  1  0  0  0  0
  5 25  1  0  0  0  0
  6  7  1  0  0  0  0
  6 26  1  0  0  0  0
  6 27  1  0  0  0  0
  7  8  1  0  0  0  0
  7 28  1  0  0  0  0
  7 29  1  0  0  0  0
  8  9  1  0  0  0  0
  8 30  1  0  0  0  0
  8 31  1  0  0  0  0
  9 10  1  0  0  0  0
  9 32  1  0  0  0  0
  9 33  1  0  0  0  0
 11 12  1  0  0  0  0
 11 13  1  0  0  0  0
 11 34  1  0  0  0  0
 12 35  1  0  0  0  0
 12 36  1  0  0  0  0
 12 37  1  0  0  0  0
 13 17  1  0  0  0  0
 13 14  1  0  0  0  0
 14 15  2  0  0  0  0
 14 38  1  0  0  0  0
 15 16  1  0  0  0  0
 15 39  1  0  0  0  0
 16 17  2  0  0  0  0
 16 40  1  0  0  0  0
M  CHG  1   3   1
M  END
> <s_m_source_file>
AV-unprocessed.smi

> <i_m_source_file_index>
3156

> <i_lp_mmshare_version>
43012

> <i_f3d_flags>
0

> <s_epik_input>
bjFbY0hdW2NIXVtjSF1uMVtDQEBIXShbQ0gzXSlbQ0BIXShbQ0gzXSlbTkhdW0NIMl1bQ0BASF0yW0NIMl1bQ0gyXVtDSDJdW0NIMl1PMg==

> <s_epik_cmdline>
J2VwaWtfcHl0aG9uJywgJy1waCcsICc3LjAnLCAnLXRuJywgJzgnLCAnLW1hJywgJzIwMCcsICctbWV0YWxfYmluZGluZycsICctaW1hZScsICc8aW5maWxlLm1hZT4nLCAnLW9tYWUnLCAnPG91dGZpbGUubWFlPic=

> <r_lp_tautomer_probability>
1

> <r_epik_Ionization_Penalty>
0.00658015

> <r_epik_Ionization_Penalty_Charging>
0.00656881

> <r_epik_Ionization_Penalty_Neutral>
1.13431e-05

> <r_epik_State_Penalty>
0.0048654

> <r_epik_Charging_Adjusted_Penalty>
0.0114342

> <i_epik_Tot_Q>
1

> <i_epik_Tot_abs_Q>
1

> <r_epik_Metal_State_Penalty>
-0

> <b_epik_Metal_Only>
0

> <s_lp_Force_Field>
OPLS_2005

> <r_lp_Energy>
19.2927

> <b_lp_Chiralities_Consistent>
1

> <s_lp_Variant>
AV-unprocessed.smi:3156-2

> <Gold.Version>
5.8.1

> <Gold.Id.Protein>
6NUR|6NUR_protein|mol2

> <Gold.PLP.Fitness>
44.4662

> <Gold.PLP.PLP>
-39.1898

> <Gold.PLP.part.hbond>
-1.0000

> <Gold.PLP.part.metal>
0.0000

> <Gold.PLP.part.buried>
-0.1465

> <Gold.PLP.part.nonpolar>
-38.5127

> <Gold.PLP.part.repulsive>
0.3404

> <Gold.PLP.ligand.clash>
0.0000

> <Gold.PLP.ligand.torsion>
1.3191

> <Gold.PLP.Chemscore.Hbond>
2.0000

> <Gold.PLP.Chemscore.CHOScore>
0.5969

> <Gold.PLP.Chemscore.Metal>
0.0000

> <Gold.Chemscore.Hbonds>
donor molecule, donor type, donor heavy atom, donor atom, acceptor molecule, acceptor atom, score
      L1  H     3    41       P1  8028  1.95
      L1  C    14    38       P1  7957  0.58

> <Gold.PLP.Chemscore.Internal.Correction>
0.1238

> <Gold.Rescore>
     Score         DG    S(hbond)    S(metal)    S(lipo)     H(rot)  DE(clash)    DE(int)     intcor
     15.57     -18.33       0.95        0.00     117.49       1.59       1.65       1.11       ----

> <Gold.Chemscore.Fitness>
15.5651

> <Gold.Chemscore.DG>
-18.3311

> <Gold.Chemscore.ZeroCoef>
-5.4800

> <Gold.Chemscore.Hbond>
0.9537

> <Gold.Chemscore.Metal>
0.0000

> <Gold.Chemscore.Lipo>
117.4864

> <Gold.Chemscore.Internal_Hbond>
0.0000

> <Gold.Chemscore.DEClash>
1.6543

> <Gold.Chemscore.DEInternal>
1.1117

> <Gold.Chemscore.Rot>
1.5938

> <Gold.Chemscore.Internal.Correction>
   9.000000E+99

> <Gold.Chemscore.Hbonds>
donor molecule, donor type, donor heavy atom, donor atom, acceptor molecule, acceptor atom, score
      L1  H     3    41       P1  8028  0.92

> <Gold.Chemscore.Hbond.Weighted>
-3.1854

> <Gold.Chemscore.Metal.Weighted>
-0.0000

> <Gold.Chemscore.Lipo.Weighted>
-13.7459

> <Gold.Chemscore.Internal_Hbond.Weighted>
0.0000

> <Gold.Chemscore.DEClash.Weighted>
1.6543

> <Gold.Chemscore.DEInternal.Weighted>
1.1117

> <Gold.Chemscore.Rot.Weighted>
4.0802

> <Gold.Chemscore.Internal.Correction.Weighted>
   9.000000E+99

> <Gold.Protein.RotatedTorsions>
[ 6907 6896 6895 6894 ] final  107.26 input  -60.11 | X-H torsion
[ 7974 7965 7964 7962 ] final  -54.00 input  175.53 | X-H torsion
[ 8008 7997 7996 7995 ] final   53.22 input   59.86 | X-H torsion
[ 10167 10162 10161 10158 ] final   99.58 input  -65.29 | X-H torsion
[ 10718 10713 10712 10709 ] final  -17.60 input   66.30 | X-H torsion
[ 10763 10752 10751 10750 ] final -154.87 input  -60.55 | X-H torsion
[ 11005 11000 10999 10996 ] final   95.41 input  -57.11 | X-H torsion

> <Gold.Protein.ActiveResidues>
 VAL166  LYS551  ARG553  GLY616  TRP617  ASP618  TYR619  PRO620  LYS621  CYS622 
 ASP623  PHE694  ASN695  SER759  ASP760  ASP761  ALA762  ILE779  LEU786  VAL792 
 PHE793  MET794  SER795  GLU796  ALA797  LYS798  CYS799  TRP800  GLU811  SER814 

> <Gold.Protein.RotatedAtoms>
  152.5161  133.9261  159.7557 H   0  0  0  0  0  0  0  0  0  0  0  0  # atno 6907 bound_to 6896
  150.9621  133.6425  159.2759 H   0  0  0  0  0  0  0  0  0  0  0  0  # atno 6908 bound_to 6896
  151.3666  135.0920  159.9505 H   0  0  0  0  0  0  0  0  0  0  0  0  # atno 6909 bound_to 6896
  145.8905  140.8074  142.9794 H   0  0  0  0  0  0  0  0  0  0  0  0  # atno 7974 bound_to 7965
  155.4647  140.3463  155.4317 H   0  0  0  0  0  0  0  0  0  0  0  0  # atno 8008 bound_to 7997
  156.1139  140.1468  156.9329 H   0  0  0  0  0  0  0  0  0  0  0  0  # atno 8009 bound_to 7997
  154.4775  140.0880  156.7277 H   0  0  0  0  0  0  0  0  0  0  0  0  # atno 8010 bound_to 7997
  139.7604  144.6956  151.0300 H   0  0  0  0  0  0  0  0  0  0  0  0  # atno 10167 bound_to 10162
  156.5713  130.4750  149.6361 H   0  0  0  0  0  0  0  0  0  0  0  0  # atno 10718 bound_to 10713
  154.7828  135.3180  154.7953 H   0  0  0  0  0  0  0  0  0  0  0  0  # atno 10763 bound_to 10752
  153.8660  135.6849  153.4783 H   0  0  0  0  0  0  0  0  0  0  0  0  # atno 10764 bound_to 10752
  153.1469  135.4715  154.9518 H   0  0  0  0  0  0  0  0  0  0  0  0  # atno 10765 bound_to 10752
  139.8789  134.8897  156.4007 H   0  0  0  0  0  0  0  0  0  0  0  0  # atno 11005 bound_to 11000
  144.6730  140.1522  143.7429 LP  0  0  0  0  0  0  0  0  0  0  0  0  # atno 17320 bound_to 7965
  145.8914  139.2378  143.1547 LP  0  0  0  0  0  0  0  0  0  0  0  0  # atno 17321 bound_to 7965
  140.7806  143.4703  151.0155 LP  0  0  0  0  0  0  0  0  0  0  0  0  # atno 17342 bound_to 10162
  139.8390  143.7590  152.3180 LP  0  0  0  0  0  0  0  0  0  0  0  0  # atno 17343 bound_to 10162
  156.2712  130.7018  151.1816 LP  0  0  0  0  0  0  0  0  0  0  0  0  # atno 17370 bound_to 10713
  157.7347  131.0579  150.5508 LP  0  0  0  0  0  0  0  0  0  0  0  0  # atno 17371 bound_to 10713
  140.9269  133.7606  155.9976 LP  0  0  0  0  0  0  0  0  0  0  0  0  # atno 17394 bound_to 11000
  140.8375  134.3105  157.5326 LP  0  0  0  0  0  0  0  0  0  0  0  0  # atno 17395 bound_to 11000

$$$$
