AV-unprocessed.smi:2057|AV-procd|sdf|8340|dock3
  -GOLD-   2272011 03D 1   1.00000     0.00000
 Structure written by MMmdl.
 44 46  0  0  0  0  0  0  0  0  1 V2000
  154.9213  136.7668  164.3440 C   0  0  0  0  0  0  0  0  0  0  0  0
  154.1892  137.4294  163.3233 O   0  0  0  0  0  0  0  0  0  0  0  0
  154.2967  136.9524  162.0347 C   0  0  0  0  0  0  0  0  0  0  0  0
  155.2515  135.9963  161.6161 C   0  0  0  0  0  0  0  0  0  0  0  0
  155.2820  135.5561  160.2800 C   0  0  0  0  0  0  0  0  0  0  0  0
  154.3638  136.0631  159.3272 C   0  0  0  0  0  0  0  0  0  0  0  0
  154.3351  135.6551  158.0086 O   0  0  0  0  0  0  0  0  0  0  0  0
  155.2720  134.6779  157.5811 C   0  0  0  0  0  0  0  0  0  0  0  0
  153.4174  137.0324  159.7394 C   0  0  0  0  0  0  0  0  0  0  0  0
  152.4109  137.5903  158.7370 C   0  0  2  0  0  0  0  0  0  0  0  0
  151.4006  136.6611  158.3907 O   0  0  0  0  0  0  0  0  0  0  0  0
  153.1220  138.0915  157.4641 C   0  0  0  0  0  0  0  0  0  0  0  0
  152.3564  139.1034  156.7494 N   0  0  0  0  0  0  0  0  0  0  0  0
  151.9512  139.0813  155.4548 C   0  0  0  0  0  0  0  0  0  0  0  0
  152.2706  137.9194  154.5563 C   0  0  0  0  0  0  0  0  0  0  0  0
  151.1325  137.2251  154.0869 O   0  0  0  0  0  0  0  0  0  0  0  0
  151.2522  140.1453  155.0523 N   0  0  0  0  0  0  0  0  0  0  0  0
  151.2020  140.9275  156.1891 C   0  0  0  0  0  0  0  0  0  0  0  0
  150.6007  142.1872  156.4117 C   0  0  0  0  0  0  0  0  0  0  0  0
  150.6813  142.8031  157.6779 C   0  0  0  0  0  0  0  0  0  0  0  0
  151.3625  142.1696  158.7375 C   0  0  0  0  0  0  0  0  0  0  0  0
  151.9669  140.9137  158.5374 C   0  0  0  0  0  0  0  0  0  0  0  0
  151.8838  140.3035  157.2715 C   0  0  0  0  0  0  0  0  0  0  0  0
  153.3876  137.4584  161.0866 C   0  0  0  0  0  0  0  0  0  0  0  0
  154.7293  137.2547  165.2994 H   0  0  0  0  0  0  0  0  0  0  0  0
  155.9953  136.8153  164.1591 H   0  0  0  0  0  0  0  0  0  0  0  0
  154.6172  135.7235  164.4400 H   0  0  0  0  0  0  0  0  0  0  0  0
  155.9712  135.5786  162.3036 H   0  0  0  0  0  0  0  0  0  0  0  0
  156.0244  134.8201  160.0121 H   0  0  0  0  0  0  0  0  0  0  0  0
  155.1040  134.4584  156.5270 H   0  0  0  0  0  0  0  0  0  0  0  0
  155.1558  133.7448  158.1341 H   0  0  0  0  0  0  0  0  0  0  0  0
  156.2974  135.0352  157.6840 H   0  0  0  0  0  0  0  0  0  0  0  0
  151.8862  138.4222  159.2065 H   0  0  0  0  0  0  0  0  0  0  0  0
  151.6912  136.1701  157.6374 H   0  0  0  0  0  0  0  0  0  0  0  0
  154.0977  138.5085  157.7151 H   0  0  0  0  0  0  0  0  0  0  0  0
  153.3183  137.2585  156.7877 H   0  0  0  0  0  0  0  0  0  0  0  0
  152.8324  138.2723  153.6922 H   0  0  0  0  0  0  0  0  0  0  0  0
  152.9069  137.2178  155.0961 H   0  0  0  0  0  0  0  0  0  0  0  0
  151.3319  136.8592  153.2390 H   0  0  0  0  0  0  0  0  0  0  0  0
  150.0766  142.6800  155.6064 H   0  0  0  0  0  0  0  0  0  0  0  0
  150.2190  143.7662  157.8368 H   0  0  0  0  0  0  0  0  0  0  0  0
  151.4217  142.6485  159.7038 H   0  0  0  0  0  0  0  0  0  0  0  0
  152.4915  140.4263  159.3458 H   0  0  0  0  0  0  0  0  0  0  0  0
  152.6536  138.1820  161.4095 H   0  0  0  0  0  0  0  0  0  0  0  0
  1  2  1  0  0  0  0
  1 25  1  0  0  0  0
  1 26  1  0  0  0  0
  1 27  1  0  0  0  0
  2  3  1  0  0  0  0
  3 24  1  0  0  0  0
  3  4  2  0  0  0  0
  4  5  1  0  0  0  0
  4 28  1  0  0  0  0
  5  6  2  0  0  0  0
  5 29  1  0  0  0  0
  6  7  1  0  0  0  0
  6  9  1  0  0  0  0
  7  8  1  0  0  0  0
  8 30  1  0  0  0  0
  8 31  1  0  0  0  0
  8 32  1  0  0  0  0
  9 10  1  0  0  0  0
  9 24  2  0  0  0  0
 10 11  1  0  0  0  0
 10 12  1  0  0  0  0
 10 33  1  0  0  0  0
 11 34  1  0  0  0  0
 12 13  1  0  0  0  0
 12 35  1  0  0  0  0
 12 36  1  0  0  0  0
 13 23  1  0  0  0  0
 13 14  1  0  0  0  0
 14 15  1  0  0  0  0
 14 17  2  0  0  0  0
 15 16  1  0  0  0  0
 15 37  1  0  0  0  0
 15 38  1  0  0  0  0
 16 39  1  0  0  0  0
 17 18  1  0  0  0  0
 18 23  2  0  0  0  0
 18 19  1  0  0  0  0
 19 20  2  0  0  0  0
 19 40  1  0  0  0  0
 20 21  1  0  0  0  0
 20 41  1  0  0  0  0
 21 22  2  0  0  0  0
 21 42  1  0  0  0  0
 22 23  1  0  0  0  0
 22 43  1  0  0  0  0
 24 44  1  0  0  0  0
M  END
> <s_m_source_file>
AV-unprocessed.smi

> <i_m_source_file_index>
2057

> <i_lp_mmshare_version>
43012

> <i_f3d_flags>
0

> <s_epik_input>
W0NIM11PYzFbY0hdW2NIXWMoT1tDSDNdKWMoW2NIXTEpW0NASF0oW09IXSlbQ0gyXW4oYyhuMilbQ0gyXVtPSF0pYyhjMjMpW2NIXVtjSF1bY0hdW2NIXTM=

> <s_epik_cmdline>
J2VwaWtfcHl0aG9uJywgJy1waCcsICc3LjAnLCAnLXRuJywgJzgnLCAnLW1hJywgJzIwMCcsICctbWV0YWxfYmluZGluZycsICctaW1hZScsICc8aW5maWxlLm1hZT4nLCAnLW9tYWUnLCAnPG91dGZpbGUubWFlPic=

> <r_lp_tautomer_probability>
1

> <r_epik_Ionization_Penalty>
0.0634722

> <r_epik_Ionization_Penalty_Charging>
0

> <r_epik_Ionization_Penalty_Neutral>
0.0634722

> <r_epik_State_Penalty>
0.0551572

> <r_epik_Charging_Adjusted_Penalty>
0.0551572

> <i_epik_Tot_Q>
0

> <i_epik_Tot_abs_Q>
0

> <r_epik_Metal_State_Penalty>
5.78034e-05

> <b_epik_Metal_Only>
0

> <s_lp_Force_Field>
OPLS_2005

> <r_lp_Energy>
18.6198

> <b_lp_Chiralities_Consistent>
1

> <s_lp_Variant>
AV-unprocessed.smi:2057-1

> <Gold.Version>
5.8.1

> <Gold.Id.Protein>
6NUR|6NUR_protein|mol2

> <Gold.PLP.Fitness>
44.5945

> <Gold.PLP.PLP>
-38.2620

> <Gold.PLP.part.hbond>
-3.4926

> <Gold.PLP.part.metal>
0.0000

> <Gold.PLP.part.buried>
-4.7375

> <Gold.PLP.part.nonpolar>
-31.5773

> <Gold.PLP.part.repulsive>
0.0543

> <Gold.PLP.ligand.clash>
0.0000

> <Gold.PLP.ligand.torsion>
0.5888

> <Gold.PLP.Chemscore.Hbond>
2.4904

> <Gold.PLP.Chemscore.CHOScore>
0.0000

> <Gold.PLP.Chemscore.Metal>
0.0000

> <Gold.Chemscore.Hbonds>
donor molecule, donor type, donor heavy atom, donor atom, acceptor molecule, acceptor atom, score
      L1  H    16    39       P1  7949  1.00
      P1  H  6896  6909       L1    11  0.51
      P1  H  7989  7998       L1    17  1.00

> <Gold.PLP.Chemscore.Internal.Correction>
0.0390

> <Gold.Rescore>
     Score         DG    S(hbond)    S(metal)    S(lipo)     H(rot)  DE(clash)    DE(int)     intcor
     13.85     -15.75       1.87        0.00     103.77       3.17       0.09       1.81       ----

> <Gold.Chemscore.Fitness>
13.8485

> <Gold.Chemscore.DG>
-15.7538

> <Gold.Chemscore.ZeroCoef>
-5.4800

> <Gold.Chemscore.Hbond>
1.8679

> <Gold.Chemscore.Metal>
0.0000

> <Gold.Chemscore.Lipo>
103.7707

> <Gold.Chemscore.Internal_Hbond>
0.0000

> <Gold.Chemscore.DEClash>
0.0947

> <Gold.Chemscore.DEInternal>
1.8106

> <Gold.Chemscore.Rot>
3.1665

> <Gold.Chemscore.Internal.Correction>
   9.000000E+99

> <Gold.Chemscore.Hbonds>
donor molecule, donor type, donor heavy atom, donor atom, acceptor molecule, acceptor atom, score
      L1  H    16    39       P1  7949  0.73
      P1  H  6896  6909       L1    11  0.11
      P1  H  7989  7998       L1    17  0.94

> <Gold.Chemscore.Hbond.Weighted>
-6.2389

> <Gold.Chemscore.Metal.Weighted>
-0.0000

> <Gold.Chemscore.Lipo.Weighted>
-12.1412

> <Gold.Chemscore.Internal_Hbond.Weighted>
0.0000

> <Gold.Chemscore.DEClash.Weighted>
0.0947

> <Gold.Chemscore.DEInternal.Weighted>
1.8106

> <Gold.Chemscore.Rot.Weighted>
8.1062

> <Gold.Chemscore.Internal.Correction.Weighted>
   9.000000E+99

> <Gold.Protein.RotatedTorsions>
[ 6907 6896 6895 6894 ] final  101.03 input  -60.11 | X-H torsion
[ 7974 7965 7964 7962 ] final   53.99 input  175.53 | X-H torsion
[ 8008 7997 7996 7995 ] final  -48.84 input   59.86 | X-H torsion
[ 10167 10162 10161 10158 ] final -155.95 input  -65.29 | X-H torsion
[ 10718 10713 10712 10709 ] final   98.47 input   66.30 | X-H torsion
[ 10763 10752 10751 10750 ] final  -97.56 input  -60.55 | X-H torsion
[ 11005 11000 10999 10996 ] final  -60.30 input  -57.11 | X-H torsion

> <Gold.Protein.ActiveResidues>
 VAL166  LYS551  ARG553  GLY616  TRP617  ASP618  TYR619  PRO620  LYS621  CYS622 
 ASP623  PHE694  ASN695  SER759  ASP760  ASP761  ALA762  ILE779  LEU786  VAL792 
 PHE793  MET794  SER795  GLU796  ALA797  LYS798  CYS799  TRP800  GLU811  SER814 

> <Gold.Protein.RotatedAtoms>
  152.5359  134.0188  159.7971 H   0  0  0  0  0  0  0  0  0  0  0  0  # atno 6907 bound_to 6896
  151.0377  133.5725  159.2661 H   0  0  0  0  0  0  0  0  0  0  0  0  # atno 6908 bound_to 6896
  151.2706  135.0691  159.9186 H   0  0  0  0  0  0  0  0  0  0  0  0  # atno 6909 bound_to 6896
  145.9655  139.4099  143.0222 H   0  0  0  0  0  0  0  0  0  0  0  0  # atno 7974 bound_to 7965
  154.4035  140.1311  156.4406 H   0  0  0  0  0  0  0  0  0  0  0  0  # atno 8008 bound_to 7997
  155.7463  140.3489  155.5108 H   0  0  0  0  0  0  0  0  0  0  0  0  # atno 8009 bound_to 7997
  155.8992  140.1016  157.1353 H   0  0  0  0  0  0  0  0  0  0  0  0  # atno 8010 bound_to 7997
  139.6890  143.9453  152.2375 H   0  0  0  0  0  0  0  0  0  0  0  0  # atno 10167 bound_to 10162
  157.6895  131.0641  150.4800 H   0  0  0  0  0  0  0  0  0  0  0  0  # atno 10718 bound_to 10713
  154.7339  135.5042  153.9008 H   0  0  0  0  0  0  0  0  0  0  0  0  # atno 10763 bound_to 10752
  153.0976  135.6676  153.9742 H   0  0  0  0  0  0  0  0  0  0  0  0  # atno 10764 bound_to 10752
  153.9537  135.3055  155.3416 H   0  0  0  0  0  0  0  0  0  0  0  0  # atno 10765 bound_to 10752
  141.1282  133.6621  156.5202 H   0  0  0  0  0  0  0  0  0  0  0  0  # atno 11005 bound_to 11000
  145.7980  140.9784  143.1014 LP  0  0  0  0  0  0  0  0  0  0  0  0  # atno 17320 bound_to 7965
  144.6824  139.9765  143.7483 LP  0  0  0  0  0  0  0  0  0  0  0  0  # atno 17321 bound_to 7965
  139.9264  144.6768  150.8408 LP  0  0  0  0  0  0  0  0  0  0  0  0  # atno 17342 bound_to 10162
  140.7676  143.3339  151.2351 LP  0  0  0  0  0  0  0  0  0  0  0  0  # atno 17343 bound_to 10162
  156.5133  130.4144  149.6289 LP  0  0  0  0  0  0  0  0  0  0  0  0  # atno 17370 bound_to 10713
  156.3221  130.7286  151.2200 LP  0  0  0  0  0  0  0  0  0  0  0  0  # atno 17371 bound_to 10713
  140.4298  134.7112  157.4936 LP  0  0  0  0  0  0  0  0  0  0  0  0  # atno 17394 bound_to 11000
  140.0302  134.6418  155.9118 LP  0  0  0  0  0  0  0  0  0  0  0  0  # atno 17395 bound_to 11000

$$$$
