AV-unprocessed.smi:2888|AV-procd|sdf|11106|dock9
  -GOLD-   2272015573D 1   1.00000     0.00000
 Structure written by MMmdl.
 34 36  0  0  0  0  0  0  0  0  2 V2000
  151.5314  138.3591  155.3234 C   0  0  0  0  0  0  0  0  0  0  0  0
  150.7226  139.6371  155.2506 C   0  0  0  0  0  0  0  0  0  0  0  0
  149.6328  139.7736  154.3734 C   0  0  0  0  0  0  0  0  0  0  0  0
  148.9559  141.0085  154.3939 C   0  0  0  0  0  0  0  0  0  0  0  0
  147.7684  141.2896  153.4980 C   0  0  0  0  0  0  0  0  0  0  0  0
  149.3640  141.9943  155.2318 N   0  3  0  0  0  0  0  0  0  0  0  0
  150.4151  141.7944  156.0418 C   0  0  0  0  0  0  0  0  0  0  0  0
  150.7885  142.8361  156.8717 N   0  0  0  0  0  0  0  0  0  0  0  0
  151.9060  142.7759  157.8069 C   0  0  2  0  0  0  0  0  0  0  0  0
  151.5483  142.1026  159.1344 C   0  0  0  0  0  0  0  0  0  0  0  0
  151.9872  143.1644  160.1532 C   0  0  2  0  0  0  0  0  0  0  0  0
  151.0053  144.3421  160.1951 C   0  0  0  0  0  0  0  0  0  0  0  0
  151.3119  145.0486  158.8758 C   0  0  0  0  0  0  0  0  0  0  0  0
  152.4123  144.1523  158.2817 C   0  0  1  0  0  0  0  0  0  0  0  0
  153.0777  143.7608  159.4704 O   0  0  0  0  0  0  0  0  0  0  0  0
  151.0988  140.6410  156.0677 N   0  0  0  0  0  0  0  0  0  0  0  0
  151.0964  137.5810  154.6956 H   0  0  0  0  0  0  0  0  0  0  0  0
  151.5661  137.9881  156.3482 H   0  0  0  0  0  0  0  0  0  0  0  0
  152.5531  138.5376  154.9868 H   0  0  0  0  0  0  0  0  0  0  0  0
  149.3302  138.9713  153.7157 H   0  0  0  0  0  0  0  0  0  0  0  0
  147.4490  140.3879  152.9748 H   0  0  0  0  0  0  0  0  0  0  0  0
  148.0263  142.0431  152.7535 H   0  0  0  0  0  0  0  0  0  0  0  0
  146.9260  141.6584  154.0839 H   0  0  0  0  0  0  0  0  0  0  0  0
  150.3659  143.7369  156.7010 H   0  0  0  0  0  0  0  0  0  0  0  0
  152.7272  142.2258  157.3451 H   0  0  0  0  0  0  0  0  0  0  0  0
  150.4902  141.8558  159.2339 H   0  0  0  0  0  0  0  0  0  0  0  0
  152.1216  141.1831  159.2581 H   0  0  0  0  0  0  0  0  0  0  0  0
  152.2356  142.7608  161.1353 H   0  0  0  0  0  0  0  0  0  0  0  0
  149.9677  144.0156  160.2714 H   0  0  0  0  0  0  0  0  0  0  0  0
  151.2198  144.9985  161.0393 H   0  0  0  0  0  0  0  0  0  0  0  0
  150.4390  145.1436  158.2297 H   0  0  0  0  0  0  0  0  0  0  0  0
  151.6977  146.0507  159.0657 H   0  0  0  0  0  0  0  0  0  0  0  0
  153.0538  144.6614  157.5616 H   0  0  0  0  0  0  0  0  0  0  0  0
  148.8650  142.8841  155.2350 H   0  0  0  0  0  0  0  0  0  0  0  0
  1  2  1  0  0  0  0
  1 17  1  0  0  0  0
  1 18  1  0  0  0  0
  1 19  1  0  0  0  0
  2 16  1  0  0  0  0
  2  3  2  0  0  0  0
  3  4  1  0  0  0  0
  3 20  1  0  0  0  0
  4  5  1  0  0  0  0
  4  6  2  0  0  0  0
  5 21  1  0  0  0  0
  5 22  1  0  0  0  0
  5 23  1  0  0  0  0
  6  7  1  0  0  0  0
  6 34  1  0  0  0  0
  7  8  1  0  0  0  0
  7 16  2  0  0  0  0
  8  9  1  0  0  0  0
  8 24  1  0  0  0  0
  9 14  1  0  0  0  0
  9 10  1  0  0  0  0
  9 25  1  0  0  0  0
 10 11  1  0  0  0  0
 10 26  1  0  0  0  0
 10 27  1  0  0  0  0
 11 15  1  0  0  0  0
 11 12  1  0  0  0  0
 11 28  1  0  0  0  0
 12 13  1  0  0  0  0
 12 29  1  0  0  0  0
 12 30  1  0  0  0  0
 13 14  1  0  0  0  0
 13 31  1  0  0  0  0
 13 32  1  0  0  0  0
 14 15  1  0  0  0  0
 14 33  1  0  0  0  0
M  CHG  1   6   1
M  END
> <s_m_source_file>
AV-unprocessed.smi

> <i_m_source_file_index>
2888

> <i_lp_mmshare_version>
43012

> <i_f3d_flags>
0

> <s_epik_input>
W0NIM11jMVtjSF1jKFtDSDNdKW5jKG4xKVtOSF1bQ0BIXShbQ0gyXVtDQEBIXTIzKVtDQEBIXShPMylbQ0gyXVtDSDJdMg==

> <s_epik_cmdline>
J2VwaWtfcHl0aG9uJywgJy1waCcsICc3LjAnLCAnLXRuJywgJzgnLCAnLW1hJywgJzIwMCcsICctbWV0YWxfYmluZGluZycsICctaW1hZScsICc8aW5maWxlLm1hZT4nLCAnLW9tYWUnLCAnPG91dGZpbGUubWFlPic=

> <r_lp_tautomer_probability>
0.505494

> <r_epik_Ionization_Penalty>
2.49163

> <r_epik_Ionization_Penalty_Charging>
2.49163

> <r_epik_Ionization_Penalty_Neutral>
3.7631e-06

> <r_epik_State_Penalty>
2.656

> <r_epik_Charging_Adjusted_Penalty>
5.14762

> <i_epik_Tot_Q>
1

> <i_epik_Tot_abs_Q>
1

> <r_epik_Metal_State_Penalty>
2.66479

> <b_epik_Metal_Only>
0

> <s_lp_Force_Field>
OPLS_2005

> <r_lp_Energy>
36.4538

> <b_lp_Chiralities_Consistent>
1

> <s_lp_Variant>
AV-unprocessed.smi:2888-7

> <Gold.Version>
5.8.1

> <Gold.Id.Protein>
6NUR|6NUR_protein|mol2

> <Gold.PLP.Fitness>
48.7858

> <Gold.PLP.PLP>
-38.0816

> <Gold.PLP.part.hbond>
-2.0000

> <Gold.PLP.part.metal>
0.0000

> <Gold.PLP.part.buried>
-6.2561

> <Gold.PLP.part.nonpolar>
-30.4647

> <Gold.PLP.part.repulsive>
0.2408

> <Gold.PLP.ligand.clash>
0.0000

> <Gold.PLP.ligand.torsion>
0.2923

> <Gold.PLP.Chemscore.Hbond>
3.7600

> <Gold.PLP.Chemscore.CHOScore>
0.0000

> <Gold.PLP.Chemscore.Metal>
0.0000

> <Gold.Chemscore.Hbonds>
donor molecule, donor type, donor heavy atom, donor atom, acceptor molecule, acceptor atom, score
      L1  H     6    34       P1  8028  1.95
      L1  H     8    24       P1  8028  1.75

> <Gold.PLP.Chemscore.Internal.Correction>
0.0087

> <Gold.Rescore>
     Score         DG    S(hbond)    S(metal)    S(lipo)     H(rot)  DE(clash)    DE(int)     intcor
     20.43     -20.85       1.80        0.00     101.76       1.00       0.20       0.21       ----

> <Gold.Chemscore.Fitness>
20.4267

> <Gold.Chemscore.DG>
-20.8460

> <Gold.Chemscore.ZeroCoef>
-5.4800

> <Gold.Chemscore.Hbond>
1.8025

> <Gold.Chemscore.Metal>
0.0000

> <Gold.Chemscore.Lipo>
101.7571

> <Gold.Chemscore.Internal_Hbond>
0.0000

> <Gold.Chemscore.DEClash>
0.2047

> <Gold.Chemscore.DEInternal>
0.2146

> <Gold.Chemscore.Rot>
1.0000

> <Gold.Chemscore.Internal.Correction>
   9.000000E+99

> <Gold.Chemscore.Hbonds>
donor molecule, donor type, donor heavy atom, donor atom, acceptor molecule, acceptor atom, score
      L1  H     6    34       P1  8028  0.93
      L1  H     8    24       P1  8028  0.80

> <Gold.Chemscore.Hbond.Weighted>
-6.0205

> <Gold.Chemscore.Metal.Weighted>
-0.0000

> <Gold.Chemscore.Lipo.Weighted>
-11.9056

> <Gold.Chemscore.Internal_Hbond.Weighted>
0.0000

> <Gold.Chemscore.DEClash.Weighted>
0.2047

> <Gold.Chemscore.DEInternal.Weighted>
0.2146

> <Gold.Chemscore.Rot.Weighted>
2.5600

> <Gold.Chemscore.Internal.Correction.Weighted>
   9.000000E+99

> <Gold.Protein.RotatedTorsions>
[ 6907 6896 6895 6894 ] final  120.07 input  -60.11 | X-H torsion
[ 7974 7965 7964 7962 ] final  -14.02 input  175.53 | X-H torsion
[ 8008 7997 7996 7995 ] final  113.68 input   59.86 | X-H torsion
[ 10167 10162 10161 10158 ] final -176.87 input  -65.29 | X-H torsion
[ 10718 10713 10712 10709 ] final -167.78 input   66.30 | X-H torsion
[ 10763 10752 10751 10750 ] final -141.25 input  -60.55 | X-H torsion
[ 11005 11000 10999 10996 ] final  163.44 input  -57.11 | X-H torsion

> <Gold.Protein.ActiveResidues>
 VAL166  LYS551  ARG553  GLY616  TRP617  ASP618  TYR619  PRO620  LYS621  CYS622 
 ASP623  PHE694  ASN695  SER759  ASP760  ASP761  ALA762  ILE779  LEU786  VAL792 
 PHE793  MET794  SER795  GLU796  ALA797  LYS798  CYS799  TRP800  GLU811  SER814 

> <Gold.Protein.RotatedAtoms>
  152.4425  133.7475  159.6675 H   0  0  0  0  0  0  0  0  0  0  0  0  # atno 6907 bound_to 6896
  150.8319  133.8067  159.3101 H   0  0  0  0  0  0  0  0  0  0  0  0  # atno 6908 bound_to 6896
  151.5718  135.1064  160.0048 H   0  0  0  0  0  0  0  0  0  0  0  0  # atno 6909 bound_to 6896
  146.2091  140.3287  142.8397 H   0  0  0  0  0  0  0  0  0  0  0  0  # atno 7974 bound_to 7965
  156.2274  140.2974  156.0101 H   0  0  0  0  0  0  0  0  0  0  0  0  # atno 8008 bound_to 7997
  155.2320  140.0419  157.2980 H   0  0  0  0  0  0  0  0  0  0  0  0  # atno 8009 bound_to 7997
  154.5938  140.2408  155.7893 H   0  0  0  0  0  0  0  0  0  0  0  0  # atno 8010 bound_to 7997
  139.5508  144.2115  152.1073 H   0  0  0  0  0  0  0  0  0  0  0  0  # atno 10167 bound_to 10162
  156.6873  130.9145  151.3064 H   0  0  0  0  0  0  0  0  0  0  0  0  # atno 10718 bound_to 10713
  154.8551  135.3530  154.5838 H   0  0  0  0  0  0  0  0  0  0  0  0  # atno 10763 bound_to 10752
  153.6448  135.6996  153.5234 H   0  0  0  0  0  0  0  0  0  0  0  0  # atno 10764 bound_to 10752
  153.2942  135.4226  155.1152 H   0  0  0  0  0  0  0  0  0  0  0  0  # atno 10765 bound_to 10752
  140.2358  134.8089  157.3362 H   0  0  0  0  0  0  0  0  0  0  0  0  # atno 11005 bound_to 11000
  144.8868  140.7472  143.5952 LP  0  0  0  0  0  0  0  0  0  0  0  0  # atno 17320 bound_to 7965
  145.3209  139.1789  143.4588 LP  0  0  0  0  0  0  0  0  0  0  0  0  # atno 17321 bound_to 7965
  140.1610  144.5026  150.6633 LP  0  0  0  0  0  0  0  0  0  0  0  0  # atno 17342 bound_to 10162
  140.6770  143.2309  151.5482 LP  0  0  0  0  0  0  0  0  0  0  0  0  # atno 17343 bound_to 10162
  157.7022  130.9345  150.0819 LP  0  0  0  0  0  0  0  0  0  0  0  0  # atno 17370 bound_to 10713
  156.1823  130.3650  149.9018 LP  0  0  0  0  0  0  0  0  0  0  0  0  # atno 17371 bound_to 10713
  140.1703  134.4617  155.7836 LP  0  0  0  0  0  0  0  0  0  0  0  0  # atno 17394 bound_to 11000
  141.2214  133.6939  156.7696 LP  0  0  0  0  0  0  0  0  0  0  0  0  # atno 17395 bound_to 11000

$$$$
