AV-unprocessed.smi:1308|AV-procd|sdf|5442|dock3
  -GOLD-   22720 5 13D 1   1.00000     0.00000
 Structure written by MMmdl.
 44 44  0  0  0  0  0  0  0  0  2 V2000
  143.7392  142.3707  157.9091 C   0  0  0  0  0  0  0  0  0  0  0  0
  144.8607  142.1392  156.9189 C   0  0  0  0  0  0  0  0  0  0  0  0
  144.9106  142.8459  155.8547 N   0  0  0  0  0  0  0  0  0  0  0  0
  145.9465  142.6316  154.9299 C   0  0  0  0  0  0  0  0  0  0  0  0
  145.9217  143.5079  153.6898 C   0  0  0  0  0  0  0  0  0  0  0  0
  146.9030  141.6848  155.1490 C   0  0  0  0  0  0  0  0  0  0  0  0
  148.0415  141.4023  154.1669 C   0  0  0  0  0  0  0  0  0  0  0  0
  149.4293  141.2210  154.7869 C   0  0  0  0  0  0  0  0  0  0  0  0
  150.1765  140.3369  154.3688 O   0  0  0  0  0  0  0  0  0  0  0  0
  149.7621  142.0719  155.7712 N   0  0  0  0  0  0  0  0  0  0  0  0
  151.0141  142.0802  156.5230 C   0  0  2  0  0  0  0  0  0  0  0  0
  151.2123  140.7036  157.1718 C   0  0  0  0  0  0  0  0  0  0  0  0
  151.0096  143.2084  157.5730 C   0  0  0  0  0  0  0  0  0  0  0  0
  152.1224  143.0749  158.6306 C   0  0  0  0  0  0  0  0  0  0  0  0
  151.7802  143.7155  159.9908 C   0  0  0  0  0  0  0  0  0  0  0  0
  151.8696  145.2506  159.9556 C   0  0  0  0  0  0  0  0  0  0  0  0
  152.6846  143.1514  161.0970 C   0  0  0  0  0  0  0  0  0  0  0  0
  146.8084  140.8901  156.3868 C   0  0  0  0  0  0  0  0  0  0  0  0
  147.6347  140.0097  156.6232 O   0  0  0  0  0  0  0  0  0  0  0  0
  145.7756  141.1601  157.2347 N   0  5  0  0  0  0  0  0  0  0  0  0
  142.9932  143.0562  157.5049 H   0  0  0  0  0  0  0  0  0  0  0  0
  144.1333  142.7977  158.8317 H   0  0  0  0  0  0  0  0  0  0  0  0
  143.2425  141.4295  158.1472 H   0  0  0  0  0  0  0  0  0  0  0  0
  146.8027  144.1490  153.6589 H   0  0  0  0  0  0  0  0  0  0  0  0
  145.0396  144.1492  153.6767 H   0  0  0  0  0  0  0  0  0  0  0  0
  145.9037  142.8972  152.7870 H   0  0  0  0  0  0  0  0  0  0  0  0
  147.7983  140.4991  153.6067 H   0  0  0  0  0  0  0  0  0  0  0  0
  148.1040  142.1854  153.4109 H   0  0  0  0  0  0  0  0  0  0  0  0
  149.0773  142.7679  156.0312 H   0  0  0  0  0  0  0  0  0  0  0  0
  151.8562  142.2450  155.8487 H   0  0  0  0  0  0  0  0  0  0  0  0
  152.1512  140.6607  157.7241 H   0  0  0  0  0  0  0  0  0  0  0  0
  151.2377  139.9159  156.4179 H   0  0  0  0  0  0  0  0  0  0  0  0
  150.4049  140.4720  157.8675 H   0  0  0  0  0  0  0  0  0  0  0  0
  151.0938  144.1693  157.0648 H   0  0  0  0  0  0  0  0  0  0  0  0
  150.0430  143.2145  158.0778 H   0  0  0  0  0  0  0  0  0  0  0  0
  152.3230  142.0135  158.7825 H   0  0  0  0  0  0  0  0  0  0  0  0
  153.0504  143.5051  158.2525 H   0  0  0  0  0  0  0  0  0  0  0  0
  150.7543  143.4452  160.2442 H   0  0  0  0  0  0  0  0  0  0  0  0
  152.8651  145.5828  159.6596 H   0  0  0  0  0  0  0  0  0  0  0  0
  151.6561  145.6773  160.9359 H   0  0  0  0  0  0  0  0  0  0  0  0
  151.1524  145.6805  159.2570 H   0  0  0  0  0  0  0  0  0  0  0  0
  153.7333  143.3819  160.9063 H   0  0  0  0  0  0  0  0  0  0  0  0
  152.5904  142.0675  161.1695 H   0  0  0  0  0  0  0  0  0  0  0  0
  152.4234  143.5677  162.0703 H   0  0  0  0  0  0  0  0  0  0  0  0
  1  2  1  0  0  0  0
  1 21  1  0  0  0  0
  1 22  1  0  0  0  0
  1 23  1  0  0  0  0
  2 20  1  0  0  0  0
  2  3  2  0  0  0  0
  3  4  1  0  0  0  0
  4  5  1  0  0  0  0
  4  6  2  0  0  0  0
  5 24  1  0  0  0  0
  5 25  1  0  0  0  0
  5 26  1  0  0  0  0
  6  7  1  0  0  0  0
  6 18  1  0  0  0  0
  7  8  1  0  0  0  0
  7 27  1  0  0  0  0
  7 28  1  0  0  0  0
  8  9  2  0  0  0  0
  8 10  1  0  0  0  0
 10 11  1  0  0  0  0
 10 29  1  0  0  0  0
 11 12  1  0  0  0  0
 11 13  1  0  0  0  0
 11 30  1  0  0  0  0
 12 31  1  0  0  0  0
 12 32  1  0  0  0  0
 12 33  1  0  0  0  0
 13 14  1  0  0  0  0
 13 34  1  0  0  0  0
 13 35  1  0  0  0  0
 14 15  1  0  0  0  0
 14 36  1  0  0  0  0
 14 37  1  0  0  0  0
 15 16  1  0  0  0  0
 15 17  1  0  0  0  0
 15 38  1  0  0  0  0
 16 39  1  0  0  0  0
 16 40  1  0  0  0  0
 16 41  1  0  0  0  0
 17 42  1  0  0  0  0
 17 43  1  0  0  0  0
 17 44  1  0  0  0  0
 18 19  2  0  0  0  0
 18 20  1  0  0  0  0
M  CHG  1  20  -1
M  END
> <s_m_source_file>
AV-unprocessed.smi

> <i_m_source_file_index>
1308

> <i_lp_mmshare_version>
43012

> <i_f3d_flags>
0

> <s_epik_input>
W0NIM11jMW5jKFtDSDNdKWMoYyg9TylbbkhdMSlbQ0gyXUMoPU8pW05IXVtDQEhdKFtDSDNdKVtDSDJdW0NIMl1bQ0hdKFtDSDNdKVtDSDNd

> <s_epik_cmdline>
J2VwaWtfcHl0aG9uJywgJy1waCcsICc3LjAnLCAnLXRuJywgJzgnLCAnLW1hJywgJzIwMCcsICctbWV0YWxfYmluZGluZycsICctaW1hZScsICc8aW5maWxlLm1hZT4nLCAnLW9tYWUnLCAnPG91dGZpbGUubWFlPic=

> <r_lp_tautomer_probability>
0.839158

> <r_epik_Ionization_Penalty>
6.61719

> <r_epik_Ionization_Penalty_Charging>
7.20681e-08

> <r_epik_Ionization_Penalty_Neutral>
6.61719

> <r_epik_State_Penalty>
4.43758

> <r_epik_Charging_Adjusted_Penalty>
4.43758

> <i_epik_Tot_Q>
-1

> <i_epik_Tot_abs_Q>
1

> <r_epik_Metal_State_Penalty>
0.801586

> <b_epik_Metal_Only>
1

> <s_lp_Force_Field>
OPLS_2005

> <r_lp_Energy>
8.43775

> <b_lp_Chiralities_Consistent>
1

> <s_lp_Variant>
AV-unprocessed.smi:1308-5

> <Gold.Version>
5.8.1

> <Gold.Id.Protein>
6NUR|6NUR_protein|mol2

> <Gold.PLP.Fitness>
43.3988

> <Gold.PLP.PLP>
-40.0222

> <Gold.PLP.part.hbond>
-2.0000

> <Gold.PLP.part.metal>
0.0000

> <Gold.PLP.part.buried>
-6.0172

> <Gold.PLP.part.nonpolar>
-32.9341

> <Gold.PLP.part.repulsive>
0.3836

> <Gold.PLP.ligand.clash>
0.0000

> <Gold.PLP.ligand.torsion>
0.8761

> <Gold.PLP.Chemscore.Hbond>
1.6800

> <Gold.PLP.Chemscore.CHOScore>
0.0000

> <Gold.PLP.Chemscore.Metal>
0.0000

> <Gold.Chemscore.Hbonds>
donor molecule, donor type, donor heavy atom, donor atom, acceptor molecule, acceptor atom, score
      L1  H    10    29       P1  8028  0.69
      P1  H  7989  7998       L1     9  0.96

> <Gold.PLP.Chemscore.Internal.Correction>
0.0887

> <Gold.Rescore>
     Score         DG    S(hbond)    S(metal)    S(lipo)     H(rot)  DE(clash)    DE(int)     intcor
     14.46     -17.09       1.60        0.00      95.38       1.91       0.08       2.54       ----

> <Gold.Chemscore.Fitness>
14.4625

> <Gold.Chemscore.DG>
-17.0878

> <Gold.Chemscore.ZeroCoef>
-5.4800

> <Gold.Chemscore.Hbond>
1.5995

> <Gold.Chemscore.Metal>
0.0000

> <Gold.Chemscore.Lipo>
95.3834

> <Gold.Chemscore.Internal_Hbond>
0.0000

> <Gold.Chemscore.DEClash>
0.0825

> <Gold.Chemscore.DEInternal>
2.5428

> <Gold.Chemscore.Rot>
1.9118

> <Gold.Chemscore.Internal.Correction>
   9.000000E+99

> <Gold.Chemscore.Hbonds>
donor molecule, donor type, donor heavy atom, donor atom, acceptor molecule, acceptor atom, score
      L1  H    10    29       P1  8028  0.66
      P1  H  7989  7998       L1     9  0.85

> <Gold.Chemscore.Hbond.Weighted>
-5.3422

> <Gold.Chemscore.Metal.Weighted>
-0.0000

> <Gold.Chemscore.Lipo.Weighted>
-11.1599

> <Gold.Chemscore.Internal_Hbond.Weighted>
0.0000

> <Gold.Chemscore.DEClash.Weighted>
0.0825

> <Gold.Chemscore.DEInternal.Weighted>
2.5428

> <Gold.Chemscore.Rot.Weighted>
4.8943

> <Gold.Chemscore.Internal.Correction.Weighted>
   9.000000E+99

> <Gold.Protein.RotatedTorsions>
[ 6907 6896 6895 6894 ] final   -7.58 input  -60.11 | X-H torsion
[ 7974 7965 7964 7962 ] final   91.65 input  175.53 | X-H torsion
[ 8008 7997 7996 7995 ] final   65.66 input   59.86 | X-H torsion
[ 10167 10162 10161 10158 ] final  -93.49 input  -65.29 | X-H torsion
[ 10718 10713 10712 10709 ] final  -33.03 input   66.30 | X-H torsion
[ 10763 10752 10751 10750 ] final  -26.96 input  -60.55 | X-H torsion
[ 11005 11000 10999 10996 ] final  151.24 input  -57.11 | X-H torsion

> <Gold.Protein.ActiveResidues>
 VAL166  LYS551  ARG553  GLY616  TRP617  ASP618  TYR619  PRO620  LYS621  CYS622 
 ASP623  PHE694  ASN695  SER759  ASP760  ASP761  ALA762  ILE779  LEU786  VAL792 
 PHE793  MET794  SER795  GLU796  ALA797  LYS798  CYS799  TRP800  GLU811  SER814 

> <Gold.Protein.RotatedAtoms>
  151.4473  135.1026  159.9687 H   0  0  0  0  0  0  0  0  0  0  0  0  # atno 6907 bound_to 6896
  152.4901  133.8473  159.7194 H   0  0  0  0  0  0  0  0  0  0  0  0  # atno 6908 bound_to 6896
  150.9046  133.7015  159.2897 H   0  0  0  0  0  0  0  0  0  0  0  0  # atno 6909 bound_to 6896
  145.5028  139.2276  143.2768 H   0  0  0  0  0  0  0  0  0  0  0  0  # atno 7974 bound_to 7965
  155.6652  140.3497  155.4797 H   0  0  0  0  0  0  0  0  0  0  0  0  # atno 8008 bound_to 7997
  155.9735  140.1160  157.0814 H   0  0  0  0  0  0  0  0  0  0  0  0  # atno 8009 bound_to 7997
  154.4172  140.1152  156.5325 H   0  0  0  0  0  0  0  0  0  0  0  0  # atno 8010 bound_to 7997
  140.3241  143.3032  152.0014 H   0  0  0  0  0  0  0  0  0  0  0  0  # atno 10167 bound_to 10162
  156.3676  130.4334  149.7572 H   0  0  0  0  0  0  0  0  0  0  0  0  # atno 10718 bound_to 10713
  153.7243  135.6943  153.5005 H   0  0  0  0  0  0  0  0  0  0  0  0  # atno 10763 bound_to 10752
  153.2181  135.4379  155.0457 H   0  0  0  0  0  0  0  0  0  0  0  0  # atno 10764 bound_to 10752
  154.8274  135.3453  154.6776 H   0  0  0  0  0  0  0  0  0  0  0  0  # atno 10765 bound_to 10752
  140.1201  134.8869  157.2060 H   0  0  0  0  0  0  0  0  0  0  0  0  # atno 11005 bound_to 11000
  146.2215  140.5829  142.9015 LP  0  0  0  0  0  0  0  0  0  0  0  0  # atno 17320 bound_to 7965
  144.7771  140.5762  143.6631 LP  0  0  0  0  0  0  0  0  0  0  0  0  # atno 17321 bound_to 7965
  139.4868  144.6288  151.7112 LP  0  0  0  0  0  0  0  0  0  0  0  0  # atno 17342 bound_to 10162
  140.5457  144.0507  150.6106 LP  0  0  0  0  0  0  0  0  0  0  0  0  # atno 17343 bound_to 10162
  156.4712  130.7997  151.3015 LP  0  0  0  0  0  0  0  0  0  0  0  0  # atno 17370 bound_to 10713
  157.7480  131.0035  150.3042 LP  0  0  0  0  0  0  0  0  0  0  0  0  # atno 17371 bound_to 10713
  140.2976  134.3168  155.7298 LP  0  0  0  0  0  0  0  0  0  0  0  0  # atno 17394 bound_to 11000
  141.2150  133.7572  156.9594 LP  0  0  0  0  0  0  0  0  0  0  0  0  # atno 17395 bound_to 11000

$$$$
