AV-unprocessed.smi:1401|AV-procd|sdf|5692|dock4
  -GOLD-   22720 5323D 1   1.00000     0.00000
 Structure written by MMmdl.
 48 50  0  0  0  0  0  0  0  0  1 V2000
  147.7916  136.7894  163.2661 C   0  0  0  0  0  0  0  0  0  0  0  0
  148.2407  136.1194  161.9952 C   0  0  0  0  0  0  0  0  0  0  0  0
  148.4097  136.8831  160.9664 N   0  0  0  0  0  0  0  0  0  0  0  0
  148.8225  136.3726  159.7509 N   0  0  0  0  0  0  0  0  0  0  0  0
  148.9425  137.3815  158.6878 C   0  0  0  0  0  0  0  0  0  0  0  0
  150.2428  138.1966  158.7561 C   0  0  0  0  0  0  0  0  0  0  0  0
  151.1526  137.8759  159.5223 O   0  0  0  0  0  0  0  0  0  0  0  0
  150.3136  139.2501  157.9276 N   0  0  0  0  0  0  0  0  0  0  0  0
  151.4431  140.1718  157.8123 C   0  0  2  0  0  0  0  0  0  0  0  0
  152.7406  139.3482  157.7282 C   0  0  0  0  0  0  0  0  0  0  0  0
  151.4314  141.1597  159.0055 C   0  0  2  0  0  0  0  0  0  0  0  0
  150.4515  142.3465  158.8209 C   0  0  0  0  0  0  0  0  0  0  0  0
  151.3382  143.5816  159.0564 C   0  0  1  0  0  0  0  0  0  0  0  0
  151.7408  143.6536  160.5404 C   0  0  0  0  0  0  0  0  0  0  0  0
  152.7568  142.5036  160.6699 C   0  0  0  0  0  0  0  0  0  0  0  0
  152.7711  141.9001  159.2520 C   0  0  2  0  0  0  0  0  0  0  0  0
  152.6385  143.1528  158.3914 C   0  0  0  0  0  0  0  0  0  0  0  0
  149.1021  135.0580  159.5153 C   0  0  0  0  0  0  0  0  0  0  0  0
  149.4813  134.6477  158.4173 O   0  0  0  0  0  0  0  0  0  0  0  0
  148.9052  134.1980  160.6843 C   0  0  0  0  0  0  0  0  0  0  0  0
  149.1850  132.8131  160.4813 C   0  0  0  0  0  0  0  0  0  0  0  0
  149.3939  131.6849  160.3265 N   0  0  0  0  0  0  0  0  0  0  0  0
  148.4870  134.6854  161.8792 C   0  0  0  0  0  0  0  0  0  0  0  0
  148.2702  133.8317  163.1210 C   0  0  0  0  0  0  0  0  0  0  0  0
  148.4472  136.5278  164.0970 H   0  0  0  0  0  0  0  0  0  0  0  0
  146.7774  136.4843  163.5251 H   0  0  0  0  0  0  0  0  0  0  0  0
  147.7965  137.8768  163.1757 H   0  0  0  0  0  0  0  0  0  0  0  0
  148.8949  136.9031  157.7078 H   0  0  0  0  0  0  0  0  0  0  0  0
  148.0890  138.0613  158.7214 H   0  0  0  0  0  0  0  0  0  0  0  0
  149.5198  139.4329  157.3311 H   0  0  0  0  0  0  0  0  0  0  0  0
  151.3469  140.7486  156.8911 H   0  0  0  0  0  0  0  0  0  0  0  0
  153.6120  139.9780  157.5540 H   0  0  0  0  0  0  0  0  0  0  0  0
  152.6966  138.6330  156.9061 H   0  0  0  0  0  0  0  0  0  0  0  0
  152.9139  138.7859  158.6463 H   0  0  0  0  0  0  0  0  0  0  0  0
  151.1566  140.5999  159.9012 H   0  0  0  0  0  0  0  0  0  0  0  0
  150.0434  142.3766  157.8096 H   0  0  0  0  0  0  0  0  0  0  0  0
  149.6101  142.3010  159.5133 H   0  0  0  0  0  0  0  0  0  0  0  0
  150.9085  144.5077  158.6737 H   0  0  0  0  0  0  0  0  0  0  0  0
  152.2125  144.6095  160.7712 H   0  0  0  0  0  0  0  0  0  0  0  0
  150.8855  143.5317  161.2059 H   0  0  0  0  0  0  0  0  0  0  0  0
  153.7414  142.8923  160.9329 H   0  0  0  0  0  0  0  0  0  0  0  0
  152.4721  141.7775  161.4320 H   0  0  0  0  0  0  0  0  0  0  0  0
  153.6645  141.3086  159.0573 H   0  0  0  0  0  0  0  0  0  0  0  0
  152.5326  142.9438  157.3257 H   0  0  0  0  0  0  0  0  0  0  0  0
  153.4526  143.8654  158.5355 H   0  0  0  0  0  0  0  0  0  0  0  0
  148.2889  132.7663  162.8932 H   0  0  0  0  0  0  0  0  0  0  0  0
  147.3037  134.0442  163.5787 H   0  0  0  0  0  0  0  0  0  0  0  0
  149.0513  134.0291  163.8558 H   0  0  0  0  0  0  0  0  0  0  0  0
  1  2  1  0  0  0  0
  1 25  1  0  0  0  0
  1 26  1  0  0  0  0
  1 27  1  0  0  0  0
  2 23  1  0  0  0  0
  2  3  2  0  0  0  0
  3  4  1  0  0  0  0
  4  5  1  0  0  0  0
  4 18  1  0  0  0  0
  5  6  1  0  0  0  0
  5 28  1  0  0  0  0
  5 29  1  0  0  0  0
  6  7  2  0  0  0  0
  6  8  1  0  0  0  0
  8  9  1  0  0  0  0
  8 30  1  0  0  0  0
  9 10  1  0  0  0  0
  9 11  1  0  0  0  0
  9 31  1  0  0  0  0
 10 32  1  0  0  0  0
 10 33  1  0  0  0  0
 10 34  1  0  0  0  0
 11 16  1  0  0  0  0
 11 12  1  0  0  0  0
 11 35  1  0  0  0  0
 12 13  1  0  0  0  0
 12 36  1  0  0  0  0
 12 37  1  0  0  0  0
 13 17  1  0  0  0  0
 13 14  1  0  0  0  0
 13 38  1  0  0  0  0
 14 15  1  0  0  0  0
 14 39  1  0  0  0  0
 14 40  1  0  0  0  0
 15 16  1  0  0  0  0
 15 41  1  0  0  0  0
 15 42  1  0  0  0  0
 16 17  1  0  0  0  0
 16 43  1  0  0  0  0
 17 44  1  0  0  0  0
 17 45  1  0  0  0  0
 18 19  2  0  0  0  0
 18 20  1  0  0  0  0
 20 21  1  0  0  0  0
 20 23  2  0  0  0  0
 21 22  3  0  0  0  0
 23 24  1  0  0  0  0
 24 46  1  0  0  0  0
 24 47  1  0  0  0  0
 24 48  1  0  0  0  0
M  END
> <s_m_source_file>
AV-unprocessed.smi

> <i_m_source_file_index>
1401

> <i_lp_mmshare_version>
43012

> <i_f3d_flags>
0

> <s_epik_input>
TiNDYyhjMVtDSDNdKWMoPU8pbihuYzFbQ0gzXSlbQ0gyXUMoPU8pW05IXVtDQEhdKFtDSDNdKVtDQEhdKFtDSDJdW0NASF0yMylbQ0BIXShbQ0gyXTMpW0NIMl1bQ0gyXTI=

> <s_epik_cmdline>
J2VwaWtfcHl0aG9uJywgJy1waCcsICc3LjAnLCAnLXRuJywgJzgnLCAnLW1hJywgJzIwMCcsICctbWV0YWxfYmluZGluZycsICctaW1hZScsICc8aW5maWxlLm1hZT4nLCAnLW9tYWUnLCAnPG91dGZpbGUubWFlPic=

> <r_lp_tautomer_probability>
1

> <r_epik_Ionization_Penalty>
2.16501e-08

> <r_epik_Ionization_Penalty_Charging>
2.29436e-11

> <r_epik_Ionization_Penalty_Neutral>
2.16271e-08

> <r_epik_State_Penalty>
-0

> <r_epik_Charging_Adjusted_Penalty>
2.29436e-11

> <i_epik_Tot_Q>
0

> <i_epik_Tot_abs_Q>
0

> <r_epik_Metal_State_Penalty>
-0

> <b_epik_Metal_Only>
0

> <s_lp_Force_Field>
OPLS_2005

> <r_lp_Energy>
66.5869

> <b_lp_Chiralities_Consistent>
1

> <s_lp_Variant>
AV-unprocessed.smi:1401-5

> <Gold.Version>
5.8.1

> <Gold.Id.Protein>
6NUR|6NUR_protein|mol2

> <Gold.PLP.Fitness>
49.2981

> <Gold.PLP.PLP>
-44.4786

> <Gold.PLP.part.hbond>
-4.0000

> <Gold.PLP.part.metal>
0.0000

> <Gold.PLP.part.buried>
-3.3819

> <Gold.PLP.part.nonpolar>
-37.8552

> <Gold.PLP.part.repulsive>
0.0965

> <Gold.PLP.ligand.clash>
0.0000

> <Gold.PLP.ligand.torsion>
0.9347

> <Gold.PLP.Chemscore.Hbond>
2.2208

> <Gold.PLP.Chemscore.CHOScore>
0.0000

> <Gold.PLP.Chemscore.Metal>
0.0000

> <Gold.Chemscore.Hbonds>
donor molecule, donor type, donor heavy atom, donor atom, acceptor molecule, acceptor atom, score
      P1  H  6896  6907       L1    19  0.05
      P1  H  6931  6943       L1     3  0.75

> <Gold.PLP.Chemscore.Internal.Correction>
0.0265

> <Gold.Rescore>
     Score         DG    S(hbond)    S(metal)    S(lipo)     H(rot)  DE(clash)    DE(int)     intcor
     17.64     -20.25       1.34        0.00     123.69       1.63       0.57       2.03       ----

> <Gold.Chemscore.Fitness>
17.6430

> <Gold.Chemscore.DG>
-20.2467

> <Gold.Chemscore.ZeroCoef>
-5.4800

> <Gold.Chemscore.Hbond>
1.3361

> <Gold.Chemscore.Metal>
0.0000

> <Gold.Chemscore.Lipo>
123.6932

> <Gold.Chemscore.Internal_Hbond>
0.0000

> <Gold.Chemscore.DEClash>
0.5702

> <Gold.Chemscore.DEInternal>
2.0336

> <Gold.Chemscore.Rot>
1.6281

> <Gold.Chemscore.Internal.Correction>
   9.000000E+99

> <Gold.Chemscore.Hbonds>
donor molecule, donor type, donor heavy atom, donor atom, acceptor molecule, acceptor atom, score
      P1  H  6931  6943       L1     3  0.09
      P1  H  6934  6947       L1     3  0.02

> <Gold.Chemscore.Hbond.Weighted>
-4.4624

> <Gold.Chemscore.Metal.Weighted>
-0.0000

> <Gold.Chemscore.Lipo.Weighted>
-14.4721

> <Gold.Chemscore.Internal_Hbond.Weighted>
0.0000

> <Gold.Chemscore.DEClash.Weighted>
0.5702

> <Gold.Chemscore.DEInternal.Weighted>
2.0336

> <Gold.Chemscore.Rot.Weighted>
4.1678

> <Gold.Chemscore.Internal.Correction.Weighted>
   9.000000E+99

> <Gold.Protein.RotatedTorsions>
[ 6907 6896 6895 6894 ] final -103.90 input  -60.11 | X-H torsion
[ 7974 7965 7964 7962 ] final  112.96 input  175.53 | X-H torsion
[ 8008 7997 7996 7995 ] final -149.47 input   59.86 | X-H torsion
[ 10167 10162 10161 10158 ] final   11.96 input  -65.29 | X-H torsion
[ 10718 10713 10712 10709 ] final  132.05 input   66.30 | X-H torsion
[ 10763 10752 10751 10750 ] final   53.43 input  -60.55 | X-H torsion
[ 11005 11000 10999 10996 ] final  111.09 input  -57.11 | X-H torsion

> <Gold.Protein.ActiveResidues>
 VAL166  LYS551  ARG553  GLY616  TRP617  ASP618  TYR619  PRO620  LYS621  CYS622 
 ASP623  PHE694  ASN695  SER759  ASP760  ASP761  ALA762  ILE779  LEU786  VAL792 
 PHE793  MET794  SER795  GLU796  ALA797  LYS798  CYS799  TRP800  GLU811  SER814 

> <Gold.Protein.RotatedAtoms>
  150.7262  134.0359  159.3748 H   0  0  0  0  0  0  0  0  0  0  0  0  # atno 6907 bound_to 6896
  151.8331  135.0613  160.0448 H   0  0  0  0  0  0  0  0  0  0  0  0  # atno 6908 bound_to 6896
  152.2919  133.5533  159.5599 H   0  0  0  0  0  0  0  0  0  0  0  0  # atno 6909 bound_to 6896
  145.2229  139.2854  143.4208 H   0  0  0  0  0  0  0  0  0  0  0  0  # atno 7974 bound_to 7965
  155.6081  140.0669  157.2714 H   0  0  0  0  0  0  0  0  0  0  0  0  # atno 8008 bound_to 7997
  154.4261  140.1806  156.1291 H   0  0  0  0  0  0  0  0  0  0  0  0  # atno 8009 bound_to 7997
  156.0106  140.3327  155.6941 H   0  0  0  0  0  0  0  0  0  0  0  0  # atno 8010 bound_to 7997
  140.6099  143.8430  150.7054 H   0  0  0  0  0  0  0  0  0  0  0  0  # atno 10167 bound_to 10162
  157.4908  131.1090  150.9559 H   0  0  0  0  0  0  0  0  0  0  0  0  # atno 10718 bound_to 10713
  152.9795  135.5779  154.4739 H   0  0  0  0  0  0  0  0  0  0  0  0  # atno 10763 bound_to 10752
  154.4298  135.2773  155.1922 H   0  0  0  0  0  0  0  0  0  0  0  0  # atno 10764 bound_to 10752
  154.3635  135.6183  153.5757 H   0  0  0  0  0  0  0  0  0  0  0  0  # atno 10765 bound_to 10752
  139.8896  134.9499  156.6378 H   0  0  0  0  0  0  0  0  0  0  0  0  # atno 11005 bound_to 11000
  146.3371  140.2541  142.8599 LP  0  0  0  0  0  0  0  0  0  0  0  0  # atno 17320 bound_to 7965
  144.9748  140.8403  143.5433 LP  0  0  0  0  0  0  0  0  0  0  0  0  # atno 17321 bound_to 7965
  140.1996  143.3970  152.1802 LP  0  0  0  0  0  0  0  0  0  0  0  0  # atno 17342 bound_to 10162
  139.5353  144.7203  151.4915 LP  0  0  0  0  0  0  0  0  0  0  0  0  # atno 17343 bound_to 10162
  157.0261  130.5693  149.5337 LP  0  0  0  0  0  0  0  0  0  0  0  0  # atno 17370 bound_to 10713
  156.0172  130.5267  150.8171 LP  0  0  0  0  0  0  0  0  0  0  0  0  # atno 17371 bound_to 10713
  140.7617  133.8812  155.8423 LP  0  0  0  0  0  0  0  0  0  0  0  0  # atno 17394 bound_to 11000
  140.9917  134.1270  157.4402 LP  0  0  0  0  0  0  0  0  0  0  0  0  # atno 17395 bound_to 11000

$$$$
