AV-unprocessed.smi:2988|AV-procd|sdf|11388|dock7
  -GOLD-   2272016313D 1   1.00000     0.00000
 Structure written by MMmdl.
 37 38  0  0  0  0  0  0  0  0  1 V2000
  150.9097  141.0726  156.2272 C   0  0  0  0  0  0  0  0  0  0  0  0
  150.7672  139.8708  155.2770 C   0  0  1  0  0  0  0  0  0  0  0  0
  152.1011  139.1067  155.1314 C   0  0  0  0  0  0  0  0  0  0  0  0
  151.9773  137.9323  154.1473 C   0  0  0  0  0  0  0  0  0  0  0  0
  150.8394  136.9812  154.5476 C   0  0  0  0  0  0  0  0  0  0  0  0
  149.5073  137.7376  154.6948 C   0  0  0  0  0  0  0  0  0  0  0  0
  149.6170  138.9170  155.6856 C   0  0  1  0  0  0  0  0  0  0  0  0
  149.8221  138.4260  157.0450 N   0  0  0  0  0  0  0  0  0  0  0  0
  149.0242  137.5906  157.7297 C   0  0  0  0  0  0  0  0  0  0  0  0
  147.9629  137.1595  157.2811 O   0  0  0  0  0  0  0  0  0  0  0  0
  149.4859  137.1556  159.1325 C   0  0  0  0  0  0  0  0  0  0  0  0
  148.5348  136.2833  159.8442 N   0  0  0  0  0  0  0  0  0  0  0  0
  147.9726  136.8625  160.9685 N   0  0  0  0  0  0  0  0  0  0  0  0
  147.1728  136.1717  161.7055 C   0  0  0  0  0  0  0  0  0  0  0  0
  146.8338  134.7998  161.3981 C   0  0  0  0  0  0  0  0  0  0  0  0
  145.7621  133.9197  162.4296 Cl  0  0  0  0  0  0  0  0  0  0  0  0
  147.3804  134.2452  160.2870 C   0  0  0  0  0  0  0  0  0  0  0  0
  147.0275  132.6068  159.8571 Cl  0  0  0  0  0  0  0  0  0  0  0  0
  148.2922  135.0041  159.4205 C   0  0  0  0  0  0  0  0  0  0  0  0
  148.8156  134.5342  158.4096 O   0  0  0  0  0  0  0  0  0  0  0  0
  151.2106  140.7639  157.2290 H   0  0  0  0  0  0  0  0  0  0  0  0
  149.9691  141.6170  156.3141 H   0  0  0  0  0  0  0  0  0  0  0  0
  151.6612  141.7722  155.8604 H   0  0  0  0  0  0  0  0  0  0  0  0
  150.5163  140.2746  154.2950 H   0  0  0  0  0  0  0  0  0  0  0  0
  152.8827  139.7851  154.7883 H   0  0  0  0  0  0  0  0  0  0  0  0
  152.4273  138.7339  156.1036 H   0  0  0  0  0  0  0  0  0  0  0  0
  151.7941  138.3166  153.1430 H   0  0  0  0  0  0  0  0  0  0  0  0
  152.9194  137.3853  154.1014 H   0  0  0  0  0  0  0  0  0  0  0  0
  150.7369  136.1917  153.8026 H   0  0  0  0  0  0  0  0  0  0  0  0
  151.0898  136.4847  155.4860 H   0  0  0  0  0  0  0  0  0  0  0  0
  149.2031  138.1176  153.7189 H   0  0  0  0  0  0  0  0  0  0  0  0
  148.7215  137.0486  155.0067 H   0  0  0  0  0  0  0  0  0  0  0  0
  148.6816  139.4793  155.6609 H   0  0  0  0  0  0  0  0  0  0  0  0
  150.6703  138.7288  157.5012 H   0  0  0  0  0  0  0  0  0  0  0  0
  150.4476  136.6503  159.0267 H   0  0  0  0  0  0  0  0  0  0  0  0
  149.6933  138.0479  159.7257 H   0  0  0  0  0  0  0  0  0  0  0  0
  146.7101  136.5840  162.6024 H   0  0  0  0  0  0  0  0  0  0  0  0
  1  2  1  0  0  0  0
  1 21  1  0  0  0  0
  1 22  1  0  0  0  0
  1 23  1  0  0  0  0
  2  7  1  0  0  0  0
  2  3  1  0  0  0  0
  2 24  1  0  0  0  0
  3  4  1  0  0  0  0
  3 25  1  0  0  0  0
  3 26  1  0  0  0  0
  4  5  1  0  0  0  0
  4 27  1  0  0  0  0
  4 28  1  0  0  0  0
  5  6  1  0  0  0  0
  5 29  1  0  0  0  0
  5 30  1  0  0  0  0
  6  7  1  0  0  0  0
  6 31  1  0  0  0  0
  6 32  1  0  0  0  0
  7  8  1  0  0  0  0
  7 33  1  0  0  0  0
  8  9  1  0  0  0  0
  8 34  1  0  0  0  0
  9 10  2  0  0  0  0
  9 11  1  0  0  0  0
 11 12  1  0  0  0  0
 11 35  1  0  0  0  0
 11 36  1  0  0  0  0
 12 19  1  0  0  0  0
 12 13  1  0  0  0  0
 13 14  2  0  0  0  0
 14 15  1  0  0  0  0
 14 37  1  0  0  0  0
 15 16  1  0  0  0  0
 15 17  2  0  0  0  0
 17 18  1  0  0  0  0
 17 19  1  0  0  0  0
 19 20  2  0  0  0  0
M  END
> <s_m_source_file>
AV-unprocessed.smi

> <i_m_source_file_index>
2988

> <i_lp_mmshare_version>
43012

> <i_f3d_flags>
0

> <s_epik_input>
W0NIM11bQ0BASF0xW0NIMl1bQ0gyXVtDSDJdW0NIMl1bQ0BIXTFbTkhdQyg9TylbQ0gyXW4ybltjSF1jKENsKWMoQ2wpYzI9Tw==

> <s_epik_cmdline>
J2VwaWtfcHl0aG9uJywgJy1waCcsICc3LjAnLCAnLXRuJywgJzgnLCAnLW1hJywgJzIwMCcsICctbWV0YWxfYmluZGluZycsICctaW1hZScsICc8aW5maWxlLm1hZT4nLCAnLW9tYWUnLCAnPG91dGZpbGUubWFlPic=

> <r_lp_tautomer_probability>
1

> <r_epik_Ionization_Penalty>
1.90782e-08

> <r_epik_Ionization_Penalty_Charging>
3.13143e-11

> <r_epik_Ionization_Penalty_Neutral>
1.90469e-08

> <r_epik_State_Penalty>
-0

> <r_epik_Charging_Adjusted_Penalty>
3.13143e-11

> <i_epik_Tot_Q>
0

> <i_epik_Tot_abs_Q>
0

> <r_epik_Metal_State_Penalty>
-0

> <b_epik_Metal_Only>
0

> <s_lp_Force_Field>
OPLS_2005

> <r_lp_Energy>
22.2561

> <b_lp_Chiralities_Consistent>
1

> <s_lp_Variant>
AV-unprocessed.smi:2988-2

> <Gold.Version>
5.8.1

> <Gold.Id.Protein>
6NUR|6NUR_protein|mol2

> <Gold.PLP.Fitness>
42.6052

> <Gold.PLP.PLP>
-34.4485

> <Gold.PLP.part.hbond>
-3.0000

> <Gold.PLP.part.metal>
0.0000

> <Gold.PLP.part.buried>
-2.0425

> <Gold.PLP.part.nonpolar>
-29.6019

> <Gold.PLP.part.repulsive>
0.0168

> <Gold.PLP.ligand.clash>
0.0000

> <Gold.PLP.ligand.torsion>
0.0657

> <Gold.PLP.Chemscore.Hbond>
2.7600

> <Gold.PLP.Chemscore.CHOScore>
0.0000

> <Gold.PLP.Chemscore.Metal>
0.0000

> <Gold.Chemscore.Hbonds>
donor molecule, donor type, donor heavy atom, donor atom, acceptor molecule, acceptor atom, score
      P1  H  6896  6909       L1    20  0.51
      P1  H  6931  6943       L1    13  1.00
      P1  H  6934  6947       L1    13  0.28

> <Gold.PLP.Chemscore.Internal.Correction>
0.0080

> <Gold.Rescore>
     Score         DG    S(hbond)    S(metal)    S(lipo)     H(rot)  DE(clash)    DE(int)     intcor
     17.31     -17.48       1.92        0.00      80.45       1.50       0.00       0.16       ----

> <Gold.Chemscore.Fitness>
17.3124

> <Gold.Chemscore.DG>
-17.4819

> <Gold.Chemscore.ZeroCoef>
-5.4800

> <Gold.Chemscore.Hbond>
1.9231

> <Gold.Chemscore.Metal>
0.0000

> <Gold.Chemscore.Lipo>
80.4521

> <Gold.Chemscore.Internal_Hbond>
0.0000

> <Gold.Chemscore.DEClash>
0.0048

> <Gold.Chemscore.DEInternal>
0.1647

> <Gold.Chemscore.Rot>
1.4977

> <Gold.Chemscore.Internal.Correction>
   9.000000E+99

> <Gold.Chemscore.Hbonds>
donor molecule, donor type, donor heavy atom, donor atom, acceptor molecule, acceptor atom, score
      P1  H  6896  6909       L1    20  0.03
      P1  H  6931  6943       L1    13  0.83
      P1  H  6934  6947       L1    13  0.17

> <Gold.Chemscore.Hbond.Weighted>
-6.4231

> <Gold.Chemscore.Metal.Weighted>
-0.0000

> <Gold.Chemscore.Lipo.Weighted>
-9.4129

> <Gold.Chemscore.Internal_Hbond.Weighted>
0.0000

> <Gold.Chemscore.DEClash.Weighted>
0.0048

> <Gold.Chemscore.DEInternal.Weighted>
0.1647

> <Gold.Chemscore.Rot.Weighted>
3.8341

> <Gold.Chemscore.Internal.Correction.Weighted>
   9.000000E+99

> <Gold.Protein.RotatedTorsions>
[ 6907 6896 6895 6894 ] final   28.00 input  -60.11 | X-H torsion
[ 7974 7965 7964 7962 ] final   36.44 input  175.53 | X-H torsion
[ 8008 7997 7996 7995 ] final -102.22 input   59.86 | X-H torsion
[ 10167 10162 10161 10158 ] final -174.47 input  -65.29 | X-H torsion
[ 10718 10713 10712 10709 ] final  117.92 input   66.30 | X-H torsion
[ 10763 10752 10751 10750 ] final   91.45 input  -60.55 | X-H torsion
[ 11005 11000 10999 10996 ] final  -41.56 input  -57.11 | X-H torsion

> <Gold.Protein.ActiveResidues>
 VAL166  LYS551  ARG553  GLY616  TRP617  ASP618  TYR619  PRO620  LYS621  CYS622 
 ASP623  PHE694  ASN695  SER759  ASP760  ASP761  ALA762  ILE779  LEU786  VAL792 
 PHE793  MET794  SER795  GLU796  ALA797  LYS798  CYS799  TRP800  GLU811  SER814 

> <Gold.Protein.RotatedAtoms>
  152.0105  134.9879  160.0567 H   0  0  0  0  0  0  0  0  0  0  0  0  # atno 6907 bound_to 6896
  152.1433  133.4472  159.4786 H   0  0  0  0  0  0  0  0  0  0  0  0  # atno 6908 bound_to 6896
  150.6867  134.2196  159.4435 H   0  0  0  0  0  0  0  0  0  0  0  0  # atno 6909 bound_to 6896
  146.1211  139.6017  142.9289 H   0  0  0  0  0  0  0  0  0  0  0  0  # atno 7974 bound_to 7965
  154.8536  140.0429  157.1620 H   0  0  0  0  0  0  0  0  0  0  0  0  # atno 8008 bound_to 7997
  154.8916  140.2987  155.5347 H   0  0  0  0  0  0  0  0  0  0  0  0  # atno 8009 bound_to 7997
  156.2997  140.2392  156.3932 H   0  0  0  0  0  0  0  0  0  0  0  0  # atno 8010 bound_to 7997
  139.5632  144.1819  152.1271 H   0  0  0  0  0  0  0  0  0  0  0  0  # atno 10167 bound_to 10162
  157.6065  131.1042  150.7682 H   0  0  0  0  0  0  0  0  0  0  0  0  # atno 10718 bound_to 10713
  153.2084  135.4397  155.0350 H   0  0  0  0  0  0  0  0  0  0  0  0  # atno 10763 bound_to 10752
  154.8186  135.3327  154.7106 H   0  0  0  0  0  0  0  0  0  0  0  0  # atno 10764 bound_to 10752
  153.7546  135.6996  153.4994 H   0  0  0  0  0  0  0  0  0  0  0  0  # atno 10765 bound_to 10752
  141.0254  133.6844  156.2473 H   0  0  0  0  0  0  0  0  0  0  0  0  # atno 11005 bound_to 11000
  145.5464  141.0417  143.2302 LP  0  0  0  0  0  0  0  0  0  0  0  0  # atno 17320 bound_to 7965
  144.7598  139.6985  143.7239 LP  0  0  0  0  0  0  0  0  0  0  0  0  # atno 17321 bound_to 7965
  140.1337  144.5265  150.6787 LP  0  0  0  0  0  0  0  0  0  0  0  0  # atno 17342 bound_to 10162
  140.6913  143.2378  151.5122 LP  0  0  0  0  0  0  0  0  0  0  0  0  # atno 17343 bound_to 10162
  156.8069  130.4939  149.5361 LP  0  0  0  0  0  0  0  0  0  0  0  0  # atno 17370 bound_to 10713
  156.1153  130.6070  151.0111 LP  0  0  0  0  0  0  0  0  0  0  0  0  # atno 17371 bound_to 10713
  140.6500  134.5077  157.5576 LP  0  0  0  0  0  0  0  0  0  0  0  0  # atno 17394 bound_to 11000
  139.9172  134.8221  156.1326 LP  0  0  0  0  0  0  0  0  0  0  0  0  # atno 17395 bound_to 11000

$$$$
