AV-unprocessed.smi:581|AV-procd|sdf|2992|dock2
  -GOLD-   2262023493D 1   1.00000     0.00000
 Structure written by MMmdl.
 35 36  0  0  0  0  0  0  0  0  2 V2000
  148.7037  133.0159  153.3576 C   0  0  0  0  0  0  0  0  0  0  0  0
  149.6128  133.5958  154.4276 C   0  0  0  0  0  0  0  0  0  0  0  0
  149.8714  134.9459  154.2796 N   0  0  0  0  0  0  0  0  0  0  0  0
  150.6994  135.5828  155.1941 C   0  0  0  0  0  0  0  0  0  0  0  0
  150.8733  136.9448  154.9587 N   0  0  0  0  0  0  0  0  0  0  0  0
  149.7107  137.8271  154.8731 C   0  0  0  0  0  0  0  0  0  0  0  0
  150.0613  139.1413  154.1554 C   0  0  0  0  0  0  0  0  0  0  0  0
  151.1525  139.7700  154.8153 O   0  0  0  0  0  0  0  0  0  0  0  0
  152.3144  138.9510  154.7963 C   0  0  0  0  0  0  0  0  0  0  0  0
  152.0304  137.6305  155.5321 C   0  0  0  0  0  0  0  0  0  0  0  0
  151.2608  134.9672  156.1935 N   0  0  0  0  0  0  0  0  0  0  0  0
  151.0464  133.5949  156.3923 C   0  0  0  0  0  0  0  0  0  0  0  0
  151.5998  133.0129  157.3239 O   0  0  0  0  0  0  0  0  0  0  0  0
  150.1492  132.8872  155.4511 C   0  0  0  0  0  0  0  0  0  0  0  0
  149.9035  131.3870  155.6434 C   0  0  0  0  0  0  0  0  0  0  0  0
  150.5885  130.4789  154.5969 C   0  0  0  0  0  0  0  0  0  0  0  0
  151.9763  130.0112  155.0413 C   0  0  0  0  0  0  0  0  0  0  0  0
  152.3791  130.4037  156.1584 O   0  0  0  0  0  0  0  0  0  0  0  0
  152.6076  129.2705  154.2566 O   0  5  0  0  0  0  0  0  0  0  0  0
  149.4335  135.4285  153.5091 H   0  0  0  0  0  0  0  0  0  0  0  0
  147.7602  132.6873  153.7919 H   0  0  0  0  0  0  0  0  0  0  0  0
  149.1777  132.1657  152.8672 H   0  0  0  0  0  0  0  0  0  0  0  0
  148.4724  133.7536  152.5881 H   0  0  0  0  0  0  0  0  0  0  0  0
  149.3489  138.0375  155.8805 H   0  0  0  0  0  0  0  0  0  0  0  0
  148.8991  137.3297  154.3397 H   0  0  0  0  0  0  0  0  0  0  0  0
  150.3100  138.9584  153.1086 H   0  0  0  0  0  0  0  0  0  0  0  0
  149.2044  139.8150  154.1661 H   0  0  0  0  0  0  0  0  0  0  0  0
  152.6259  138.7629  153.7676 H   0  0  0  0  0  0  0  0  0  0  0  0
  153.1311  139.4837  155.2835 H   0  0  0  0  0  0  0  0  0  0  0  0
  152.9188  136.9992  155.4929 H   0  0  0  0  0  0  0  0  0  0  0  0
  151.8328  137.8286  156.5866 H   0  0  0  0  0  0  0  0  0  0  0  0
  148.8343  131.1730  155.6662 H   0  0  0  0  0  0  0  0  0  0  0  0
  150.2569  131.1047  156.6346 H   0  0  0  0  0  0  0  0  0  0  0  0
  149.9709  129.6087  154.3779 H   0  0  0  0  0  0  0  0  0  0  0  0
  150.6911  131.0200  153.6558 H   0  0  0  0  0  0  0  0  0  0  0  0
  1 21  1  0  0  0  0
  1 22  1  0  0  0  0
  1 23  1  0  0  0  0
  1  2  1  0  0  0  0
  2 14  2  0  0  0  0
  2  3  1  0  0  0  0
  3 20  1  0  0  0  0
  3  4  1  0  0  0  0
  4  5  1  0  0  0  0
  4 11  2  0  0  0  0
  5 10  1  0  0  0  0
  5  6  1  0  0  0  0
  6  7  1  0  0  0  0
  6 24  1  0  0  0  0
  6 25  1  0  0  0  0
  7  8  1  0  0  0  0
  7 26  1  0  0  0  0
  7 27  1  0  0  0  0
  8  9  1  0  0  0  0
  9 10  1  0  0  0  0
  9 28  1  0  0  0  0
  9 29  1  0  0  0  0
 10 30  1  0  0  0  0
 10 31  1  0  0  0  0
 11 12  1  0  0  0  0
 12 13  2  0  0  0  0
 12 14  1  0  0  0  0
 14 15  1  0  0  0  0
 15 16  1  0  0  0  0
 15 32  1  0  0  0  0
 15 33  1  0  0  0  0
 16 17  1  0  0  0  0
 16 34  1  0  0  0  0
 16 35  1  0  0  0  0
 17 18  2  0  0  0  0
 17 19  1  0  0  0  0
M  CHG  1  19  -1
M  END
> <s_m_source_file>
AV-unprocessed.smi

> <i_m_source_file_index>
581

> <i_lp_mmshare_version>
43012

> <i_f3d_flags>
0

> <s_epik_input>
W0NIMl0xW0NIMl1PW0NIMl1bQ0gyXU4xYyhuYzJbQ0gzXSlbbkhdYyg9TyljMltDSDJdW0NIMl1DKD1PKVtPSF0=

> <s_epik_cmdline>
J2VwaWtfcHl0aG9uJywgJy1waCcsICc3LjAnLCAnLXRuJywgJzgnLCAnLW1hJywgJzIwMCcsICctbWV0YWxfYmluZGluZycsICctaW1hZScsICc8aW5maWxlLm1hZT4nLCAnLW9tYWUnLCAnPG91dGZpbGUubWFlPic=

> <r_lp_tautomer_probability>
0.108306

> <r_epik_Ionization_Penalty>
0.0702858

> <r_epik_Ionization_Penalty_Charging>
0.050334

> <r_epik_Ionization_Penalty_Neutral>
0.0199519

> <r_epik_State_Penalty>
1.38976

> <r_epik_Charging_Adjusted_Penalty>
1.44009

> <i_epik_Tot_Q>
-1

> <i_epik_Tot_abs_Q>
1

> <r_epik_Metal_State_Penalty>
1.61644

> <b_epik_Metal_Only>
0

> <s_lp_Force_Field>
OPLS_2005

> <r_lp_Energy>
27.984

> <b_lp_Chiralities_Consistent>
1

> <s_lp_Variant>
AV-unprocessed.smi:581-2

> <Gold.Version>
5.8.1

> <Gold.Id.Protein>
6NUR|6NUR_protein|mol2

> <Gold.PLP.Fitness>
39.0629

> <Gold.PLP.PLP>
-32.4186

> <Gold.PLP.part.hbond>
-3.3182

> <Gold.PLP.part.metal>
0.0000

> <Gold.PLP.part.buried>
-3.4489

> <Gold.PLP.part.nonpolar>
-26.3781

> <Gold.PLP.part.repulsive>
0.3197

> <Gold.PLP.ligand.clash>
0.0000

> <Gold.PLP.ligand.torsion>
0.9365

> <Gold.PLP.Chemscore.Hbond>
2.7190

> <Gold.PLP.Chemscore.CHOScore>
0.0000

> <Gold.PLP.Chemscore.Metal>
0.0000

> <Gold.Chemscore.Hbonds>
donor molecule, donor type, donor heavy atom, donor atom, acceptor molecule, acceptor atom, score
      L1  H     3    20       P1  7948  0.90
      P1  H  6896  6908       L1    13  0.83
      P1  H  7989  7998       L1     8  0.76

> <Gold.PLP.Chemscore.Internal.Correction>
0.3603

> <Gold.Rescore>
     Score         DG    S(hbond)    S(metal)    S(lipo)     H(rot)  DE(clash)    DE(int)     intcor
     10.79     -11.83       1.62        0.00      49.32       1.89       0.00       1.04       ----

> <Gold.Chemscore.Fitness>
10.7902

> <Gold.Chemscore.DG>
-11.8284

> <Gold.Chemscore.ZeroCoef>
-5.4800

> <Gold.Chemscore.Hbond>
1.6209

> <Gold.Chemscore.Metal>
0.0000

> <Gold.Chemscore.Lipo>
49.3175

> <Gold.Chemscore.Internal_Hbond>
0.0000

> <Gold.Chemscore.DEClash>
0.0000

> <Gold.Chemscore.DEInternal>
1.0382

> <Gold.Chemscore.Rot>
1.8890

> <Gold.Chemscore.Internal.Correction>
   9.000000E+99

> <Gold.Chemscore.Hbonds>
donor molecule, donor type, donor heavy atom, donor atom, acceptor molecule, acceptor atom, score
      L1  H     3    20       P1  7948  0.18
      P1  H  6896  6908       L1    13  0.83
      P1  H  7989  7998       L1     8  0.03

> <Gold.Chemscore.Hbond.Weighted>
-5.4140

> <Gold.Chemscore.Metal.Weighted>
-0.0000

> <Gold.Chemscore.Lipo.Weighted>
-5.7701

> <Gold.Chemscore.Internal_Hbond.Weighted>
0.0000

> <Gold.Chemscore.DEClash.Weighted>
0.0000

> <Gold.Chemscore.DEInternal.Weighted>
1.0382

> <Gold.Chemscore.Rot.Weighted>
4.8357

> <Gold.Chemscore.Internal.Correction.Weighted>
   9.000000E+99

> <Gold.Protein.RotatedTorsions>
[ 6907 6896 6895 6894 ] final   78.27 input  -60.11 | X-H torsion
[ 7974 7965 7964 7962 ] final -142.06 input  175.53 | X-H torsion
[ 8008 7997 7996 7995 ] final -147.40 input   59.86 | X-H torsion
[ 10167 10162 10161 10158 ] final   68.40 input  -65.29 | X-H torsion
[ 10718 10713 10712 10709 ] final  -61.64 input   66.30 | X-H torsion
[ 10763 10752 10751 10750 ] final -164.75 input  -60.55 | X-H torsion
[ 11005 11000 10999 10996 ] final  120.01 input  -57.11 | X-H torsion

> <Gold.Protein.ActiveResidues>
 VAL166  LYS551  ARG553  GLY616  TRP617  ASP618  TYR619  PRO620  LYS621  CYS622 
 ASP623  PHE694  ASN695  SER759  ASP760  ASP761  ALA762  ILE779  LEU786  VAL792 
 PHE793  MET794  SER795  GLU796  ALA797  LYS798  CYS799  TRP800  GLU811  SER814 

> <Gold.Protein.RotatedAtoms>
  152.5152  134.3690  159.9311 H   0  0  0  0  0  0  0  0  0  0  0  0  # atno 6907 bound_to 6896
  151.3644  133.3871  159.2701 H   0  0  0  0  0  0  0  0  0  0  0  0  # atno 6908 bound_to 6896
  150.9627  134.9031  159.7798 H   0  0  0  0  0  0  0  0  0  0  0  0  # atno 6909 bound_to 6896
  144.8472  140.6003  143.5414 H   0  0  0  0  0  0  0  0  0  0  0  0  # atno 7974 bound_to 7965
  155.5750  140.0638  157.2797 H   0  0  0  0  0  0  0  0  0  0  0  0  # atno 8008 bound_to 7997
  154.4349  140.1862  156.0964 H   0  0  0  0  0  0  0  0  0  0  0  0  # atno 8009 bound_to 7997
  156.0348  140.3302  155.7182 H   0  0  0  0  0  0  0  0  0  0  0  0  # atno 8010 bound_to 7997
  140.0791  144.5086  150.7174 H   0  0  0  0  0  0  0  0  0  0  0  0  # atno 10167 bound_to 10162
  156.0908  130.4200  150.1022 H   0  0  0  0  0  0  0  0  0  0  0  0  # atno 10718 bound_to 10713
  154.6998  135.2986  154.9357 H   0  0  0  0  0  0  0  0  0  0  0  0  # atno 10763 bound_to 10752
  154.0293  135.6672  153.4783 H   0  0  0  0  0  0  0  0  0  0  0  0  # atno 10764 bound_to 10752
  153.0673  135.5081  154.8136 H   0  0  0  0  0  0  0  0  0  0  0  0  # atno 10765 bound_to 10752
  139.9168  134.9632  156.7742 H   0  0  0  0  0  0  0  0  0  0  0  0  # atno 11005 bound_to 11000
  145.4574  139.1516  143.3885 LP  0  0  0  0  0  0  0  0  0  0  0  0  # atno 17320 bound_to 7965
  146.2754  140.4702  142.8797 LP  0  0  0  0  0  0  0  0  0  0  0  0  # atno 17321 bound_to 7965
  140.7087  143.2487  151.4648 LP  0  0  0  0  0  0  0  0  0  0  0  0  # atno 17342 bound_to 10162
  139.5790  144.1753  152.1942 LP  0  0  0  0  0  0  0  0  0  0  0  0  # atno 17343 bound_to 10162
  156.9032  130.9627  151.3573 LP  0  0  0  0  0  0  0  0  0  0  0  0  # atno 17370 bound_to 10713
  157.6057  130.8545  149.8871 LP  0  0  0  0  0  0  0  0  0  0  0  0  # atno 17371 bound_to 10713
  140.6596  133.9657  155.7798 LP  0  0  0  0  0  0  0  0  0  0  0  0  # atno 17394 bound_to 11000
  141.0652  134.0287  157.3603 LP  0  0  0  0  0  0  0  0  0  0  0  0  # atno 17395 bound_to 11000

$$$$
