AV-unprocessed.smi:2855|AV-procd|sdf|10985|dock1
  -GOLD-   2272015433D 1   1.00000     0.00000
 Structure written by MMmdl.
 46 47  0  0  0  0  0  0  0  0  2 V2000
  147.6616  140.7620  153.4192 C   0  0  0  0  0  0  0  0  0  0  0  0
  148.4852  140.2579  154.6127 C   0  0  2  0  0  0  0  0  0  0  0  0
  148.7636  141.3822  155.6224 C   0  0  0  0  0  0  0  0  0  0  0  0
  149.5881  140.8808  156.8185 C   0  0  0  0  0  0  0  0  0  0  0  0
  150.9318  140.2407  156.3858 C   0  0  1  0  0  0  0  0  0  0  0  0
  151.7864  139.7674  157.6031 C   0  0  0  0  0  0  0  0  0  0  0  0
  150.9584  138.9735  158.6319 C   0  0  0  0  0  0  0  0  0  0  0  0
  152.4923  140.9311  158.3266 C   0  0  0  0  0  0  0  0  0  0  0  0
  150.6692  139.1251  155.3343 C   0  0  1  0  0  0  0  0  0  0  0  0
  150.0626  137.9495  155.9581 N   0  0  0  0  0  0  0  0  0  0  0  0
  150.5800  136.7129  155.9629 C   0  0  0  0  0  0  0  0  0  0  0  0
  151.6199  136.4102  155.3767 O   0  0  0  0  0  0  0  0  0  0  0  0
  149.7846  135.6533  156.7345 C   0  0  0  0  0  0  0  0  0  0  0  0
  149.7104  134.3753  156.0097 N   0  0  0  0  0  0  0  0  0  0  0  0
  149.2844  134.4047  154.6702 C   0  0  0  0  0  0  0  0  0  0  0  0
  149.1960  133.2843  153.9286 C   0  0  0  0  0  0  0  0  0  0  0  0
  149.5558  132.0154  154.5491 C   0  0  0  0  0  0  0  0  0  0  0  0
  149.4764  130.9815  153.8885 O   0  0  0  0  0  0  0  0  0  0  0  0
  149.9677  132.0395  155.8506 N   0  5  0  0  0  0  0  0  0  0  0  0
  150.0550  133.1869  156.5922 C   0  0  0  0  0  0  0  0  0  0  0  0
  150.4323  133.1869  157.7650 O   0  0  0  0  0  0  0  0  0  0  0  0
  149.8118  139.6278  154.1539 C   0  0  0  0  0  0  0  0  0  0  0  0
  148.1982  141.5317  152.8635 H   0  0  0  0  0  0  0  0  0  0  0  0
  146.7134  141.1879  153.7480 H   0  0  0  0  0  0  0  0  0  0  0  0
  147.4351  139.9494  152.7284 H   0  0  0  0  0  0  0  0  0  0  0  0
  147.8953  139.4898  155.1148 H   0  0  0  0  0  0  0  0  0  0  0  0
  149.2964  142.1977  155.1312 H   0  0  0  0  0  0  0  0  0  0  0  0
  147.8227  141.8017  155.9804 H   0  0  0  0  0  0  0  0  0  0  0  0
  149.7595  141.7290  157.4795 H   0  0  0  0  0  0  0  0  0  0  0  0
  149.0008  140.1613  157.3906 H   0  0  0  0  0  0  0  0  0  0  0  0
  151.5045  141.0188  155.8784 H   0  0  0  0  0  0  0  0  0  0  0  0
  152.5667  139.0976  157.2392 H   0  0  0  0  0  0  0  0  0  0  0  0
  150.0940  139.5445  158.9717 H   0  0  0  0  0  0  0  0  0  0  0  0
  151.5553  138.7262  159.5103 H   0  0  0  0  0  0  0  0  0  0  0  0
  150.6015  138.0273  158.2276 H   0  0  0  0  0  0  0  0  0  0  0  0
  151.7795  141.6931  158.6433 H   0  0  0  0  0  0  0  0  0  0  0  0
  153.2407  141.4095  157.6952 H   0  0  0  0  0  0  0  0  0  0  0  0
  153.0192  140.5811  159.2146 H   0  0  0  0  0  0  0  0  0  0  0  0
  151.6300  138.8292  154.9111 H   0  0  0  0  0  0  0  0  0  0  0  0
  149.2010  138.0987  156.4626 H   0  0  0  0  0  0  0  0  0  0  0  0
  150.2234  135.4969  157.7221 H   0  0  0  0  0  0  0  0  0  0  0  0
  148.7858  136.0485  156.9237 H   0  0  0  0  0  0  0  0  0  0  0  0
  149.0433  135.3846  154.2852 H   0  0  0  0  0  0  0  0  0  0  0  0
  148.8704  133.3247  152.8996 H   0  0  0  0  0  0  0  0  0  0  0  0
  149.6177  138.8101  153.4585 H   0  0  0  0  0  0  0  0  0  0  0  0
  150.3846  140.3671  153.5924 H   0  0  0  0  0  0  0  0  0  0  0  0
  1  2  1  0  0  0  0
  1 23  1  0  0  0  0
  1 24  1  0  0  0  0
  1 25  1  0  0  0  0
  2 22  1  0  0  0  0
  2  3  1  0  0  0  0
  2 26  1  0  0  0  0
  3  4  1  0  0  0  0
  3 27  1  0  0  0  0
  3 28  1  0  0  0  0
  4  5  1  0  0  0  0
  4 29  1  0  0  0  0
  4 30  1  0  0  0  0
  5  6  1  0  0  0  0
  5  9  1  0  0  0  0
  5 31  1  0  0  0  0
  6  7  1  0  0  0  0
  6  8  1  0  0  0  0
  6 32  1  0  0  0  0
  7 33  1  0  0  0  0
  7 34  1  0  0  0  0
  7 35  1  0  0  0  0
  8 36  1  0  0  0  0
  8 37  1  0  0  0  0
  8 38  1  0  0  0  0
  9 10  1  0  0  0  0
  9 22  1  0  0  0  0
  9 39  1  0  0  0  0
 10 11  1  0  0  0  0
 10 40  1  0  0  0  0
 11 12  2  0  0  0  0
 11 13  1  0  0  0  0
 13 14  1  0  0  0  0
 13 41  1  0  0  0  0
 13 42  1  0  0  0  0
 14 20  1  0  0  0  0
 14 15  1  0  0  0  0
 15 16  2  0  0  0  0
 15 43  1  0  0  0  0
 16 17  1  0  0  0  0
 16 44  1  0  0  0  0
 17 18  2  0  0  0  0
 17 19  1  0  0  0  0
 19 20  1  0  0  0  0
 20 21  2  0  0  0  0
 22 45  1  0  0  0  0
 22 46  1  0  0  0  0
M  CHG  1  19  -1
M  END
> <s_m_source_file>
AV-unprocessed.smi

> <i_m_source_file_index>
2855

> <i_lp_mmshare_version>
43012

> <i_f3d_flags>
0

> <s_epik_input>
W0NIM11bQ0BASF0xW0NIMl1bQ0gyXVtDQEBIXShbQ0hdKFtDSDNdKVtDSDNdKVtDQEhdKFtDSDJdMSlbTkhdQyg9TylbQ0gyXW4yW2NIXVtjSF1jKD1PKVtuSF1jMj1P

> <s_epik_cmdline>
J2VwaWtfcHl0aG9uJywgJy1waCcsICc3LjAnLCAnLXRuJywgJzgnLCAnLW1hJywgJzIwMCcsICctbWV0YWxfYmluZGluZycsICctaW1hZScsICc8aW5maWxlLm1hZT4nLCAnLW9tYWUnLCAnPG91dGZpbGUubWFlPic=

> <r_lp_tautomer_probability>
0.999537

> <r_epik_Ionization_Penalty>
3.12102

> <r_epik_Ionization_Penalty_Charging>
2.9581e-08

> <r_epik_Ionization_Penalty_Neutral>
3.12102

> <r_epik_State_Penalty>
3.12011

> <r_epik_Charging_Adjusted_Penalty>
3.12011

> <i_epik_Tot_Q>
-1

> <i_epik_Tot_abs_Q>
1

> <r_epik_Metal_State_Penalty>
0.463583

> <b_epik_Metal_Only>
1

> <s_lp_Force_Field>
OPLS_2005

> <r_lp_Energy>
22.0986

> <b_lp_Chiralities_Consistent>
1

> <s_lp_Variant>
AV-unprocessed.smi:2855-9

> <Gold.Version>
5.8.1

> <Gold.Id.Protein>
6NUR|6NUR_protein|mol2

> <Gold.PLP.Fitness>
38.9988

> <Gold.PLP.PLP>
-31.3094

> <Gold.PLP.part.hbond>
-2.0000

> <Gold.PLP.part.metal>
0.0000

> <Gold.PLP.part.buried>
-1.0708

> <Gold.PLP.part.nonpolar>
-27.6732

> <Gold.PLP.part.repulsive>
0.1865

> <Gold.PLP.ligand.clash>
0.0000

> <Gold.PLP.ligand.torsion>
0.6448

> <Gold.PLP.Chemscore.Hbond>
2.0000

> <Gold.PLP.Chemscore.CHOScore>
0.9709

> <Gold.PLP.Chemscore.Metal>
0.0000

> <Gold.Chemscore.Hbonds>
donor molecule, donor type, donor heavy atom, donor atom, acceptor molecule, acceptor atom, score
      P1  H  6896  6907       L1    21  1.00
      P1  H 10752 10764       L1    12  1.00
      L1  C    15    43       P1  7948  0.95

> <Gold.PLP.Chemscore.Internal.Correction>
0.0664

> <Gold.Rescore>
     Score         DG    S(hbond)    S(metal)    S(lipo)     H(rot)  DE(clash)    DE(int)     intcor
     14.24     -16.05       1.99        0.00      73.14       1.81       0.16       1.65       ----

> <Gold.Chemscore.Fitness>
14.2416

> <Gold.Chemscore.DG>
-16.0526

> <Gold.Chemscore.ZeroCoef>
-5.4800

> <Gold.Chemscore.Hbond>
1.9905

> <Gold.Chemscore.Metal>
0.0000

> <Gold.Chemscore.Lipo>
73.1423

> <Gold.Chemscore.Internal_Hbond>
0.0000

> <Gold.Chemscore.DEClash>
0.1576

> <Gold.Chemscore.DEInternal>
1.6534

> <Gold.Chemscore.Rot>
1.8100

> <Gold.Chemscore.Internal.Correction>
   9.000000E+99

> <Gold.Chemscore.Hbonds>
donor molecule, donor type, donor heavy atom, donor atom, acceptor molecule, acceptor atom, score
      P1  H  6896  6907       L1    21  0.95
      P1  H 10752 10764       L1    12  1.00

> <Gold.Chemscore.Hbond.Weighted>
-6.6484

> <Gold.Chemscore.Metal.Weighted>
-0.0000

> <Gold.Chemscore.Lipo.Weighted>
-8.5576

> <Gold.Chemscore.Internal_Hbond.Weighted>
0.0000

> <Gold.Chemscore.DEClash.Weighted>
0.1576

> <Gold.Chemscore.DEInternal.Weighted>
1.6534

> <Gold.Chemscore.Rot.Weighted>
4.6335

> <Gold.Chemscore.Internal.Correction.Weighted>
   9.000000E+99

> <Gold.Protein.RotatedTorsions>
[ 6907 6896 6895 6894 ] final -148.54 input  -60.11 | X-H torsion
[ 7974 7965 7964 7962 ] final -115.01 input  175.53 | X-H torsion
[ 8008 7997 7996 7995 ] final   99.13 input   59.86 | X-H torsion
[ 10167 10162 10161 10158 ] final  127.50 input  -65.29 | X-H torsion
[ 10718 10713 10712 10709 ] final  -25.55 input   66.30 | X-H torsion
[ 10763 10752 10751 10750 ] final  -55.84 input  -60.55 | X-H torsion
[ 11005 11000 10999 10996 ] final   74.65 input  -57.11 | X-H torsion

> <Gold.Protein.ActiveResidues>
 VAL166  LYS551  ARG553  GLY616  TRP617  ASP618  TYR619  PRO620  LYS621  CYS622 
 ASP623  PHE694  ASN695  SER759  ASP760  ASP761  ALA762  ILE779  LEU786  VAL792 
 PHE793  MET794  SER795  GLU796  ALA797  LYS798  CYS799  TRP800  GLU811  SER814 

> <Gold.Protein.RotatedAtoms>
  151.1713  133.4782  159.2593 H   0  0  0  0  0  0  0  0  0  0  0  0  # atno 6907 bound_to 6896
  151.1353  135.0151  159.8611 H   0  0  0  0  0  0  0  0  0  0  0  0  # atno 6908 bound_to 6896
  152.5461  134.1612  159.8611 H   0  0  0  0  0  0  0  0  0  0  0  0  # atno 6909 bound_to 6896
  145.1134  140.8625  143.3856 H   0  0  0  0  0  0  0  0  0  0  0  0  # atno 7974 bound_to 7965
  156.1074  140.3233  155.8025 H   0  0  0  0  0  0  0  0  0  0  0  0  # atno 8008 bound_to 7997
  155.4732  140.0548  157.2994 H   0  0  0  0  0  0  0  0  0  0  0  0  # atno 8009 bound_to 7997
  154.4737  140.2022  155.9946 H   0  0  0  0  0  0  0  0  0  0  0  0  # atno 8010 bound_to 7997
  139.5575  144.6859  151.4140 H   0  0  0  0  0  0  0  0  0  0  0  0  # atno 10167 bound_to 10162
  156.4629  130.4508  149.6917 H   0  0  0  0  0  0  0  0  0  0  0  0  # atno 10718 bound_to 10713
  154.1972  135.6417  153.5076 H   0  0  0  0  0  0  0  0  0  0  0  0  # atno 10763 bound_to 10752
  153.0021  135.5442  154.6354 H   0  0  0  0  0  0  0  0  0  0  0  0  # atno 10764 bound_to 10752
  154.5757  135.2921  155.0756 H   0  0  0  0  0  0  0  0  0  0  0  0  # atno 10765 bound_to 10752
  139.9381  134.7451  156.1174 H   0  0  0  0  0  0  0  0  0  0  0  0  # atno 11005 bound_to 11000
  145.0821  139.2952  143.5778 LP  0  0  0  0  0  0  0  0  0  0  0  0  # atno 17320 bound_to 7965
  146.3525  140.0331  142.8649 LP  0  0  0  0  0  0  0  0  0  0  0  0  # atno 17321 bound_to 7965
  140.6850  143.7995  150.7173 LP  0  0  0  0  0  0  0  0  0  0  0  0  # atno 17342 bound_to 10162
  140.1460  143.4399  152.2163 LP  0  0  0  0  0  0  0  0  0  0  0  0  # atno 17343 bound_to 10162
  156.3697  130.7524  151.2506 LP  0  0  0  0  0  0  0  0  0  0  0  0  # atno 17370 bound_to 10713
  157.7496  131.0326  150.4236 LP  0  0  0  0  0  0  0  0  0  0  0  0  # atno 17371 bound_to 10713
  141.1003  133.6679  156.2740 LP  0  0  0  0  0  0  0  0  0  0  0  0  # atno 17394 bound_to 11000
  140.6023  134.5542  157.5519 LP  0  0  0  0  0  0  0  0  0  0  0  0  # atno 17395 bound_to 11000

$$$$
