AV-unprocessed.smi:3154|AV-procd|sdf|12023|dock4
  -GOLD-   2272017433D 1   1.00000     0.00000
 Structure written by MMmdl.
 34 35  0  0  0  0  0  0  0  0  1 V2000
  152.0119  144.6931  157.9219 C   0  0  0  0  0  0  0  0  0  0  0  0
  151.4260  143.2746  158.0162 C   0  0  2  0  0  0  0  0  0  0  0  0
  152.4205  142.2563  158.6311 C   0  0  0  0  0  0  0  0  0  0  0  0
  152.6587  142.4448  160.0534 N   0  0  0  0  0  0  0  0  0  0  0  0
  153.4844  141.7212  160.8887 C   0  0  0  0  0  0  0  0  0  0  0  0
  153.3859  142.2706  162.1349 C   0  0  0  0  0  0  0  0  0  0  0  0
  152.4679  143.3435  161.9589 C   0  0  0  0  0  0  0  0  0  0  0  0
  152.0390  143.4486  160.7118 N   0  0  0  0  0  0  0  0  0  0  0  0
  150.9828  142.8974  156.6761 N   0  0  0  0  0  0  0  0  0  0  0  0
  150.7260  141.4572  156.5333 C   0  0  0  0  0  0  0  0  0  0  0  0
  149.8962  141.1304  155.2887 C   0  0  0  0  0  0  0  0  0  0  0  0
  150.2003  140.1868  154.5574 O   0  0  0  0  0  0  0  0  0  0  0  0
  148.8418  141.9281  155.0636 N   0  0  0  0  0  0  0  0  0  0  0  0
  147.9314  141.8124  153.9703 C   0  0  0  0  0  0  0  0  0  0  0  0
  146.4684  141.5984  154.2930 C   0  0  0  0  0  0  0  0  0  0  0  0
  147.2841  140.4646  153.7356 C   0  0  0  0  0  0  0  0  0  0  0  0
  152.3688  145.0335  158.8944 H   0  0  0  0  0  0  0  0  0  0  0  0
  151.2605  145.4067  157.5822 H   0  0  0  0  0  0  0  0  0  0  0  0
  152.8491  144.7420  157.2248 H   0  0  0  0  0  0  0  0  0  0  0  0
  150.5488  143.3311  158.6626 H   0  0  0  0  0  0  0  0  0  0  0  0
  152.0255  141.2488  158.4947 H   0  0  0  0  0  0  0  0  0  0  0  0
  153.3775  142.2616  158.1096 H   0  0  0  0  0  0  0  0  0  0  0  0
  154.0636  140.8827  160.5306 H   0  0  0  0  0  0  0  0  0  0  0  0
  153.8924  141.9544  163.0346 H   0  0  0  0  0  0  0  0  0  0  0  0
  152.1046  144.0457  162.6947 H   0  0  0  0  0  0  0  0  0  0  0  0
  150.1560  143.4312  156.4493 H   0  0  0  0  0  0  0  0  0  0  0  0
  151.6650  140.9109  156.4542 H   0  0  0  0  0  0  0  0  0  0  0  0
  150.2046  141.0896  157.4185 H   0  0  0  0  0  0  0  0  0  0  0  0
  148.6681  142.6743  155.7211 H   0  0  0  0  0  0  0  0  0  0  0  0
  148.1456  142.3980  153.0772 H   0  0  0  0  0  0  0  0  0  0  0  0
  146.1810  141.5420  155.3413 H   0  0  0  0  0  0  0  0  0  0  0  0
  145.7369  142.0624  153.6345 H   0  0  0  0  0  0  0  0  0  0  0  0
  147.0974  140.1710  152.7046 H   0  0  0  0  0  0  0  0  0  0  0  0
  147.5398  139.6509  154.4118 H   0  0  0  0  0  0  0  0  0  0  0  0
  1  2  1  0  0  0  0
  1 17  1  0  0  0  0
  1 18  1  0  0  0  0
  1 19  1  0  0  0  0
  2  3  1  0  0  0  0
  2  9  1  0  0  0  0
  2 20  1  0  0  0  0
  3  4  1  0  0  0  0
  3 21  1  0  0  0  0
  3 22  1  0  0  0  0
  4  8  1  0  0  0  0
  4  5  1  0  0  0  0
  5  6  2  0  0  0  0
  5 23  1  0  0  0  0
  6  7  1  0  0  0  0
  6 24  1  0  0  0  0
  7  8  2  0  0  0  0
  7 25  1  0  0  0  0
  9 10  1  0  0  0  0
  9 26  1  0  0  0  0
 10 11  1  0  0  0  0
 10 27  1  0  0  0  0
 10 28  1  0  0  0  0
 11 12  2  0  0  0  0
 11 13  1  0  0  0  0
 13 14  1  0  0  0  0
 13 29  1  0  0  0  0
 14 16  1  0  0  0  0
 14 15  1  0  0  0  0
 14 30  1  0  0  0  0
 15 16  1  0  0  0  0
 15 31  1  0  0  0  0
 15 32  1  0  0  0  0
 16 33  1  0  0  0  0
 16 34  1  0  0  0  0
M  END
> <s_m_source_file>
AV-unprocessed.smi

> <i_m_source_file_index>
3154

> <i_lp_mmshare_version>
43012

> <i_f3d_flags>
0

> <s_epik_input>
bjFbY0hdW2NIXVtjSF1uMVtDSDJdW0NAQEhdKFtDSDNdKVtOSF1bQ0gyXUMoPU8pW05IXVtDSF0yW0NIMl1bQ0gyXTI=

> <s_epik_cmdline>
J2VwaWtfcHl0aG9uJywgJy1waCcsICc3LjAnLCAnLXRuJywgJzgnLCAnLW1hJywgJzIwMCcsICctbWV0YWxfYmluZGluZycsICctaW1hZScsICc8aW5maWxlLm1hZT4nLCAnLW9tYWUnLCAnPG91dGZpbGUubWFlPic=

> <r_lp_tautomer_probability>
1

> <r_epik_Ionization_Penalty>
1.00229

> <r_epik_Ionization_Penalty_Charging>
0

> <r_epik_Ionization_Penalty_Neutral>
1.00229

> <r_epik_State_Penalty>
1.0509

> <r_epik_Charging_Adjusted_Penalty>
1.0509

> <i_epik_Tot_Q>
0

> <i_epik_Tot_abs_Q>
0

> <r_epik_Metal_State_Penalty>
1.05084

> <b_epik_Metal_Only>
0

> <s_lp_Force_Field>
OPLS_2005

> <r_lp_Energy>
19.1763

> <b_lp_Chiralities_Consistent>
1

> <s_lp_Variant>
AV-unprocessed.smi:3154-3

> <Gold.Version>
5.8.1

> <Gold.Id.Protein>
6NUR|6NUR_protein|mol2

> <Gold.PLP.Fitness>
51.8624

> <Gold.PLP.PLP>
-44.6992

> <Gold.PLP.part.hbond>
-3.0000

> <Gold.PLP.part.metal>
0.0000

> <Gold.PLP.part.buried>
-5.8773

> <Gold.PLP.part.nonpolar>
-35.4979

> <Gold.PLP.part.repulsive>
0.3638

> <Gold.PLP.ligand.clash>
0.0000

> <Gold.PLP.ligand.torsion>
0.5062

> <Gold.PLP.Chemscore.Hbond>
2.6880

> <Gold.PLP.Chemscore.CHOScore>
0.0000

> <Gold.PLP.Chemscore.Metal>
0.0000

> <Gold.Chemscore.Hbonds>
donor molecule, donor type, donor heavy atom, donor atom, acceptor molecule, acceptor atom, score
      L1  H     9    26       P1  8028  1.00
      L1  H    13    29       P1  8028  0.65
      P1  H  7989  7998       L1    12  1.00

> <Gold.PLP.Chemscore.Internal.Correction>
0.1116

> <Gold.Rescore>
     Score         DG    S(hbond)    S(metal)    S(lipo)     H(rot)  DE(clash)    DE(int)     intcor
     17.42     -19.14       2.30        0.00      97.40       2.12       0.19       1.53       ----

> <Gold.Chemscore.Fitness>
17.4173

> <Gold.Chemscore.DG>
-19.1364

> <Gold.Chemscore.ZeroCoef>
-5.4800

> <Gold.Chemscore.Hbond>
2.3036

> <Gold.Chemscore.Metal>
0.0000

> <Gold.Chemscore.Lipo>
97.4034

> <Gold.Chemscore.Internal_Hbond>
0.0000

> <Gold.Chemscore.DEClash>
0.1908

> <Gold.Chemscore.DEInternal>
1.5283

> <Gold.Chemscore.Rot>
2.1225

> <Gold.Chemscore.Internal.Correction>
   9.000000E+99

> <Gold.Chemscore.Hbonds>
donor molecule, donor type, donor heavy atom, donor atom, acceptor molecule, acceptor atom, score
      L1  H     9    26       P1  8028  0.98
      L1  H    13    29       P1  8028  0.61
      P1  H  7989  7998       L1    12  0.44

> <Gold.Chemscore.Hbond.Weighted>
-7.6939

> <Gold.Chemscore.Metal.Weighted>
-0.0000

> <Gold.Chemscore.Lipo.Weighted>
-11.3962

> <Gold.Chemscore.Internal_Hbond.Weighted>
0.0000

> <Gold.Chemscore.DEClash.Weighted>
0.1908

> <Gold.Chemscore.DEInternal.Weighted>
1.5283

> <Gold.Chemscore.Rot.Weighted>
5.4337

> <Gold.Chemscore.Internal.Correction.Weighted>
   9.000000E+99

> <Gold.Protein.RotatedTorsions>
[ 6907 6896 6895 6894 ] final   43.73 input  -60.11 | X-H torsion
[ 7974 7965 7964 7962 ] final  -77.47 input  175.53 | X-H torsion
[ 8008 7997 7996 7995 ] final  127.93 input   59.86 | X-H torsion
[ 10167 10162 10161 10158 ] final  131.80 input  -65.29 | X-H torsion
[ 10718 10713 10712 10709 ] final  171.18 input   66.30 | X-H torsion
[ 10763 10752 10751 10750 ] final   66.64 input  -60.55 | X-H torsion
[ 11005 11000 10999 10996 ] final   91.24 input  -57.11 | X-H torsion

> <Gold.Protein.ActiveResidues>
 VAL166  LYS551  ARG553  GLY616  TRP617  ASP618  TYR619  PRO620  LYS621  CYS622 
 ASP623  PHE694  ASN695  SER759  ASP760  ASP761  ALA762  ILE779  LEU786  VAL792 
 PHE793  MET794  SER795  GLU796  ALA797  LYS798  CYS799  TRP800  GLU811  SER814 

> <Gold.Protein.RotatedAtoms>
  152.2239  134.8387  160.0482 H   0  0  0  0  0  0  0  0  0  0  0  0  # atno 6907 bound_to 6896
  151.9160  133.3568  159.3888 H   0  0  0  0  0  0  0  0  0  0  0  0  # atno 6908 bound_to 6896
  150.7007  134.4609  159.5424 H   0  0  0  0  0  0  0  0  0  0  0  0  # atno 6909 bound_to 6896
  145.5993  140.9412  143.1250 H   0  0  0  0  0  0  0  0  0  0  0  0  # atno 7974 bound_to 7965
  156.2903  140.2657  156.2353 H   0  0  0  0  0  0  0  0  0  0  0  0  # atno 8008 bound_to 7997
  155.0031  140.0387  157.2386 H   0  0  0  0  0  0  0  0  0  0  0  0  # atno 8009 bound_to 7997
  154.7584  140.2756  155.6239 H   0  0  0  0  0  0  0  0  0  0  0  0  # atno 8010 bound_to 7997
  139.5368  144.6690  151.4760 H   0  0  0  0  0  0  0  0  0  0  0  0  # atno 10167 bound_to 10162
  156.9973  131.0165  151.2840 H   0  0  0  0  0  0  0  0  0  0  0  0  # atno 10718 bound_to 10713
  153.0149  135.5313  154.6854 H   0  0  0  0  0  0  0  0  0  0  0  0  # atno 10763 bound_to 10752
  154.6003  135.2867  155.0544 H   0  0  0  0  0  0  0  0  0  0  0  0  # atno 10764 bound_to 10752
  154.1604  135.6548  153.5037 H   0  0  0  0  0  0  0  0  0  0  0  0  # atno 10765 bound_to 10752
  139.8842  134.8662  156.3399 H   0  0  0  0  0  0  0  0  0  0  0  0  # atno 11005 bound_to 11000
  144.7317  139.7706  143.7344 LP  0  0  0  0  0  0  0  0  0  0  0  0  # atno 17320 bound_to 7965
  146.1588  139.4696  143.0001 LP  0  0  0  0  0  0  0  0  0  0  0  0  # atno 17321 bound_to 7965
  140.6578  143.8562  150.6854 LP  0  0  0  0  0  0  0  0  0  0  0  0  # atno 17342 bound_to 10162
  140.1947  143.4007  152.1836 LP  0  0  0  0  0  0  0  0  0  0  0  0  # atno 17343 bound_to 10162
  157.5416  130.8123  149.8035 LP  0  0  0  0  0  0  0  0  0  0  0  0  # atno 17370 bound_to 10713
  156.0184  130.3804  150.2037 LP  0  0  0  0  0  0  0  0  0  0  0  0  # atno 17371 bound_to 10713
  140.9666  133.7354  156.0475 LP  0  0  0  0  0  0  0  0  0  0  0  0  # atno 17394 bound_to 11000
  140.7924  134.3603  157.5461 LP  0  0  0  0  0  0  0  0  0  0  0  0  # atno 17395 bound_to 11000

$$$$
