#       Name:                AV-unprocessed.smi:987
#       Creating user name   scv26
#       Creation time:       Fri Mar 27 02:22:52 2020


#       File generated by GOLD software.
#

@<TRIPOS>MOLECULE
AV-unprocessed.smi:987
    58    60     1
SMALL
NO_CHARGES


@<TRIPOS>ATOM
      1 ****        -5.9040  -0.6240   1.7920 C.3            1 S1                 0.0000
      2 ****        -5.6507   0.3589   0.6347 C.3            1 S1                 0.0000
      3 ****        -4.1560   0.6386   0.3820 C.3            1 S1                 0.0000
      4 ****        -3.5171  -0.4916  -0.2887 N.3            1 S1                 0.0000
      5 ****        -2.1080  -0.5116  -0.3577 C.ar           1 S1                 0.0000
      6 ****        -1.4346  -1.6963  -0.7361 C.ar           1 S1                 0.0000
      7 ****        -0.0287  -1.6950  -0.8013 C.ar           1 S1                 0.0000
      8 ****         0.6742  -0.5131  -0.4980 C.ar           1 S1                 0.0000
      9 ****         2.0936  -0.5466  -0.5554 N.am           1 S1                 0.0000
     10 ****         2.9512   0.4822  -0.6654 C.2            1 S1                 0.0000
     11 ****         2.6323   1.6644  -0.7857 O.2            1 S1                 0.0000
     12 ****         4.2210   0.0546  -0.6473 N.am           1 S1                 0.0000
     13 ****         5.3997   0.9118  -0.7298 C.3            1 S1                 0.0000
     14 ****         5.8268   1.4605   0.6439 C.3            1 S1                 0.0000
     15 ****         5.2406   2.7446   0.7315 O.3            1 S1                 0.0000
     16 ****         5.6398   0.5822   1.8974 C.3            1 S1                 0.0000
     17 ****         7.0061   1.0481   2.4019 C.3            1 S1                 0.0000
     18 ****         7.3330   1.4631   0.9663 C.3            1 S1                 0.0000
     19 ****        -0.0826   0.6191  -0.1134 C.ar           1 S1                 0.0000
     20 ****        -1.4308   0.6202  -0.0450 N.ar           1 S1                 0.0000
     21 ****        -4.2110  -0.9046  -1.5038 C.3            1 S1                 0.0000
     22 ****        -5.6923  -1.1948  -1.2024 C.3            1 S1                 0.0000
     23 ****        -6.4852  -1.5011  -2.4774 C.3            1 S1                 0.0000
     24 ****        -6.2862  -0.0580  -0.5760 O.3            1 S1                 0.0000
     25 ****        -5.5288  -0.2181   2.7315 H              1 S1                 0.0000
     26 ****        -5.4110  -1.5832   1.6361 H              1 S1                 0.0000
     27 ****        -6.9706  -0.8114   1.9168 H              1 S1                 0.0000
     28 ****        -6.1209   1.3018   0.9151 H              1 S1                 0.0000
     29 ****        -4.0508   1.5236  -0.2470 H              1 S1                 0.0000
     30 ****        -3.6574   0.8554   1.3278 H              1 S1                 0.0000
     31 ****        -1.9768  -2.6028  -0.9607 H              1 S1                 0.0000
     32 ****         0.5004  -2.5937  -1.0832 H              1 S1                 0.0000
     33 ****         2.5047  -1.4685  -0.5545 H              1 S1                 0.0000
     34 ****         4.3873  -0.9365  -0.5535 H              1 S1                 0.0000
     35 ****         6.1937   0.2916  -1.1462 H              1 S1                 0.0000
     36 ****         5.2462   1.7067  -1.4628 H              1 S1                 0.0000
     37 ****         5.4782   3.1008   1.5736 H              1 S1                 0.0000
     38 ****         4.8032   0.8682   2.5361 H              1 S1                 0.0000
     39 ****         5.6232  -0.4861   1.6761 H              1 S1                 0.0000
     40 ****         6.9374   1.8983   3.0819 H              1 S1                 0.0000
     41 ****         7.6384   0.2560   2.8035 H              1 S1                 0.0000
     42 ****         7.8906   0.6948   0.4285 H              1 S1                 0.0000
     43 ****         7.8197   2.4354   0.8818 H              1 S1                 0.0000
     44 ****         0.3829   1.5492   0.1721 H              1 S1                 0.0000
     45 ****        -4.1274  -0.1051  -2.2411 H              1 S1                 0.0000
     46 ****        -3.7553  -1.7896  -1.9463 H              1 S1                 0.0000
     47 ****        -5.7684  -2.0598  -0.5434 H              1 S1                 0.0000
     48 ****        -6.0815  -2.3742  -2.9905 H              1 S1                 0.0000
     49 ****        -6.4559  -0.6609  -3.1718 H              1 S1                 0.0000
     50 ****        -7.5306  -1.7060  -2.2457 H              1 S1                 0.0000
     51 ****        -3.6508  -1.2326   0.3693 LP             1 S1                 0.0000
     52 ****         1.6663   1.9220  -0.8077 LP             1 S1                 0.0000
     53 ****         3.3391   2.3678  -0.8615 LP             1 S1                 0.0000
     54 ****         4.2459   2.6736   0.6572 LP             1 S1                 0.0000
     55 ****         5.5884   3.3313   0.0002 LP             1 S1                 0.0000
     56 ****        -1.9234   1.4450   0.2327 LP             1 S1                 0.0000
     57 ****        -6.2557   0.7047  -1.2221 LP             1 S1                 0.0000
     58 ****        -7.2386  -0.2799  -0.3671 LP             1 S1                 0.0000
@<TRIPOS>BOND
    1    1    2 1     
    2    1   25 1     
    3    1   26 1     
    4    1   27 1     
    5    2   24 1     
    6    2    3 1     
    7    2   28 1     
    8    3    4 1     
    9    3   29 1     
   10    3   30 1     
   11    4    5 1     
   12    4   21 1     
   13    5   20 ar    
   14    5    6 ar    
   15    6    7 ar    
   16    6   31 1     
   17    7    8 ar    
   18    7   32 1     
   19    8    9 1     
   20    8   19 ar    
   21    9   10 am    
   22    9   33 1     
   23   10   11 2     
   24   10   12 am    
   25   12   13 1     
   26   12   34 1     
   27   13   14 1     
   28   13   35 1     
   29   13   36 1     
   30   14   18 1     
   31   14   15 1     
   32   14   16 1     
   33   15   37 1     
   34   16   17 1     
   35   16   38 1     
   36   16   39 1     
   37   17   18 1     
   38   17   40 1     
   39   17   41 1     
   40   18   42 1     
   41   18   43 1     
   42   19   20 ar    
   43   19   44 1     
   44   21   22 1     
   45   21   45 1     
   46   21   46 1     
   47   22   23 1     
   48   22   24 1     
   49   22   47 1     
   50   23   48 1     
   51   23   49 1     
   52   23   50 1     
   53    4   51 1     
   54   11   52 1     
   55   11   53 1     
   56   15   54 1     
   57   15   55 1     
   58   20   56 1     
   59   24   57 1     
   60   24   58 1     
@<TRIPOS>SUBSTRUCTURE
      1 S1             1
@<TRIPOS>SET
LONE_PAIRS      STATIC     ATOMS    <user>   **** ""
8 51 52 53 54 55 56 57 58
DONOR_HYDROGENS      STATIC     ATOMS    <user>   **** ""
3 33 34 37
ATOM$BLUE        STATIC     ATOMS    COLORGROUP SYSTEM
8 51 52 53 54 55 56 57 58
ATOM$RED        STATIC     ATOMS    COLORGROUP SYSTEM
3 33 34 37
