AV-unprocessed.smi:3303|AV-procd|sdf|12662|dock1
  -GOLD-   2272018593D 1   1.00000     0.00000
 Structure written by MMmdl.
 45 46  0  0  0  0  0  0  0  0  3 V2000
  146.9293  142.5931  154.4849 C   0  0  0  0  0  0  0  0  0  0  0  0
  146.9756  141.2574  155.2568 C   0  0  1  0  0  0  0  0  0  0  0  0
  146.4410  140.0984  154.3892 C   0  0  0  0  0  0  0  0  0  0  0  0
  147.3905  139.7523  153.2995 N   0  3  2  0  0  0  0  0  0  0  0  0
  146.8176  138.8037  152.3173 C   0  0  0  0  0  0  0  0  0  0  0  0
  148.7506  139.3820  153.7883 C   0  0  2  0  0  0  0  0  0  0  0  0
  148.8024  138.0052  154.4863 C   0  0  0  0  0  0  0  0  0  0  0  0
  149.3298  140.5077  154.6732 C   0  0  0  0  0  0  0  0  0  0  0  0
  148.3713  140.8979  155.8200 C   0  0  1  0  0  0  0  0  0  0  0  0
  148.9061  141.9935  156.6635 N   0  3  0  0  0  0  0  0  0  0  0  0
  150.2143  141.7278  157.2985 C   0  0  0  0  0  0  0  0  0  0  0  0
  150.9948  143.0314  157.5153 C   0  0  0  0  0  0  0  0  0  0  0  0
  151.6802  143.0683  158.8679 C   0  0  0  0  0  0  0  0  0  0  0  0
  151.4647  144.1418  159.7583 C   0  0  0  0  0  0  0  0  0  0  0  0
  152.1303  144.1268  160.9997 C   0  0  0  0  0  0  0  0  0  0  0  0
  152.9821  143.0464  161.2995 C   0  0  0  0  0  0  0  0  0  0  0  0
  153.1315  142.0241  160.3412 C   0  0  0  0  0  0  0  0  0  0  0  0
  152.4977  142.0287  159.1483 N   0  0  0  0  0  0  0  0  0  0  0  0
  147.5746  142.5828  153.6067 H   0  0  0  0  0  0  0  0  0  0  0  0
  147.2332  143.4321  155.1107 H   0  0  0  0  0  0  0  0  0  0  0  0
  145.9169  142.8057  154.1399 H   0  0  0  0  0  0  0  0  0  0  0  0
  146.2962  141.3658  156.1037 H   0  0  0  0  0  0  0  0  0  0  0  0
  146.2515  139.2199  155.0068 H   0  0  0  0  0  0  0  0  0  0  0  0
  145.4784  140.3777  153.9582 H   0  0  0  0  0  0  0  0  0  0  0  0
  146.5308  137.8628  152.7877 H   0  0  0  0  0  0  0  0  0  0  0  0
  147.5323  138.5900  151.5218 H   0  0  0  0  0  0  0  0  0  0  0  0
  145.9272  139.2306  151.8546 H   0  0  0  0  0  0  0  0  0  0  0  0
  149.3924  139.3112  152.9087 H   0  0  0  0  0  0  0  0  0  0  0  0
  149.8144  137.7850  154.8269 H   0  0  0  0  0  0  0  0  0  0  0  0
  148.5178  137.1986  153.8108 H   0  0  0  0  0  0  0  0  0  0  0  0
  148.1505  137.9529  155.3576 H   0  0  0  0  0  0  0  0  0  0  0  0
  150.2944  140.1879  155.0672 H   0  0  0  0  0  0  0  0  0  0  0  0
  149.5387  141.3815  154.0553 H   0  0  0  0  0  0  0  0  0  0  0  0
  148.2434  140.0343  156.4742 H   0  0  0  0  0  0  0  0  0  0  0  0
  148.9728  142.8352  156.1091 H   0  0  0  0  0  0  0  0  0  0  0  0
  150.0554  141.2281  158.2551 H   0  0  0  0  0  0  0  0  0  0  0  0
  150.7999  141.0536  156.6736 H   0  0  0  0  0  0  0  0  0  0  0  0
  151.7424  143.1546  156.7303 H   0  0  0  0  0  0  0  0  0  0  0  0
  150.3239  143.8882  157.4372 H   0  0  0  0  0  0  0  0  0  0  0  0
  150.8054  144.9579  159.5009 H   0  0  0  0  0  0  0  0  0  0  0  0
  151.9905  144.9294  161.7086 H   0  0  0  0  0  0  0  0  0  0  0  0
  153.5088  143.0022  162.2412 H   0  0  0  0  0  0  0  0  0  0  0  0
  153.7772  141.1811  160.5379 H   0  0  0  0  0  0  0  0  0  0  0  0
  148.2425  142.1552  157.4079 H   0  0  0  0  0  0  0  0  0  0  0  0
  147.5233  140.6099  152.7824 H   0  0  0  0  0  0  0  0  0  0  0  0
  1  2  1  0  0  0  0
  1 19  1  0  0  0  0
  1 20  1  0  0  0  0
  1 21  1  0  0  0  0
  2  9  1  0  0  0  0
  2  3  1  0  0  0  0
  2 22  1  0  0  0  0
  3  4  1  0  0  0  0
  3 23  1  0  0  0  0
  3 24  1  0  0  0  0
  4  5  1  0  0  0  0
  4  6  1  0  0  0  0
  4 45  1  0  0  0  0
  5 25  1  0  0  0  0
  5 26  1  0  0  0  0
  5 27  1  0  0  0  0
  6  7  1  0  0  0  0
  6  8  1  0  0  0  0
  6 28  1  0  0  0  0
  7 29  1  0  0  0  0
  7 30  1  0  0  0  0
  7 31  1  0  0  0  0
  8  9  1  0  0  0  0
  8 32  1  0  0  0  0
  8 33  1  0  0  0  0
  9 10  1  0  0  0  0
  9 34  1  0  0  0  0
 10 11  1  0  0  0  0
 10 35  1  0  0  0  0
 10 44  1  0  0  0  0
 11 12  1  0  0  0  0
 11 36  1  0  0  0  0
 11 37  1  0  0  0  0
 12 13  1  0  0  0  0
 12 38  1  0  0  0  0
 12 39  1  0  0  0  0
 13 18  1  0  0  0  0
 13 14  2  0  0  0  0
 14 15  1  0  0  0  0
 14 40  1  0  0  0  0
 15 16  2  0  0  0  0
 15 41  1  0  0  0  0
 16 17  1  0  0  0  0
 16 42  1  0  0  0  0
 17 18  2  0  0  0  0
 17 43  1  0  0  0  0
M  CHG  1   4   1
M  CHG  1  10   1
M  END
> <s_m_source_file>
AV-unprocessed.smi

> <i_m_source_file_index>
3303

> <i_lp_mmshare_version>
43012

> <i_f3d_flags>
0

> <s_epik_input>
W0NIM11bQ0BASF0xW0NIMl1OKFtDSDNdKVtDQEBIXShbQ0gzXSlbQ0gyXVtDQEhdMVtOSF1bQ0gyXVtDSDJdYzJbY0hdW2NIXVtjSF1bY0hdbjI=

> <s_epik_cmdline>
J2VwaWtfcHl0aG9uJywgJy1waCcsICc3LjAnLCAnLXRuJywgJzgnLCAnLW1hJywgJzIwMCcsICctbWV0YWxfYmluZGluZycsICctaW1hZScsICc8aW5maWxlLm1hZT4nLCAnLW9tYWUnLCAnPG91dGZpbGUubWFlPic=

> <r_epik_Ionization_Penalty>
0.0769462

> <r_epik_Ionization_Penalty_Charging>
0.0759813

> <r_epik_Ionization_Penalty_Neutral>
0.000964829

> <r_epik_State_Penalty>
0.0654373

> <r_epik_Charging_Adjusted_Penalty>
0.141419

> <i_epik_Tot_Q>
2

> <i_epik_Tot_abs_Q>
2

> <r_epik_Metal_State_Penalty>
0.0656439

> <b_epik_Metal_Only>
0

> <s_lp_Force_Field>
OPLS_2005

> <r_lp_Energy>
31.8094

> <b_lp_Chiralities_Consistent>
1

> <s_lp_Variant>
AV-unprocessed.smi:3303-6

> <Gold.Version>
5.8.1

> <Gold.Id.Protein>
6NUR|6NUR_protein|mol2

> <Gold.PLP.Fitness>
41.8363

> <Gold.PLP.PLP>
-36.8825

> <Gold.PLP.part.hbond>
-1.8473

> <Gold.PLP.part.metal>
0.0000

> <Gold.PLP.part.buried>
-2.1064

> <Gold.PLP.part.nonpolar>
-34.7170

> <Gold.PLP.part.repulsive>
0.0356

> <Gold.PLP.ligand.clash>
0.0000

> <Gold.PLP.ligand.torsion>
0.5089

> <Gold.PLP.Chemscore.Hbond>
1.9840

> <Gold.PLP.Chemscore.CHOScore>
0.0000

> <Gold.PLP.Chemscore.Metal>
0.0000

> <Gold.Chemscore.Hbonds>
donor molecule, donor type, donor heavy atom, donor atom, acceptor molecule, acceptor atom, score
      L1  H    10    35       P1  8028  2.00

> <Gold.PLP.Chemscore.Internal.Correction>
0.0195

> <Gold.Rescore>
     Score         DG    S(hbond)    S(metal)    S(lipo)     H(rot)  DE(clash)    DE(int)     intcor
     17.71     -18.40       0.91        0.00     114.51       1.37       0.26       0.43       ----

> <Gold.Chemscore.Fitness>
17.7058

> <Gold.Chemscore.DG>
-18.3963

> <Gold.Chemscore.ZeroCoef>
-5.4800

> <Gold.Chemscore.Hbond>
0.9095

> <Gold.Chemscore.Metal>
0.0000

> <Gold.Chemscore.Lipo>
114.5062

> <Gold.Chemscore.Internal_Hbond>
0.0000

> <Gold.Chemscore.DEClash>
0.2638

> <Gold.Chemscore.DEInternal>
0.4267

> <Gold.Chemscore.Rot>
1.3744

> <Gold.Chemscore.Internal.Correction>
   9.000000E+99

> <Gold.Chemscore.Hbonds>
donor molecule, donor type, donor heavy atom, donor atom, acceptor molecule, acceptor atom, score
      L1  H    10    35       P1  8028  0.99

> <Gold.Chemscore.Hbond.Weighted>
-3.0376

> <Gold.Chemscore.Metal.Weighted>
-0.0000

> <Gold.Chemscore.Lipo.Weighted>
-13.3972

> <Gold.Chemscore.Internal_Hbond.Weighted>
0.0000

> <Gold.Chemscore.DEClash.Weighted>
0.2638

> <Gold.Chemscore.DEInternal.Weighted>
0.4267

> <Gold.Chemscore.Rot.Weighted>
3.5185

> <Gold.Chemscore.Internal.Correction.Weighted>
   9.000000E+99

> <Gold.Protein.RotatedTorsions>
[ 6907 6896 6895 6894 ] final -146.57 input  -60.11 | X-H torsion
[ 7974 7965 7964 7962 ] final   -4.87 input  175.53 | X-H torsion
[ 8008 7997 7996 7995 ] final -113.81 input   59.86 | X-H torsion
[ 10167 10162 10161 10158 ] final   18.97 input  -65.29 | X-H torsion
[ 10718 10713 10712 10709 ] final  132.96 input   66.30 | X-H torsion
[ 10763 10752 10751 10750 ] final   13.08 input  -60.55 | X-H torsion
[ 11005 11000 10999 10996 ] final  144.54 input  -57.11 | X-H torsion

> <Gold.Protein.ActiveResidues>
 VAL166  LYS551  ARG553  GLY616  TRP617  ASP618  TYR619  PRO620  LYS621  CYS622 
 ASP623  PHE694  ASN695  SER759  ASP760  ASP761  ALA762  ILE779  LEU786  VAL792 
 PHE793  MET794  SER795  GLU796  ALA797  LYS798  CYS799  TRP800  GLU811  SER814 

> <Gold.Protein.RotatedAtoms>
  151.1436  133.4955  159.2596 H   0  0  0  0  0  0  0  0  0  0  0  0  # atno 6907 bound_to 6896
  151.1629  135.0281  159.8728 H   0  0  0  0  0  0  0  0  0  0  0  0  # atno 6908 bound_to 6896
  152.5462  134.1307  159.8491 H   0  0  0  0  0  0  0  0  0  0  0  0  # atno 6909 bound_to 6896
  146.2364  140.1936  142.8333 H   0  0  0  0  0  0  0  0  0  0  0  0  # atno 7974 bound_to 7965
  155.0265  140.0393  157.2457 H   0  0  0  0  0  0  0  0  0  0  0  0  # atno 8008 bound_to 7997
  154.7333  140.2735  155.6413 H   0  0  0  0  0  0  0  0  0  0  0  0  # atno 8009 bound_to 7997
  156.2847  140.2680  156.2040 H   0  0  0  0  0  0  0  0  0  0  0  0  # atno 8010 bound_to 7997
  140.5613  143.9331  150.6645 H   0  0  0  0  0  0  0  0  0  0  0  0  # atno 10167 bound_to 10162
  157.4820  131.1086  150.9669 H   0  0  0  0  0  0  0  0  0  0  0  0  # atno 10718 bound_to 10713
  153.1757  135.6819  153.8546 H   0  0  0  0  0  0  0  0  0  0  0  0  # atno 10763 bound_to 10752
  153.7895  135.3171  155.3378 H   0  0  0  0  0  0  0  0  0  0  0  0  # atno 10764 bound_to 10752
  154.8027  135.4768  154.0409 H   0  0  0  0  0  0  0  0  0  0  0  0  # atno 10765 bound_to 10752
  140.0641  134.9188  157.1234 H   0  0  0  0  0  0  0  0  0  0  0  0  # atno 11005 bound_to 11000
  144.9838  140.8484  143.5381 LP  0  0  0  0  0  0  0  0  0  0  0  0  # atno 17320 bound_to 7965
  145.1933  139.2290  143.5231 LP  0  0  0  0  0  0  0  0  0  0  0  0  # atno 17321 bound_to 7965
  140.2783  143.3407  152.1175 LP  0  0  0  0  0  0  0  0  0  0  0  0  # atno 17342 bound_to 10162
  139.5072  144.6827  151.5967 LP  0  0  0  0  0  0  0  0  0  0  0  0  # atno 17343 bound_to 10162
  157.0399  130.5745  149.5354 LP  0  0  0  0  0  0  0  0  0  0  0  0  # atno 17370 bound_to 10713
  156.0127  130.5219  150.8038 LP  0  0  0  0  0  0  0  0  0  0  0  0  # atno 17371 bound_to 10713
  140.3726  134.2374  155.7177 LP  0  0  0  0  0  0  0  0  0  0  0  0  # atno 17394 bound_to 11000
  141.1985  133.8033  157.0578 LP  0  0  0  0  0  0  0  0  0  0  0  0  # atno 17395 bound_to 11000

$$$$
