AV-unprocessed.smi:1962|AV-procd|sdf|7924|dock8
  -GOLD-   2272010 93D 1   1.00000     0.00000
 Structure written by MMmdl.
 35 36  0  0  0  0  0  0  0  0  2 V2000
  153.0357  141.9360  161.7304 C   0  0  0  0  0  0  0  0  0  0  0  0
  153.6573  141.5533  160.3801 C   0  0  2  0  0  0  0  0  0  0  0  0
  153.9133  142.8094  159.5056 C   0  0  0  0  0  0  0  0  0  0  0  0
  152.7724  143.7161  159.3987 N   0  0  0  0  0  0  0  0  0  0  0  0
  152.1088  144.1437  158.2638 C   0  0  0  0  0  0  0  0  0  0  0  0
  151.1182  144.9946  158.6626 C   0  0  0  0  0  0  0  0  0  0  0  0
  151.2614  145.0388  160.0771 C   0  0  0  0  0  0  0  0  0  0  0  0
  152.2577  144.2865  160.5136 N   0  0  0  0  0  0  0  0  0  0  0  0
  152.7471  140.6304  159.6921 N   0  5  0  0  0  0  0  0  0  0  0  0
  151.6097  140.9889  159.0215 C   0  0  0  0  0  0  0  0  0  0  0  0
  150.6911  141.6885  159.4656 O   0  0  0  0  0  0  0  0  0  0  0  0
  151.4138  140.4948  157.6264 C   0  0  0  0  0  0  0  0  0  0  0  0
  150.4454  140.9712  156.9075 N   0  0  0  0  0  0  0  0  0  0  0  0
  150.2316  140.5748  155.6037 N   0  0  0  0  0  0  0  0  0  0  0  0
  149.2900  141.4070  154.8580 C   0  0  0  0  0  0  0  0  0  0  0  0
  150.8091  139.4950  155.0221 C   0  0  0  0  0  0  0  0  0  0  0  0
  150.6224  139.1662  153.8503 O   0  0  0  0  0  0  0  0  0  0  0  0
  151.7156  138.6436  155.9146 C   0  0  0  0  0  0  0  0  0  0  0  0
  152.3692  139.4709  157.0392 C   0  0  0  0  0  0  0  0  0  0  0  0
  153.6892  142.6103  162.2841 H   0  0  0  0  0  0  0  0  0  0  0  0
  152.8714  141.0555  162.3527 H   0  0  0  0  0  0  0  0  0  0  0  0
  152.0755  142.4370  161.6007 H   0  0  0  0  0  0  0  0  0  0  0  0
  154.6215  141.0896  160.5955 H   0  0  0  0  0  0  0  0  0  0  0  0
  154.7744  143.3642  159.8831 H   0  0  0  0  0  0  0  0  0  0  0  0
  154.1745  142.4999  158.4933 H   0  0  0  0  0  0  0  0  0  0  0  0
  152.3908  143.8019  157.2788 H   0  0  0  0  0  0  0  0  0  0  0  0
  150.4015  145.5071  158.0388 H   0  0  0  0  0  0  0  0  0  0  0  0
  150.6782  145.5962  160.7950 H   0  0  0  0  0  0  0  0  0  0  0  0
  148.4595  140.8084  154.4806 H   0  0  0  0  0  0  0  0  0  0  0  0
  149.7872  141.8782  154.0088 H   0  0  0  0  0  0  0  0  0  0  0  0
  148.8685  142.2019  155.4761 H   0  0  0  0  0  0  0  0  0  0  0  0
  151.0995  137.8560  156.3500 H   0  0  0  0  0  0  0  0  0  0  0  0
  152.4797  138.1497  155.3134 H   0  0  0  0  0  0  0  0  0  0  0  0
  153.2543  139.9828  156.6596 H   0  0  0  0  0  0  0  0  0  0  0  0
  152.7180  138.7801  157.8076 H   0  0  0  0  0  0  0  0  0  0  0  0
  1  2  1  0  0  0  0
  1 20  1  0  0  0  0
  1 21  1  0  0  0  0
  1 22  1  0  0  0  0
  2  3  1  0  0  0  0
  2  9  1  0  0  0  0
  2 23  1  0  0  0  0
  3  4  1  0  0  0  0
  3 24  1  0  0  0  0
  3 25  1  0  0  0  0
  4  8  1  0  0  0  0
  4  5  1  0  0  0  0
  5  6  2  0  0  0  0
  5 26  1  0  0  0  0
  6  7  1  0  0  0  0
  6 27  1  0  0  0  0
  7  8  2  0  0  0  0
  7 28  1  0  0  0  0
  9 10  1  0  0  0  0
 10 11  2  0  0  0  0
 10 12  1  0  0  0  0
 12 19  1  0  0  0  0
 12 13  2  0  0  0  0
 13 14  1  0  0  0  0
 14 15  1  0  0  0  0
 14 16  1  0  0  0  0
 15 29  1  0  0  0  0
 15 30  1  0  0  0  0
 15 31  1  0  0  0  0
 16 17  2  0  0  0  0
 16 18  1  0  0  0  0
 18 19  1  0  0  0  0
 18 32  1  0  0  0  0
 18 33  1  0  0  0  0
 19 34  1  0  0  0  0
 19 35  1  0  0  0  0
M  CHG  1   9  -1
M  END
> <s_m_source_file>
AV-unprocessed.smi

> <i_m_source_file_index>
1962

> <i_lp_mmshare_version>
43012

> <i_f3d_flags>
0

> <s_epik_input>
bjFbY0hdW2NIXVtjSF1uMVtDSDJdW0NAQEhdKFtDSDNdKVtOSF1DKD1PKUMyPU5OKFtDSDNdKUMoPU8pW0NIMl1bQ0gyXTI=

> <s_epik_cmdline>
J2VwaWtfcHl0aG9uJywgJy1waCcsICc3LjAnLCAnLXRuJywgJzgnLCAnLW1hJywgJzIwMCcsICctbWV0YWxfYmluZGluZycsICctaW1hZScsICc8aW5maWxlLm1hZT4nLCAnLW9tYWUnLCAnPG91dGZpbGUubWFlPic=

> <r_lp_tautomer_probability>
1

> <r_epik_Ionization_Penalty>
5.21086

> <r_epik_Ionization_Penalty_Charging>
5.21084

> <r_epik_Ionization_Penalty_Neutral>
2.41961e-05

> <r_epik_State_Penalty>
5.21075

> <r_epik_Charging_Adjusted_Penalty>
10.4216

> <i_epik_Tot_Q>
-1

> <i_epik_Tot_abs_Q>
1

> <r_epik_Metal_State_Penalty>
1.27477

> <b_epik_Metal_Only>
1

> <s_epik_Chemistry_Notes>
This compound has an imine and may undergo hydrolysis.

> <s_lp_Force_Field>
OPLS_2005

> <r_lp_Energy>
24.8429

> <b_lp_Chiralities_Consistent>
1

> <s_lp_Variant>
AV-unprocessed.smi:1962-3

> <Gold.Version>
5.8.1

> <Gold.Id.Protein>
6NUR|6NUR_protein|mol2

> <Gold.PLP.Fitness>
39.2226

> <Gold.PLP.PLP>
-39.8740

> <Gold.PLP.part.hbond>
-2.0000

> <Gold.PLP.part.metal>
0.0000

> <Gold.PLP.part.buried>
-2.6515

> <Gold.PLP.part.nonpolar>
-36.7001

> <Gold.PLP.part.repulsive>
0.8762

> <Gold.PLP.ligand.clash>
0.0000

> <Gold.PLP.ligand.torsion>
0.7961

> <Gold.PLP.Chemscore.Hbond>
0.3000

> <Gold.PLP.Chemscore.CHOScore>
0.0000

> <Gold.PLP.Chemscore.Metal>
0.0000

> <Gold.Chemscore.Hbonds>
donor molecule, donor type, donor heavy atom, donor atom, acceptor molecule, acceptor atom, score
      P1  H  7989  7998       L1    17  0.15

> <Gold.PLP.Chemscore.Internal.Correction>
0.0410

> <Gold.Rescore>
     Score         DG    S(hbond)    S(metal)    S(lipo)     H(rot)  DE(clash)    DE(int)     intcor
      8.09     -12.49       0.00        0.00      92.69       1.50       0.04       4.36       ----

> <Gold.Chemscore.Fitness>
8.0907

> <Gold.Chemscore.DG>
-12.4941

> <Gold.Chemscore.ZeroCoef>
-5.4800

> <Gold.Chemscore.Hbond>
0.0000

> <Gold.Chemscore.Metal>
0.0000

> <Gold.Chemscore.Lipo>
92.6914

> <Gold.Chemscore.Internal_Hbond>
0.0000

> <Gold.Chemscore.DEClash>
0.0420

> <Gold.Chemscore.DEInternal>
4.3613

> <Gold.Chemscore.Rot>
1.4964

> <Gold.Chemscore.Internal.Correction>
   9.000000E+99

> <Gold.Chemscore.Hbond.Weighted>
-0.0000

> <Gold.Chemscore.Metal.Weighted>
-0.0000

> <Gold.Chemscore.Lipo.Weighted>
-10.8449

> <Gold.Chemscore.Internal_Hbond.Weighted>
0.0000

> <Gold.Chemscore.DEClash.Weighted>
0.0420

> <Gold.Chemscore.DEInternal.Weighted>
4.3613

> <Gold.Chemscore.Rot.Weighted>
3.8309

> <Gold.Chemscore.Internal.Correction.Weighted>
   9.000000E+99

> <Gold.Protein.RotatedTorsions>
[ 6907 6896 6895 6894 ] final  179.20 input  -60.11 | X-H torsion
[ 7974 7965 7964 7962 ] final   25.89 input  175.53 | X-H torsion
[ 8008 7997 7996 7995 ] final  -85.06 input   59.86 | X-H torsion
[ 10167 10162 10161 10158 ] final  -10.19 input  -65.29 | X-H torsion
[ 10718 10713 10712 10709 ] final -115.16 input   66.30 | X-H torsion
[ 10763 10752 10751 10750 ] final   20.17 input  -60.55 | X-H torsion
[ 11005 11000 10999 10996 ] final  -51.66 input  -57.11 | X-H torsion

> <Gold.Protein.ActiveResidues>
 VAL166  LYS551  ARG553  GLY616  TRP617  ASP618  TYR619  PRO620  LYS621  CYS622 
 ASP623  PHE694  ASN695  SER759  ASP760  ASP761  ALA762  ILE779  LEU786  VAL792 
 PHE793  MET794  SER795  GLU796  ALA797  LYS798  CYS799  TRP800  GLU811  SER814 

> <Gold.Protein.RotatedAtoms>
  151.6754  133.3313  159.3206 H   0  0  0  0  0  0  0  0  0  0  0  0  # atno 6907 bound_to 6896
  150.7848  134.6826  159.6462 H   0  0  0  0  0  0  0  0  0  0  0  0  # atno 6908 bound_to 6896
  152.3914  134.6438  160.0158 H   0  0  0  0  0  0  0  0  0  0  0  0  # atno 6909 bound_to 6896
  146.1866  139.7404  142.8862 H   0  0  0  0  0  0  0  0  0  0  0  0  # atno 7974 bound_to 7965
  154.6366  140.0596  156.9796 H   0  0  0  0  0  0  0  0  0  0  0  0  # atno 8008 bound_to 7997
  155.1582  140.3280  155.4398 H   0  0  0  0  0  0  0  0  0  0  0  0  # atno 8009 bound_to 7997
  156.2510  140.1935  156.6690 H   0  0  0  0  0  0  0  0  0  0  0  0  # atno 8010 bound_to 7997
  140.7107  143.5775  150.9027 H   0  0  0  0  0  0  0  0  0  0  0  0  # atno 10167 bound_to 10162
  156.0877  130.6066  150.8870 H   0  0  0  0  0  0  0  0  0  0  0  0  # atno 10718 bound_to 10713
  153.1099  135.6694  153.9518 H   0  0  0  0  0  0  0  0  0  0  0  0  # atno 10763 bound_to 10752
  153.9065  135.3030  155.3450 H   0  0  0  0  0  0  0  0  0  0  0  0  # atno 10764 bound_to 10752
  154.7519  135.5030  153.9382 H   0  0  0  0  0  0  0  0  0  0  0  0  # atno 10765 bound_to 10752
  141.0883  133.6638  156.3909 H   0  0  0  0  0  0  0  0  0  0  0  0  # atno 11005 bound_to 11000
  145.3921  141.0374  143.3118 LP  0  0  0  0  0  0  0  0  0  0  0  0  # atno 17320 bound_to 7965
  144.8408  139.5475  143.6901 LP  0  0  0  0  0  0  0  0  0  0  0  0  # atno 17321 bound_to 7965
  139.9501  143.6282  152.3031 LP  0  0  0  0  0  0  0  0  0  0  0  0  # atno 17342 bound_to 10162
  139.6797  144.7656  151.1630 LP  0  0  0  0  0  0  0  0  0  0  0  0  # atno 17343 bound_to 10162
  157.6017  131.0941  150.8948 LP  0  0  0  0  0  0  0  0  0  0  0  0  # atno 17370 bound_to 10713
  156.9104  130.5279  149.5280 LP  0  0  0  0  0  0  0  0  0  0  0  0  # atno 17371 bound_to 10713
  140.5312  134.6210  157.5350 LP  0  0  0  0  0  0  0  0  0  0  0  0  # atno 17394 bound_to 11000
  139.9704  134.7302  156.0053 LP  0  0  0  0  0  0  0  0  0  0  0  0  # atno 17395 bound_to 11000

$$$$
