#       Name:                AV-unprocessed.smi:2514
#       Creating user name   scv26
#       Creation time:       Fri Mar 27 13:53:17 2020


#       File generated by GOLD software.
#

@<TRIPOS>MOLECULE
AV-unprocessed.smi:2514
    29    30     1
SMALL
NO_CHARGES


@<TRIPOS>ATOM
      1 ****        -3.4163  -0.7552   1.7364 C.3            1 S1                 0.0000
      2 ****        -2.9074   0.0894   0.5615 C.3            1 S1                 0.0000
      3 ****        -3.3622   1.4204   0.7006 O.3            1 S1                 0.0000
      4 ****        -1.4068   0.1399   0.4923 C.2            1 S1                 0.0000
      5 ****        -0.5742  -0.4677  -0.4045 C.2            1 S1                 0.0000
      6 ****         0.6827  -0.0823   0.0111 N.pl3          1 S1                 0.0000
      7 ****         1.9405  -0.4431  -0.5771 C.3            1 S1                 0.0000
      8 ****         3.2749   0.0801  -0.0349 C.3            1 S1                 0.0000
      9 ****         3.7299   0.1089  -1.4146 N.3            1 S1                 0.0000
     10 ****         2.3656   0.1702  -1.9115 C.3            1 S1                 0.0000
     11 ****         0.6242   0.7114   1.1068 N.2            1 S1                 0.0000
     12 ****        -0.6284   0.8553   1.4060 N.2            1 S1                 0.0000
     13 ****        -3.0708  -1.7861   1.6537 H              1 S1                 0.0000
     14 ****        -4.5059  -0.7733   1.7641 H              1 S1                 0.0000
     15 ****        -3.0656  -0.3620   2.6913 H              1 S1                 0.0000
     16 ****        -3.3128  -0.3089  -0.3693 H              1 S1                 0.0000
     17 ****        -3.0709   1.9157  -0.0496 H              1 S1                 0.0000
     18 ****        -0.7556  -1.1067  -1.2562 H              1 S1                 0.0000
     19 ****         1.9481  -1.5342  -0.6302 H              1 S1                 0.0000
     20 ****         3.2360   1.0805   0.3986 H              1 S1                 0.0000
     21 ****         3.8126  -0.6289   0.5951 H              1 S1                 0.0000
     22 ****         4.2552   0.9448  -1.6291 H              1 S1                 0.0000
     23 ****         2.1786  -0.4659  -2.7771 H              1 S1                 0.0000
     24 ****         2.0294   1.1970  -2.0637 H              1 S1                 0.0000
     25 ****        -2.9855   1.8203   1.5362 LP             1 S1                 0.0000
     26 ****        -4.3611   1.4328   0.7462 LP             1 S1                 0.0000
     27 ****         4.3454  -0.6057  -1.7470 LP             1 S1                 0.0000
     28 ****         1.4011   1.1111   1.5933 LP             1 S1                 0.0000
     29 ****        -0.9824   1.3938   2.1707 LP             1 S1                 0.0000
@<TRIPOS>BOND
    1    1    2 1     
    2    1   13 1     
    3    1   14 1     
    4    1   15 1     
    5    2    3 1     
    6    2    4 1     
    7    2   16 1     
    8    3   17 1     
    9    4   12 1     
   10    4    5 2     
   11    5    6 1     
   12    5   18 1     
   13    6    7 1     
   14    6   11 1     
   15    7   10 1     
   16    7    8 1     
   17    7   19 1     
   18    8    9 1     
   19    8   20 1     
   20    8   21 1     
   21    9   10 1     
   22    9   22 1     
   23   10   23 1     
   24   10   24 1     
   25   11   12 2     
   26    3   25 1     
   27    3   26 1     
   28    9   27 1     
   29   11   28 1     
   30   12   29 1     
@<TRIPOS>SUBSTRUCTURE
      1 S1             1
@<TRIPOS>SET
LONE_PAIRS      STATIC     ATOMS    <user>   **** ""
5 25 26 27 28 29
DONOR_HYDROGENS      STATIC     ATOMS    <user>   **** ""
2 17 22
ATOM$BLUE        STATIC     ATOMS    COLORGROUP SYSTEM
5 25 26 27 28 29
ATOM$RED        STATIC     ATOMS    COLORGROUP SYSTEM
2 17 22
