#       Name:                AV-unprocessed.smi:2557
#       Creating user name   scv26
#       Creation time:       Fri Mar 27 14:07:27 2020


#       File generated by GOLD software.
#

@<TRIPOS>MOLECULE
AV-unprocessed.smi:2557
    42    44     1
SMALL
NO_CHARGES


@<TRIPOS>ATOM
      1 ****        -0.0799  -4.5795   0.3234 O.co2          1 S1                -1.0000
      2 ****         0.5333  -3.4872   0.2692 C.2            1 S1                 0.0000
      3 ****         0.0972  -2.1592   0.2555 C.2            1 S1                 0.0000
      4 ****        -1.3469  -1.8183   0.3415 C.2            1 S1                 0.0000
      5 ****        -2.2241  -2.6791   0.4020 O.2            1 S1                 0.0000
      6 ****        -1.7122  -0.4632   0.3543 N.2            1 S1                 0.0000
      7 ****        -0.7973   0.4561   0.2843 C.2            1 S1                 0.0000
      8 ****        -1.1525   1.9453   0.2872 C.3            1 S1                 0.0000
      9 ****        -2.5984   2.2388   0.7559 C.3            1 S1                 0.0000
     10 ****        -2.8887   3.7481   0.7813 C.3            1 S1                 0.0000
     11 ****        -2.6302   4.3856  -0.5921 C.3            1 S1                 0.0000
     12 ****        -1.1968   4.1066  -1.0690 C.3            1 S1                 0.0000
     13 ****        -0.8955   2.5986  -1.0899 C.3            1 S1                 0.0000
     14 ****         0.5614   0.2183   0.1834 N.pl3          1 S1                 0.0000
     15 ****         1.0007  -1.1002   0.1771 N.pl3          1 S1                 0.0000
     16 ****         1.9784  -3.7602   0.1453 C.ar           1 S1                 0.0000
     17 ****         2.6655  -3.5076  -1.0625 C.ar           1 S1                 0.0000
     18 ****         4.0433  -3.7919  -1.1311 C.ar           1 S1                 0.0000
     19 ****         4.7492  -4.2994  -0.0981 N.ar           1 S1                 0.0000
     20 ****         4.0882  -4.5475   1.0529 C.ar           1 S1                 0.0000
     21 ****         2.7125  -4.2986   1.2251 C.ar           1 S1                 0.0000
     22 ****        -0.4856   2.4240   1.0065 H              1 S1                 0.0000
     23 ****        -3.3159   1.7516   0.0936 H              1 S1                 0.0000
     24 ****        -2.7635   1.8241   1.7514 H              1 S1                 0.0000
     25 ****        -3.9217   3.9225   1.0832 H              1 S1                 0.0000
     26 ****        -2.2610   4.2293   1.5325 H              1 S1                 0.0000
     27 ****        -3.3413   3.9907  -1.3187 H              1 S1                 0.0000
     28 ****        -2.8036   5.4608  -0.5419 H              1 S1                 0.0000
     29 ****        -1.0479   4.5286  -2.0633 H              1 S1                 0.0000
     30 ****        -0.4887   4.6113  -0.4106 H              1 S1                 0.0000
     31 ****         0.1394   2.4488  -1.4000 H              1 S1                 0.0000
     32 ****        -1.5157   2.1162  -1.8471 H              1 S1                 0.0000
     33 ****         1.2636   0.9413   0.1244 H              1 S1                 0.0000
     34 ****         1.9943  -1.2740   0.1247 H              1 S1                 0.0000
     35 ****         2.1436  -3.1043  -1.9180 H              1 S1                 0.0000
     36 ****         4.5939  -3.6063  -2.0413 H              1 S1                 0.0000
     37 ****         4.6737  -4.9563   1.8629 H              1 S1                 0.0000
     38 ****         2.2286  -4.5142   2.1662 H              1 S1                 0.0000
     39 ****        -1.9755  -3.6477   0.3942 LP             1 S1                 0.0000
     40 ****        -3.1855  -2.4101   0.4589 LP             1 S1                 0.0000
     41 ****        -2.6764  -0.2056   0.4173 LP             1 S1                 0.0000
     42 ****         5.7282  -4.4852  -0.1825 LP             1 S1                 0.0000
@<TRIPOS>BOND
    1    1    2 ar    
    2    2    3 2     
    3    2   16 1     
    4    3   15 1     
    5    3    4 1     
    6    4    5 2     
    7    4    6 1     
    8    6    7 2     
    9    7    8 1     
   10    7   14 1     
   11    8   13 1     
   12    8    9 1     
   13    8   22 1     
   14    9   10 1     
   15    9   23 1     
   16    9   24 1     
   17   10   11 1     
   18   10   25 1     
   19   10   26 1     
   20   11   12 1     
   21   11   27 1     
   22   11   28 1     
   23   12   13 1     
   24   12   29 1     
   25   12   30 1     
   26   13   31 1     
   27   13   32 1     
   28   14   15 1     
   29   14   33 1     
   30   15   34 1     
   31   16   21 ar    
   32   16   17 ar    
   33   17   18 ar    
   34   17   35 1     
   35   18   19 ar    
   36   18   36 1     
   37   19   20 ar    
   38   20   21 ar    
   39   20   37 1     
   40   21   38 1     
   41    5   39 1     
   42    5   40 1     
   43    6   41 1     
   44   19   42 1     
@<TRIPOS>SUBSTRUCTURE
      1 S1             1
@<TRIPOS>SET
LONE_PAIRS      STATIC     ATOMS    <user>   **** ""
5 1 39 40 41 42
DONOR_HYDROGENS      STATIC     ATOMS    <user>   **** ""
2 33 34
ATOM$BLUE        STATIC     ATOMS    COLORGROUP SYSTEM
5 1 39 40 41 42
ATOM$RED        STATIC     ATOMS    COLORGROUP SYSTEM
2 33 34
