AV-unprocessed.smi:2032|AV-procd|sdf|8234|dock2
  -GOLD-   2272010503D 1   1.00000     0.00000
 Structure written by MMmdl.
 42 43  0  0  0  0  0  0  0  0  1 V2000
  153.0416  138.5571  154.7911 C   0  0  0  0  0  0  0  0  0  0  0  0
  151.5531  138.5695  154.4271 C   0  0  1  0  0  0  0  0  0  0  0  0
  150.7412  137.5658  155.2679 C   0  0  0  0  0  0  0  0  0  0  0  0
  149.3015  137.6156  154.9893 N   0  0  0  0  0  0  0  0  0  0  0  0
  148.5242  136.6714  155.8263 C   0  0  1  0  0  0  0  0  0  0  0  0
  147.0348  137.0782  155.9621 C   0  0  0  0  0  0  0  0  0  0  0  0
  148.5950  135.1989  155.3267 C   0  0  0  0  0  0  0  0  0  0  0  0
  148.0738  135.0185  153.9743 N   0  0  0  0  0  0  0  0  0  0  0  0
  147.0295  134.2418  153.6508 C   0  0  0  0  0  0  0  0  0  0  0  0
  146.3840  133.5949  154.4762 O   0  0  0  0  0  0  0  0  0  0  0  0
  146.7939  134.2689  152.3274 N   0  0  0  0  0  0  0  0  0  0  0  0
  145.7959  133.5694  151.5990 C   0  0  0  0  0  0  0  0  0  0  0  0
  144.9419  134.1447  150.7443 N   0  0  0  0  0  0  0  0  0  0  0  0
  144.0674  133.2169  150.1727 C   0  0  0  0  0  0  0  0  0  0  0  0
  144.2709  131.9307  150.6066 C   0  0  0  0  0  0  0  0  0  0  0  0
  145.5785  131.8326  151.7556 S   0  0  0  0  0  0  0  0  0  0  0  0
  148.8591  139.0044  155.1575 C   0  0  0  0  0  0  0  0  0  0  0  0
  149.6750  140.0044  154.3164 C   0  0  1  0  0  0  0  0  0  0  0  0
  149.2491  141.4543  154.5699 C   0  0  0  0  0  0  0  0  0  0  0  0
  151.0513  139.8806  154.6507 O   0  0  0  0  0  0  0  0  0  0  0  0
  153.4795  137.5735  154.6193 H   0  0  0  0  0  0  0  0  0  0  0  0
  153.1935  138.8132  155.8400 H   0  0  0  0  0  0  0  0  0  0  0  0
  153.5957  139.2772  154.1884 H   0  0  0  0  0  0  0  0  0  0  0  0
  151.4507  138.3259  153.3682 H   0  0  0  0  0  0  0  0  0  0  0  0
  151.1409  136.5786  155.0466 H   0  0  0  0  0  0  0  0  0  0  0  0
  150.9174  137.7503  156.3289 H   0  0  0  0  0  0  0  0  0  0  0  0
  148.9506  136.6908  156.8303 H   0  0  0  0  0  0  0  0  0  0  0  0
  146.4548  136.3521  156.5305 H   0  0  0  0  0  0  0  0  0  0  0  0
  146.5634  137.1793  154.9840 H   0  0  0  0  0  0  0  0  0  0  0  0
  146.9099  138.0193  156.4956 H   0  0  0  0  0  0  0  0  0  0  0  0
  149.6284  134.8513  155.3420 H   0  0  0  0  0  0  0  0  0  0  0  0
  148.0341  134.5198  155.9669 H   0  0  0  0  0  0  0  0  0  0  0  0
  148.5461  135.5174  153.2347 H   0  0  0  0  0  0  0  0  0  0  0  0
  147.4079  134.8480  151.7741 H   0  0  0  0  0  0  0  0  0  0  0  0
  143.3274  133.5599  149.4646 H   0  0  0  0  0  0  0  0  0  0  0  0
  143.7334  131.0389  150.3210 H   0  0  0  0  0  0  0  0  0  0  0  0
  147.8183  139.1117  154.8574 H   0  0  0  0  0  0  0  0  0  0  0  0
  148.9159  139.2833  156.2108 H   0  0  0  0  0  0  0  0  0  0  0  0
  149.5453  139.7822  153.2558 H   0  0  0  0  0  0  0  0  0  0  0  0
  148.1983  141.6038  154.3204 H   0  0  0  0  0  0  0  0  0  0  0  0
  149.8359  142.1445  153.9636 H   0  0  0  0  0  0  0  0  0  0  0  0
  149.3878  141.7294  155.6159 H   0  0  0  0  0  0  0  0  0  0  0  0
  1  2  1  0  0  0  0
  1 21  1  0  0  0  0
  1 22  1  0  0  0  0
  1 23  1  0  0  0  0
  2 20  1  0  0  0  0
  2  3  1  0  0  0  0
  2 24  1  0  0  0  0
  3  4  1  0  0  0  0
  3 25  1  0  0  0  0
  3 26  1  0  0  0  0
  4  5  1  0  0  0  0
  4 17  1  0  0  0  0
  5  6  1  0  0  0  0
  5  7  1  0  0  0  0
  5 27  1  0  0  0  0
  6 28  1  0  0  0  0
  6 29  1  0  0  0  0
  6 30  1  0  0  0  0
  7  8  1  0  0  0  0
  7 31  1  0  0  0  0
  7 32  1  0  0  0  0
  8  9  1  0  0  0  0
  8 33  1  0  0  0  0
  9 10  2  0  0  0  0
  9 11  1  0  0  0  0
 11 12  1  0  0  0  0
 11 34  1  0  0  0  0
 12 16  1  0  0  0  0
 12 13  2  0  0  0  0
 13 14  1  0  0  0  0
 14 15  2  0  0  0  0
 14 35  1  0  0  0  0
 15 16  1  0  0  0  0
 15 36  1  0  0  0  0
 17 18  1  0  0  0  0
 17 37  1  0  0  0  0
 17 38  1  0  0  0  0
 18 19  1  0  0  0  0
 18 20  1  0  0  0  0
 18 39  1  0  0  0  0
 19 40  1  0  0  0  0
 19 41  1  0  0  0  0
 19 42  1  0  0  0  0
M  END
> <s_m_source_file>
AV-unprocessed.smi

> <i_m_source_file_index>
2032

> <i_lp_mmshare_version>
43012

> <i_f3d_flags>
0

> <s_epik_input>
W0NIM11bQ0BASF0xW0NIMl1OKFtDSDJdW0NASF0oTzEpW0NIM10pW0NASF0oW0NIM10pW0NIMl1bTkhdQyg9TylbTkhdYzJuW2NIXVtjSF1zMg==

> <s_epik_cmdline>
J2VwaWtfcHl0aG9uJywgJy1waCcsICc3LjAnLCAnLXRuJywgJzgnLCAnLW1hJywgJzIwMCcsICctbWV0YWxfYmluZGluZycsICctaW1hZScsICc8aW5maWxlLm1hZT4nLCAnLW9tYWUnLCAnPG91dGZpbGUubWFlPic=

> <r_lp_tautomer_probability>
0.999

> <r_epik_Ionization_Penalty>
0.219202

> <r_epik_Ionization_Penalty_Charging>
0

> <r_epik_Ionization_Penalty_Neutral>
0.219202

> <r_epik_State_Penalty>
0.209349

> <r_epik_Charging_Adjusted_Penalty>
0.209349

> <i_epik_Tot_Q>
0

> <i_epik_Tot_abs_Q>
0

> <r_epik_Metal_State_Penalty>
0.247737

> <b_epik_Metal_Only>
0

> <s_lp_Force_Field>
OPLS_2005

> <r_lp_Energy>
24.906

> <b_lp_Chiralities_Consistent>
1

> <s_lp_Variant>
AV-unprocessed.smi:2032-4

> <Gold.Version>
5.8.1

> <Gold.Id.Protein>
6NUR|6NUR_protein|mol2

> <Gold.PLP.Fitness>
42.0541

> <Gold.PLP.PLP>
-32.1423

> <Gold.PLP.part.hbond>
-2.9694

> <Gold.PLP.part.metal>
0.0000

> <Gold.PLP.part.buried>
-5.5232

> <Gold.PLP.part.nonpolar>
-23.7585

> <Gold.PLP.part.repulsive>
0.4572

> <Gold.PLP.ligand.clash>
0.0000

> <Gold.PLP.ligand.torsion>
0.9016

> <Gold.PLP.Chemscore.Hbond>
2.8960

> <Gold.PLP.Chemscore.CHOScore>
0.9983

> <Gold.PLP.Chemscore.Metal>
0.0000

> <Gold.Chemscore.Hbonds>
donor molecule, donor type, donor heavy atom, donor atom, acceptor molecule, acceptor atom, score
      L1  H     8    33       P1  7948  1.00
      L1  H    11    34       P1  7948  0.91
      P1  H  7989  7998       L1    20  0.85
      L1  C    14    35       P1 10186  1.00

> <Gold.PLP.Chemscore.Internal.Correction>
0.0322

> <Gold.Rescore>
     Score         DG    S(hbond)    S(metal)    S(lipo)     H(rot)  DE(clash)    DE(int)     intcor
     15.42     -16.28       1.83        0.00      74.65       1.57       0.03       0.84       ----

> <Gold.Chemscore.Fitness>
15.4177

> <Gold.Chemscore.DG>
-16.2805

> <Gold.Chemscore.ZeroCoef>
-5.4800

> <Gold.Chemscore.Hbond>
1.8260

> <Gold.Chemscore.Metal>
0.0000

> <Gold.Chemscore.Lipo>
74.6459

> <Gold.Chemscore.Internal_Hbond>
0.0000

> <Gold.Chemscore.DEClash>
0.0270

> <Gold.Chemscore.DEInternal>
0.8358

> <Gold.Chemscore.Rot>
1.5750

> <Gold.Chemscore.Internal.Correction>
   9.000000E+99

> <Gold.Chemscore.Hbonds>
donor molecule, donor type, donor heavy atom, donor atom, acceptor molecule, acceptor atom, score
      L1  H     8    33       P1  7948  0.95
      L1  H    11    34       P1  7948  0.62
      P1  H  7989  7998       L1    20  0.10

> <Gold.Chemscore.Hbond.Weighted>
-6.0988

> <Gold.Chemscore.Metal.Weighted>
-0.0000

> <Gold.Chemscore.Lipo.Weighted>
-8.7336

> <Gold.Chemscore.Internal_Hbond.Weighted>
0.0000

> <Gold.Chemscore.DEClash.Weighted>
0.0270

> <Gold.Chemscore.DEInternal.Weighted>
0.8358

> <Gold.Chemscore.Rot.Weighted>
4.0319

> <Gold.Chemscore.Internal.Correction.Weighted>
   9.000000E+99

> <Gold.Protein.RotatedTorsions>
[ 6907 6896 6895 6894 ] final  -41.72 input  -60.11 | X-H torsion
[ 7974 7965 7964 7962 ] final -179.90 input  175.53 | X-H torsion
[ 8008 7997 7996 7995 ] final  -39.32 input   59.86 | X-H torsion
[ 10167 10162 10161 10158 ] final -141.87 input  -65.29 | X-H torsion
[ 10718 10713 10712 10709 ] final   15.60 input   66.30 | X-H torsion
[ 10763 10752 10751 10750 ] final  165.90 input  -60.55 | X-H torsion
[ 11005 11000 10999 10996 ] final -164.93 input  -57.11 | X-H torsion

> <Gold.Protein.ActiveResidues>
 VAL166  LYS551  ARG553  GLY616  TRP617  ASP618  TYR619  PRO620  LYS621  CYS622 
 ASP623  PHE694  ASN695  SER759  ASP760  ASP761  ALA762  ILE779  LEU786  VAL792 
 PHE793  MET794  SER795  GLU796  ALA797  LYS798  CYS799  TRP800  GLU811  SER814 

> <Gold.Protein.RotatedAtoms>
  150.9635  134.9019  159.7744 H   0  0  0  0  0  0  0  0  0  0  0  0  # atno 6907 bound_to 6896
  152.5165  134.3640  159.9305 H   0  0  0  0  0  0  0  0  0  0  0  0  # atno 6908 bound_to 6896
  151.3651  133.3834  159.2728 H   0  0  0  0  0  0  0  0  0  0  0  0  # atno 6909 bound_to 6896
  144.7140  140.0648  143.6431 H   0  0  0  0  0  0  0  0  0  0  0  0  # atno 7974 bound_to 7965
  154.4024  140.1554  156.2845 H   0  0  0  0  0  0  0  0  0  0  0  0  # atno 8008 bound_to 7997
  155.8840  140.3442  155.5886 H   0  0  0  0  0  0  0  0  0  0  0  0  # atno 8009 bound_to 7997
  155.7634  140.0820  157.2134 H   0  0  0  0  0  0  0  0  0  0  0  0  # atno 8010 bound_to 7997
  139.8143  143.7660  152.2664 H   0  0  0  0  0  0  0  0  0  0  0  0  # atno 10167 bound_to 10162
  157.0558  130.6288  149.5776 H   0  0  0  0  0  0  0  0  0  0  0  0  # atno 10718 bound_to 10713
  154.3309  135.2755  155.2472 H   0  0  0  0  0  0  0  0  0  0  0  0  # atno 10763 bound_to 10752
  154.4784  135.5865  153.6375 H   0  0  0  0  0  0  0  0  0  0  0  0  # atno 10764 bound_to 10752
  152.9866  135.6105  154.3502 H   0  0  0  0  0  0  0  0  0  0  0  0  # atno 10765 bound_to 10752
  140.5814  134.5138  157.5179 H   0  0  0  0  0  0  0  0  0  0  0  0  # atno 11005 bound_to 11000
  145.9834  139.2958  143.1028 LP  0  0  0  0  0  0  0  0  0  0  0  0  # atno 17320 bound_to 7965
  145.8985  140.9258  143.0515 LP  0  0  0  0  0  0  0  0  0  0  0  0  # atno 17321 bound_to 7965
  139.7819  144.7441  151.0076 LP  0  0  0  0  0  0  0  0  0  0  0  0  # atno 17342 bound_to 10162
  140.7816  143.4533  151.0381 LP  0  0  0  0  0  0  0  0  0  0  0  0  # atno 17343 bound_to 10162
  155.9993  130.5069  150.7603 LP  0  0  0  0  0  0  0  0  0  0  0  0  # atno 17370 bound_to 10713
  157.4994  131.0917  151.0333 LP  0  0  0  0  0  0  0  0  0  0  0  0  # atno 17371 bound_to 10713
  139.9315  134.7954  156.0917 LP  0  0  0  0  0  0  0  0  0  0  0  0  # atno 17394 bound_to 11000
  141.0994  133.6683  156.2719 LP  0  0  0  0  0  0  0  0  0  0  0  0  # atno 17395 bound_to 11000

$$$$
