AV-unprocessed.smi:2032|AV-procd|sdf|8237|dock3
  -GOLD-   2272010503D 1   1.00000     0.00000
 Structure written by MMmdl.
 43 44  0  0  0  0  0  0  0  0  2 V2000
  152.9221  138.8959  154.4947 C   0  0  0  0  0  0  0  0  0  0  0  0
  151.6381  138.0865  154.2803 C   0  0  2  0  0  0  0  0  0  0  0  0
  150.4142  138.9949  154.0558 C   0  0  0  0  0  0  0  0  0  0  0  0
  149.1656  138.1923  153.9475 N   0  3  2  0  0  0  0  0  0  0  0  0
  147.9127  138.9566  153.6354 C   0  0  2  0  0  0  0  0  0  0  0  0
  147.7936  140.1702  154.5857 C   0  0  0  0  0  0  0  0  0  0  0  0
  146.6215  138.0913  153.6769 C   0  0  0  0  0  0  0  0  0  0  0  0
  146.6757  136.9380  152.7808 N   0  0  0  0  0  0  0  0  0  0  0  0
  145.6366  136.1512  152.4624 C   0  0  0  0  0  0  0  0  0  0  0  0
  144.4969  136.3264  152.8943 O   0  0  0  0  0  0  0  0  0  0  0  0
  146.0063  135.1722  151.6183 N   0  0  0  0  0  0  0  0  0  0  0  0
  145.1864  134.1907  151.0020 C   0  0  0  0  0  0  0  0  0  0  0  0
  145.5876  133.3865  150.0106 N   0  0  0  0  0  0  0  0  0  0  0  0
  144.5777  132.5105  149.6047 C   0  0  0  0  0  0  0  0  0  0  0  0
  143.4061  132.6621  150.3035 C   0  0  0  0  0  0  0  0  0  0  0  0
  143.5246  133.9193  151.5055 S   0  0  0  0  0  0  0  0  0  0  0  0
  149.0243  137.3410  155.1601 C   0  0  0  0  0  0  0  0  0  0  0  0
  150.2684  136.4627  155.3882 C   0  0  1  0  0  0  0  0  0  0  0  0
  150.3962  135.3020  154.3851 C   0  0  0  0  0  0  0  0  0  0  0  0
  151.4366  137.2777  155.4339 O   0  0  0  0  0  0  0  0  0  0  0  0
  153.1411  139.5228  153.6299 H   0  0  0  0  0  0  0  0  0  0  0  0
  153.7766  138.2368  154.6505 H   0  0  0  0  0  0  0  0  0  0  0  0
  152.8399  139.5454  155.3668 H   0  0  0  0  0  0  0  0  0  0  0  0
  151.7860  137.4505  153.4073 H   0  0  0  0  0  0  0  0  0  0  0  0
  150.3164  139.7133  154.8716 H   0  0  0  0  0  0  0  0  0  0  0  0
  150.5960  139.5583  153.1412 H   0  0  0  0  0  0  0  0  0  0  0  0
  148.0041  139.3322  152.6150 H   0  0  0  0  0  0  0  0  0  0  0  0
  146.9544  140.8116  154.3184 H   0  0  0  0  0  0  0  0  0  0  0  0
  148.6722  140.8118  154.5670 H   0  0  0  0  0  0  0  0  0  0  0  0
  147.6460  139.8465  155.6166 H   0  0  0  0  0  0  0  0  0  0  0  0
  146.4756  137.6722  154.6725 H   0  0  0  0  0  0  0  0  0  0  0  0
  145.7436  138.7044  153.4653 H   0  0  0  0  0  0  0  0  0  0  0  0
  147.5750  136.7190  152.3775 H   0  0  0  0  0  0  0  0  0  0  0  0
  146.9834  135.1382  151.3677 H   0  0  0  0  0  0  0  0  0  0  0  0
  144.7798  131.8085  148.8093 H   0  0  0  0  0  0  0  0  0  0  0  0
  142.4846  132.1119  150.1843 H   0  0  0  0  0  0  0  0  0  0  0  0
  148.8749  137.9861  156.0275 H   0  0  0  0  0  0  0  0  0  0  0  0
  148.1470  136.6998  155.1010 H   0  0  0  0  0  0  0  0  0  0  0  0
  150.1788  136.0132  156.3776 H   0  0  0  0  0  0  0  0  0  0  0  0
  149.5478  134.6228  154.4717 H   0  0  0  0  0  0  0  0  0  0  0  0
  151.3007  134.7234  154.5736 H   0  0  0  0  0  0  0  0  0  0  0  0
  150.4281  135.6466  153.3519 H   0  0  0  0  0  0  0  0  0  0  0  0
  149.3113  137.5694  153.1659 H   0  0  0  0  0  0  0  0  0  0  0  0
  1  2  1  0  0  0  0
  1 21  1  0  0  0  0
  1 22  1  0  0  0  0
  1 23  1  0  0  0  0
  2 20  1  0  0  0  0
  2  3  1  0  0  0  0
  2 24  1  0  0  0  0
  3  4  1  0  0  0  0
  3 25  1  0  0  0  0
  3 26  1  0  0  0  0
  4  5  1  0  0  0  0
  4 17  1  0  0  0  0
  4 43  1  0  0  0  0
  5  6  1  0  0  0  0
  5  7  1  0  0  0  0
  5 27  1  0  0  0  0
  6 28  1  0  0  0  0
  6 29  1  0  0  0  0
  6 30  1  0  0  0  0
  7  8  1  0  0  0  0
  7 31  1  0  0  0  0
  7 32  1  0  0  0  0
  8  9  1  0  0  0  0
  8 33  1  0  0  0  0
  9 10  2  0  0  0  0
  9 11  1  0  0  0  0
 11 12  1  0  0  0  0
 11 34  1  0  0  0  0
 12 16  1  0  0  0  0
 12 13  2  0  0  0  0
 13 14  1  0  0  0  0
 14 15  2  0  0  0  0
 14 35  1  0  0  0  0
 15 16  1  0  0  0  0
 15 36  1  0  0  0  0
 17 18  1  0  0  0  0
 17 37  1  0  0  0  0
 17 38  1  0  0  0  0
 18 19  1  0  0  0  0
 18 20  1  0  0  0  0
 18 39  1  0  0  0  0
 19 40  1  0  0  0  0
 19 41  1  0  0  0  0
 19 42  1  0  0  0  0
M  CHG  1   4   1
M  END
> <s_m_source_file>
AV-unprocessed.smi

> <i_m_source_file_index>
2032

> <i_lp_mmshare_version>
43012

> <i_f3d_flags>
0

> <s_epik_input>
W0NIM11bQ0BASF0xW0NIMl1OKFtDSDJdW0NASF0oTzEpW0NIM10pW0NASF0oW0NIM10pW0NIMl1bTkhdQyg9TylbTkhdYzJuW2NIXVtjSF1zMg==

> <s_epik_cmdline>
J2VwaWtfcHl0aG9uJywgJy1waCcsICc3LjAnLCAnLXRuJywgJzgnLCAnLW1hJywgJzIwMCcsICctbWV0YWxfYmluZGluZycsICctaW1hZScsICc8aW5maWxlLm1hZT4nLCAnLW9tYWUnLCAnPG91dGZpbGUubWFlPic=

> <r_lp_tautomer_probability>
0.999

> <r_epik_Ionization_Penalty>
0.695838

> <r_epik_Ionization_Penalty_Charging>
0.695697

> <r_epik_Ionization_Penalty_Neutral>
0.000141198

> <r_epik_State_Penalty>
0.717972

> <r_epik_Charging_Adjusted_Penalty>
1.41367

> <i_epik_Tot_Q>
1

> <i_epik_Tot_abs_Q>
1

> <r_epik_Metal_State_Penalty>
0.756405

> <b_epik_Metal_Only>
0

> <s_lp_Force_Field>
OPLS_2005

> <r_lp_Energy>
21.5501

> <b_lp_Chiralities_Consistent>
1

> <s_lp_Variant>
AV-unprocessed.smi:2032-7

> <Gold.Version>
5.8.1

> <Gold.Id.Protein>
6NUR|6NUR_protein|mol2

> <Gold.PLP.Fitness>
46.0547

> <Gold.PLP.PLP>
-33.0844

> <Gold.PLP.part.hbond>
-2.9165

> <Gold.PLP.part.metal>
0.0000

> <Gold.PLP.part.buried>
-5.1862

> <Gold.PLP.part.nonpolar>
-25.2470

> <Gold.PLP.part.repulsive>
0.4018

> <Gold.PLP.ligand.clash>
0.0000

> <Gold.PLP.ligand.torsion>
0.2424

> <Gold.PLP.Chemscore.Hbond>
3.4554

> <Gold.PLP.Chemscore.CHOScore>
1.0000

> <Gold.PLP.Chemscore.Metal>
0.0000

> <Gold.Chemscore.Hbonds>
donor molecule, donor type, donor heavy atom, donor atom, acceptor molecule, acceptor atom, score
      L1  H     4    43       P1  7948  2.00
      L1  H     8    33       P1  7948  1.00
      L1  H    11    34       P1  7948  0.36
      L1  C    15    36       P1 10186  0.09
      L1  C    15    36       P1 10952  1.00

> <Gold.PLP.Chemscore.Internal.Correction>
0.0891

> <Gold.Rescore>
     Score         DG    S(hbond)    S(metal)    S(lipo)     H(rot)  DE(clash)    DE(int)     intcor
     16.80     -18.32       2.33        0.00      78.40       1.61       0.01       1.50       ----

> <Gold.Chemscore.Fitness>
16.8044

> <Gold.Chemscore.DG>
-18.3162

> <Gold.Chemscore.ZeroCoef>
-5.4800

> <Gold.Chemscore.Hbond>
2.3317

> <Gold.Chemscore.Metal>
0.0000

> <Gold.Chemscore.Lipo>
78.3970

> <Gold.Chemscore.Internal_Hbond>
0.0000

> <Gold.Chemscore.DEClash>
0.0133

> <Gold.Chemscore.DEInternal>
1.4985

> <Gold.Chemscore.Rot>
1.6110

> <Gold.Chemscore.Internal.Correction>
   9.000000E+99

> <Gold.Chemscore.Hbonds>
donor molecule, donor type, donor heavy atom, donor atom, acceptor molecule, acceptor atom, score
      L1  H     4    43       P1  7948  0.97
      L1  H     8    33       P1  7948  0.94
      L1  H    11    34       P1  7948  0.31

> <Gold.Chemscore.Hbond.Weighted>
-7.7879

> <Gold.Chemscore.Metal.Weighted>
-0.0000

> <Gold.Chemscore.Lipo.Weighted>
-9.1724

> <Gold.Chemscore.Internal_Hbond.Weighted>
0.0000

> <Gold.Chemscore.DEClash.Weighted>
0.0133

> <Gold.Chemscore.DEInternal.Weighted>
1.4985

> <Gold.Chemscore.Rot.Weighted>
4.1242

> <Gold.Chemscore.Internal.Correction.Weighted>
   9.000000E+99

> <Gold.Protein.RotatedTorsions>
[ 6907 6896 6895 6894 ] final  168.08 input  -60.11 | X-H torsion
[ 7974 7965 7964 7962 ] final  132.91 input  175.53 | X-H torsion
[ 8008 7997 7996 7995 ] final   93.81 input   59.86 | X-H torsion
[ 10167 10162 10161 10158 ] final  -48.19 input  -65.29 | X-H torsion
[ 10718 10713 10712 10709 ] final  -75.14 input   66.30 | X-H torsion
[ 10763 10752 10751 10750 ] final   -9.49 input  -60.55 | X-H torsion
[ 11005 11000 10999 10996 ] final  127.38 input  -57.11 | X-H torsion

> <Gold.Protein.ActiveResidues>
 VAL166  LYS551  ARG553  GLY616  TRP617  ASP618  TYR619  PRO620  LYS621  CYS622 
 ASP623  PHE694  ASN695  SER759  ASP760  ASP761  ALA762  ILE779  LEU786  VAL792 
 PHE793  MET794  SER795  GLU796  ALA797  LYS798  CYS799  TRP800  GLU811  SER814 

> <Gold.Protein.RotatedAtoms>
  151.8532  133.3443  159.3679 H   0  0  0  0  0  0  0  0  0  0  0  0  # atno 6907 bound_to 6896
  150.7200  134.5279  159.5695 H   0  0  0  0  0  0  0  0  0  0  0  0  # atno 6908 bound_to 6896
  152.2777  134.7864  160.0453 H   0  0  0  0  0  0  0  0  0  0  0  0  # atno 6909 bound_to 6896
  144.9920  139.4397  143.5335 H   0  0  0  0  0  0  0  0  0  0  0  0  # atno 7974 bound_to 7965
  156.0509  140.3308  155.7350 H   0  0  0  0  0  0  0  0  0  0  0  0  # atno 8008 bound_to 7997
  155.5602  140.0618  157.2848 H   0  0  0  0  0  0  0  0  0  0  0  0  # atno 8009 bound_to 7997
  154.4435  140.1879  156.0763 H   0  0  0  0  0  0  0  0  0  0  0  0  # atno 8010 bound_to 7997
  140.6742  143.2751  151.4035 H   0  0  0  0  0  0  0  0  0  0  0  0  # atno 10167 bound_to 10162
  156.0218  130.4433  150.2998 H   0  0  0  0  0  0  0  0  0  0  0  0  # atno 10718 bound_to 10713
  153.4555  135.7015  153.6082 H   0  0  0  0  0  0  0  0  0  0  0  0  # atno 10763 bound_to 10752
  153.4399  135.3782  155.2222 H   0  0  0  0  0  0  0  0  0  0  0  0  # atno 10764 bound_to 10752
  154.8728  135.3971  154.3973 H   0  0  0  0  0  0  0  0  0  0  0  0  # atno 10765 bound_to 10752
  139.9504  134.9623  156.8845 H   0  0  0  0  0  0  0  0  0  0  0  0  # atno 11005 bound_to 11000
  146.3433  139.9256  142.8760 LP  0  0  0  0  0  0  0  0  0  0  0  0  # atno 17320 bound_to 7965
  145.2273  140.9959  143.4011 LP  0  0  0  0  0  0  0  0  0  0  0  0  # atno 17321 bound_to 7965
  139.6025  144.1265  152.2214 LP  0  0  0  0  0  0  0  0  0  0  0  0  # atno 17342 bound_to 10162
  140.0654  144.5823  150.7232 LP  0  0  0  0  0  0  0  0  0  0  0  0  # atno 17343 bound_to 10162
  157.1101  131.0219  151.3051 LP  0  0  0  0  0  0  0  0  0  0  0  0  # atno 17370 bound_to 10713
  157.4711  130.7709  149.7325 LP  0  0  0  0  0  0  0  0  0  0  0  0  # atno 17371 bound_to 10713
  140.5732  134.0423  155.7438 LP  0  0  0  0  0  0  0  0  0  0  0  0  # atno 17394 bound_to 11000
  141.1166  133.9531  157.2811 LP  0  0  0  0  0  0  0  0  0  0  0  0  # atno 17395 bound_to 11000

$$$$
