AV-unprocessed.smi:1774|AV-procd|sdf|7169|dock8
  -GOLD-   22720 8403D 1   1.00000     0.00000
 Structure written by MMmdl.
 46 47  0  0  0  0  0  0  0  0  2 V2000
  146.9317  132.8342  152.3356 C   0  0  0  0  0  0  0  0  0  0  0  0
  145.8399  133.0252  151.2955 C   0  0  0  0  0  0  0  0  0  0  0  0
  145.1713  131.8940  150.7807 C   0  0  0  0  0  0  0  0  0  0  0  0
  144.1616  132.0727  149.8199 C   0  0  0  0  0  0  0  0  0  0  0  0
  143.8616  133.3835  149.4113 C   0  0  0  0  0  0  0  0  0  0  0  0
  144.4952  134.4699  149.8981 N   0  0  0  0  0  0  0  0  0  0  0  0
  145.4713  134.3149  150.8277 C   0  0  0  0  0  0  0  0  0  0  0  0
  146.1792  135.4162  151.3873 N   0  0  0  0  0  0  0  0  0  0  0  0
  145.6796  136.5288  151.9536 C   0  0  0  0  0  0  0  0  0  0  0  0
  144.4834  136.7985  152.0674 O   0  0  0  0  0  0  0  0  0  0  0  0
  146.6575  137.3320  152.3975 N   0  0  0  0  0  0  0  0  0  0  0  0
  146.4385  138.5932  153.0960 C   0  0  0  0  0  0  0  0  0  0  0  0
  147.7512  139.1642  153.6657 C   0  0  0  0  0  0  0  0  0  0  0  0
  148.5976  138.1101  154.2769 N   0  3  1  0  0  0  0  0  0  0  0  0
  149.9330  138.6096  154.6767 C   0  0  0  0  0  0  0  0  0  0  0  0
  150.8039  137.4525  155.1995 C   0  0  1  0  0  0  0  0  0  0  0  0
  152.1655  137.9406  155.7059 C   0  0  0  0  0  0  0  0  0  0  0  0
  150.1386  136.8079  156.2829 O   0  0  0  0  0  0  0  0  0  0  0  0
  148.8417  136.2974  155.9740 C   0  0  2  0  0  0  0  0  0  0  0  0
  148.9034  135.0560  155.0663 C   0  0  0  0  0  0  0  0  0  0  0  0
  147.9458  137.4215  155.4183 C   0  0  0  0  0  0  0  0  0  0  0  0
  147.0521  131.7824  152.5959 H   0  0  0  0  0  0  0  0  0  0  0  0
  146.6906  133.3792  153.2486 H   0  0  0  0  0  0  0  0  0  0  0  0
  147.8869  133.1979  151.9561 H   0  0  0  0  0  0  0  0  0  0  0  0
  145.4261  130.8997  151.1168 H   0  0  0  0  0  0  0  0  0  0  0  0
  143.6308  131.2278  149.4067 H   0  0  0  0  0  0  0  0  0  0  0  0
  143.0932  133.5655  148.6746 H   0  0  0  0  0  0  0  0  0  0  0  0
  147.1848  135.3330  151.3723 H   0  0  0  0  0  0  0  0  0  0  0  0
  147.6151  137.0403  152.2647 H   0  0  0  0  0  0  0  0  0  0  0  0
  145.9573  139.2975  152.4166 H   0  0  0  0  0  0  0  0  0  0  0  0
  145.7306  138.4137  153.9056 H   0  0  0  0  0  0  0  0  0  0  0  0
  148.2963  139.6362  152.8467 H   0  0  0  0  0  0  0  0  0  0  0  0
  147.5585  139.9493  154.3987 H   0  0  0  0  0  0  0  0  0  0  0  0
  150.4239  139.0761  153.8216 H   0  0  0  0  0  0  0  0  0  0  0  0
  149.8201  139.3795  155.4421 H   0  0  0  0  0  0  0  0  0  0  0  0
  150.9802  136.7356  154.3974 H   0  0  0  0  0  0  0  0  0  0  0  0
  152.7244  138.4385  154.9130 H   0  0  0  0  0  0  0  0  0  0  0  0
  152.7698  137.1066  156.0633 H   0  0  0  0  0  0  0  0  0  0  0  0
  152.0520  138.6461  156.5296 H   0  0  0  0  0  0  0  0  0  0  0  0
  148.4134  135.9716  156.9224 H   0  0  0  0  0  0  0  0  0  0  0  0
  147.9153  134.6084  154.9569 H   0  0  0  0  0  0  0  0  0  0  0  0
  149.5618  134.2975  155.4904 H   0  0  0  0  0  0  0  0  0  0  0  0
  149.2644  135.2907  154.0654 H   0  0  0  0  0  0  0  0  0  0  0  0
  147.7478  138.1507  156.2058 H   0  0  0  0  0  0  0  0  0  0  0  0
  146.9803  137.0101  155.1259 H   0  0  0  0  0  0  0  0  0  0  0  0
  148.7574  137.4165  153.5603 H   0  0  0  0  0  0  0  0  0  0  0  0
  1  2  1  0  0  0  0
  1 22  1  0  0  0  0
  1 23  1  0  0  0  0
  1 24  1  0  0  0  0
  2  7  1  0  0  0  0
  2  3  2  0  0  0  0
  3  4  1  0  0  0  0
  3 25  1  0  0  0  0
  4  5  2  0  0  0  0
  4 26  1  0  0  0  0
  5  6  1  0  0  0  0
  5 27  1  0  0  0  0
  6  7  2  0  0  0  0
  7  8  1  0  0  0  0
  8  9  1  0  0  0  0
  8 28  1  0  0  0  0
  9 10  2  0  0  0  0
  9 11  1  0  0  0  0
 11 12  1  0  0  0  0
 11 29  1  0  0  0  0
 12 13  1  0  0  0  0
 12 30  1  0  0  0  0
 12 31  1  0  0  0  0
 13 14  1  0  0  0  0
 13 32  1  0  0  0  0
 13 33  1  0  0  0  0
 14 21  1  0  0  0  0
 14 15  1  0  0  0  0
 14 46  1  0  0  0  0
 15 16  1  0  0  0  0
 15 34  1  0  0  0  0
 15 35  1  0  0  0  0
 16 17  1  0  0  0  0
 16 18  1  0  0  0  0
 16 36  1  0  0  0  0
 17 37  1  0  0  0  0
 17 38  1  0  0  0  0
 17 39  1  0  0  0  0
 18 19  1  0  0  0  0
 19 20  1  0  0  0  0
 19 21  1  0  0  0  0
 19 40  1  0  0  0  0
 20 41  1  0  0  0  0
 20 42  1  0  0  0  0
 20 43  1  0  0  0  0
 21 44  1  0  0  0  0
 21 45  1  0  0  0  0
M  CHG  1  14   1
M  END
> <s_m_source_file>
AV-unprocessed.smi

> <i_m_source_file_index>
1774

> <i_lp_mmshare_version>
43012

> <i_f3d_flags>
0

> <s_epik_input>
W0NIM11jMVtjSF1bY0hdW2NIXW5jMVtOSF1DKD1PKVtOSF1bQ0gyXVtDSDJdTjJbQ0gyXVtDQEBIXShbQ0gzXSlPW0NAQEhdKFtDSDNdKVtDSDJdMg==

> <s_epik_cmdline>
J2VwaWtfcHl0aG9uJywgJy1waCcsICc3LjAnLCAnLXRuJywgJzgnLCAnLW1hJywgJzIwMCcsICctbWV0YWxfYmluZGluZycsICctaW1hZScsICc8aW5maWxlLm1hZT4nLCAnLW9tYWUnLCAnPG91dGZpbGUubWFlPic=

> <r_epik_Ionization_Penalty>
0.602573

> <r_epik_Ionization_Penalty_Charging>
0.602531

> <r_epik_Ionization_Penalty_Neutral>
4.21996e-05

> <r_epik_State_Penalty>
0.617039

> <r_epik_Charging_Adjusted_Penalty>
1.21957

> <i_epik_Tot_Q>
1

> <i_epik_Tot_abs_Q>
1

> <r_epik_Metal_State_Penalty>
0.617042

> <b_epik_Metal_Only>
0

> <s_lp_Force_Field>
OPLS_2005

> <r_lp_Energy>
18.7656

> <b_lp_Chiralities_Consistent>
1

> <s_lp_Variant>
AV-unprocessed.smi:1774-6

> <Gold.Version>
5.8.1

> <Gold.Id.Protein>
6NUR|6NUR_protein|mol2

> <Gold.PLP.Fitness>
49.3482

> <Gold.PLP.PLP>
-35.6912

> <Gold.PLP.part.hbond>
-3.0000

> <Gold.PLP.part.metal>
0.0000

> <Gold.PLP.part.buried>
-5.5606

> <Gold.PLP.part.nonpolar>
-28.7449

> <Gold.PLP.part.repulsive>
0.4171

> <Gold.PLP.ligand.clash>
0.0000

> <Gold.PLP.ligand.torsion>
0.5944

> <Gold.PLP.Chemscore.Hbond>
3.9440

> <Gold.PLP.Chemscore.CHOScore>
0.9981

> <Gold.PLP.Chemscore.Metal>
0.0000

> <Gold.Chemscore.Hbonds>
donor molecule, donor type, donor heavy atom, donor atom, acceptor molecule, acceptor atom, score
      L1  H     8    28       P1  7948  0.94
      L1  H    11    29       P1  7948  1.00
      L1  H    14    46       P1  7948  1.82
      L1  C     5    27       P1 10186  0.72

> <Gold.PLP.Chemscore.Internal.Correction>
0.0196

> <Gold.Rescore>
     Score         DG    S(hbond)    S(metal)    S(lipo)     H(rot)  DE(clash)    DE(int)     intcor
     20.82     -21.39       2.79        0.00      89.12       1.49       0.13       0.44       ----

> <Gold.Chemscore.Fitness>
20.8217

> <Gold.Chemscore.DG>
-21.3917

> <Gold.Chemscore.ZeroCoef>
-5.4800

> <Gold.Chemscore.Hbond>
2.7877

> <Gold.Chemscore.Metal>
0.0000

> <Gold.Chemscore.Lipo>
89.1191

> <Gold.Chemscore.Internal_Hbond>
0.0000

> <Gold.Chemscore.DEClash>
0.1253

> <Gold.Chemscore.DEInternal>
0.4447

> <Gold.Chemscore.Rot>
1.4946

> <Gold.Chemscore.Internal.Correction>
   9.000000E+99

> <Gold.Chemscore.Hbonds>
donor molecule, donor type, donor heavy atom, donor atom, acceptor molecule, acceptor atom, score
      L1  H     8    28       P1  7948  0.78
      L1  H    11    29       P1  7948  0.99
      L1  H    14    46       P1  7948  0.87

> <Gold.Chemscore.Hbond.Weighted>
-9.3109

> <Gold.Chemscore.Metal.Weighted>
-0.0000

> <Gold.Chemscore.Lipo.Weighted>
-10.4269

> <Gold.Chemscore.Internal_Hbond.Weighted>
0.0000

> <Gold.Chemscore.DEClash.Weighted>
0.1253

> <Gold.Chemscore.DEInternal.Weighted>
0.4447

> <Gold.Chemscore.Rot.Weighted>
3.8261

> <Gold.Chemscore.Internal.Correction.Weighted>
   9.000000E+99

> <Gold.Protein.RotatedTorsions>
[ 6907 6896 6895 6894 ] final  108.70 input  -60.11 | X-H torsion
[ 7974 7965 7964 7962 ] final  113.59 input  175.53 | X-H torsion
[ 8008 7997 7996 7995 ] final  135.54 input   59.86 | X-H torsion
[ 10167 10162 10161 10158 ] final   46.79 input  -65.29 | X-H torsion
[ 10718 10713 10712 10709 ] final   55.93 input   66.30 | X-H torsion
[ 10763 10752 10751 10750 ] final   39.60 input  -60.55 | X-H torsion
[ 11005 11000 10999 10996 ] final   81.01 input  -57.11 | X-H torsion

> <Gold.Protein.ActiveResidues>
 VAL166  LYS551  ARG553  GLY616  TRP617  ASP618  TYR619  PRO620  LYS621  CYS622 
 ASP623  PHE694  ASN695  SER759  ASP760  ASP761  ALA762  ILE779  LEU786  VAL792 
 PHE793  MET794  SER795  GLU796  ALA797  LYS798  CYS799  TRP800  GLU811  SER814 

> <Gold.Protein.RotatedAtoms>
  152.5100  133.9051  159.7459 H   0  0  0  0  0  0  0  0  0  0  0  0  # atno 6907 bound_to 6896
  150.9457  133.6597  159.2788 H   0  0  0  0  0  0  0  0  0  0  0  0  # atno 6908 bound_to 6896
  151.3893  135.0958  159.9573 H   0  0  0  0  0  0  0  0  0  0  0  0  # atno 6909 bound_to 6896
  145.2151  139.2888  143.4248 H   0  0  0  0  0  0  0  0  0  0  0  0  # atno 7974 bound_to 7965
  156.3003  140.2468  156.3599 H   0  0  0  0  0  0  0  0  0  0  0  0  # atno 8008 bound_to 7997
  154.8887  140.0410  157.1845 H   0  0  0  0  0  0  0  0  0  0  0  0  # atno 8009 bound_to 7997
  154.8620  140.2922  155.5537 H   0  0  0  0  0  0  0  0  0  0  0  0  # atno 8010 bound_to 7997
  140.3103  144.2829  150.6201 H   0  0  0  0  0  0  0  0  0  0  0  0  # atno 10167 bound_to 10162
  157.5387  130.8682  149.8791 H   0  0  0  0  0  0  0  0  0  0  0  0  # atno 10718 bound_to 10713
  152.9962  135.6216  154.2492 H   0  0  0  0  0  0  0  0  0  0  0  0  # atno 10763 bound_to 10752
  154.2230  135.2795  155.2919 H   0  0  0  0  0  0  0  0  0  0  0  0  # atno 10764 bound_to 10752
  154.5512  135.5732  153.6982 H   0  0  0  0  0  0  0  0  0  0  0  0  # atno 10765 bound_to 10752
  139.9113  134.7964  156.1985 H   0  0  0  0  0  0  0  0  0  0  0  0  # atno 11005 bound_to 11000
  146.3389  140.2439  142.8596 LP  0  0  0  0  0  0  0  0  0  0  0  0  # atno 17320 bound_to 7965
  144.9819  140.8467  143.5392 LP  0  0  0  0  0  0  0  0  0  0  0  0  # atno 17321 bound_to 7965
  140.5574  143.2197  151.7824 LP  0  0  0  0  0  0  0  0  0  0  0  0  # atno 17342 bound_to 10162
  139.4895  144.4395  151.9781 LP  0  0  0  0  0  0  0  0  0  0  0  0  # atno 17343 bound_to 10162
  156.0479  130.3724  150.1271 LP  0  0  0  0  0  0  0  0  0  0  0  0  # atno 17370 bound_to 10713
  156.9452  130.9757  151.3509 LP  0  0  0  0  0  0  0  0  0  0  0  0  # atno 17371 bound_to 10713
  141.0539  133.6875  156.1824 LP  0  0  0  0  0  0  0  0  0  0  0  0  # atno 17394 bound_to 11000
  140.6767  134.4811  157.5588 LP  0  0  0  0  0  0  0  0  0  0  0  0  # atno 17395 bound_to 11000

$$$$
