AV-unprocessed.smi:1093|AV-procd|sdf|4741|dock3
  -GOLD-   22720 3273D 1   1.00000     0.00000
 Structure written by MMmdl.
 48 49  0  0  0  0  0  0  0  0  3 V2000
  141.6019  138.6158  152.8601 C   0  0  0  0  0  0  0  0  0  0  0  0
  142.3282  137.2655  152.9435 C   0  0  0  0  0  0  0  0  0  0  0  0
  143.4778  137.1771  152.0077 N   0  3  2  0  0  0  0  0  0  0  0  0
  143.5369  135.8629  151.3165 C   0  0  0  0  0  0  0  0  0  0  0  0
  144.6453  135.8442  150.2513 C   0  0  0  0  0  0  0  0  0  0  0  0
  146.0063  136.1981  150.8638 C   0  0  0  0  0  0  0  0  0  0  0  0
  145.9174  137.5447  151.6034 C   0  0  2  0  0  0  0  0  0  0  0  0
  147.1837  137.8569  152.2616 N   0  0  0  0  0  0  0  0  0  0  0  0
  147.3935  138.9039  153.0729 C   0  0  0  0  0  0  0  0  0  0  0  0
  146.5252  139.7310  153.3492 O   0  0  0  0  0  0  0  0  0  0  0  0
  148.6629  138.9328  153.5153 N   0  0  0  0  0  0  0  0  0  0  0  0
  149.2663  139.8562  154.4124 C   0  0  0  0  0  0  0  0  0  0  0  0
  150.2803  139.3777  155.2681 C   0  0  0  0  0  0  0  0  0  0  0  0
  150.8959  140.2525  156.1867 C   0  0  0  0  0  0  0  0  0  0  0  0
  150.4872  141.6072  156.2528 C   0  0  0  0  0  0  0  0  0  0  0  0
  151.0529  142.5431  157.1457 N   0  0  0  0  0  0  0  0  0  0  0  0
  151.7192  142.0776  158.3552 C   0  0  0  0  0  0  0  0  0  0  0  0
  151.0850  143.9568  156.7870 C   0  0  0  0  0  0  0  0  0  0  0  0
  149.5001  142.0172  155.4192 N   0  3  0  0  0  0  0  0  0  0  0  0
  148.8853  141.2147  154.5238 C   0  0  0  0  0  0  0  0  0  0  0  0
  144.7800  137.5172  152.6424 C   0  0  0  0  0  0  0  0  0  0  0  0
  140.7094  138.6090  153.4865 H   0  0  0  0  0  0  0  0  0  0  0  0
  141.2854  138.8306  151.8392 H   0  0  0  0  0  0  0  0  0  0  0  0
  142.2268  139.4406  153.2008 H   0  0  0  0  0  0  0  0  0  0  0  0
  142.6585  137.0671  153.9640 H   0  0  0  0  0  0  0  0  0  0  0  0
  141.6047  136.4872  152.6969 H   0  0  0  0  0  0  0  0  0  0  0  0
  143.7045  135.0717  152.0492 H   0  0  0  0  0  0  0  0  0  0  0  0
  142.5798  135.6536  150.8370 H   0  0  0  0  0  0  0  0  0  0  0  0
  144.6931  134.8619  149.7803 H   0  0  0  0  0  0  0  0  0  0  0  0
  144.4043  136.5551  149.4597 H   0  0  0  0  0  0  0  0  0  0  0  0
  146.3122  135.4110  151.5548 H   0  0  0  0  0  0  0  0  0  0  0  0
  146.7653  136.2399  150.0817 H   0  0  0  0  0  0  0  0  0  0  0  0
  145.6895  138.3297  150.8794 H   0  0  0  0  0  0  0  0  0  0  0  0
  147.9561  137.2316  152.0831 H   0  0  0  0  0  0  0  0  0  0  0  0
  149.2816  138.2310  153.1361 H   0  0  0  0  0  0  0  0  0  0  0  0
  150.5920  138.3442  155.2222 H   0  0  0  0  0  0  0  0  0  0  0  0
  151.6730  139.8661  156.8290 H   0  0  0  0  0  0  0  0  0  0  0  0
  151.0200  141.5409  158.9975 H   0  0  0  0  0  0  0  0  0  0  0  0
  152.1250  142.9103  158.9301 H   0  0  0  0  0  0  0  0  0  0  0  0
  152.5455  141.4114  158.1047 H   0  0  0  0  0  0  0  0  0  0  0  0
  150.0752  144.3348  156.6244 H   0  0  0  0  0  0  0  0  0  0  0  0
  151.6634  144.1070  155.8749 H   0  0  0  0  0  0  0  0  0  0  0  0
  151.5412  144.5566  157.5747 H   0  0  0  0  0  0  0  0  0  0  0  0
  148.1086  141.6939  153.9474 H   0  0  0  0  0  0  0  0  0  0  0  0
  144.7180  138.4934  153.1227 H   0  0  0  0  0  0  0  0  0  0  0  0
  144.9998  136.7921  153.4281 H   0  0  0  0  0  0  0  0  0  0  0  0
  143.3121  137.8653  151.2871 H   0  0  0  0  0  0  0  0  0  0  0  0
  149.2003  142.9909  155.4719 H   0  0  0  0  0  0  0  0  0  0  0  0
  1  2  1  0  0  0  0
  1 22  1  0  0  0  0
  1 23  1  0  0  0  0
  1 24  1  0  0  0  0
  2  3  1  0  0  0  0
  2 25  1  0  0  0  0
  2 26  1  0  0  0  0
  3 21  1  0  0  0  0
  3  4  1  0  0  0  0
  3 47  1  0  0  0  0
  4  5  1  0  0  0  0
  4 27  1  0  0  0  0
  4 28  1  0  0  0  0
  5  6  1  0  0  0  0
  5 29  1  0  0  0  0
  5 30  1  0  0  0  0
  6  7  1  0  0  0  0
  6 31  1  0  0  0  0
  6 32  1  0  0  0  0
  7  8  1  0  0  0  0
  7 21  1  0  0  0  0
  7 33  1  0  0  0  0
  8  9  1  0  0  0  0
  8 34  1  0  0  0  0
  9 10  2  0  0  0  0
  9 11  1  0  0  0  0
 11 12  1  0  0  0  0
 11 35  1  0  0  0  0
 12 20  1  0  0  0  0
 12 13  2  0  0  0  0
 13 14  1  0  0  0  0
 13 36  1  0  0  0  0
 14 15  2  0  0  0  0
 14 37  1  0  0  0  0
 15 16  1  0  0  0  0
 15 19  1  0  0  0  0
 16 17  1  0  0  0  0
 16 18  1  0  0  0  0
 17 38  1  0  0  0  0
 17 39  1  0  0  0  0
 17 40  1  0  0  0  0
 18 41  1  0  0  0  0
 18 42  1  0  0  0  0
 18 43  1  0  0  0  0
 19 20  2  0  0  0  0
 19 48  1  0  0  0  0
 20 44  1  0  0  0  0
 21 45  1  0  0  0  0
 21 46  1  0  0  0  0
M  CHG  1   3   1
M  CHG  1  19   1
M  END
> <s_m_source_file>
AV-unprocessed.smi

> <i_m_source_file_index>
1093

> <i_lp_mmshare_version>
43012

> <i_f3d_flags>
0

> <s_epik_input>
W0NIM11bQ0gyXU4xW0NIMl1bQ0gyXVtDSDJdW0NASF0oW0NIMl0xKVtOSF1DKD1PKVtOSF1jMltjSF1bY0hdYyhOKFtDSDNdKVtDSDNdKW5bY0hdMg==

> <s_epik_cmdline>
J2VwaWtfcHl0aG9uJywgJy1waCcsICc3LjAnLCAnLXRuJywgJzgnLCAnLW1hJywgJzIwMCcsICctbWV0YWxfYmluZGluZycsICctaW1hZScsICc8aW5maWxlLm1hZT4nLCAnLW9tYWUnLCAnPG91dGZpbGUubWFlPic=

> <r_lp_tautomer_probability>
0.999994

> <r_epik_Ionization_Penalty>
0.346711

> <r_epik_Ionization_Penalty_Charging>
0.346691

> <r_epik_Ionization_Penalty_Neutral>
1.93006e-05

> <r_epik_State_Penalty>
0.339838

> <r_epik_Charging_Adjusted_Penalty>
0.68653

> <i_epik_Tot_Q>
2

> <i_epik_Tot_abs_Q>
2

> <r_epik_Metal_State_Penalty>
0.600835

> <b_epik_Metal_Only>
0

> <s_lp_Force_Field>
OPLS_2005

> <r_lp_Energy>
27.882

> <b_lp_Chiralities_Consistent>
1

> <s_lp_Variant>
AV-unprocessed.smi:1093-4

> <Gold.Version>
5.8.1

> <Gold.Id.Protein>
6NUR|6NUR_protein|mol2

> <Gold.PLP.Fitness>
44.5038

> <Gold.PLP.PLP>
-35.5404

> <Gold.PLP.part.hbond>
-4.1942

> <Gold.PLP.part.metal>
0.0000

> <Gold.PLP.part.buried>
4.7716

> <Gold.PLP.part.nonpolar>
-36.8766

> <Gold.PLP.part.repulsive>
0.6051

> <Gold.PLP.ligand.clash>
0.0000

> <Gold.PLP.ligand.torsion>
1.0955

> <Gold.PLP.Chemscore.Hbond>
3.7095

> <Gold.PLP.Chemscore.CHOScore>
0.0000

> <Gold.PLP.Chemscore.Metal>
0.0000

> <Gold.Chemscore.Hbonds>
donor molecule, donor type, donor heavy atom, donor atom, acceptor molecule, acceptor atom, score
      L1  H     3    47       P1 10171  0.96
      L1  H     8    34       P1  7948  0.70
      L1  H    11    35       P1  7948  0.13
      L1  H    19    48       P1  8028  2.00

> <Gold.PLP.Chemscore.Internal.Correction>
0.0258

> <Gold.Rescore>
     Score         DG    S(hbond)    S(metal)    S(lipo)     H(rot)  DE(clash)    DE(int)     intcor
     15.59     -20.78       2.40        0.00      88.44       1.19       3.54       1.66       ----

> <Gold.Chemscore.Fitness>
15.5853

> <Gold.Chemscore.DG>
-20.7771

> <Gold.Chemscore.ZeroCoef>
-5.4800

> <Gold.Chemscore.Hbond>
2.3976

> <Gold.Chemscore.Metal>
0.0000

> <Gold.Chemscore.Lipo>
88.4450

> <Gold.Chemscore.Internal_Hbond>
0.0000

> <Gold.Chemscore.DEClash>
3.5362

> <Gold.Chemscore.DEInternal>
1.6556

> <Gold.Chemscore.Rot>
1.1949

> <Gold.Chemscore.Internal.Correction>
   9.000000E+99

> <Gold.Chemscore.Hbonds>
donor molecule, donor type, donor heavy atom, donor atom, acceptor molecule, acceptor atom, score
      L1  H     3    47       P1 10171  0.69
      L1  H     8    34       P1  7948  0.69
      L1  H    11    35       P1  7948  0.13
      L1  H    19    48       P1  8028  1.00

> <Gold.Chemscore.Hbond.Weighted>
-8.0080

> <Gold.Chemscore.Metal.Weighted>
-0.0000

> <Gold.Chemscore.Lipo.Weighted>
-10.3481

> <Gold.Chemscore.Internal_Hbond.Weighted>
0.0000

> <Gold.Chemscore.DEClash.Weighted>
3.5362

> <Gold.Chemscore.DEInternal.Weighted>
1.6556

> <Gold.Chemscore.Rot.Weighted>
3.0590

> <Gold.Chemscore.Internal.Correction.Weighted>
   9.000000E+99

> <Gold.Protein.RotatedTorsions>
[ 6907 6896 6895 6894 ] final  -38.35 input  -60.11 | X-H torsion
[ 7974 7965 7964 7962 ] final  154.13 input  175.53 | X-H torsion
[ 8008 7997 7996 7995 ] final   34.74 input   59.86 | X-H torsion
[ 10167 10162 10161 10158 ] final -112.49 input  -65.29 | X-H torsion
[ 10718 10713 10712 10709 ] final -152.00 input   66.30 | X-H torsion
[ 10763 10752 10751 10750 ] final  108.41 input  -60.55 | X-H torsion
[ 11005 11000 10999 10996 ] final  -22.67 input  -57.11 | X-H torsion

> <Gold.Protein.ActiveResidues>
 VAL166  LYS551  ARG553  GLY616  TRP617  ASP618  TYR619  PRO620  LYS621  CYS622 
 ASP623  PHE694  ASN695  SER759  ASP760  ASP761  ALA762  ILE779  LEU786  VAL792 
 PHE793  MET794  SER795  GLU796  ALA797  LYS798  CYS799  TRP800  GLU811  SER814 

> <Gold.Protein.RotatedAtoms>
  151.0035  134.9340  159.7966 H   0  0  0  0  0  0  0  0  0  0  0  0  # atno 6907 bound_to 6896
  152.5284  134.3123  159.9128 H   0  0  0  0  0  0  0  0  0  0  0  0  # atno 6908 bound_to 6896
  151.3129  133.4031  159.2682 H   0  0  0  0  0  0  0  0  0  0  0  0  # atno 6909 bound_to 6896
  144.8109  139.6892  143.6142 H   0  0  0  0  0  0  0  0  0  0  0  0  # atno 7974 bound_to 7965
  155.1597  140.3282  155.4414 H   0  0  0  0  0  0  0  0  0  0  0  0  # atno 8008 bound_to 7997
  156.2547  140.1962  156.6655 H   0  0  0  0  0  0  0  0  0  0  0  0  # atno 8009 bound_to 7997
  154.6414  140.0570  156.9836 H   0  0  0  0  0  0  0  0  0  0  0  0  # atno 8010 bound_to 7997
  140.1222  143.4433  152.1683 H   0  0  0  0  0  0  0  0  0  0  0  0  # atno 10167 bound_to 10162
  156.4667  130.8239  151.2469 H   0  0  0  0  0  0  0  0  0  0  0  0  # atno 10718 bound_to 10713
  153.4203  135.3813  155.2107 H   0  0  0  0  0  0  0  0  0  0  0  0  # atno 10763 bound_to 10752
  154.8744  135.3815  154.4392 H   0  0  0  0  0  0  0  0  0  0  0  0  # atno 10764 bound_to 10752
  153.4912  135.7088  153.5946 H   0  0  0  0  0  0  0  0  0  0  0  0  # atno 10765 bound_to 10752
  140.8679  133.7742  156.0151 H   0  0  0  0  0  0  0  0  0  0  0  0  # atno 11005 bound_to 11000
  146.2407  139.5996  142.9493 LP  0  0  0  0  0  0  0  0  0  0  0  0  # atno 17320 bound_to 7965
  145.5327  141.0426  143.2374 LP  0  0  0  0  0  0  0  0  0  0  0  0  # atno 17321 bound_to 7965
  139.5563  144.7375  151.4285 LP  0  0  0  0  0  0  0  0  0  0  0  0  # atno 17342 bound_to 10162
  140.6865  143.7961  150.7194 LP  0  0  0  0  0  0  0  0  0  0  0  0  # atno 17343 bound_to 10162
  157.7494  131.0089  150.3248 LP  0  0  0  0  0  0  0  0  0  0  0  0  # atno 17370 bound_to 10713
  156.3660  130.3855  149.7213 LP  0  0  0  0  0  0  0  0  0  0  0  0  # atno 17371 bound_to 10713
  140.8608  134.2843  157.5235 LP  0  0  0  0  0  0  0  0  0  0  0  0  # atno 17394 bound_to 11000
  139.8710  134.9517  156.4093 LP  0  0  0  0  0  0  0  0  0  0  0  0  # atno 17395 bound_to 11000

$$$$
