AV-unprocessed.smi:1983|AV-procd|sdf|8036|dock7
  -GOLD-   2272010233D 1   1.00000     0.00000
 Structure written by MMmdl.
 50 51  0  0  0  0  0  0  0  0  2 V2000
  146.1003  134.1180  152.5164 C   0  0  0  0  0  0  0  0  0  0  0  0
  145.4738  135.5208  152.5083 C   0  0  2  0  0  0  0  0  0  0  0  0
  144.5815  135.7549  151.2731 C   0  0  0  0  0  0  0  0  0  0  0  0
  145.3561  136.2152  150.1863 O   0  0  0  0  0  0  0  0  0  0  0  0
  146.5397  136.5178  152.5657 N   0  0  0  0  0  0  0  0  0  0  0  0
  146.3615  137.8369  152.7241 C   0  0  0  0  0  0  0  0  0  0  0  0
  145.2612  138.3813  152.8166 O   0  0  0  0  0  0  0  0  0  0  0  0
  147.5283  138.4953  152.7641 N   0  0  0  0  0  0  0  0  0  0  0  0
  147.6659  139.9365  152.9543 C   0  0  0  0  0  0  0  0  0  0  0  0
  148.5886  140.3550  154.0929 C   0  0  0  0  0  0  0  0  0  0  0  0
  149.3674  139.4239  154.8170 C   0  0  0  0  0  0  0  0  0  0  0  0
  150.1922  139.8720  155.8696 C   0  0  0  0  0  0  0  0  0  0  0  0
  150.2285  141.2500  156.2017 C   0  0  0  0  0  0  0  0  0  0  0  0
  151.0211  141.7916  157.2374 N   0  0  0  0  0  0  0  0  0  0  0  0
  151.7761  140.8709  158.0803 C   0  0  0  0  0  0  0  0  0  0  0  0
  152.8372  141.6304  158.8962 C   0  0  2  0  0  0  0  0  0  0  0  0
  153.5494  140.7164  159.8989 C   0  0  0  0  0  0  0  0  0  0  0  0
  152.2142  142.6857  159.6261 O   0  0  0  0  0  0  0  0  0  0  0  0
  151.5123  143.6350  158.8215 C   0  0  1  0  0  0  0  0  0  0  0  0
  152.4642  144.5250  158.0022 C   0  0  0  0  0  0  0  0  0  0  0  0
  150.4479  142.9233  157.9643 C   0  0  0  0  0  0  0  0  0  0  0  0
  149.4599  142.1002  155.4782 N   0  3  0  0  0  0  0  0  0  0  0  0
  148.6600  141.7134  154.4614 C   0  0  0  0  0  0  0  0  0  0  0  0
  145.3335  133.3429  152.5237 H   0  0  0  0  0  0  0  0  0  0  0  0
  146.7213  133.9703  153.4005 H   0  0  0  0  0  0  0  0  0  0  0  0
  146.7268  133.9567  151.6384 H   0  0  0  0  0  0  0  0  0  0  0  0
  144.8649  135.6231  153.4091 H   0  0  0  0  0  0  0  0  0  0  0  0
  144.0988  134.8279  150.9624 H   0  0  0  0  0  0  0  0  0  0  0  0
  143.7897  136.4727  151.4897 H   0  0  0  0  0  0  0  0  0  0  0  0
  144.8692  136.8856  149.7319 H   0  0  0  0  0  0  0  0  0  0  0  0
  147.4854  136.1707  152.4979 H   0  0  0  0  0  0  0  0  0  0  0  0
  148.3812  137.9610  152.6829 H   0  0  0  0  0  0  0  0  0  0  0  0
  148.0058  140.3950  152.0238 H   0  0  0  0  0  0  0  0  0  0  0  0
  146.6752  140.3457  153.1527 H   0  0  0  0  0  0  0  0  0  0  0  0
  149.3381  138.3710  154.5788 H   0  0  0  0  0  0  0  0  0  0  0  0
  150.7735  139.1418  156.4120 H   0  0  0  0  0  0  0  0  0  0  0  0
  151.0869  140.3489  158.7458 H   0  0  0  0  0  0  0  0  0  0  0  0
  152.2769  140.1204  157.4679 H   0  0  0  0  0  0  0  0  0  0  0  0
  153.5901  142.0424  158.2240 H   0  0  0  0  0  0  0  0  0  0  0  0
  154.0559  139.8949  159.3914 H   0  0  0  0  0  0  0  0  0  0  0  0
  152.8450  140.2865  160.6119 H   0  0  0  0  0  0  0  0  0  0  0  0
  154.2994  141.2695  160.4648 H   0  0  0  0  0  0  0  0  0  0  0  0
  150.9901  144.2927  159.5169 H   0  0  0  0  0  0  0  0  0  0  0  0
  151.9137  145.3281  157.5116 H   0  0  0  0  0  0  0  0  0  0  0  0
  152.9853  143.9694  157.2229 H   0  0  0  0  0  0  0  0  0  0  0  0
  153.2145  144.9859  158.6450 H   0  0  0  0  0  0  0  0  0  0  0  0
  149.9877  143.6487  157.2933 H   0  0  0  0  0  0  0  0  0  0  0  0
  149.6538  142.5443  158.6090 H   0  0  0  0  0  0  0  0  0  0  0  0
  148.1034  142.5015  153.9750 H   0  0  0  0  0  0  0  0  0  0  0  0
  149.4887  143.0925  155.7134 H   0  0  0  0  0  0  0  0  0  0  0  0
  1  2  1  0  0  0  0
  1 24  1  0  0  0  0
  1 25  1  0  0  0  0
  1 26  1  0  0  0  0
  2  3  1  0  0  0  0
  2  5  1  0  0  0  0
  2 27  1  0  0  0  0
  3  4  1  0  0  0  0
  3 28  1  0  0  0  0
  3 29  1  0  0  0  0
  4 30  1  0  0  0  0
  5  6  1  0  0  0  0
  5 31  1  0  0  0  0
  6  7  2  0  0  0  0
  6  8  1  0  0  0  0
  8  9  1  0  0  0  0
  8 32  1  0  0  0  0
  9 10  1  0  0  0  0
  9 33  1  0  0  0  0
  9 34  1  0  0  0  0
 10 23  1  0  0  0  0
 10 11  2  0  0  0  0
 11 12  1  0  0  0  0
 11 35  1  0  0  0  0
 12 13  2  0  0  0  0
 12 36  1  0  0  0  0
 13 14  1  0  0  0  0
 13 22  1  0  0  0  0
 14 21  1  0  0  0  0
 14 15  1  0  0  0  0
 15 16  1  0  0  0  0
 15 37  1  0  0  0  0
 15 38  1  0  0  0  0
 16 17  1  0  0  0  0
 16 18  1  0  0  0  0
 16 39  1  0  0  0  0
 17 40  1  0  0  0  0
 17 41  1  0  0  0  0
 17 42  1  0  0  0  0
 18 19  1  0  0  0  0
 19 20  1  0  0  0  0
 19 21  1  0  0  0  0
 19 43  1  0  0  0  0
 20 44  1  0  0  0  0
 20 45  1  0  0  0  0
 20 46  1  0  0  0  0
 21 47  1  0  0  0  0
 21 48  1  0  0  0  0
 22 23  2  0  0  0  0
 22 50  1  0  0  0  0
 23 49  1  0  0  0  0
M  CHG  1  22   1
M  END
> <s_m_source_file>
AV-unprocessed.smi

> <i_m_source_file_index>
1983

> <i_lp_mmshare_version>
43012

> <i_f3d_flags>
0

> <s_epik_input>
W09IXVtDSDJdW0NAQEhdKFtDSDNdKVtOSF1DKD1PKVtOSF1bQ0gyXWMxW2NIXVtjSF1jKG5bY0hdMSlOMltDSDJdW0NAQEhdKFtDSDNdKU9bQ0BASF0oW0NIM10pW0NIMl0y

> <s_epik_cmdline>
J2VwaWtfcHl0aG9uJywgJy1waCcsICc3LjAnLCAnLXRuJywgJzgnLCAnLW1hJywgJzIwMCcsICctbWV0YWxfYmluZGluZycsICctaW1hZScsICc8aW5maWxlLm1hZT4nLCAnLW9tYWUnLCAnPG91dGZpbGUubWFlPic=

> <r_lp_tautomer_probability>
0.999994

> <r_epik_Ionization_Penalty>
2.55677

> <r_epik_Ionization_Penalty_Charging>
2.55673

> <r_epik_Ionization_Penalty_Neutral>
3.71772e-05

> <r_epik_State_Penalty>
2.72571

> <r_epik_Charging_Adjusted_Penalty>
5.28244

> <i_epik_Tot_Q>
1

> <i_epik_Tot_abs_Q>
1

> <r_epik_Metal_State_Penalty>
2.73364

> <b_epik_Metal_Only>
0

> <s_lp_Force_Field>
OPLS_2005

> <r_lp_Energy>
21.0227

> <b_lp_Chiralities_Consistent>
1

> <s_lp_Variant>
AV-unprocessed.smi:1983-9

> <Gold.Version>
5.8.1

> <Gold.Id.Protein>
6NUR|6NUR_protein|mol2

> <Gold.PLP.Fitness>
52.3133

> <Gold.PLP.PLP>
-39.2283

> <Gold.PLP.part.hbond>
-5.7921

> <Gold.PLP.part.metal>
0.0000

> <Gold.PLP.part.buried>
-2.2318

> <Gold.PLP.part.nonpolar>
-35.0739

> <Gold.PLP.part.repulsive>
3.2429

> <Gold.PLP.ligand.clash>
0.0000

> <Gold.PLP.ligand.torsion>
0.7737

> <Gold.PLP.Chemscore.Hbond>
4.7360

> <Gold.PLP.Chemscore.CHOScore>
0.0000

> <Gold.PLP.Chemscore.Metal>
0.0000

> <Gold.Chemscore.Hbonds>
donor molecule, donor type, donor heavy atom, donor atom, acceptor molecule, acceptor atom, score
      L1  H     4    30       P1 10171  0.99
      L1  H     5    31       P1  7948  1.00
      L1  H     8    32       P1  7948  0.75
      L1  H    22    50       P1  8028  2.00

> <Gold.PLP.Chemscore.Internal.Correction>
0.4245

> <Gold.Rescore>
     Score         DG    S(hbond)    S(metal)    S(lipo)     H(rot)  DE(clash)    DE(int)     intcor
     19.73     -23.22       3.80        0.00     101.37       2.66       2.82       0.68       ----

> <Gold.Chemscore.Fitness>
19.7301

> <Gold.Chemscore.DG>
-23.2239

> <Gold.Chemscore.ZeroCoef>
-5.4800

> <Gold.Chemscore.Hbond>
3.8031

> <Gold.Chemscore.Metal>
0.0000

> <Gold.Chemscore.Lipo>
101.3723

> <Gold.Chemscore.Internal_Hbond>
0.0000

> <Gold.Chemscore.DEClash>
2.8179

> <Gold.Chemscore.DEInternal>
0.6760

> <Gold.Chemscore.Rot>
2.6637

> <Gold.Chemscore.Internal.Correction>
   9.000000E+99

> <Gold.Chemscore.Hbonds>
donor molecule, donor type, donor heavy atom, donor atom, acceptor molecule, acceptor atom, score
      L1  H     4    30       P1 10171  0.93
      L1  H     5    31       P1  7948  0.94
      L1  H     8    32       P1  7948  0.74
      L1  H    22    50       P1  8028  0.97

> <Gold.Chemscore.Hbond.Weighted>
-12.7025

> <Gold.Chemscore.Metal.Weighted>
-0.0000

> <Gold.Chemscore.Lipo.Weighted>
-11.8606

> <Gold.Chemscore.Internal_Hbond.Weighted>
0.0000

> <Gold.Chemscore.DEClash.Weighted>
2.8179

> <Gold.Chemscore.DEInternal.Weighted>
0.6760

> <Gold.Chemscore.Rot.Weighted>
6.8191

> <Gold.Chemscore.Internal.Correction.Weighted>
   9.000000E+99

> <Gold.Protein.RotatedTorsions>
[ 6907 6896 6895 6894 ] final -107.75 input  -60.11 | X-H torsion
[ 7974 7965 7964 7962 ] final   89.10 input  175.53 | X-H torsion
[ 8008 7997 7996 7995 ] final   -1.04 input   59.86 | X-H torsion
[ 10167 10162 10161 10158 ] final  115.80 input  -65.29 | X-H torsion
[ 10718 10713 10712 10709 ] final   -8.08 input   66.30 | X-H torsion
[ 10763 10752 10751 10750 ] final  -99.95 input  -60.55 | X-H torsion
[ 11005 11000 10999 10996 ] final  -45.12 input  -57.11 | X-H torsion

> <Gold.Protein.ActiveResidues>
 VAL166  LYS551  ARG553  GLY616  TRP617  ASP618  TYR619  PRO620  LYS621  CYS622 
 ASP623  PHE694  ASN695  SER759  ASP760  ASP761  ALA762  ILE779  LEU786  VAL792 
 PHE793  MET794  SER795  GLU796  ALA797  LYS798  CYS799  TRP800  GLU811  SER814 

> <Gold.Protein.RotatedAtoms>
  150.7462  133.9780  159.3566 H   0  0  0  0  0  0  0  0  0  0  0  0  # atno 6907 bound_to 6896
  151.7719  135.0782  160.0370 H   0  0  0  0  0  0  0  0  0  0  0  0  # atno 6908 bound_to 6896
  152.3333  133.5946  159.5861 H   0  0  0  0  0  0  0  0  0  0  0  0  # atno 6909 bound_to 6896
  145.5368  139.2286  143.2588 H   0  0  0  0  0  0  0  0  0  0  0  0  # atno 7974 bound_to 7965
  154.6512  140.2569  155.7211 H   0  0  0  0  0  0  0  0  0  0  0  0  # atno 8008 bound_to 7997
  156.2576  140.2867  156.0868 H   0  0  0  0  0  0  0  0  0  0  0  0  # atno 8009 bound_to 7997
  155.1448  140.0381  157.2797 H   0  0  0  0  0  0  0  0  0  0  0  0  # atno 8010 bound_to 7997
  139.6292  144.7112  151.2469 H   0  0  0  0  0  0  0  0  0  0  0  0  # atno 10167 bound_to 10162
  156.7078  130.5113  149.5900 H   0  0  0  0  0  0  0  0  0  0  0  0  # atno 10718 bound_to 10713
  154.7540  135.4953  153.9340 H   0  0  0  0  0  0  0  0  0  0  0  0  # atno 10763 bound_to 10752
  153.1175  135.6724  153.9401 H   0  0  0  0  0  0  0  0  0  0  0  0  # atno 10764 bound_to 10752
  153.9143  135.3095  155.3427 H   0  0  0  0  0  0  0  0  0  0  0  0  # atno 10765 bound_to 10752
  141.0495  133.6748  156.2969 H   0  0  0  0  0  0  0  0  0  0  0  0  # atno 11005 bound_to 11000
  146.2007  140.6187  142.9103 LP  0  0  0  0  0  0  0  0  0  0  0  0  # atno 17320 bound_to 7965
  144.7597  140.5393  143.6744 LP  0  0  0  0  0  0  0  0  0  0  0  0  # atno 17321 bound_to 7965
  140.7429  143.6512  150.8247 LP  0  0  0  0  0  0  0  0  0  0  0  0  # atno 17342 bound_to 10162
  140.0134  143.5618  152.2830 LP  0  0  0  0  0  0  0  0  0  0  0  0  # atno 17343 bound_to 10162
  156.1682  130.6419  151.0805 LP  0  0  0  0  0  0  0  0  0  0  0  0  # atno 17370 bound_to 10713
  157.6948  131.0798  150.7002 LP  0  0  0  0  0  0  0  0  0  0  0  0  # atno 17371 bound_to 10713
  140.6082  134.5485  157.5529 LP  0  0  0  0  0  0  0  0  0  0  0  0  # atno 17394 bound_to 11000
  139.9339  134.7912  156.0856 LP  0  0  0  0  0  0  0  0  0  0  0  0  # atno 17395 bound_to 11000

$$$$
