#       Name:                AV-unprocessed.smi:171
#       Creating user name   scv26
#       Creation time:       Thu Mar 26 19:18:27 2020


#       File generated by GOLD software.
#

@<TRIPOS>MOLECULE
AV-unprocessed.smi:171
    66    69     1
SMALL
NO_CHARGES


@<TRIPOS>ATOM
      1 ****        -4.1906  -1.7766   0.6919 C.3            1 S1                 0.0000
      2 ****        -2.7912  -1.1405   0.7380 C.3            1 S1                 0.0000
      3 ****        -1.7130  -2.2212   0.5597 C.3            1 S1                 0.0000
      4 ****        -2.5440  -0.3249   2.0356 C.3            1 S1                 0.0000
      5 ****        -2.9353   1.1816   1.9958 C.3            1 S1                 0.0000
      6 ****        -4.4646   1.4072   2.0076 C.2            1 S1                 0.0000
      7 ****        -5.1676   0.7897   2.8053 O.2            1 S1                 0.0000
      8 ****        -5.0006   2.3027   1.1605 N.am           1 S1                 0.0000
      9 ****        -4.2605   3.0831   0.1730 C.3            1 S1                 0.0000
     10 ****        -2.7682   3.1913   0.5152 C.3            1 S1                 0.0000
     11 ****        -2.2529   1.8830   0.8953 N.3            1 S1                 0.0000
     12 ****        -0.9022   1.8319   0.8864 C.ar           1 S1                 0.0000
     13 ****        -0.1959   2.2469   1.9699 N.ar           1 S1                 0.0000
     14 ****         1.1387   2.1706   1.9614 C.ar           1 S1                 0.0000
     15 ****         1.9439   1.7189   0.9965 N.ar           1 S1                 0.0000
     16 ****         1.2319   1.3059  -0.0916 C.ar           1 S1                 0.0000
     17 ****        -0.1824   1.3394  -0.2319 C.ar           1 S1                 0.0000
     18 ****        -0.5541   0.8472  -1.4758 N.2            1 S1                 0.0000
     19 ****         0.5794   0.5280  -2.0379 C.2            1 S1                 0.0000
     20 ****         1.7010   0.7589  -1.2730 N.pl3          1 S1                 0.0000
     21 ****         3.0782   0.4793  -1.6444 C.3            1 S1                 0.0000
     22 ****         3.5384  -0.9451  -1.2524 C.3            1 S1                 0.0000
     23 ****         3.5114  -1.0555   0.1616 O.3            1 S1                 0.0000
     24 ****         2.6850  -2.0602  -1.8383 C.3            1 S1                 0.0000
     25 ****         3.6368  -3.2502  -1.8208 C.3            1 S1                 0.0000
     26 ****         4.9198  -2.7002  -2.0929 O.3            1 S1                 0.0000
     27 ****         4.9351  -1.3029  -1.8032 C.3            1 S1                 0.0000
     28 ****         6.1377  -0.9341  -0.9203 C.3            1 S1                 0.0000
     29 ****        -4.3585  -2.4315   1.5474 H              1 S1                 0.0000
     30 ****        -4.3187  -2.3738  -0.2112 H              1 S1                 0.0000
     31 ****        -4.9773  -1.0237   0.6873 H              1 S1                 0.0000
     32 ****        -2.7076  -0.4805  -0.1247 H              1 S1                 0.0000
     33 ****        -1.7231  -2.9320   1.3865 H              1 S1                 0.0000
     34 ****        -0.7171  -1.7791   0.5097 H              1 S1                 0.0000
     35 ****        -1.8653  -2.7806  -0.3638 H              1 S1                 0.0000
     36 ****        -3.0338  -0.8192   2.8757 H              1 S1                 0.0000
     37 ****        -1.4841  -0.3799   2.2871 H              1 S1                 0.0000
     38 ****        -2.5937   1.6301   2.9301 H              1 S1                 0.0000
     39 ****        -6.0002   2.4416   1.1943 H              1 S1                 0.0000
     40 ****        -4.3810   2.5940  -0.7943 H              1 S1                 0.0000
     41 ****        -4.7043   4.0748   0.0840 H              1 S1                 0.0000
     42 ****        -2.2219   3.5951  -0.3392 H              1 S1                 0.0000
     43 ****        -2.6241   3.8858   1.3447 H              1 S1                 0.0000
     44 ****         1.6321   2.5155   2.8581 H              1 S1                 0.0000
     45 ****         0.6280   0.1019  -3.0295 H              1 S1                 0.0000
     46 ****         3.1678   0.6220  -2.7220 H              1 S1                 0.0000
     47 ****         3.7232   1.2283  -1.1831 H              1 S1                 0.0000
     48 ****         3.8321  -1.9118   0.4006 H              1 S1                 0.0000
     49 ****         1.7599  -2.2429  -1.2893 H              1 S1                 0.0000
     50 ****         2.4217  -1.8277  -2.8710 H              1 S1                 0.0000
     51 ****         3.6536  -3.7125  -0.8330 H              1 S1                 0.0000
     52 ****         3.3667  -4.0156  -2.5487 H              1 S1                 0.0000
     53 ****         5.0614  -0.8119  -2.7690 H              1 S1                 0.0000
     54 ****         6.1449   0.1324  -0.6943 H              1 S1                 0.0000
     55 ****         7.0735  -1.1717  -1.4264 H              1 S1                 0.0000
     56 ****         6.1290  -1.4797   0.0234 H              1 S1                 0.0000
     57 ****        -4.7497   0.1436   3.4441 LP             1 S1                 0.0000
     58 ****        -6.1571   0.9335   2.8153 LP             1 S1                 0.0000
     59 ****        -2.5370   1.2837   0.1468 LP             1 S1                 0.0000
     60 ****        -0.6726   2.6082   2.7712 LP             1 S1                 0.0000
     61 ****         2.9412   1.6874   1.0630 LP             1 S1                 0.0000
     62 ****        -1.4758   0.7580  -1.8531 LP             1 S1                 0.0000
     63 ****         2.5742  -0.9419   0.4913 LP             1 S1                 0.0000
     64 ****         4.0948  -0.3514   0.5664 LP             1 S1                 0.0000
     65 ****         5.1394  -2.8387  -3.0586 LP             1 S1                 0.0000
     66 ****         5.6027  -3.1615  -1.5264 LP             1 S1                 0.0000
@<TRIPOS>BOND
    1    1    2 1     
    2    1   29 1     
    3    1   30 1     
    4    1   31 1     
    5    2    3 1     
    6    2    4 1     
    7    2   32 1     
    8    3   33 1     
    9    3   34 1     
   10    3   35 1     
   11    4    5 1     
   12    4   36 1     
   13    4   37 1     
   14    5   11 1     
   15    5    6 1     
   16    5   38 1     
   17    6    7 2     
   18    6    8 am    
   19    8    9 1     
   20    8   39 1     
   21    9   10 1     
   22    9   40 1     
   23    9   41 1     
   24   10   11 1     
   25   10   42 1     
   26   10   43 1     
   27   11   12 1     
   28   12   17 ar    
   29   12   13 ar    
   30   13   14 ar    
   31   14   15 ar    
   32   14   44 1     
   33   15   16 ar    
   34   16   20 1     
   35   16   17 ar    
   36   17   18 1     
   37   18   19 2     
   38   19   20 1     
   39   19   45 1     
   40   20   21 1     
   41   21   22 1     
   42   21   46 1     
   43   21   47 1     
   44   22   27 1     
   45   22   23 1     
   46   22   24 1     
   47   23   48 1     
   48   24   25 1     
   49   24   49 1     
   50   24   50 1     
   51   25   26 1     
   52   25   51 1     
   53   25   52 1     
   54   26   27 1     
   55   27   28 1     
   56   27   53 1     
   57   28   54 1     
   58   28   55 1     
   59   28   56 1     
   60    7   57 1     
   61    7   58 1     
   62   11   59 1     
   63   13   60 1     
   64   15   61 1     
   65   18   62 1     
   66   23   63 1     
   67   23   64 1     
   68   26   65 1     
   69   26   66 1     
@<TRIPOS>SUBSTRUCTURE
      1 S1             1
@<TRIPOS>SET
LONE_PAIRS      STATIC     ATOMS    <user>   **** ""
10 57 58 59 60 61 62 63 64 65 66
DONOR_HYDROGENS      STATIC     ATOMS    <user>   **** ""
2 39 48
ATOM$BLUE        STATIC     ATOMS    COLORGROUP SYSTEM
10 57 58 59 60 61 62 63 64 65 66
ATOM$RED        STATIC     ATOMS    COLORGROUP SYSTEM
2 39 48
