AV-unprocessed.smi:186|AV-procd|sdf|1467|dock2
  -GOLD-   2262019283D 1   1.00000     0.00000
 Structure written by MMmdl.
 48 51  0  0  0  0  0  0  0  0  1 V2000
  143.7990  133.0063  151.1179 C   0  0  0  0  0  0  0  0  0  0  0  0
  145.0461  133.6374  150.8857 O   0  0  0  0  0  0  0  0  0  0  0  0
  144.9017  134.9432  150.3484 C   0  0  0  0  0  0  0  0  0  0  0  0
  144.8296  135.9636  151.4856 C   0  0  0  0  0  0  0  0  0  0  0  0
  144.0338  135.8188  152.4142 O   0  0  0  0  0  0  0  0  0  0  0  0
  145.6731  137.0019  151.3969 N   0  0  0  0  0  0  0  0  0  0  0  0
  145.7633  138.0775  152.3759 C   0  0  0  0  0  0  0  0  0  0  0  0
  146.8940  139.0729  152.1029 C   0  0  0  0  0  0  0  0  0  0  0  0
  147.1170  139.0268  153.5430 N   0  0  0  0  0  0  0  0  0  0  0  0
  148.4704  139.1731  153.9605 C   0  0  0  0  0  0  0  0  0  0  0  0
  149.4147  138.3199  153.4802 N   0  0  0  0  0  0  0  0  0  0  0  0
  150.6922  138.4204  153.8577 C   0  0  0  0  0  0  0  0  0  0  0  0
  151.2428  139.2845  154.7098 N   0  0  0  0  0  0  0  0  0  0  0  0
  150.3059  140.1314  155.2214 C   0  0  0  0  0  0  0  0  0  0  0  0
  148.9179  140.1452  154.9020 C   0  0  0  0  0  0  0  0  0  0  0  0
  148.2826  141.1527  155.6188 N   0  0  0  0  0  0  0  0  0  0  0  0
  149.2385  141.7042  156.3150 C   0  0  0  0  0  0  0  0  0  0  0  0
  150.4845  141.1436  156.1489 N   0  0  0  0  0  0  0  0  0  0  0  0
  151.7208  141.5520  156.8000 C   0  0  0  0  0  0  0  0  0  0  0  0
  151.5166  142.2933  158.1463 C   0  0  2  0  0  0  0  0  0  0  0  0
  150.6448  141.5402  158.9692 O   0  0  0  0  0  0  0  0  0  0  0  0
  150.9650  143.7146  158.0039 C   0  0  0  0  0  0  0  0  0  0  0  0
  152.2030  144.5849  158.1679 C   0  0  0  0  0  0  0  0  0  0  0  0
  152.9239  143.8985  159.1748 O   0  0  0  0  0  0  0  0  0  0  0  0
  152.8551  142.5089  158.8815 C   0  0  0  0  0  0  0  0  0  0  0  0
  146.5479  137.6850  153.6276 C   0  0  0  0  0  0  0  0  0  0  0  0
  143.9626  132.0113  151.5317 H   0  0  0  0  0  0  0  0  0  0  0  0
  143.2350  132.8967  150.1907 H   0  0  0  0  0  0  0  0  0  0  0  0
  143.1969  133.5725  151.8295 H   0  0  0  0  0  0  0  0  0  0  0  0
  145.7480  135.1801  149.7013 H   0  0  0  0  0  0  0  0  0  0  0  0
  143.9911  135.0098  149.7510 H   0  0  0  0  0  0  0  0  0  0  0  0
  146.2942  137.0491  150.6024 H   0  0  0  0  0  0  0  0  0  0  0  0
  144.8102  138.5603  152.6058 H   0  0  0  0  0  0  0  0  0  0  0  0
  147.7218  138.6574  151.5246 H   0  0  0  0  0  0  0  0  0  0  0  0
  146.5625  140.0430  151.7319 H   0  0  0  0  0  0  0  0  0  0  0  0
  151.3690  137.7042  153.4159 H   0  0  0  0  0  0  0  0  0  0  0  0
  149.0571  142.5372  156.9786 H   0  0  0  0  0  0  0  0  0  0  0  0
  152.3311  140.6609  156.9536 H   0  0  0  0  0  0  0  0  0  0  0  0
  152.2762  142.1839  156.1053 H   0  0  0  0  0  0  0  0  0  0  0  0
  149.9598  142.1110  159.2818 H   0  0  0  0  0  0  0  0  0  0  0  0
  150.4443  143.9062  157.0673 H   0  0  0  0  0  0  0  0  0  0  0  0
  150.2692  143.9433  158.8130 H   0  0  0  0  0  0  0  0  0  0  0  0
  152.7875  144.6163  157.2471 H   0  0  0  0  0  0  0  0  0  0  0  0
  151.9656  145.6063  158.4658 H   0  0  0  0  0  0  0  0  0  0  0  0
  152.9487  141.9199  159.7950 H   0  0  0  0  0  0  0  0  0  0  0  0
  153.7015  142.2536  158.2422 H   0  0  0  0  0  0  0  0  0  0  0  0
  145.9361  137.5159  154.5140 H   0  0  0  0  0  0  0  0  0  0  0  0
  147.2766  136.8898  153.4571 H   0  0  0  0  0  0  0  0  0  0  0  0
  1  2  1  0  0  0  0
  1 27  1  0  0  0  0
  1 28  1  0  0  0  0
  1 29  1  0  0  0  0
  2  3  1  0  0  0  0
  3  4  1  0  0  0  0
  3 30  1  0  0  0  0
  3 31  1  0  0  0  0
  4  5  2  0  0  0  0
  4  6  1  0  0  0  0
  6  7  1  0  0  0  0
  6 32  1  0  0  0  0
  7 26  1  0  0  0  0
  7  8  1  0  0  0  0
  7 33  1  0  0  0  0
  8  9  1  0  0  0  0
  8 34  1  0  0  0  0
  8 35  1  0  0  0  0
  9 10  1  0  0  0  0
  9 26  1  0  0  0  0
 10 15  1  0  0  0  0
 10 11  2  0  0  0  0
 11 12  1  0  0  0  0
 12 13  2  0  0  0  0
 12 36  1  0  0  0  0
 13 14  1  0  0  0  0
 14 18  1  0  0  0  0
 14 15  2  0  0  0  0
 15 16  1  0  0  0  0
 16 17  2  0  0  0  0
 17 18  1  0  0  0  0
 17 37  1  0  0  0  0
 18 19  1  0  0  0  0
 19 20  1  0  0  0  0
 19 38  1  0  0  0  0
 19 39  1  0  0  0  0
 20 25  1  0  0  0  0
 20 21  1  0  0  0  0
 20 22  1  0  0  0  0
 21 40  1  0  0  0  0
 22 23  1  0  0  0  0
 22 41  1  0  0  0  0
 22 42  1  0  0  0  0
 23 24  1  0  0  0  0
 23 43  1  0  0  0  0
 23 44  1  0  0  0  0
 24 25  1  0  0  0  0
 25 45  1  0  0  0  0
 25 46  1  0  0  0  0
 26 47  1  0  0  0  0
 26 48  1  0  0  0  0
M  END
> <s_m_source_file>
AV-unprocessed.smi

> <i_m_source_file_index>
186

> <i_lp_mmshare_version>
43012

> <i_f3d_flags>
0

> <s_epik_input>
W0NIM11PW0NIMl1DKD1PKVtOSF1bQ0hdMVtDSDJdTihbQ0gyXTEpYyhuW2NIXW4yKWMoYzIzKW5bY0hdbjNbQ0gyXVtDQEBdNChbT0hdKVtDSDJdW0NIMl1PW0NIMl00

> <s_epik_cmdline>
J2VwaWtfcHl0aG9uJywgJy1waCcsICc3LjAnLCAnLXRuJywgJzgnLCAnLW1hJywgJzIwMCcsICctbWV0YWxfYmluZGluZycsICctaW1hZScsICc8aW5maWxlLm1hZT4nLCAnLW9tYWUnLCAnPG91dGZpbGUubWFlPic=

> <r_lp_tautomer_probability>
1

> <r_epik_Ionization_Penalty>
0.00138671

> <r_epik_Ionization_Penalty_Charging>
0

> <r_epik_Ionization_Penalty_Neutral>
0.00138671

> <r_epik_State_Penalty>
0.000746021

> <r_epik_Charging_Adjusted_Penalty>
0.000746021

> <i_epik_Tot_Q>
0

> <i_epik_Tot_abs_Q>
0

> <r_epik_Metal_State_Penalty>
-0

> <b_epik_Metal_Only>
0

> <s_lp_Force_Field>
OPLS_2005

> <r_lp_Energy>
43.6542

> <b_lp_Chiralities_Consistent>
1

> <s_lp_Variant>
AV-unprocessed.smi:186-2

> <Gold.Version>
5.8.1

> <Gold.Id.Protein>
6NUR|6NUR_protein|mol2

> <Gold.PLP.Fitness>
40.7750

> <Gold.PLP.PLP>
-37.5639

> <Gold.PLP.part.hbond>
-2.4956

> <Gold.PLP.part.metal>
0.0000

> <Gold.PLP.part.buried>
-4.1962

> <Gold.PLP.part.nonpolar>
-35.0262

> <Gold.PLP.part.repulsive>
4.6093

> <Gold.PLP.ligand.clash>
0.0000

> <Gold.PLP.ligand.torsion>
0.9209

> <Gold.PLP.Chemscore.Hbond>
0.1219

> <Gold.PLP.Chemscore.CHOScore>
1.3748

> <Gold.PLP.Chemscore.Metal>
0.0000

> <Gold.Chemscore.Hbonds>
donor molecule, donor type, donor heavy atom, donor atom, acceptor molecule, acceptor atom, score
      P1  H  7989  7998       L1    13  0.15
      L1  C    12    36       P1  7949  0.87
      L1  C    17    37       P1  8028  0.59

> <Gold.PLP.Chemscore.Internal.Correction>
0.5628

> <Gold.Rescore>
     Score         DG    S(hbond)    S(metal)    S(lipo)     H(rot)  DE(clash)    DE(int)     intcor
      4.00      -6.96       0.00        0.00      86.23       3.36       2.08       0.88       ----

> <Gold.Chemscore.Fitness>
4.0012

> <Gold.Chemscore.DG>
-6.9625

> <Gold.Chemscore.ZeroCoef>
-5.4800

> <Gold.Chemscore.Hbond>
0.0000

> <Gold.Chemscore.Metal>
0.0000

> <Gold.Chemscore.Lipo>
86.2323

> <Gold.Chemscore.Internal_Hbond>
0.0000

> <Gold.Chemscore.DEClash>
2.0807

> <Gold.Chemscore.DEInternal>
0.8805

> <Gold.Chemscore.Rot>
3.3620

> <Gold.Chemscore.Internal.Correction>
   9.000000E+99

> <Gold.Chemscore.Hbond.Weighted>
-0.0000

> <Gold.Chemscore.Metal.Weighted>
-0.0000

> <Gold.Chemscore.Lipo.Weighted>
-10.0892

> <Gold.Chemscore.Internal_Hbond.Weighted>
0.0000

> <Gold.Chemscore.DEClash.Weighted>
2.0807

> <Gold.Chemscore.DEInternal.Weighted>
0.8805

> <Gold.Chemscore.Rot.Weighted>
8.6067

> <Gold.Chemscore.Internal.Correction.Weighted>
   9.000000E+99

> <Gold.Protein.RotatedTorsions>
[ 6907 6896 6895 6894 ] final -149.53 input  -60.11 | X-H torsion
[ 7974 7965 7964 7962 ] final  -77.75 input  175.53 | X-H torsion
[ 8008 7997 7996 7995 ] final  -17.59 input   59.86 | X-H torsion
[ 10167 10162 10161 10158 ] final  141.64 input  -65.29 | X-H torsion
[ 10718 10713 10712 10709 ] final   65.18 input   66.30 | X-H torsion
[ 10763 10752 10751 10750 ] final  -93.76 input  -60.55 | X-H torsion
[ 11005 11000 10999 10996 ] final   45.53 input  -57.11 | X-H torsion

> <Gold.Protein.ActiveResidues>
 VAL166  LYS551  ARG553  GLY616  TRP617  ASP618  TYR619  PRO620  LYS621  CYS622 
 ASP623  PHE694  ASN695  SER759  ASP760  ASP761  ALA762  ILE779  LEU786  VAL792 
 PHE793  MET794  SER795  GLU796  ALA797  LYS798  CYS799  TRP800  GLU811  SER814 

> <Gold.Protein.RotatedAtoms>
  151.1855  133.4699  159.2594 H   0  0  0  0  0  0  0  0  0  0  0  0  # atno 6907 bound_to 6896
  151.1216  135.0082  159.8551 H   0  0  0  0  0  0  0  0  0  0  0  0  # atno 6908 bound_to 6896
  152.5456  134.1765  159.8671 H   0  0  0  0  0  0  0  0  0  0  0  0  # atno 6909 bound_to 6896
  145.5956  140.9420  143.1269 H   0  0  0  0  0  0  0  0  0  0  0  0  # atno 7974 bound_to 7965
  154.4967  140.2138  155.9432 H   0  0  0  0  0  0  0  0  0  0  0  0  # atno 8008 bound_to 7997
  156.1380  140.3185  155.8418 H   0  0  0  0  0  0  0  0  0  0  0  0  # atno 8009 bound_to 7997
  155.4174  140.0494  157.3018 H   0  0  0  0  0  0  0  0  0  0  0  0  # atno 8010 bound_to 7997
  139.5015  144.6158  151.6167 H   0  0  0  0  0  0  0  0  0  0  0  0  # atno 10167 bound_to 10162
  157.6089  130.9200  149.9943 H   0  0  0  0  0  0  0  0  0  0  0  0  # atno 10718 bound_to 10713
  154.6990  135.5182  153.8499 H   0  0  0  0  0  0  0  0  0  0  0  0  # atno 10763 bound_to 10752
  153.0689  135.6594  154.0301 H   0  0  0  0  0  0  0  0  0  0  0  0  # atno 10764 bound_to 10752
  154.0163  135.2997  155.3366 H   0  0  0  0  0  0  0  0  0  0  0  0  # atno 10765 bound_to 10752
  140.1452  134.4532  155.8421 H   0  0  0  0  0  0  0  0  0  0  0  0  # atno 11005 bound_to 11000
  144.7332  139.7662  143.7339 LP  0  0  0  0  0  0  0  0  0  0  0  0  # atno 17320 bound_to 7965
  146.1615  139.4731  142.9985 LP  0  0  0  0  0  0  0  0  0  0  0  0  # atno 17321 bound_to 7965
  140.5846  143.9887  150.6288 LP  0  0  0  0  0  0  0  0  0  0  0  0  # atno 17342 bound_to 10162
  140.3047  143.3237  152.0937 LP  0  0  0  0  0  0  0  0  0  0  0  0  # atno 17343 bound_to 10162
  156.1184  130.3647  149.9928 LP  0  0  0  0  0  0  0  0  0  0  0  0  # atno 17370 bound_to 10713
  156.8013  130.9291  151.3646 LP  0  0  0  0  0  0  0  0  0  0  0  0  # atno 17371 bound_to 10713
  141.2191  133.6849  156.7320 LP  0  0  0  0  0  0  0  0  0  0  0  0  # atno 17394 bound_to 11000
  140.2673  134.8420  157.3814 LP  0  0  0  0  0  0  0  0  0  0  0  0  # atno 17395 bound_to 11000

$$$$
