AV-unprocessed.smi:841|AV-procd|sdf|3915|dock8
  -GOLD-   22720 1373D 1   1.00000     0.00000
 Structure written by MMmdl.
 30 31  0  0  0  0  0  0  0  0  1 V2000
  154.2240  140.1527  159.1466 O   0  0  0  0  0  0  0  0  0  0  0  0
  153.1605  140.6748  159.4804 C   0  0  0  0  0  0  0  0  0  0  0  0
  153.1309  141.6982  160.6184 C   0  0  0  0  0  0  0  0  0  0  0  0
  152.7041  143.0059  160.1499 N   0  0  0  0  0  0  0  0  0  0  0  0
  152.7344  143.5102  158.8658 C   0  0  0  0  0  0  0  0  0  0  0  0
  152.2437  144.7833  158.9160 C   0  0  0  0  0  0  0  0  0  0  0  0
  151.9406  144.9742  160.2930 C   0  0  0  0  0  0  0  0  0  0  0  0
  152.2194  143.9103  161.0289 N   0  0  0  0  0  0  0  0  0  0  0  0
  151.9853  140.4003  158.8929 N   0  0  0  0  0  0  0  0  0  0  0  0
  151.7846  139.4642  157.7912 C   0  0  0  0  0  0  0  0  0  0  0  0
  151.3501  140.1828  156.5001 C   0  0  2  0  0  0  0  0  0  0  0  0
  149.9673  140.7970  156.5771 C   0  0  0  0  0  0  0  0  0  0  0  0
  149.6305  141.0062  155.1035 C   0  0  0  0  0  0  0  0  0  0  0  0
  150.3088  139.9715  154.3971 O   0  0  0  0  0  0  0  0  0  0  0  0
  151.1962  139.2826  155.2727 C   0  0  0  0  0  0  0  0  0  0  0  0
  152.4527  141.3474  161.3978 H   0  0  0  0  0  0  0  0  0  0  0  0
  154.1169  141.8014  161.0739 H   0  0  0  0  0  0  0  0  0  0  0  0
  153.0974  142.9262  158.0330 H   0  0  0  0  0  0  0  0  0  0  0  0
  152.1221  145.4739  158.0948 H   0  0  0  0  0  0  0  0  0  0  0  0
  151.5314  145.8488  160.7765 H   0  0  0  0  0  0  0  0  0  0  0  0
  151.1648  140.8800  159.2339 H   0  0  0  0  0  0  0  0  0  0  0  0
  152.6811  138.8660  157.6183 H   0  0  0  0  0  0  0  0  0  0  0  0
  151.0070  138.7624  158.0941 H   0  0  0  0  0  0  0  0  0  0  0  0
  152.0647  140.9743  156.2671 H   0  0  0  0  0  0  0  0  0  0  0  0
  149.2628  140.0945  157.0248 H   0  0  0  0  0  0  0  0  0  0  0  0
  149.9399  141.7222  157.1535 H   0  0  0  0  0  0  0  0  0  0  0  0
  148.5571  140.9813  154.9150 H   0  0  0  0  0  0  0  0  0  0  0  0
  150.0122  141.9677  154.7585 H   0  0  0  0  0  0  0  0  0  0  0  0
  152.1484  139.0707  154.7859 H   0  0  0  0  0  0  0  0  0  0  0  0
  150.7374  138.3315  155.5464 H   0  0  0  0  0  0  0  0  0  0  0  0
  1  2  2  0  0  0  0
  2  3  1  0  0  0  0
  2  9  1  0  0  0  0
  3  4  1  0  0  0  0
  3 16  1  0  0  0  0
  3 17  1  0  0  0  0
  4  8  1  0  0  0  0
  4  5  1  0  0  0  0
  5  6  2  0  0  0  0
  5 18  1  0  0  0  0
  6  7  1  0  0  0  0
  6 19  1  0  0  0  0
  7  8  2  0  0  0  0
  7 20  1  0  0  0  0
  9 10  1  0  0  0  0
  9 21  1  0  0  0  0
 10 11  1  0  0  0  0
 10 22  1  0  0  0  0
 10 23  1  0  0  0  0
 11 15  1  0  0  0  0
 11 12  1  0  0  0  0
 11 24  1  0  0  0  0
 12 13  1  0  0  0  0
 12 25  1  0  0  0  0
 12 26  1  0  0  0  0
 13 14  1  0  0  0  0
 13 27  1  0  0  0  0
 13 28  1  0  0  0  0
 14 15  1  0  0  0  0
 15 29  1  0  0  0  0
 15 30  1  0  0  0  0
M  END
> <s_m_source_file>
AV-unprocessed.smi

> <i_m_source_file_index>
841

> <i_lp_mmshare_version>
43012

> <i_f3d_flags>
0

> <s_epik_input>
bjFbY0hdW2NIXVtjSF1uMVtDSDJdQyg9TylbTkhdW0NIMl1bQ0BASF0yW0NIMl1bQ0gyXU9bQ0gyXTI=

> <s_epik_cmdline>
J2VwaWtfcHl0aG9uJywgJy1waCcsICc3LjAnLCAnLXRuJywgJzgnLCAnLW1hJywgJzIwMCcsICctbWV0YWxfYmluZGluZycsICctaW1hZScsICc8aW5maWxlLm1hZT4nLCAnLW9tYWUnLCAnPG91dGZpbGUubWFlPic=

> <r_lp_tautomer_probability>
1

> <r_epik_Ionization_Penalty>
1.49823e-05

> <r_epik_Ionization_Penalty_Charging>
0

> <r_epik_Ionization_Penalty_Neutral>
1.49823e-05

> <r_epik_State_Penalty>
-0

> <r_epik_Charging_Adjusted_Penalty>
0

> <i_epik_Tot_Q>
0

> <i_epik_Tot_abs_Q>
0

> <r_epik_Metal_State_Penalty>
-0

> <b_epik_Metal_Only>
0

> <s_lp_Force_Field>
OPLS_2005

> <r_lp_Energy>
19.4913

> <b_lp_Chiralities_Consistent>
1

> <s_lp_Variant>
AV-unprocessed.smi:841-1

> <Gold.Version>
5.8.1

> <Gold.Id.Protein>
6NUR|6NUR_protein|mol2

> <Gold.PLP.Fitness>
43.1919

> <Gold.PLP.PLP>
-38.0718

> <Gold.PLP.part.hbond>
-2.0000

> <Gold.PLP.part.metal>
0.0000

> <Gold.PLP.part.buried>
-4.1439

> <Gold.PLP.part.nonpolar>
-32.4440

> <Gold.PLP.part.repulsive>
0.3678

> <Gold.PLP.ligand.clash>
0.0000

> <Gold.PLP.ligand.torsion>
0.3490

> <Gold.PLP.Chemscore.Hbond>
1.9360

> <Gold.PLP.Chemscore.CHOScore>
0.0000

> <Gold.PLP.Chemscore.Metal>
0.0000

> <Gold.Chemscore.Hbonds>
donor molecule, donor type, donor heavy atom, donor atom, acceptor molecule, acceptor atom, score
      P1  H  7989  7998       L1    14  0.80
      P1  H  7997  8010       L1     1  0.96

> <Gold.PLP.Chemscore.Internal.Correction>
0.0101

> <Gold.Rescore>
     Score         DG    S(hbond)    S(metal)    S(lipo)     H(rot)  DE(clash)    DE(int)     intcor
     13.58     -13.88       0.99        0.00      80.12       1.68       0.05       0.25       ----

> <Gold.Chemscore.Fitness>
13.5789

> <Gold.Chemscore.DG>
-13.8826

> <Gold.Chemscore.ZeroCoef>
-5.4800

> <Gold.Chemscore.Hbond>
0.9945

> <Gold.Chemscore.Metal>
0.0000

> <Gold.Chemscore.Lipo>
80.1232

> <Gold.Chemscore.Internal_Hbond>
0.0000

> <Gold.Chemscore.DEClash>
0.0529

> <Gold.Chemscore.DEInternal>
0.2508

> <Gold.Chemscore.Rot>
1.6771

> <Gold.Chemscore.Internal.Correction>
   9.000000E+99

> <Gold.Chemscore.Hbonds>
donor molecule, donor type, donor heavy atom, donor atom, acceptor molecule, acceptor atom, score
      P1  H  7989  7998       L1    14  0.05
      P1  H  7997  8010       L1     1  0.88

> <Gold.Chemscore.Hbond.Weighted>
-3.3215

> <Gold.Chemscore.Metal.Weighted>
-0.0000

> <Gold.Chemscore.Lipo.Weighted>
-9.3744

> <Gold.Chemscore.Internal_Hbond.Weighted>
0.0000

> <Gold.Chemscore.DEClash.Weighted>
0.0529

> <Gold.Chemscore.DEInternal.Weighted>
0.2508

> <Gold.Chemscore.Rot.Weighted>
4.2934

> <Gold.Chemscore.Internal.Correction.Weighted>
   9.000000E+99

> <Gold.Protein.RotatedTorsions>
[ 6907 6896 6895 6894 ] final  154.90 input  -60.11 | X-H torsion
[ 7974 7965 7964 7962 ] final  -23.95 input  175.53 | X-H torsion
[ 8008 7997 7996 7995 ] final    9.27 input   59.86 | X-H torsion
[ 10167 10162 10161 10158 ] final -131.24 input  -65.29 | X-H torsion
[ 10718 10713 10712 10709 ] final   96.36 input   66.30 | X-H torsion
[ 10763 10752 10751 10750 ] final -130.70 input  -60.55 | X-H torsion
[ 11005 11000 10999 10996 ] final  138.61 input  -57.11 | X-H torsion

> <Gold.Protein.ActiveResidues>
 VAL166  LYS551  ARG553  GLY616  TRP617  ASP618  TYR619  PRO620  LYS621  CYS622 
 ASP623  PHE694  ASN695  SER759  ASP760  ASP761  ALA762  ILE779  LEU786  VAL792 
 PHE793  MET794  SER795  GLU796  ALA797  LYS798  CYS799  TRP800  GLU811  SER814 

> <Gold.Protein.RotatedAtoms>
  152.0518  133.4022  159.4380 H   0  0  0  0  0  0  0  0  0  0  0  0  # atno 6907 bound_to 6896
  150.6870  134.3299  159.4832 H   0  0  0  0  0  0  0  0  0  0  0  0  # atno 6908 bound_to 6896
  152.1110  134.9274  160.0617 H   0  0  0  0  0  0  0  0  0  0  0  0  # atno 6909 bound_to 6896
  146.1585  140.4685  142.8581 H   0  0  0  0  0  0  0  0  0  0  0  0  # atno 7974 bound_to 7965
  154.7778  140.2813  155.6087 H   0  0  0  0  0  0  0  0  0  0  0  0  # atno 8008 bound_to 7997
  156.2945  140.2629  156.2524 H   0  0  0  0  0  0  0  0  0  0  0  0  # atno 8009 bound_to 7997
  154.9821  140.0374  157.2272 H   0  0  0  0  0  0  0  0  0  0  0  0  # atno 8010 bound_to 7997
  139.9209  143.6383  152.2554 H   0  0  0  0  0  0  0  0  0  0  0  0  # atno 10167 bound_to 10162
  157.6928  131.0575  150.4480 H   0  0  0  0  0  0  0  0  0  0  0  0  # atno 10718 bound_to 10713
  154.8754  135.3854  154.4126 H   0  0  0  0  0  0  0  0  0  0  0  0  # atno 10763 bound_to 10752
  153.4838  135.7030  153.5928 H   0  0  0  0  0  0  0  0  0  0  0  0  # atno 10764 bound_to 10752
  153.4332  135.3873  155.2150 H   0  0  0  0  0  0  0  0  0  0  0  0  # atno 10765 bound_to 10752
  140.0196  134.9403  157.0446 H   0  0  0  0  0  0  0  0  0  0  0  0  # atno 11005 bound_to 11000
  144.7995  140.6186  143.6487 LP  0  0  0  0  0  0  0  0  0  0  0  0  # atno 17320 bound_to 7965
  145.4648  139.1509  143.3846 LP  0  0  0  0  0  0  0  0  0  0  0  0  # atno 17321 bound_to 7965
  139.6862  144.7651  151.1519 LP  0  0  0  0  0  0  0  0  0  0  0  0  # atno 17342 bound_to 10162
  140.7662  143.5654  150.9054 LP  0  0  0  0  0  0  0  0  0  0  0  0  # atno 17343 bound_to 10162
  156.4833  130.4078  149.6449 LP  0  0  0  0  0  0  0  0  0  0  0  0  # atno 17370 bound_to 10713
  156.3486  130.7420  151.2376 LP  0  0  0  0  0  0  0  0  0  0  0  0  # atno 17371 bound_to 10713
  140.4411  134.1680  155.7174 LP  0  0  0  0  0  0  0  0  0  0  0  0  # atno 17394 bound_to 11000
  141.1765  133.8503  157.1404 LP  0  0  0  0  0  0  0  0  0  0  0  0  # atno 17395 bound_to 11000

$$$$
