AV-unprocessed.smi:1021|AV-procd|sdf|4457|dock3
  -GOLD-   22720 2433D 1   1.00000     0.00000
 Structure written by MMmdl.
 43 45  0  0  0  0  0  0  0  0  2 V2000
  147.3639  140.1651  152.3096 O   0  0  0  0  0  0  0  0  0  0  0  0
  146.7806  138.8859  152.1811 C   0  0  0  0  0  0  0  0  0  0  0  0
  146.8308  138.1358  153.5204 C   0  0  0  0  0  0  0  0  0  0  0  0
  145.5320  137.3696  153.8326 C   0  0  0  0  0  0  0  0  0  0  0  0
  145.3314  136.1596  152.9717 C   0  0  0  0  0  0  0  0  0  0  0  0
  146.2760  135.5147  152.2274 N   0  3  0  0  0  0  0  0  0  0  0  0
  145.7018  134.4265  151.5699 C   0  0  0  0  0  0  0  0  0  0  0  0
  146.2588  133.4852  150.7096 C   0  0  0  0  0  0  0  0  0  0  0  0
  145.3893  132.4955  150.2064 C   0  0  0  0  0  0  0  0  0  0  0  0
  144.0247  132.4687  150.5604 C   0  0  0  0  0  0  0  0  0  0  0  0
  143.4719  133.4288  151.4335 C   0  0  0  0  0  0  0  0  0  0  0  0
  144.3389  134.4029  151.9291 C   0  0  0  0  0  0  0  0  0  0  0  0
  144.1571  135.4885  152.7950 N   0  0  0  0  0  0  0  0  0  0  0  0
  142.8265  135.7529  153.3661 C   0  0  0  0  0  0  0  0  0  0  0  0
  142.4941  137.2564  153.4439 C   0  0  1  0  0  0  0  0  0  0  0  0
  142.9961  137.9267  152.3039 O   0  0  0  0  0  0  0  0  0  0  0  0
  141.0023  137.4821  153.6322 C   0  0  0  0  0  0  0  0  0  0  0  0
  140.2430  136.5706  154.3972 C   0  0  0  0  0  0  0  0  0  0  0  0
  138.8590  136.7683  154.5692 C   0  0  0  0  0  0  0  0  0  0  0  0
  138.2258  137.8767  153.9750 C   0  0  0  0  0  0  0  0  0  0  0  0
  136.8952  138.0651  154.1395 F   0  0  0  0  0  0  0  0  0  0  0  0
  138.9773  138.7878  153.2082 C   0  0  0  0  0  0  0  0  0  0  0  0
  140.3613  138.5908  153.0360 C   0  0  0  0  0  0  0  0  0  0  0  0
  148.0493  140.2503  151.6642 H   0  0  0  0  0  0  0  0  0  0  0  0
  145.7538  138.9875  151.8284 H   0  0  0  0  0  0  0  0  0  0  0  0
  147.3298  138.3308  151.4201 H   0  0  0  0  0  0  0  0  0  0  0  0
  147.6615  137.4298  153.4900 H   0  0  0  0  0  0  0  0  0  0  0  0
  147.0543  138.8413  154.3222 H   0  0  0  0  0  0  0  0  0  0  0  0
  145.5282  137.0502  154.8752 H   0  0  0  0  0  0  0  0  0  0  0  0
  144.6750  138.0314  153.7055 H   0  0  0  0  0  0  0  0  0  0  0  0
  147.3034  133.5053  150.4357 H   0  0  0  0  0  0  0  0  0  0  0  0
  145.7762  131.7429  149.5347 H   0  0  0  0  0  0  0  0  0  0  0  0
  143.3881  131.6967  150.1533 H   0  0  0  0  0  0  0  0  0  0  0  0
  142.4240  133.4018  151.6925 H   0  0  0  0  0  0  0  0  0  0  0  0
  142.0736  135.2068  152.7977 H   0  0  0  0  0  0  0  0  0  0  0  0
  142.8167  135.3215  154.3678 H   0  0  0  0  0  0  0  0  0  0  0  0
  143.0119  137.6835  154.3035 H   0  0  0  0  0  0  0  0  0  0  0  0
  143.3963  138.7354  152.5852 H   0  0  0  0  0  0  0  0  0  0  0  0
  140.7180  135.7151  154.8544 H   0  0  0  0  0  0  0  0  0  0  0  0
  138.2828  136.0687  155.1568 H   0  0  0  0  0  0  0  0  0  0  0  0
  138.4918  139.6373  152.7508 H   0  0  0  0  0  0  0  0  0  0  0  0
  140.9289  139.2930  152.4428 H   0  0  0  0  0  0  0  0  0  0  0  0
  147.2449  135.8016  152.1767 H   0  0  0  0  0  0  0  0  0  0  0  0
  1  2  1  0  0  0  0
  1 24  1  0  0  0  0
  2  3  1  0  0  0  0
  2 25  1  0  0  0  0
  2 26  1  0  0  0  0
  3  4  1  0  0  0  0
  3 27  1  0  0  0  0
  3 28  1  0  0  0  0
  4  5  1  0  0  0  0
  4 29  1  0  0  0  0
  4 30  1  0  0  0  0
  5 13  1  0  0  0  0
  5  6  2  0  0  0  0
  6  7  1  0  0  0  0
  6 43  1  0  0  0  0
  7 12  2  0  0  0  0
  7  8  1  0  0  0  0
  8  9  2  0  0  0  0
  8 31  1  0  0  0  0
  9 10  1  0  0  0  0
  9 32  1  0  0  0  0
 10 11  2  0  0  0  0
 10 33  1  0  0  0  0
 11 12  1  0  0  0  0
 11 34  1  0  0  0  0
 12 13  1  0  0  0  0
 13 14  1  0  0  0  0
 14 15  1  0  0  0  0
 14 35  1  0  0  0  0
 14 36  1  0  0  0  0
 15 16  1  0  0  0  0
 15 17  1  0  0  0  0
 15 37  1  0  0  0  0
 16 38  1  0  0  0  0
 17 23  1  0  0  0  0
 17 18  2  0  0  0  0
 18 19  1  0  0  0  0
 18 39  1  0  0  0  0
 19 20  2  0  0  0  0
 19 40  1  0  0  0  0
 20 21  1  0  0  0  0
 20 22  1  0  0  0  0
 22 23  2  0  0  0  0
 22 41  1  0  0  0  0
 23 42  1  0  0  0  0
M  CHG  1   6   1
M  END
> <s_m_source_file>
AV-unprocessed.smi

> <i_m_source_file_index>
1021

> <i_lp_mmshare_version>
43012

> <i_f3d_flags>
0

> <s_epik_input>
W09IXVtDSDJdW0NIMl1bQ0gyXWMobjEpbihjKGMxMilbY0hdW2NIXVtjSF1bY0hdMilbQ0gyXVtDQEhdKFtPSF0pYzNbY0hdW2NIXWMoRilbY0hdW2NIXTM=

> <s_epik_cmdline>
J2VwaWtfcHl0aG9uJywgJy1waCcsICc3LjAnLCAnLXRuJywgJzgnLCAnLW1hJywgJzIwMCcsICctbWV0YWxfYmluZGluZycsICctaW1hZScsICc8aW5maWxlLm1hZT4nLCAnLW9tYWUnLCAnPG91dGZpbGUubWFlPic=

> <r_epik_Ionization_Penalty>
0.786441

> <r_epik_Ionization_Penalty_Charging>
0.786439

> <r_epik_Ionization_Penalty_Neutral>
1.96029e-06

> <r_epik_State_Penalty>
0.816472

> <r_epik_Charging_Adjusted_Penalty>
1.60291

> <i_epik_Tot_Q>
1

> <i_epik_Tot_abs_Q>
1

> <r_epik_Metal_State_Penalty>
4.73733

> <b_epik_Metal_Only>
0

> <s_lp_Force_Field>
OPLS_2005

> <r_lp_Energy>
16.4086

> <b_lp_Chiralities_Consistent>
1

> <s_lp_Variant>
AV-unprocessed.smi:1021-4

> <Gold.Version>
5.8.1

> <Gold.Id.Protein>
6NUR|6NUR_protein|mol2

> <Gold.PLP.Fitness>
54.2298

> <Gold.PLP.PLP>
-45.5454

> <Gold.PLP.part.hbond>
-3.8220

> <Gold.PLP.part.metal>
0.0000

> <Gold.PLP.part.buried>
-4.0040

> <Gold.PLP.part.nonpolar>
-37.3940

> <Gold.PLP.part.repulsive>
0.0180

> <Gold.PLP.ligand.clash>
0.0000

> <Gold.PLP.ligand.torsion>
1.6987

> <Gold.PLP.Chemscore.Hbond>
4.0000

> <Gold.PLP.Chemscore.CHOScore>
0.0000

> <Gold.PLP.Chemscore.Metal>
0.0000

> <Gold.Chemscore.Hbonds>
donor molecule, donor type, donor heavy atom, donor atom, acceptor molecule, acceptor atom, score
      L1  H     1    24       P1  7957  1.00
      L1  H     6    43       P1  7948  2.00
      L1  H    16    38       P1 10175  1.00

> <Gold.PLP.Chemscore.Internal.Correction>
0.0819

> <Gold.Rescore>
     Score         DG    S(hbond)    S(metal)    S(lipo)     H(rot)  DE(clash)    DE(int)     intcor
     17.72     -19.34       2.97        0.00     102.75       3.16       0.08       1.54       ----

> <Gold.Chemscore.Fitness>
17.7228

> <Gold.Chemscore.DG>
-19.3404

> <Gold.Chemscore.ZeroCoef>
-5.4800

> <Gold.Chemscore.Hbond>
2.9727

> <Gold.Chemscore.Metal>
0.0000

> <Gold.Chemscore.Lipo>
102.7532

> <Gold.Chemscore.Internal_Hbond>
0.0000

> <Gold.Chemscore.DEClash>
0.0790

> <Gold.Chemscore.DEInternal>
1.5385

> <Gold.Chemscore.Rot>
3.1604

> <Gold.Chemscore.Internal.Correction>
   9.000000E+99

> <Gold.Chemscore.Hbonds>
donor molecule, donor type, donor heavy atom, donor atom, acceptor molecule, acceptor atom, score
      L1  H     1    24       P1  7957  0.97
      L1  H     6    43       P1  7948  1.00
      L1  H    16    38       P1 10175  0.95

> <Gold.Chemscore.Hbond.Weighted>
-9.9289

> <Gold.Chemscore.Metal.Weighted>
-0.0000

> <Gold.Chemscore.Lipo.Weighted>
-12.0221

> <Gold.Chemscore.Internal_Hbond.Weighted>
0.0000

> <Gold.Chemscore.DEClash.Weighted>
0.0790

> <Gold.Chemscore.DEInternal.Weighted>
1.5385

> <Gold.Chemscore.Rot.Weighted>
8.0907

> <Gold.Chemscore.Internal.Correction.Weighted>
   9.000000E+99

> <Gold.Protein.RotatedTorsions>
[ 6907 6896 6895 6894 ] final -166.63 input  -60.11 | X-H torsion
[ 7974 7965 7964 7962 ] final   40.75 input  175.53 | X-H torsion
[ 8008 7997 7996 7995 ] final   87.91 input   59.86 | X-H torsion
[ 10167 10162 10161 10158 ] final  -98.07 input  -65.29 | X-H torsion
[ 10718 10713 10712 10709 ] final  -20.05 input   66.30 | X-H torsion
[ 10763 10752 10751 10750 ] final   89.97 input  -60.55 | X-H torsion
[ 11005 11000 10999 10996 ] final -142.96 input  -57.11 | X-H torsion

> <Gold.Protein.ActiveResidues>
 VAL166  LYS551  ARG553  GLY616  TRP617  ASP618  TYR619  PRO620  LYS621  CYS622 
 ASP623  PHE694  ASN695  SER759  ASP760  ASP761  ALA762  ILE779  LEU786  VAL792 
 PHE793  MET794  SER795  GLU796  ALA797  LYS798  CYS799  TRP800  GLU811  SER814 

> <Gold.Protein.RotatedAtoms>
  151.4467  133.3628  159.2789 H   0  0  0  0  0  0  0  0  0  0  0  0  # atno 6907 bound_to 6896
  150.9120  134.8538  159.7442 H   0  0  0  0  0  0  0  0  0  0  0  0  # atno 6908 bound_to 6896
  152.4937  134.4397  159.9591 H   0  0  0  0  0  0  0  0  0  0  0  0  # atno 6909 bound_to 6896
  146.0880  139.5496  142.9494 H   0  0  0  0  0  0  0  0  0  0  0  0  # atno 7974 bound_to 7965
  155.9812  140.3377  155.6665 H   0  0  0  0  0  0  0  0  0  0  0  0  # atno 8008 bound_to 7997
  155.6545  140.0709  157.2593 H   0  0  0  0  0  0  0  0  0  0  0  0  # atno 8009 bound_to 7997
  154.4192  140.1719  156.1698 H   0  0  0  0  0  0  0  0  0  0  0  0  # atno 8010 bound_to 7997
  140.2768  143.3308  152.0480 H   0  0  0  0  0  0  0  0  0  0  0  0  # atno 10167 bound_to 10162
  156.5372  130.4669  149.6517 H   0  0  0  0  0  0  0  0  0  0  0  0  # atno 10718 bound_to 10713
  153.1927  135.4451  155.0169 H   0  0  0  0  0  0  0  0  0  0  0  0  # atno 10763 bound_to 10752
  154.8100  135.3290  154.7333 H   0  0  0  0  0  0  0  0  0  0  0  0  # atno 10764 bound_to 10752
  153.7786  135.6979  153.4948 H   0  0  0  0  0  0  0  0  0  0  0  0  # atno 10765 bound_to 10752
  140.8173  134.2673  157.4915 H   0  0  0  0  0  0  0  0  0  0  0  0  # atno 11005 bound_to 11000
  145.6094  141.0342  143.1975 LP  0  0  0  0  0  0  0  0  0  0  0  0  # atno 17320 bound_to 7965
  144.7339  139.7643  143.7336 LP  0  0  0  0  0  0  0  0  0  0  0  0  # atno 17321 bound_to 7965
  139.4973  144.6619  151.6445 LP  0  0  0  0  0  0  0  0  0  0  0  0  # atno 17342 bound_to 10162
  140.5844  143.9889  150.6287 LP  0  0  0  0  0  0  0  0  0  0  0  0  # atno 17343 bound_to 10162
  156.3005  130.7174  151.2044 LP  0  0  0  0  0  0  0  0  0  0  0  0  # atno 17370 bound_to 10713
  157.7411  131.0507  150.5117 LP  0  0  0  0  0  0  0  0  0  0  0  0  # atno 17371 bound_to 10713
  139.8710  134.9516  156.4090 LP  0  0  0  0  0  0  0  0  0  0  0  0  # atno 17394 bound_to 11000
  140.9136  133.7694  155.9821 LP  0  0  0  0  0  0  0  0  0  0  0  0  # atno 17395 bound_to 11000

$$$$
