AV-unprocessed.smi:2509|AV-procd|sdf|9866|dock6
  -GOLD-   2272013493D 1   1.00000     0.00000
 Structure written by MMmdl.
 45 46  0  0  0  0  0  0  0  0  1 V2000
  151.0086  142.8484  156.4652 C   0  0  0  0  0  0  0  0  0  0  0  0
  150.5559  141.5154  157.1060 C   0  0  0  0  0  0  0  0  0  0  0  0
  151.7860  140.7414  157.6138 C   0  0  0  0  0  0  0  0  0  0  0  0
  149.6580  141.9010  158.3057 C   0  0  0  0  0  0  0  0  0  0  0  0
  149.7879  140.6486  156.0929 C   0  0  0  0  0  0  0  0  0  0  0  0
  150.4636  140.2320  155.0136 N   0  0  0  0  0  0  0  0  0  0  0  0
  149.8450  139.3674  154.1823 C   0  0  0  0  0  0  0  0  0  0  0  0
  148.5444  138.8892  154.4365 C   0  0  0  0  0  0  0  0  0  0  0  0
  147.9575  137.9652  153.5318 N   0  0  0  0  0  0  0  0  0  0  0  0
  146.6573  137.6590  153.3869 C   0  0  0  0  0  0  0  0  0  0  0  0
  145.7324  138.1796  154.0099 O   0  0  0  0  0  0  0  0  0  0  0  0
  146.4840  136.7190  152.4470 N   0  0  0  0  0  0  0  0  0  0  0  0
  145.1985  136.1773  152.0161 C   0  0  0  0  0  0  0  0  0  0  0  0
  145.3752  134.9289  151.1302 C   0  0  2  0  0  0  0  0  0  0  0  0
  144.0639  134.3521  150.5727 C   0  0  0  0  0  0  0  0  0  0  0  0
  144.3051  132.8489  150.3619 C   0  0  0  0  0  0  0  0  0  0  0  0
  145.6862  132.5456  150.9554 C   0  0  0  0  0  0  0  0  0  0  0  0
  145.9999  133.7369  151.8620 C   0  0  1  0  0  0  0  0  0  0  0  0
  147.3913  133.8910  152.0515 O   0  0  0  0  0  0  0  0  0  0  0  0
  147.9408  139.3523  155.6295 C   0  0  0  0  0  0  0  0  0  0  0  0
  148.5731  140.2142  156.4541 N   0  0  0  0  0  0  0  0  0  0  0  0
  151.5113  143.4878  157.1915 H   0  0  0  0  0  0  0  0  0  0  0  0
  150.1596  143.4071  156.0693 H   0  0  0  0  0  0  0  0  0  0  0  0
  151.7118  142.6903  155.6467 H   0  0  0  0  0  0  0  0  0  0  0  0
  152.4595  140.4875  156.7946 H   0  0  0  0  0  0  0  0  0  0  0  0
  151.4943  139.8098  158.0998 H   0  0  0  0  0  0  0  0  0  0  0  0
  152.3540  141.3271  158.3373 H   0  0  0  0  0  0  0  0  0  0  0  0
  150.1847  142.5544  159.0022 H   0  0  0  0  0  0  0  0  0  0  0  0
  149.3397  141.0270  158.8753 H   0  0  0  0  0  0  0  0  0  0  0  0
  148.7606  142.4272  157.9780 H   0  0  0  0  0  0  0  0  0  0  0  0
  150.3974  139.0531  153.3089 H   0  0  0  0  0  0  0  0  0  0  0  0
  148.5963  137.5198  152.8894 H   0  0  0  0  0  0  0  0  0  0  0  0
  147.3047  136.3542  151.9859 H   0  0  0  0  0  0  0  0  0  0  0  0
  144.6361  135.9124  152.9117 H   0  0  0  0  0  0  0  0  0  0  0  0
  144.6042  136.9325  151.4987 H   0  0  0  0  0  0  0  0  0  0  0  0
  146.0146  135.1837  150.2827 H   0  0  0  0  0  0  0  0  0  0  0  0
  143.2576  134.4854  151.2950 H   0  0  0  0  0  0  0  0  0  0  0  0
  143.7600  134.8520  149.6524 H   0  0  0  0  0  0  0  0  0  0  0  0
  143.5324  132.2721  150.8713 H   0  0  0  0  0  0  0  0  0  0  0  0
  144.2689  132.5799  149.3057 H   0  0  0  0  0  0  0  0  0  0  0  0
  145.7152  131.5951  151.4890 H   0  0  0  0  0  0  0  0  0  0  0  0
  146.4158  132.4902  150.1459 H   0  0  0  0  0  0  0  0  0  0  0  0
  145.5167  133.5973  152.8302 H   0  0  0  0  0  0  0  0  0  0  0  0
  147.6147  134.7996  151.9193 H   0  0  0  0  0  0  0  0  0  0  0  0
  146.9668  139.0228  155.9567 H   0  0  0  0  0  0  0  0  0  0  0  0
  1  2  1  0  0  0  0
  1 22  1  0  0  0  0
  1 23  1  0  0  0  0
  1 24  1  0  0  0  0
  2  3  1  0  0  0  0
  2  4  1  0  0  0  0
  2  5  1  0  0  0  0
  3 25  1  0  0  0  0
  3 26  1  0  0  0  0
  3 27  1  0  0  0  0
  4 28  1  0  0  0  0
  4 29  1  0  0  0  0
  4 30  1  0  0  0  0
  5 21  1  0  0  0  0
  5  6  2  0  0  0  0
  6  7  1  0  0  0  0
  7  8  2  0  0  0  0
  7 31  1  0  0  0  0
  8  9  1  0  0  0  0
  8 20  1  0  0  0  0
  9 10  1  0  0  0  0
  9 32  1  0  0  0  0
 10 11  2  0  0  0  0
 10 12  1  0  0  0  0
 12 13  1  0  0  0  0
 12 33  1  0  0  0  0
 13 14  1  0  0  0  0
 13 34  1  0  0  0  0
 13 35  1  0  0  0  0
 14 18  1  0  0  0  0
 14 15  1  0  0  0  0
 14 36  1  0  0  0  0
 15 16  1  0  0  0  0
 15 37  1  0  0  0  0
 15 38  1  0  0  0  0
 16 17  1  0  0  0  0
 16 39  1  0  0  0  0
 16 40  1  0  0  0  0
 17 18  1  0  0  0  0
 17 41  1  0  0  0  0
 17 42  1  0  0  0  0
 18 19  1  0  0  0  0
 18 43  1  0  0  0  0
 19 44  1  0  0  0  0
 20 21  2  0  0  0  0
 20 45  1  0  0  0  0
M  END
> <s_m_source_file>
AV-unprocessed.smi

> <i_m_source_file_index>
2509

> <i_lp_mmshare_version>
43012

> <i_f3d_flags>
0

> <s_epik_input>
W0NIM11DKFtDSDNdKShbQ0gzXSljMW5bY0hdYyhbY0hdbjEpW05IXUMoPU8pW05IXVtDSDJdW0NAQEhdMltDSDJdW0NIMl1bQ0gyXVtDQEhdMltPSF0=

> <s_epik_cmdline>
J2VwaWtfcHl0aG9uJywgJy1waCcsICc3LjAnLCAnLXRuJywgJzgnLCAnLW1hJywgJzIwMCcsICctbWV0YWxfYmluZGluZycsICctaW1hZScsICc8aW5maWxlLm1hZT4nLCAnLW9tYWUnLCAnPG91dGZpbGUubWFlPic=

> <r_lp_tautomer_probability>
1

> <r_epik_Ionization_Penalty>
2.77586e-05

> <r_epik_Ionization_Penalty_Charging>
0

> <r_epik_Ionization_Penalty_Neutral>
2.77586e-05

> <r_epik_State_Penalty>
-0

> <r_epik_Charging_Adjusted_Penalty>
0

> <i_epik_Tot_Q>
0

> <i_epik_Tot_abs_Q>
0

> <r_epik_Metal_State_Penalty>
-0

> <b_epik_Metal_Only>
0

> <s_lp_Force_Field>
OPLS_2005

> <r_lp_Energy>
20.4584

> <b_lp_Chiralities_Consistent>
1

> <s_lp_Variant>
AV-unprocessed.smi:2509-1

> <Gold.Version>
5.8.1

> <Gold.Id.Protein>
6NUR|6NUR_protein|mol2

> <Gold.PLP.Fitness>
41.3843

> <Gold.PLP.PLP>
-28.9503

> <Gold.PLP.part.hbond>
-4.0000

> <Gold.PLP.part.metal>
0.0000

> <Gold.PLP.part.buried>
-0.9354

> <Gold.PLP.part.nonpolar>
-23.8504

> <Gold.PLP.part.repulsive>
0.2801

> <Gold.PLP.ligand.clash>
0.0000

> <Gold.PLP.ligand.torsion>
0.2450

> <Gold.PLP.Chemscore.Hbond>
3.5420

> <Gold.PLP.Chemscore.CHOScore>
0.7150

> <Gold.PLP.Chemscore.Metal>
0.0000

> <Gold.Chemscore.Hbonds>
donor molecule, donor type, donor heavy atom, donor atom, acceptor molecule, acceptor atom, score
      L1  H     9    32       P1  7948  1.00
      L1  H    12    33       P1  7948  1.00
      L1  H    19    44       P1  7948  0.99
      P1  H  7989  7998       L1     6  0.50
      L1  C     7    31       P1  7957  0.72

> <Gold.PLP.Chemscore.Internal.Correction>
0.1530

> <Gold.Rescore>
     Score         DG    S(hbond)    S(metal)    S(lipo)     H(rot)  DE(clash)    DE(int)     intcor
     16.04     -18.41       2.78        0.00      72.84       1.91       0.15       2.21       ----

> <Gold.Chemscore.Fitness>
16.0438

> <Gold.Chemscore.DG>
-18.4104

> <Gold.Chemscore.ZeroCoef>
-5.4800

> <Gold.Chemscore.Hbond>
2.7849

> <Gold.Chemscore.Metal>
0.0000

> <Gold.Chemscore.Lipo>
72.8413

> <Gold.Chemscore.Internal_Hbond>
0.0000

> <Gold.Chemscore.DEClash>
0.1520

> <Gold.Chemscore.DEInternal>
2.2145

> <Gold.Chemscore.Rot>
1.9116

> <Gold.Chemscore.Internal.Correction>
   9.000000E+99

> <Gold.Chemscore.Hbonds>
donor molecule, donor type, donor heavy atom, donor atom, acceptor molecule, acceptor atom, score
      L1  H     9    32       P1  7948  0.95
      L1  H    12    33       P1  7948  0.96
      L1  H    19    44       P1  7948  0.61
      P1  H  7989  7998       L1     6  0.02

> <Gold.Chemscore.Hbond.Weighted>
-9.3015

> <Gold.Chemscore.Metal.Weighted>
-0.0000

> <Gold.Chemscore.Lipo.Weighted>
-8.5224

> <Gold.Chemscore.Internal_Hbond.Weighted>
0.0000

> <Gold.Chemscore.DEClash.Weighted>
0.1520

> <Gold.Chemscore.DEInternal.Weighted>
2.2145

> <Gold.Chemscore.Rot.Weighted>
4.8936

> <Gold.Chemscore.Internal.Correction.Weighted>
   9.000000E+99

> <Gold.Protein.RotatedTorsions>
[ 6907 6896 6895 6894 ] final  -54.41 input  -60.11 | X-H torsion
[ 7974 7965 7964 7962 ] final  -79.71 input  175.53 | X-H torsion
[ 8008 7997 7996 7995 ] final  130.93 input   59.86 | X-H torsion
[ 10167 10162 10161 10158 ] final  138.78 input  -65.29 | X-H torsion
[ 10718 10713 10712 10709 ] final  144.09 input   66.30 | X-H torsion
[ 10763 10752 10751 10750 ] final  157.00 input  -60.55 | X-H torsion
[ 11005 11000 10999 10996 ] final  120.25 input  -57.11 | X-H torsion

> <Gold.Protein.ActiveResidues>
 VAL166  LYS551  ARG553  GLY616  TRP617  ASP618  TYR619  PRO620  LYS621  CYS622 
 ASP623  PHE694  ASN695  SER759  ASP760  ASP761  ALA762  ILE779  LEU786  VAL792 
 PHE793  MET794  SER795  GLU796  ALA797  LYS798  CYS799  TRP800  GLU811  SER814 

> <Gold.Protein.RotatedAtoms>
  150.8340  134.7606  159.6877 H   0  0  0  0  0  0  0  0  0  0  0  0  # atno 6907 bound_to 6896
  152.4440  134.5529  159.9882 H   0  0  0  0  0  0  0  0  0  0  0  0  # atno 6908 bound_to 6896
  151.5684  133.3355  159.3020 H   0  0  0  0  0  0  0  0  0  0  0  0  # atno 6909 bound_to 6896
  145.5696  140.9468  143.1403 H   0  0  0  0  0  0  0  0  0  0  0  0  # atno 7974 bound_to 7965
  156.2962  140.2584  156.2843 H   0  0  0  0  0  0  0  0  0  0  0  0  # atno 8008 bound_to 7997
  154.9571  140.0393  157.2191 H   0  0  0  0  0  0  0  0  0  0  0  0  # atno 8009 bound_to 7997
  154.7981  140.2823  155.5946 H   0  0  0  0  0  0  0  0  0  0  0  0  # atno 8010 bound_to 7997
  139.5100  144.6333  151.5761 H   0  0  0  0  0  0  0  0  0  0  0  0  # atno 10167 bound_to 10162
  157.3612  131.0965  151.0913 H   0  0  0  0  0  0  0  0  0  0  0  0  # atno 10718 bound_to 10713
  154.1933  135.2794  155.3015 H   0  0  0  0  0  0  0  0  0  0  0  0  # atno 10763 bound_to 10752
  154.5911  135.5559  153.7283 H   0  0  0  0  0  0  0  0  0  0  0  0  # atno 10764 bound_to 10752
  153.0106  135.6368  154.2072 H   0  0  0  0  0  0  0  0  0  0  0  0  # atno 10765 bound_to 10752
  139.9178  134.9633  156.7778 H   0  0  0  0  0  0  0  0  0  0  0  0  # atno 11005 bound_to 11000
  144.7444  139.7360  143.7298 LP  0  0  0  0  0  0  0  0  0  0  0  0  # atno 17320 bound_to 7965
  146.1794  139.4979  142.9876 LP  0  0  0  0  0  0  0  0  0  0  0  0  # atno 17321 bound_to 7965
  140.6074  143.9499  150.6428 LP  0  0  0  0  0  0  0  0  0  0  0  0  # atno 17342 bound_to 10162
  140.2731  143.3442  152.1220 LP  0  0  0  0  0  0  0  0  0  0  0  0  # atno 17343 bound_to 10162
  157.2052  130.6413  149.5753 LP  0  0  0  0  0  0  0  0  0  0  0  0  # atno 17370 bound_to 10713
  155.9738  130.4678  150.6337 LP  0  0  0  0  0  0  0  0  0  0  0  0  # atno 17371 bound_to 10713
  140.6569  133.9681  155.7784 LP  0  0  0  0  0  0  0  0  0  0  0  0  # atno 17394 bound_to 11000
  141.0670  134.0262  157.3580 LP  0  0  0  0  0  0  0  0  0  0  0  0  # atno 17395 bound_to 11000

$$$$
