#       Name:                AV-unprocessed.smi:805
#       Creating user name   scv26
#       Creation time:       Fri Mar 27 01:23:25 2020


#       File generated by GOLD software.
#

@<TRIPOS>MOLECULE
AV-unprocessed.smi:805
    45    46     1
SMALL
NO_CHARGES


@<TRIPOS>ATOM
      1 ****        -5.0191   2.7842  -1.6713 C.3            1 S1                 0.0000
      2 ****        -3.4977   2.9474  -1.7060 C.3            1 S1                 0.0000
      3 ****        -2.8964   1.6672  -1.6080 O.3            1 S1                 0.0000
      4 ****        -1.4786   1.7185  -1.6366 C.3            1 S1                 0.0000
      5 ****        -0.8277   2.1411  -0.3155 C.3            1 S1                 0.0000
      6 ****         0.2407   1.0941  -0.6341 C.3            1 S1                 0.0000
      7 ****         0.7074   0.3863   0.5535 N.am           1 S1                 0.0000
      8 ****         1.7062  -0.5065   0.5573 C.2            1 S1                 0.0000
      9 ****         2.3443  -0.8124  -0.4497 O.2            1 S1                 0.0000
     10 ****         1.9142  -0.9960   1.7918 N.am           1 S1                 0.0000
     11 ****         2.8731  -1.9560   2.2147 C.ar           1 S1                 0.0000
     12 ****         3.1883  -2.0124   3.5881 C.ar           1 S1                 0.0000
     13 ****         4.1231  -2.9629   4.0400 C.ar           1 S1                 0.0000
     14 ****         4.7034  -3.8319   3.0962 C.ar           1 S1                 0.0000
     15 ****         4.4024  -3.8028   1.7810 N.ar           1 S1                 0.0000
     16 ****         3.5060  -2.8872   1.3538 C.ar           1 S1                 0.0000
     17 ****        -0.8144   0.3282  -1.4770 C.3            1 S1                 0.0000
     18 ****        -1.6518  -0.7411  -0.7534 C.3            1 S1                 0.0000
     19 ****        -0.2987  -0.3090  -2.7670 C.3            1 S1                 0.0000
     20 ****        -5.5171   3.7516  -1.7405 H              1 S1                 0.0000
     21 ****        -5.3401   2.3082  -0.7446 H              1 S1                 0.0000
     22 ****        -5.3654   2.1690  -2.5019 H              1 S1                 0.0000
     23 ****        -3.1966   3.4332  -2.6354 H              1 S1                 0.0000
     24 ****        -3.1741   3.5834  -0.8810 H              1 S1                 0.0000
     25 ****        -1.0857   2.2688  -2.4950 H              1 S1                 0.0000
     26 ****        -0.4665   3.1695  -0.2944 H              1 S1                 0.0000
     27 ****        -1.4357   1.9063   0.5601 H              1 S1                 0.0000
     28 ****         1.0437   1.5155  -1.2439 H              1 S1                 0.0000
     29 ****         0.2360   0.5872   1.4233 H              1 S1                 0.0000
     30 ****         1.3549  -0.5910   2.5280 H              1 S1                 0.0000
     31 ****         2.7243  -1.3337   4.2891 H              1 S1                 0.0000
     32 ****         4.3888  -3.0252   5.0850 H              1 S1                 0.0000
     33 ****         5.4246  -4.5733   3.4072 H              1 S1                 0.0000
     34 ****         3.2894  -2.9314   0.2982 H              1 S1                 0.0000
     35 ****        -1.0599  -1.6279  -0.5242 H              1 S1                 0.0000
     36 ****        -2.4965  -1.0644  -1.3624 H              1 S1                 0.0000
     37 ****        -2.0607  -0.3749   0.1884 H              1 S1                 0.0000
     38 ****         0.3070  -1.1923  -2.5625 H              1 S1                 0.0000
     39 ****         0.3248   0.3833  -3.3335 H              1 S1                 0.0000
     40 ****        -1.1184  -0.6123  -3.4189 H              1 S1                 0.0000
     41 ****        -3.2109   1.1077  -2.3748 LP             1 S1                 0.0000
     42 ****        -3.1830   1.2453  -0.7478 LP             1 S1                 0.0000
     43 ****         2.1260  -0.3873  -1.3282 LP             1 S1                 0.0000
     44 ****         3.0809  -1.4859  -0.3894 LP             1 S1                 0.0000
     45 ****         4.8307  -4.4408   1.1411 LP             1 S1                 0.0000
@<TRIPOS>BOND
    1    1    2 1     
    2    1   20 1     
    3    1   21 1     
    4    1   22 1     
    5    2    3 1     
    6    2   23 1     
    7    2   24 1     
    8    3    4 1     
    9    4   17 1     
   10    4    5 1     
   11    4   25 1     
   12    5    6 1     
   13    5   26 1     
   14    5   27 1     
   15    6    7 1     
   16    6   17 1     
   17    6   28 1     
   18    7    8 am    
   19    7   29 1     
   20    8    9 2     
   21    8   10 am    
   22   10   11 1     
   23   10   30 1     
   24   11   16 ar    
   25   11   12 ar    
   26   12   13 ar    
   27   12   31 1     
   28   13   14 ar    
   29   13   32 1     
   30   14   15 ar    
   31   14   33 1     
   32   15   16 ar    
   33   16   34 1     
   34   17   18 1     
   35   17   19 1     
   36   18   35 1     
   37   18   36 1     
   38   18   37 1     
   39   19   38 1     
   40   19   39 1     
   41   19   40 1     
   42    3   41 1     
   43    3   42 1     
   44    9   43 1     
   45    9   44 1     
   46   15   45 1     
@<TRIPOS>SUBSTRUCTURE
      1 S1             1
@<TRIPOS>SET
LONE_PAIRS      STATIC     ATOMS    <user>   **** ""
5 41 42 43 44 45
DONOR_HYDROGENS      STATIC     ATOMS    <user>   **** ""
2 29 30
ATOM$BLUE        STATIC     ATOMS    COLORGROUP SYSTEM
5 41 42 43 44 45
ATOM$RED        STATIC     ATOMS    COLORGROUP SYSTEM
2 29 30
