AV-unprocessed.smi:1948|AV-procd|sdf|7873|dock1
  -GOLD-   2272010 23D 1   1.00000     0.00000
 Structure written by MMmdl.
 30 31  0  0  0  0  0  0  0  0  1 V2000
  147.8266  132.3164  153.9579 O   0  0  0  0  0  0  0  0  0  0  0  0
  148.0321  133.3870  153.3853 C   0  0  0  0  0  0  0  0  0  0  0  0
  148.9940  134.2697  153.7077 N   0  0  0  0  0  0  0  0  0  0  0  0
  149.9634  134.1769  154.7418 C   0  0  0  0  0  0  0  0  0  0  0  0
  150.7015  135.2148  155.1661 N   0  0  0  0  0  0  0  0  0  0  0  0
  151.5717  134.8515  156.1860 N   0  0  0  0  0  0  0  0  0  0  0  0
  151.4556  133.5558  156.4905 C   0  0  0  0  0  0  0  0  0  0  0  0
  150.2731  132.6521  155.5597 S   0  0  0  0  0  0  0  0  0  0  0  0
  147.3057  133.8201  152.3444 N   0  0  0  0  0  0  0  0  0  0  0  0
  146.1890  133.1007  151.7384 C   0  0  2  0  0  0  0  0  0  0  0  0
  146.5428  132.7245  150.2870 C   0  0  0  0  0  0  0  0  0  0  0  0
  145.3726  132.0130  149.5885 C   0  0  0  0  0  0  0  0  0  0  0  0
  144.0958  132.8695  149.6373 C   0  0  1  0  0  0  0  0  0  0  0  0
  143.0272  132.1581  149.0495 O   0  0  0  0  0  0  0  0  0  0  0  0
  143.7329  133.2399  151.0856 C   0  0  0  0  0  0  0  0  0  0  0  0
  144.9023  133.9513  151.7856 C   0  0  0  0  0  0  0  0  0  0  0  0
  149.0401  135.1068  153.1456 H   0  0  0  0  0  0  0  0  0  0  0  0
  152.0717  133.1293  157.2681 H   0  0  0  0  0  0  0  0  0  0  0  0
  147.5437  134.7125  151.9370 H   0  0  0  0  0  0  0  0  0  0  0  0
  146.0207  132.1760  152.2944 H   0  0  0  0  0  0  0  0  0  0  0  0
  146.8053  133.6223  149.7251 H   0  0  0  0  0  0  0  0  0  0  0  0
  147.4238  132.0816  150.2712 H   0  0  0  0  0  0  0  0  0  0  0  0
  145.6385  131.7942  148.5536 H   0  0  0  0  0  0  0  0  0  0  0  0
  145.1939  131.0517  150.0727 H   0  0  0  0  0  0  0  0  0  0  0  0
  144.2498  133.7811  149.0586 H   0  0  0  0  0  0  0  0  0  0  0  0
  142.2449  132.6847  149.1121 H   0  0  0  0  0  0  0  0  0  0  0  0
  142.8501  133.8801  151.0994 H   0  0  0  0  0  0  0  0  0  0  0  0
  143.4723  132.3404  151.6452 H   0  0  0  0  0  0  0  0  0  0  0  0
  144.6298  134.1672  152.8194 H   0  0  0  0  0  0  0  0  0  0  0  0
  145.0783  134.9149  151.3052 H   0  0  0  0  0  0  0  0  0  0  0  0
  1  2  2  0  0  0  0
  2  3  1  0  0  0  0
  2  9  1  0  0  0  0
  3  4  1  0  0  0  0
  3 17  1  0  0  0  0
  4  8  1  0  0  0  0
  4  5  2  0  0  0  0
  5  6  1  0  0  0  0
  6  7  2  0  0  0  0
  7  8  1  0  0  0  0
  7 18  1  0  0  0  0
  9 10  1  0  0  0  0
  9 19  1  0  0  0  0
 10 16  1  0  0  0  0
 10 11  1  0  0  0  0
 10 20  1  0  0  0  0
 11 12  1  0  0  0  0
 11 21  1  0  0  0  0
 11 22  1  0  0  0  0
 12 13  1  0  0  0  0
 12 23  1  0  0  0  0
 12 24  1  0  0  0  0
 13 14  1  0  0  0  0
 13 15  1  0  0  0  0
 13 25  1  0  0  0  0
 14 26  1  0  0  0  0
 15 16  1  0  0  0  0
 15 27  1  0  0  0  0
 15 28  1  0  0  0  0
 16 29  1  0  0  0  0
 16 30  1  0  0  0  0
M  END
> <s_m_source_file>
AV-unprocessed.smi

> <i_m_source_file_index>
1948

> <i_lp_mmshare_version>
43012

> <i_f3d_flags>
0

> <s_epik_input>
czFbY0hdbm5jMVtOSF1DKD1PKVtOSF1bQ0BASF0yW0NIMl1bQ0gyXVtDQEBIXShbT0hdKVtDSDJdW0NIMl0y

> <s_epik_cmdline>
J2VwaWtfcHl0aG9uJywgJy1waCcsICc3LjAnLCAnLXRuJywgJzgnLCAnLW1hJywgJzIwMCcsICctbWV0YWxfYmluZGluZycsICctaW1hZScsICc8aW5maWxlLm1hZT4nLCAnLW9tYWUnLCAnPG91dGZpbGUubWFlPic=

> <r_lp_tautomer_probability>
1

> <r_epik_Ionization_Penalty>
0.000336938

> <r_epik_Ionization_Penalty_Charging>
0

> <r_epik_Ionization_Penalty_Neutral>
0.000336938

> <r_epik_State_Penalty>
-0

> <r_epik_Charging_Adjusted_Penalty>
0

> <i_epik_Tot_Q>
0

> <i_epik_Tot_abs_Q>
0

> <r_epik_Metal_State_Penalty>
0.175756

> <b_epik_Metal_Only>
0

> <s_lp_Force_Field>
OPLS_2005

> <r_lp_Energy>
6.64552

> <b_lp_Chiralities_Consistent>
1

> <s_lp_Variant>
AV-unprocessed.smi:1948-1

> <Gold.Version>
5.8.1

> <Gold.Id.Protein>
6NUR|6NUR_protein|mol2

> <Gold.PLP.Fitness>
42.6801

> <Gold.PLP.PLP>
-30.3846

> <Gold.PLP.part.hbond>
-6.2120

> <Gold.PLP.part.metal>
0.0000

> <Gold.PLP.part.buried>
-2.6323

> <Gold.PLP.part.nonpolar>
-21.4662

> <Gold.PLP.part.repulsive>
0.2175

> <Gold.PLP.ligand.clash>
0.0000

> <Gold.PLP.ligand.torsion>
0.0565

> <Gold.PLP.Chemscore.Hbond>
4.1351

> <Gold.PLP.Chemscore.CHOScore>
0.0000

> <Gold.PLP.Chemscore.Metal>
0.0000

> <Gold.Chemscore.Hbonds>
donor molecule, donor type, donor heavy atom, donor atom, acceptor molecule, acceptor atom, score
      L1  H     3    17       P1  7948  0.90
      L1  H     9    19       P1  7948  0.91
      L1  H    14    26       P1 10186  0.67
      P1  H 10752 10764       L1     6  0.63
      P1  H 10785 10796       L1    14  0.96

> <Gold.PLP.Chemscore.Internal.Correction>
0.0033

> <Gold.Rescore>
     Score         DG    S(hbond)    S(metal)    S(lipo)     H(rot)  DE(clash)    DE(int)     intcor
     17.48     -18.40       2.99        0.00      58.88       1.55       0.01       0.91       ----

> <Gold.Chemscore.Fitness>
17.4838

> <Gold.Chemscore.DG>
-18.4012

> <Gold.Chemscore.ZeroCoef>
-5.4800

> <Gold.Chemscore.Hbond>
2.9908

> <Gold.Chemscore.Metal>
0.0000

> <Gold.Chemscore.Lipo>
58.8789

> <Gold.Chemscore.Internal_Hbond>
0.0000

> <Gold.Chemscore.DEClash>
0.0113

> <Gold.Chemscore.DEInternal>
0.9062

> <Gold.Chemscore.Rot>
1.5456

> <Gold.Chemscore.Internal.Correction>
   9.000000E+99

> <Gold.Chemscore.Hbonds>
donor molecule, donor type, donor heavy atom, donor atom, acceptor molecule, acceptor atom, score
      L1  H     3    17       P1  7948  0.18
      L1  H     9    19       P1  7948  0.54
      L1  H    14    26       P1 10186  0.66
      P1  H 10752 10764       L1     6  0.07
      P1  H 10785 10796       L1    14  0.87

> <Gold.Chemscore.Hbond.Weighted>
-9.9892

> <Gold.Chemscore.Metal.Weighted>
-0.0000

> <Gold.Chemscore.Lipo.Weighted>
-6.8888

> <Gold.Chemscore.Internal_Hbond.Weighted>
0.0000

> <Gold.Chemscore.DEClash.Weighted>
0.0113

> <Gold.Chemscore.DEInternal.Weighted>
0.9062

> <Gold.Chemscore.Rot.Weighted>
3.9568

> <Gold.Chemscore.Internal.Correction.Weighted>
   9.000000E+99

> <Gold.Protein.RotatedTorsions>
[ 6907 6896 6895 6894 ] final -129.80 input  -60.11 | X-H torsion
[ 7974 7965 7964 7962 ] final  -99.52 input  175.53 | X-H torsion
[ 8008 7997 7996 7995 ] final  120.31 input   59.86 | X-H torsion
[ 10167 10162 10161 10158 ] final  128.07 input  -65.29 | X-H torsion
[ 10718 10713 10712 10709 ] final  -67.13 input   66.30 | X-H torsion
[ 10763 10752 10751 10750 ] final  -19.22 input  -60.55 | X-H torsion
[ 11005 11000 10999 10996 ] final  157.09 input  -57.11 | X-H torsion

> <Gold.Protein.ActiveResidues>
 VAL166  LYS551  ARG553  GLY616  TRP617  ASP618  TYR619  PRO620  LYS621  CYS622 
 ASP623  PHE694  ASN695  SER759  ASP760  ASP761  ALA762  ILE779  LEU786  VAL792 
 PHE793  MET794  SER795  GLU796  ALA797  LYS798  CYS799  TRP800  GLU811  SER814 

> <Gold.Protein.RotatedAtoms>
  150.9327  133.6748  159.2807 H   0  0  0  0  0  0  0  0  0  0  0  0  # atno 6907 bound_to 6896
  151.4165  135.0991  159.9610 H   0  0  0  0  0  0  0  0  0  0  0  0  # atno 6908 bound_to 6896
  152.5033  133.8788  159.7391 H   0  0  0  0  0  0  0  0  0  0  0  0  # atno 6909 bound_to 6896
  145.3065  140.9390  143.2794 H   0  0  0  0  0  0  0  0  0  0  0  0  # atno 7974 bound_to 7965
  156.2636  140.2833  156.1129 H   0  0  0  0  0  0  0  0  0  0  0  0  # atno 8008 bound_to 7997
  155.1238  140.0392  157.2774 H   0  0  0  0  0  0  0  0  0  0  0  0  # atno 8009 bound_to 7997
  154.6650  140.2575  155.7074 H   0  0  0  0  0  0  0  0  0  0  0  0  # atno 8010 bound_to 7997
  139.5546  144.6839  151.4222 H   0  0  0  0  0  0  0  0  0  0  0  0  # atno 10167 bound_to 10162
  156.0574  130.4273  150.1810 H   0  0  0  0  0  0  0  0  0  0  0  0  # atno 10718 bound_to 10713
  153.6015  135.6999  153.5383 H   0  0  0  0  0  0  0  0  0  0  0  0  # atno 10763 bound_to 10752
  153.3093  135.4106  155.1321 H   0  0  0  0  0  0  0  0  0  0  0  0  # atno 10764 bound_to 10752
  154.8581  135.3668  154.5550 H   0  0  0  0  0  0  0  0  0  0  0  0  # atno 10765 bound_to 10752
  140.1737  134.8525  157.2721 H   0  0  0  0  0  0  0  0  0  0  0  0  # atno 11005 bound_to 11000
  144.9051  139.4600  143.6614 LP  0  0  0  0  0  0  0  0  0  0  0  0  # atno 17320 bound_to 7965
  146.3133  139.7827  142.9003 LP  0  0  0  0  0  0  0  0  0  0  0  0  # atno 17321 bound_to 7965
  140.6816  143.8069  150.7129 LP  0  0  0  0  0  0  0  0  0  0  0  0  # atno 17342 bound_to 10162
  140.1524  143.4346  152.2122 LP  0  0  0  0  0  0  0  0  0  0  0  0  # atno 17343 bound_to 10162
  156.9884  130.9886  151.3421 LP  0  0  0  0  0  0  0  0  0  0  0  0  # atno 17370 bound_to 10713
  157.5555  130.8211  149.8199 LP  0  0  0  0  0  0  0  0  0  0  0  0  # atno 17371 bound_to 10713
  140.2348  134.3866  155.7506 LP  0  0  0  0  0  0  0  0  0  0  0  0  # atno 17394 bound_to 11000
  141.2219  133.7234  156.8696 LP  0  0  0  0  0  0  0  0  0  0  0  0  # atno 17395 bound_to 11000

$$$$
