#       Name:                AV-unprocessed.smi:308
#       Creating user name   scv26
#       Creation time:       Thu Mar 26 22:18:45 2020


#       File generated by GOLD software.
#

@<TRIPOS>MOLECULE
AV-unprocessed.smi:308
    53    54     1
SMALL
NO_CHARGES


@<TRIPOS>ATOM
      1 ****        -2.1523   2.3624  -4.8968 C.3            1 S1                 0.0000
      2 ****        -2.8808   1.5784  -3.7965 C.3            1 S1                 0.0000
      3 ****        -2.6028   2.1602  -2.4005 C.3            1 S1                 0.0000
      4 ****        -3.3155   1.3484  -1.3056 C.3            1 S1                 0.0000
      5 ****        -2.9264  -0.0843  -1.3567 N.4            1 S1                 1.0000
      6 ****        -3.5037  -0.8632  -0.2310 C.3            1 S1                 0.0000
      7 ****        -2.7726  -2.1981   0.0299 C.3            1 S1                 0.0000
      8 ****        -1.3190  -2.0579   0.0705 N.am           1 S1                 0.0000
      9 ****        -0.6307  -1.4708   1.0598 C.2            1 S1                 0.0000
     10 ****        -1.1677  -0.9613   2.0421 O.2            1 S1                 0.0000
     11 ****         0.6917  -1.5220   0.8250 N.am           1 S1                 0.0000
     12 ****         1.7690  -1.0308   1.6135 C.ar           1 S1                 0.0000
     13 ****         1.6327  -0.2071   2.7556 C.ar           1 S1                 0.0000
     14 ****         2.7903   0.2097   3.4408 C.ar           1 S1                 0.0000
     15 ****         4.0631  -0.1986   2.9708 C.ar           1 S1                 0.0000
     16 ****         5.2530   0.1934   3.6259 N.pl3          1 S1                 0.0000
     17 ****         6.5465  -0.2242   3.0945 C.3            1 S1                 0.0000
     18 ****         5.1884   0.9192   4.8883 C.3            1 S1                 0.0000
     19 ****         4.1869  -0.9794   1.8701 N.ar           1 S1                 0.0000
     20 ****         3.0757  -1.3784   1.2183 C.ar           1 S1                 0.0000
     21 ****        -3.2106  -0.6823  -2.6877 C.3            1 S1                 0.0000
     22 ****        -2.4950   0.0902  -3.8085 C.3            1 S1                 0.0000
     23 ****        -1.0709   2.3260  -4.7619 H              1 S1                 0.0000
     24 ****        -2.4526   3.4105  -4.8967 H              1 S1                 0.0000
     25 ****        -2.3787   1.9558  -5.8828 H              1 S1                 0.0000
     26 ****        -3.9521   1.6545  -3.9900 H              1 S1                 0.0000
     27 ****        -1.5288   2.1670  -2.2079 H              1 S1                 0.0000
     28 ****        -2.9300   3.1996  -2.3566 H              1 S1                 0.0000
     29 ****        -3.0587   1.7645  -0.3305 H              1 S1                 0.0000
     30 ****        -4.3977   1.4369  -1.4144 H              1 S1                 0.0000
     31 ****        -3.4418  -0.2633   0.6779 H              1 S1                 0.0000
     32 ****        -4.5667  -1.0373  -0.4029 H              1 S1                 0.0000
     33 ****        -3.1261  -2.6404   0.9626 H              1 S1                 0.0000
     34 ****        -3.0156  -2.9187  -0.7506 H              1 S1                 0.0000
     35 ****        -0.7990  -2.4620  -0.6952 H              1 S1                 0.0000
     36 ****         0.9692  -2.0083  -0.0151 H              1 S1                 0.0000
     37 ****         0.6748   0.1232   3.1233 H              1 S1                 0.0000
     38 ****         2.6776   0.8385   4.3109 H              1 S1                 0.0000
     39 ****         6.6386  -1.3103   3.1218 H              1 S1                 0.0000
     40 ****         7.3686   0.1970   3.6731 H              1 S1                 0.0000
     41 ****         6.6639   0.1084   2.0626 H              1 S1                 0.0000
     42 ****         4.7311   1.8984   4.7440 H              1 S1                 0.0000
     43 ****         6.1826   1.0742   5.3080 H              1 S1                 0.0000
     44 ****         4.6025   0.3638   5.6214 H              1 S1                 0.0000
     45 ****         3.2386  -1.9998   0.3497 H              1 S1                 0.0000
     46 ****        -2.8815  -1.7207  -2.7115 H              1 S1                 0.0000
     47 ****        -4.2876  -0.6877  -2.8641 H              1 S1                 0.0000
     48 ****        -2.7426  -0.3520  -4.7743 H              1 S1                 0.0000
     49 ****        -1.4153  -0.0138  -3.6895 H              1 S1                 0.0000
     50 ****        -1.9244  -0.1075  -1.2311 H              1 S1                 0.0000
     51 ****        -2.1637  -0.9729   2.1296 LP             1 S1                 0.0000
     52 ****        -0.6082  -0.5354   2.7531 LP             1 S1                 0.0000
     53 ****         5.0912  -1.2563   1.5451 LP             1 S1                 0.0000
@<TRIPOS>BOND
    1    1    2 1     
    2    1   23 1     
    3    1   24 1     
    4    1   25 1     
    5    2   22 1     
    6    2    3 1     
    7    2   26 1     
    8    3    4 1     
    9    3   27 1     
   10    3   28 1     
   11    4    5 1     
   12    4   29 1     
   13    4   30 1     
   14    5    6 1     
   15    5   21 1     
   16    5   50 1     
   17    6    7 1     
   18    6   31 1     
   19    6   32 1     
   20    7    8 1     
   21    7   33 1     
   22    7   34 1     
   23    8    9 am    
   24    8   35 1     
   25    9   10 2     
   26    9   11 am    
   27   11   12 1     
   28   11   36 1     
   29   12   20 ar    
   30   12   13 ar    
   31   13   14 ar    
   32   13   37 1     
   33   14   15 ar    
   34   14   38 1     
   35   15   16 1     
   36   15   19 ar    
   37   16   17 1     
   38   16   18 1     
   39   17   39 1     
   40   17   40 1     
   41   17   41 1     
   42   18   42 1     
   43   18   43 1     
   44   18   44 1     
   45   19   20 ar    
   46   20   45 1     
   47   21   22 1     
   48   21   46 1     
   49   21   47 1     
   50   22   48 1     
   51   22   49 1     
   52   10   51 1     
   53   10   52 1     
   54   19   53 1     
@<TRIPOS>SUBSTRUCTURE
      1 S1             1
@<TRIPOS>SET
LONE_PAIRS      STATIC     ATOMS    <user>   **** ""
3 51 52 53
DONOR_HYDROGENS      STATIC     ATOMS    <user>   **** ""
3 50 35 36
ATOM$BLUE        STATIC     ATOMS    COLORGROUP SYSTEM
3 51 52 53
ATOM$RED        STATIC     ATOMS    COLORGROUP SYSTEM
3 50 35 36
