AV-unprocessed.smi:69|AV-procd|sdf|644|dock8
  -GOLD-   2262016543D 1   1.00000     0.00000
 Structure written by MMmdl.
 32 34  0  0  0  0  0  0  0  0  1 V2000
  153.5427  141.6644  161.9145 N   0  0  0  0  0  0  0  0  0  0  0  0
  152.9384  142.1581  160.8251 C   0  0  0  0  0  0  0  0  0  0  0  0
  152.6002  143.4693  160.8136 N   0  0  0  0  0  0  0  0  0  0  0  0
  151.9948  143.9845  159.7378 C   0  0  0  0  0  0  0  0  0  0  0  0
  151.6477  143.3746  158.6004 N   0  0  0  0  0  0  0  0  0  0  0  0
  151.9929  142.0539  158.6170 C   0  0  0  0  0  0  0  0  0  0  0  0
  152.6362  141.3715  159.6851 C   0  0  0  0  0  0  0  0  0  0  0  0
  152.8241  140.0378  159.3475 N   0  0  0  0  0  0  0  0  0  0  0  0
  152.3164  139.9421  158.1471 C   0  0  0  0  0  0  0  0  0  0  0  0
  151.7914  141.1105  157.6336 N   0  0  0  0  0  0  0  0  0  0  0  0
  151.1418  141.3604  156.3052 C   0  0  1  0  0  0  0  0  0  0  0  0
  151.3872  140.2594  155.4816 O   0  0  0  0  0  0  0  0  0  0  0  0
  150.2211  139.4467  155.4024 C   0  0  2  0  0  0  0  0  0  0  0  0
  150.2807  138.5716  154.1416 C   0  0  0  0  0  0  0  0  0  0  0  0
  149.1739  137.6960  154.1129 O   0  0  0  0  0  0  0  0  0  0  0  0
  149.1237  140.5099  155.3679 C   0  0  1  0  0  0  0  0  0  0  0  0
  147.8354  139.9864  155.6334 O   0  0  0  0  0  0  0  0  0  0  0  0
  149.6047  141.5136  156.4134 C   0  0  1  0  0  0  0  0  0  0  0  0
  149.0874  141.2319  157.7061 O   0  0  0  0  0  0  0  0  0  0  0  0
  151.6474  142.2423  155.9097 H   0  0  0  0  0  0  0  0  0  0  0  0
  150.1205  138.8389  156.3039 H   0  0  0  0  0  0  0  0  0  0  0  0
  149.1143  140.9912  154.3887 H   0  0  0  0  0  0  0  0  0  0  0  0
  149.3210  142.5315  156.1440 H   0  0  0  0  0  0  0  0  0  0  0  0
  153.8027  140.6890  161.9442 H   0  0  0  0  0  0  0  0  0  0  0  0
  153.7375  142.2673  162.7008 H   0  0  0  0  0  0  0  0  0  0  0  0
  151.7539  145.0356  159.7972 H   0  0  0  0  0  0  0  0  0  0  0  0
  152.3148  139.0080  157.6047 H   0  0  0  0  0  0  0  0  0  0  0  0
  150.2283  139.1942  153.2480 H   0  0  0  0  0  0  0  0  0  0  0  0
  151.2132  138.0085  154.0907 H   0  0  0  0  0  0  0  0  0  0  0  0
  149.2580  137.1299  153.3609 H   0  0  0  0  0  0  0  0  0  0  0  0
  147.6074  140.1907  156.5274 H   0  0  0  0  0  0  0  0  0  0  0  0
  148.1564  141.0872  157.6298 H   0  0  0  0  0  0  0  0  0  0  0  0
  1  2  1  0  0  0  0
  1 24  1  0  0  0  0
  1 25  1  0  0  0  0
  2  7  1  0  0  0  0
  2  3  2  0  0  0  0
  3  4  1  0  0  0  0
  4  5  2  0  0  0  0
  4 26  1  0  0  0  0
  5  6  1  0  0  0  0
  6 10  1  0  0  0  0
  6  7  2  0  0  0  0
  7  8  1  0  0  0  0
  8  9  2  0  0  0  0
  9 10  1  0  0  0  0
  9 27  1  0  0  0  0
 10 11  1  0  0  0  0
 11 20  1  0  0  0  0
 11 18  1  0  0  0  0
 11 12  1  0  0  0  0
 12 13  1  0  0  0  0
 13 21  1  0  0  0  0
 13 14  1  0  0  0  0
 13 16  1  0  0  0  0
 14 15  1  0  0  0  0
 14 28  1  0  0  0  0
 14 29  1  0  0  0  0
 15 30  1  0  0  0  0
 16 22  1  0  0  0  0
 16 17  1  0  0  0  0
 16 18  1  0  0  0  0
 17 31  1  0  0  0  0
 18 23  1  0  0  0  0
 18 19  1  0  0  0  0
 19 32  1  0  0  0  0
M  END
> <s_m_source_file>
AV-unprocessed.smi

> <i_m_source_file_index>
69

> <i_lp_mmshare_version>
43012

> <i_f3d_flags>
0

> <s_epik_input>
bjFbY0hdbmMoW05IMl0pYyhjMTIpbltjSF1uMltDQEBIXTNPW0NASF0oW0NIMl1bT0hdKVtDQEBIXShbT0hdKVtDQEhdM1tPSF0=

> <s_epik_cmdline>
J2VwaWtfcHl0aG9uJywgJy1waCcsICc3LjAnLCAnLXRuJywgJzgnLCAnLW1hJywgJzIwMCcsICctbWV0YWxfYmluZGluZycsICctaW1hZScsICc8aW5maWxlLm1hZT4nLCAnLW9tYWUnLCAnPG91dGZpbGUubWFlPic=

> <r_lp_tautomer_probability>
1

> <r_epik_Ionization_Penalty>
0.000428445

> <r_epik_Ionization_Penalty_Charging>
0

> <r_epik_Ionization_Penalty_Neutral>
0.000428445

> <r_epik_State_Penalty>
-0

> <r_epik_Charging_Adjusted_Penalty>
0

> <i_epik_Tot_Q>
0

> <i_epik_Tot_abs_Q>
0

> <r_epik_Metal_State_Penalty>
-0

> <b_epik_Metal_Only>
0

> <s_epik_Chemistry_Notes>
This compound contains an acetal/aminal-like group ( X-CH(R)-Y where X, Y are N, S, or O) that may be acid/base labile, releasing an aldehyde.

> <s_lp_Force_Field>
OPLS_2005

> <r_lp_Energy>
41.389

> <b_lp_Chiralities_Consistent>
1

> <s_lp_Variant>
AV-unprocessed.smi:69-2

> <Gold.Version>
5.8.1

> <Gold.Id.Protein>
6NUR|6NUR_protein|mol2

> <Gold.PLP.Fitness>
36.1807

> <Gold.PLP.PLP>
-30.9620

> <Gold.PLP.part.hbond>
-2.1182

> <Gold.PLP.part.metal>
0.0000

> <Gold.PLP.part.buried>
-6.3096

> <Gold.PLP.part.nonpolar>
-22.1959

> <Gold.PLP.part.repulsive>
0.1284

> <Gold.PLP.ligand.clash>
0.0000

> <Gold.PLP.ligand.torsion>
0.3647

> <Gold.PLP.Chemscore.Hbond>
1.9600

> <Gold.PLP.Chemscore.CHOScore>
0.0000

> <Gold.PLP.Chemscore.Metal>
0.0000

> <Gold.Chemscore.Hbonds>
donor molecule, donor type, donor heavy atom, donor atom, acceptor molecule, acceptor atom, score
      L1  H    15    30       P1  7948  1.00
      P1  H  7989  7998       L1    12  0.84

> <Gold.PLP.Chemscore.Internal.Correction>
0.0682

> <Gold.Rescore>
     Score         DG    S(hbond)    S(metal)    S(lipo)     H(rot)  DE(clash)    DE(int)     intcor
      4.64      -4.86       1.79        0.00      31.65       4.03       0.01       0.21       ----

> <Gold.Chemscore.Fitness>
4.6440

> <Gold.Chemscore.DG>
-4.8560

> <Gold.Chemscore.ZeroCoef>
-5.4800

> <Gold.Chemscore.Hbond>
1.7915

> <Gold.Chemscore.Metal>
0.0000

> <Gold.Chemscore.Lipo>
31.6537

> <Gold.Chemscore.Internal_Hbond>
0.0000

> <Gold.Chemscore.DEClash>
0.0060

> <Gold.Chemscore.DEInternal>
0.2060

> <Gold.Chemscore.Rot>
4.0277

> <Gold.Chemscore.Internal.Correction>
   9.000000E+99

> <Gold.Chemscore.Hbonds>
donor molecule, donor type, donor heavy atom, donor atom, acceptor molecule, acceptor atom, score
      L1  H    15    30       P1  7948  0.98
      P1  H  7989  7998       L1    12  0.23

> <Gold.Chemscore.Hbond.Weighted>
-5.9835

> <Gold.Chemscore.Metal.Weighted>
-0.0000

> <Gold.Chemscore.Lipo.Weighted>
-3.7035

> <Gold.Chemscore.Internal_Hbond.Weighted>
0.0000

> <Gold.Chemscore.DEClash.Weighted>
0.0060

> <Gold.Chemscore.DEInternal.Weighted>
0.2060

> <Gold.Chemscore.Rot.Weighted>
10.3110

> <Gold.Chemscore.Internal.Correction.Weighted>
   9.000000E+99

> <Gold.Protein.RotatedTorsions>
[ 6907 6896 6895 6894 ] final  -51.68 input  -60.11 | X-H torsion
[ 7974 7965 7964 7962 ] final  163.95 input  175.53 | X-H torsion
[ 8008 7997 7996 7995 ] final   16.95 input   59.86 | X-H torsion
[ 10167 10162 10161 10158 ] final   76.03 input  -65.29 | X-H torsion
[ 10718 10713 10712 10709 ] final  167.76 input   66.30 | X-H torsion
[ 10763 10752 10751 10750 ] final -118.33 input  -60.55 | X-H torsion
[ 11005 11000 10999 10996 ] final -134.75 input  -57.11 | X-H torsion

> <Gold.Protein.ActiveResidues>
 VAL166  LYS551  ARG553  GLY616  TRP617  ASP618  TYR619  PRO620  LYS621  CYS622 
 ASP623  PHE694  ASN695  SER759  ASP760  ASP761  ALA762  ILE779  LEU786  VAL792 
 PHE793  MET794  SER795  GLU796  ALA797  LYS798  CYS799  TRP800  GLU811  SER814 

> <Gold.Protein.RotatedAtoms>
  150.8588  134.7935  159.7066 H   0  0  0  0  0  0  0  0  0  0  0  0  # atno 6907 bound_to 6896
  152.4632  134.5134  159.9770 H   0  0  0  0  0  0  0  0  0  0  0  0  # atno 6908 bound_to 6896
  151.5241  133.3423  159.2942 H   0  0  0  0  0  0  0  0  0  0  0  0  # atno 6909 bound_to 6896
  144.7566  139.8256  143.6347 H   0  0  0  0  0  0  0  0  0  0  0  0  # atno 7974 bound_to 7965
  154.8843  140.2977  155.5407 H   0  0  0  0  0  0  0  0  0  0  0  0  # atno 8008 bound_to 7997
  156.3021  140.2436  156.3784 H   0  0  0  0  0  0  0  0  0  0  0  0  # atno 8009 bound_to 7997
  154.8684  140.0402  157.1698 H   0  0  0  0  0  0  0  0  0  0  0  0  # atno 8010 bound_to 7997
  139.9966  144.5717  150.7772 H   0  0  0  0  0  0  0  0  0  0  0  0  # atno 10167 bound_to 10162
  157.0469  131.0302  151.2694 H   0  0  0  0  0  0  0  0  0  0  0  0  # atno 10718 bound_to 10713
  154.8584  135.4278  154.2122 H   0  0  0  0  0  0  0  0  0  0  0  0  # atno 10763 bound_to 10752
  153.3145  135.6978  153.7091 H   0  0  0  0  0  0  0  0  0  0  0  0  # atno 10764 bound_to 10752
  153.6171  135.3509  155.2972 H   0  0  0  0  0  0  0  0  0  0  0  0  # atno 10765 bound_to 10752
  140.8961  134.1749  157.4493 H   0  0  0  0  0  0  0  0  0  0  0  0  # atno 11005 bound_to 11000
  146.1584  139.4690  143.0004 LP  0  0  0  0  0  0  0  0  0  0  0  0  # atno 17320 bound_to 7965
  145.6757  141.0204  143.1633 LP  0  0  0  0  0  0  0  0  0  0  0  0  # atno 17321 bound_to 7965
  140.7435  143.2846  151.3499 LP  0  0  0  0  0  0  0  0  0  0  0  0  # atno 17342 bound_to 10162
  139.6301  144.0736  152.2469 LP  0  0  0  0  0  0  0  0  0  0  0  0  # atno 17343 bound_to 10162
  157.5061  130.7910  149.7655 LP  0  0  0  0  0  0  0  0  0  0  0  0  # atno 17370 bound_to 10713
  156.0020  130.3875  150.2570 LP  0  0  0  0  0  0  0  0  0  0  0  0  # atno 17371 bound_to 10713
  139.8736  134.9879  156.5388 LP  0  0  0  0  0  0  0  0  0  0  0  0  # atno 17394 bound_to 11000
  140.8287  133.8296  155.8963 LP  0  0  0  0  0  0  0  0  0  0  0  0  # atno 17395 bound_to 11000

$$$$
