AV-unprocessed.smi:960|AV-procd|sdf|4272|dock2
  -GOLD-   22720 2183D 1   1.00000     0.00000
 Structure written by MMmdl.
 46 47  0  0  0  0  0  0  0  0  2 V2000
  141.8643  137.7117  153.2029 C   0  0  0  0  0  0  0  0  0  0  0  0
  142.7364  136.6902  153.2145 C   0  0  0  0  0  0  0  0  0  0  0  0
  142.5247  135.4655  154.0870 C   0  0  0  0  0  0  0  0  0  0  0  0
  143.9731  136.6844  152.3287 C   0  0  0  0  0  0  0  0  0  0  0  0
  144.8418  137.8752  152.5274 N   0  3  2  0  0  0  0  0  0  0  0  0
  145.9051  137.9451  151.4910 C   0  0  0  0  0  0  0  0  0  0  0  0
  146.7294  139.2402  151.6051 C   0  0  0  0  0  0  0  0  0  0  0  0
  147.3355  139.4132  153.0070 C   0  0  2  0  0  0  0  0  0  0  0  0
  148.4017  138.4367  153.2305 N   0  0  0  0  0  0  0  0  0  0  0  0
  149.2293  138.4216  154.2851 C   0  0  0  0  0  0  0  0  0  0  0  0
  149.1919  139.2519  155.1922 O   0  0  0  0  0  0  0  0  0  0  0  0
  150.1017  137.4051  154.2094 N   0  0  0  0  0  0  0  0  0  0  0  0
  151.0901  137.0590  155.1649 C   0  0  0  0  0  0  0  0  0  0  0  0
  151.3341  135.8094  155.8074 C   0  0  0  0  0  0  0  0  0  0  0  0
  150.6411  134.4810  155.6828 C   0  0  0  0  0  0  0  0  0  0  0  0
  152.3868  135.9114  156.6054 N   0  0  0  0  0  0  0  0  0  0  0  0
  152.8692  137.2223  156.4717 O   0  0  0  0  0  0  0  0  0  0  0  0
  152.0857  137.8905  155.5860 C   0  0  0  0  0  0  0  0  0  0  0  0
  152.4526  139.3054  155.2906 C   0  0  0  0  0  0  0  0  0  0  0  0
  146.2177  139.2960  154.0607 C   0  0  0  0  0  0  0  0  0  0  0  0
  145.4002  138.0017  153.9007 C   0  0  0  0  0  0  0  0  0  0  0  0
  140.9815  137.7040  153.8259 H   0  0  0  0  0  0  0  0  0  0  0  0
  142.0197  138.5726  152.5690 H   0  0  0  0  0  0  0  0  0  0  0  0
  142.3825  134.5836  153.4620 H   0  0  0  0  0  0  0  0  0  0  0  0
  141.6413  135.5754  154.7169 H   0  0  0  0  0  0  0  0  0  0  0  0
  143.3792  135.2822  154.7367 H   0  0  0  0  0  0  0  0  0  0  0  0
  144.5433  135.7669  152.4833 H   0  0  0  0  0  0  0  0  0  0  0  0
  143.6333  136.6651  151.2919 H   0  0  0  0  0  0  0  0  0  0  0  0
  146.5558  137.0736  151.5791 H   0  0  0  0  0  0  0  0  0  0  0  0
  145.4532  137.8994  150.4993 H   0  0  0  0  0  0  0  0  0  0  0  0
  147.5153  139.2528  150.8488 H   0  0  0  0  0  0  0  0  0  0  0  0
  146.0849  140.0925  151.3852 H   0  0  0  0  0  0  0  0  0  0  0  0
  147.7754  140.4106  153.0667 H   0  0  0  0  0  0  0  0  0  0  0  0
  148.5204  137.7214  152.5282 H   0  0  0  0  0  0  0  0  0  0  0  0
  150.1131  136.8753  153.3503 H   0  0  0  0  0  0  0  0  0  0  0  0
  150.2501  134.3321  154.6764 H   0  0  0  0  0  0  0  0  0  0  0  0
  149.8090  134.4068  156.3830 H   0  0  0  0  0  0  0  0  0  0  0  0
  151.3219  133.6547  155.8901 H   0  0  0  0  0  0  0  0  0  0  0  0
  151.8767  139.6935  154.4506 H   0  0  0  0  0  0  0  0  0  0  0  0
  153.5104  139.3861  155.0400 H   0  0  0  0  0  0  0  0  0  0  0  0
  152.2597  139.9413  156.1545 H   0  0  0  0  0  0  0  0  0  0  0  0
  146.6290  139.3548  155.0690 H   0  0  0  0  0  0  0  0  0  0  0  0
  145.5480  140.1515  153.9633 H   0  0  0  0  0  0  0  0  0  0  0  0
  144.5938  138.0273  154.6318 H   0  0  0  0  0  0  0  0  0  0  0  0
  146.0149  137.1298  154.1302 H   0  0  0  0  0  0  0  0  0  0  0  0
  144.2517  138.6824  152.3830 H   0  0  0  0  0  0  0  0  0  0  0  0
  1  2  2  0  0  0  0
  1 22  1  0  0  0  0
  1 23  1  0  0  0  0
  2  3  1  0  0  0  0
  2  4  1  0  0  0  0
  3 24  1  0  0  0  0
  3 25  1  0  0  0  0
  3 26  1  0  0  0  0
  4  5  1  0  0  0  0
  4 27  1  0  0  0  0
  4 28  1  0  0  0  0
  5 21  1  0  0  0  0
  5  6  1  0  0  0  0
  5 46  1  0  0  0  0
  6  7  1  0  0  0  0
  6 29  1  0  0  0  0
  6 30  1  0  0  0  0
  7  8  1  0  0  0  0
  7 31  1  0  0  0  0
  7 32  1  0  0  0  0
  8  9  1  0  0  0  0
  8 20  1  0  0  0  0
  8 33  1  0  0  0  0
  9 10  1  0  0  0  0
  9 34  1  0  0  0  0
 10 11  2  0  0  0  0
 10 12  1  0  0  0  0
 12 13  1  0  0  0  0
 12 35  1  0  0  0  0
 13 18  2  0  0  0  0
 13 14  1  0  0  0  0
 14 15  1  0  0  0  0
 14 16  2  0  0  0  0
 15 36  1  0  0  0  0
 15 37  1  0  0  0  0
 15 38  1  0  0  0  0
 16 17  1  0  0  0  0
 17 18  1  0  0  0  0
 18 19  1  0  0  0  0
 19 39  1  0  0  0  0
 19 40  1  0  0  0  0
 19 41  1  0  0  0  0
 20 21  1  0  0  0  0
 20 42  1  0  0  0  0
 20 43  1  0  0  0  0
 21 44  1  0  0  0  0
 21 45  1  0  0  0  0
M  CHG  1   5   1
M  END
> <s_m_source_file>
AV-unprocessed.smi

> <i_m_source_file_index>
960

> <i_lp_mmshare_version>
43012

> <i_f3d_flags>
0

> <s_epik_input>
W0NIMl09QyhbQ0gzXSlbQ0gyXU4xW0NIMl1bQ0gyXVtDSF0oW0NIMl1bQ0gyXTEpW05IXUMoPU8pW05IXWMyYyhbQ0gzXSlub2MyW0NIM10=

> <s_epik_cmdline>
J2VwaWtfcHl0aG9uJywgJy1waCcsICc3LjAnLCAnLXRuJywgJzgnLCAnLW1hJywgJzIwMCcsICctbWV0YWxfYmluZGluZycsICctaW1hZScsICc8aW5maWxlLm1hZT4nLCAnLW9tYWUnLCAnPG91dGZpbGUubWFlPic=

> <r_epik_Ionization_Penalty>
0.01938

> <r_epik_Ionization_Penalty_Charging>
0.0193505

> <r_epik_Ionization_Penalty_Neutral>
2.94909e-05

> <r_epik_State_Penalty>
0.0154499

> <r_epik_Charging_Adjusted_Penalty>
0.0348004

> <i_epik_Tot_Q>
1

> <i_epik_Tot_abs_Q>
1

> <r_epik_Metal_State_Penalty>
0.0154499

> <b_epik_Metal_Only>
0

> <s_lp_Force_Field>
OPLS_2005

> <r_lp_Energy>
21.0262

> <b_lp_Chiralities_Consistent>
1

> <s_lp_Variant>
AV-unprocessed.smi:960-2

> <Gold.Version>
5.8.1

> <Gold.Id.Protein>
6NUR|6NUR_protein|mol2

> <Gold.PLP.Fitness>
44.0450

> <Gold.PLP.PLP>
-32.8290

> <Gold.PLP.part.hbond>
-7.1114

> <Gold.PLP.part.metal>
0.0000

> <Gold.PLP.part.buried>
4.7951

> <Gold.PLP.part.nonpolar>
-31.4091

> <Gold.PLP.part.repulsive>
0.1639

> <Gold.PLP.ligand.clash>
0.0000

> <Gold.PLP.ligand.torsion>
0.6095

> <Gold.PLP.Chemscore.Hbond>
4.0168

> <Gold.PLP.Chemscore.CHOScore>
0.0000

> <Gold.PLP.Chemscore.Metal>
0.0000

> <Gold.Chemscore.Hbonds>
donor molecule, donor type, donor heavy atom, donor atom, acceptor molecule, acceptor atom, score
      L1  H     5    46       P1 10175  2.00
      L1  H     9    34       P1  7948  1.00
      L1  H    12    35       P1  7948  0.67
      P1  H 10752 10765       L1    16  0.32

> <Gold.PLP.Chemscore.Internal.Correction>
0.3845

> <Gold.Rescore>
     Score         DG    S(hbond)    S(metal)    S(lipo)     H(rot)  DE(clash)    DE(int)     intcor
     16.56     -18.42       2.32        0.00      73.91       1.35       1.31       0.55       ----

> <Gold.Chemscore.Fitness>
16.5610

> <Gold.Chemscore.DG>
-18.4245

> <Gold.Chemscore.ZeroCoef>
-5.4800

> <Gold.Chemscore.Hbond>
2.3197

> <Gold.Chemscore.Metal>
0.0000

> <Gold.Chemscore.Lipo>
73.9114

> <Gold.Chemscore.Internal_Hbond>
0.0000

> <Gold.Chemscore.DEClash>
1.3112

> <Gold.Chemscore.DEInternal>
0.5524

> <Gold.Chemscore.Rot>
1.3480

> <Gold.Chemscore.Internal.Correction>
   9.000000E+99

> <Gold.Chemscore.Hbonds>
donor molecule, donor type, donor heavy atom, donor atom, acceptor molecule, acceptor atom, score
      L1  H     5    46       P1 10175  1.00
      L1  H     9    34       P1  7948  0.99
      L1  H    12    35       P1  7948  0.08

> <Gold.Chemscore.Hbond.Weighted>
-7.7478

> <Gold.Chemscore.Metal.Weighted>
-0.0000

> <Gold.Chemscore.Lipo.Weighted>
-8.6476

> <Gold.Chemscore.Internal_Hbond.Weighted>
0.0000

> <Gold.Chemscore.DEClash.Weighted>
1.3112

> <Gold.Chemscore.DEInternal.Weighted>
0.5524

> <Gold.Chemscore.Rot.Weighted>
3.4509

> <Gold.Chemscore.Internal.Correction.Weighted>
   9.000000E+99

> <Gold.Protein.RotatedTorsions>
[ 6907 6896 6895 6894 ] final   31.10 input  -60.11 | X-H torsion
[ 7974 7965 7964 7962 ] final -108.71 input  175.53 | X-H torsion
[ 8008 7997 7996 7995 ] final  174.20 input   59.86 | X-H torsion
[ 10167 10162 10161 10158 ] final  -29.93 input  -65.29 | X-H torsion
[ 10718 10713 10712 10709 ] final  131.68 input   66.30 | X-H torsion
[ 10763 10752 10751 10750 ] final -118.50 input  -60.55 | X-H torsion
[ 11005 11000 10999 10996 ] final    8.71 input  -57.11 | X-H torsion

> <Gold.Protein.ActiveResidues>
 VAL166  LYS551  ARG553  GLY616  TRP617  ASP618  TYR619  PRO620  LYS621  CYS622 
 ASP623  PHE694  ASN695  SER759  ASP760  ASP761  ALA762  ILE779  LEU786  VAL792 
 PHE793  MET794  SER795  GLU796  ALA797  LYS798  CYS799  TRP800  GLU811  SER814 

> <Gold.Protein.RotatedAtoms>
  152.0555  134.9627  160.0574 H   0  0  0  0  0  0  0  0  0  0  0  0  # atno 6907 bound_to 6896
  152.1011  133.4245  159.4595 H   0  0  0  0  0  0  0  0  0  0  0  0  # atno 6908 bound_to 6896
  150.6839  134.2679  159.4619 H   0  0  0  0  0  0  0  0  0  0  0  0  # atno 6909 bound_to 6896
  145.1895  140.9008  143.3432 H   0  0  0  0  0  0  0  0  0  0  0  0  # atno 7974 bound_to 7965
  156.0998  140.1440  156.9482 H   0  0  0  0  0  0  0  0  0  0  0  0  # atno 8008 bound_to 7997
  154.4695  140.0914  156.7154 H   0  0  0  0  0  0  0  0  0  0  0  0  # atno 8009 bound_to 7997
  155.4778  140.3444  155.4337 H   0  0  0  0  0  0  0  0  0  0  0  0  # atno 8010 bound_to 7997
  140.7255  143.3889  151.1466 H   0  0  0  0  0  0  0  0  0  0  0  0  # atno 10167 bound_to 10162
  157.4944  131.1092  150.9512 H   0  0  0  0  0  0  0  0  0  0  0  0  # atno 10718 bound_to 10713
  154.8589  135.4271  154.2150 H   0  0  0  0  0  0  0  0  0  0  0  0  # atno 10763 bound_to 10752
  153.3167  135.6979  153.7073 H   0  0  0  0  0  0  0  0  0  0  0  0  # atno 10764 bound_to 10752
  153.6144  135.3513  155.2963 H   0  0  0  0  0  0  0  0  0  0  0  0  # atno 10765 bound_to 10752
  140.5340  134.0439  155.7882 H   0  0  0  0  0  0  0  0  0  0  0  0  # atno 11005 bound_to 11000
  145.0055  139.3558  143.6146 LP  0  0  0  0  0  0  0  0  0  0  0  0  # atno 17320 bound_to 7965
  146.3438  139.9296  142.8755 LP  0  0  0  0  0  0  0  0  0  0  0  0  # atno 17321 bound_to 7965
  139.7490  143.8807  152.3071 LP  0  0  0  0  0  0  0  0  0  0  0  0  # atno 17342 bound_to 10162
  139.8654  144.7095  150.9050 LP  0  0  0  0  0  0  0  0  0  0  0  0  # atno 17343 bound_to 10162
  157.0203  130.5671  149.5330 LP  0  0  0  0  0  0  0  0  0  0  0  0  # atno 17370 bound_to 10713
  156.0192  130.5287  150.8226 LP  0  0  0  0  0  0  0  0  0  0  0  0  # atno 17371 bound_to 10713
  141.1265  133.9374  157.2624 LP  0  0  0  0  0  0  0  0  0  0  0  0  # atno 17394 bound_to 11000
  139.9539  135.0170  156.9073 LP  0  0  0  0  0  0  0  0  0  0  0  0  # atno 17395 bound_to 11000

$$$$
