AV-unprocessed.smi:280|AV-procd|sdf|2097|dock2
  -GOLD-   2262021383D 1   1.00000     0.00000
 Structure written by MMmdl.
 59 62  0  0  0  0  0  0  0  0  2 V2000
  147.3244  139.0079  153.2186 C   0  0  0  0  0  0  0  0  0  0  0  0
  148.3922  138.8083  154.3134 C   0  0  2  0  0  0  0  0  0  0  0  0
  149.6547  139.6065  153.9015 C   0  0  0  0  0  0  0  0  0  0  0  0
  150.7903  139.3675  154.7875 N   0  0  0  0  0  0  0  0  0  0  0  0
  150.9417  140.1353  155.8998 C   0  0  0  0  0  0  0  0  0  0  0  0
  150.1702  141.2423  156.0693 N   0  0  0  0  0  0  0  0  0  0  0  0
  150.2978  141.9966  157.1645 C   0  0  0  0  0  0  0  0  0  0  0  0
  151.1216  141.8296  158.1998 N   0  0  0  0  0  0  0  0  0  0  0  0
  151.9060  140.7263  158.0354 C   0  0  0  0  0  0  0  0  0  0  0  0
  151.8867  139.8376  156.9229 C   0  0  0  0  0  0  0  0  0  0  0  0
  152.8480  138.8489  157.0943 N   0  0  0  0  0  0  0  0  0  0  0  0
  153.3937  139.1290  158.2457 C   0  0  0  0  0  0  0  0  0  0  0  0
  152.8740  140.2286  158.8915 N   0  0  0  0  0  0  0  0  0  0  0  0
  153.2883  140.7636  160.1817 C   0  0  0  0  0  0  0  0  0  0  0  0
  154.6052  140.1701  160.7394 C   0  0  0  0  0  0  0  0  0  0  0  0
  155.7660  140.7113  159.8937 C   0  0  0  0  0  0  0  0  0  0  0  0
  157.0129  140.4410  160.5013 O   0  0  0  0  0  0  0  0  0  0  0  0
  154.8078  140.1925  162.2647 C   0  0  0  0  0  0  0  0  0  0  0  0
  154.4134  138.8100  162.3892 O   0  0  0  0  0  0  0  0  0  0  0  0
  154.6177  138.6491  160.9699 C   0  0  0  0  0  0  0  0  0  0  0  0
  151.1205  137.9561  154.9288 C   0  0  0  0  0  0  0  0  0  0  0  0
  149.8992  137.1779  155.4359 C   0  0  0  0  0  0  0  0  0  0  0  0
  148.7133  137.3648  154.5539 N   0  3  1  0  0  0  0  0  0  0  0  0
  147.5608  136.5410  155.0234 C   0  0  0  0  0  0  0  0  0  0  0  0
  147.8799  135.0266  155.0695 C   0  0  0  0  0  0  0  0  0  0  0  0
  148.5514  134.6702  156.4068 C   0  0  0  0  0  0  0  0  0  0  0  0
  146.6371  134.1447  154.8515 C   0  0  0  0  0  0  0  0  0  0  0  0
  148.8170  134.7232  154.0555 O   0  0  0  0  0  0  0  0  0  0  0  0
  147.1567  140.0698  153.0363 H   0  0  0  0  0  0  0  0  0  0  0  0
  146.3560  138.5852  153.4805 H   0  0  0  0  0  0  0  0  0  0  0  0
  147.6385  138.5634  152.2739 H   0  0  0  0  0  0  0  0  0  0  0  0
  148.0077  139.2182  155.2483 H   0  0  0  0  0  0  0  0  0  0  0  0
  149.9599  139.3096  152.8972 H   0  0  0  0  0  0  0  0  0  0  0  0
  149.4353  140.6734  153.8397 H   0  0  0  0  0  0  0  0  0  0  0  0
  149.6451  142.8553  157.2203 H   0  0  0  0  0  0  0  0  0  0  0  0
  154.1952  138.5335  158.6577 H   0  0  0  0  0  0  0  0  0  0  0  0
  153.3789  141.8454  160.0756 H   0  0  0  0  0  0  0  0  0  0  0  0
  152.4656  140.6044  160.8795 H   0  0  0  0  0  0  0  0  0  0  0  0
  155.7728  140.2561  158.9027 H   0  0  0  0  0  0  0  0  0  0  0  0
  155.6738  141.7870  159.7407 H   0  0  0  0  0  0  0  0  0  0  0  0
  156.8649  140.2273  161.4099 H   0  0  0  0  0  0  0  0  0  0  0  0
  155.8454  140.3422  162.5686 H   0  0  0  0  0  0  0  0  0  0  0  0
  154.1524  140.8736  162.8047 H   0  0  0  0  0  0  0  0  0  0  0  0
  153.8112  138.1052  160.4806 H   0  0  0  0  0  0  0  0  0  0  0  0
  155.5775  138.1758  160.7558 H   0  0  0  0  0  0  0  0  0  0  0  0
  151.4304  137.5715  153.9563 H   0  0  0  0  0  0  0  0  0  0  0  0
  151.9618  137.7970  155.6017 H   0  0  0  0  0  0  0  0  0  0  0  0
  150.1516  136.1198  155.5028 H   0  0  0  0  0  0  0  0  0  0  0  0
  149.6537  137.5071  156.4471 H   0  0  0  0  0  0  0  0  0  0  0  0
  147.2391  136.8780  156.0107 H   0  0  0  0  0  0  0  0  0  0  0  0
  146.6854  136.6992  154.3959 H   0  0  0  0  0  0  0  0  0  0  0  0
  147.8849  134.8687  157.2469 H   0  0  0  0  0  0  0  0  0  0  0  0
  149.4614  135.2506  156.5650 H   0  0  0  0  0  0  0  0  0  0  0  0
  148.8242  133.6151  156.4485 H   0  0  0  0  0  0  0  0  0  0  0  0
  145.8791  134.3363  155.6115 H   0  0  0  0  0  0  0  0  0  0  0  0
  146.8903  133.0850  154.9041 H   0  0  0  0  0  0  0  0  0  0  0  0
  146.1817  134.3186  153.8761 H   0  0  0  0  0  0  0  0  0  0  0  0
  148.6529  135.2870  153.3144 H   0  0  0  0  0  0  0  0  0  0  0  0
  148.9747  136.9905  153.6531 H   0  0  0  0  0  0  0  0  0  0  0  0
  1  2  1  0  0  0  0
  1 29  1  0  0  0  0
  1 30  1  0  0  0  0
  1 31  1  0  0  0  0
  2 23  1  0  0  0  0
  2  3  1  0  0  0  0
  2 32  1  0  0  0  0
  3  4  1  0  0  0  0
  3 33  1  0  0  0  0
  3 34  1  0  0  0  0
  4  5  1  0  0  0  0
  4 21  1  0  0  0  0
  5 10  1  0  0  0  0
  5  6  2  0  0  0  0
  6  7  1  0  0  0  0
  7  8  2  0  0  0  0
  7 35  1  0  0  0  0
  8  9  1  0  0  0  0
  9 13  1  0  0  0  0
  9 10  2  0  0  0  0
 10 11  1  0  0  0  0
 11 12  2  0  0  0  0
 12 13  1  0  0  0  0
 12 36  1  0  0  0  0
 13 14  1  0  0  0  0
 14 15  1  0  0  0  0
 14 37  1  0  0  0  0
 14 38  1  0  0  0  0
 15 20  1  0  0  0  0
 15 16  1  0  0  0  0
 15 18  1  0  0  0  0
 16 17  1  0  0  0  0
 16 39  1  0  0  0  0
 16 40  1  0  0  0  0
 17 41  1  0  0  0  0
 18 19  1  0  0  0  0
 18 42  1  0  0  0  0
 18 43  1  0  0  0  0
 19 20  1  0  0  0  0
 20 44  1  0  0  0  0
 20 45  1  0  0  0  0
 21 22  1  0  0  0  0
 21 46  1  0  0  0  0
 21 47  1  0  0  0  0
 22 23  1  0  0  0  0
 22 48  1  0  0  0  0
 22 49  1  0  0  0  0
 23 24  1  0  0  0  0
 23 59  1  0  0  0  0
 24 25  1  0  0  0  0
 24 50  1  0  0  0  0
 24 51  1  0  0  0  0
 25 26  1  0  0  0  0
 25 27  1  0  0  0  0
 25 28  1  0  0  0  0
 26 52  1  0  0  0  0
 26 53  1  0  0  0  0
 26 54  1  0  0  0  0
 27 55  1  0  0  0  0
 27 56  1  0  0  0  0
 27 57  1  0  0  0  0
 28 58  1  0  0  0  0
M  CHG  1  23   1
M  END
> <s_m_source_file>
AV-unprocessed.smi

> <i_m_source_file_index>
280

> <i_lp_mmshare_version>
43012

> <i_f3d_flags>
0

> <s_epik_input>
W0NIM11DKFtDSDNdKShbT0hdKVtDSDJdTjFbQ0gyXVtDSDJdTihbQ0gyXVtDQEhdMVtDSDNdKWMobltjSF1uMiljKGMyMyluW2NIXW4zW0NIMl1DNChbQ0gyXVtPSF0pW0NIMl1PW0NIMl00

> <s_epik_cmdline>
J2VwaWtfcHl0aG9uJywgJy1waCcsICc3LjAnLCAnLXRuJywgJzgnLCAnLW1hJywgJzIwMCcsICctbWV0YWxfYmluZGluZycsICctaW1hZScsICc8aW5maWxlLm1hZT4nLCAnLW9tYWUnLCAnPG91dGZpbGUubWFlPic=

> <r_lp_tautomer_probability>
1

> <r_epik_Ionization_Penalty>
0.00179402

> <r_epik_Ionization_Penalty_Charging>
0.00173996

> <r_epik_Ionization_Penalty_Neutral>
5.40607e-05

> <r_epik_State_Penalty>
-0

> <r_epik_Charging_Adjusted_Penalty>
0.00173996

> <i_epik_Tot_Q>
1

> <i_epik_Tot_abs_Q>
1

> <r_epik_Metal_State_Penalty>
-0

> <b_epik_Metal_Only>
0

> <s_lp_Force_Field>
OPLS_2005

> <r_lp_Energy>
49.5757

> <b_lp_Chiralities_Consistent>
1

> <s_lp_Variant>
AV-unprocessed.smi:280-1

> <Gold.Version>
5.8.1

> <Gold.Id.Protein>
6NUR|6NUR_protein|mol2

> <Gold.PLP.Fitness>
44.3484

> <Gold.PLP.PLP>
-33.7915

> <Gold.PLP.part.hbond>
-4.6219

> <Gold.PLP.part.metal>
0.0000

> <Gold.PLP.part.buried>
0.0740

> <Gold.PLP.part.nonpolar>
-29.9220

> <Gold.PLP.part.repulsive>
0.1876

> <Gold.PLP.ligand.clash>
0.0000

> <Gold.PLP.ligand.torsion>
1.4877

> <Gold.PLP.Chemscore.Hbond>
3.0496

> <Gold.PLP.Chemscore.CHOScore>
1.0000

> <Gold.PLP.Chemscore.Metal>
0.0000

> <Gold.Chemscore.Hbonds>
donor molecule, donor type, donor heavy atom, donor atom, acceptor molecule, acceptor atom, score
      L1  H    23    59       P1  7948  2.00
      L1  H    28    58       P1  7948  1.00
      L1  C     7    35       P1  8028  0.97

> <Gold.PLP.Chemscore.Internal.Correction>
1.3833

> <Gold.Rescore>
     Score         DG    S(hbond)    S(metal)    S(lipo)     H(rot)  DE(clash)    DE(int)     intcor
      6.76     -12.07       1.93        0.00      80.49       3.63       1.62       3.68       ----

> <Gold.Chemscore.Fitness>
6.7578

> <Gold.Chemscore.DG>
-12.0651

> <Gold.Chemscore.ZeroCoef>
-5.4800

> <Gold.Chemscore.Hbond>
1.9311

> <Gold.Chemscore.Metal>
0.0000

> <Gold.Chemscore.Lipo>
80.4930

> <Gold.Chemscore.Internal_Hbond>
0.0000

> <Gold.Chemscore.DEClash>
1.6241

> <Gold.Chemscore.DEInternal>
3.6832

> <Gold.Chemscore.Rot>
3.6260

> <Gold.Chemscore.Internal.Correction>
   9.000000E+99

> <Gold.Chemscore.Hbonds>
donor molecule, donor type, donor heavy atom, donor atom, acceptor molecule, acceptor atom, score
      L1  H    23    59       P1  7948  0.99
      L1  H    28    58       P1  7948  0.85

> <Gold.Chemscore.Hbond.Weighted>
-6.4499

> <Gold.Chemscore.Metal.Weighted>
-0.0000

> <Gold.Chemscore.Lipo.Weighted>
-9.4177

> <Gold.Chemscore.Internal_Hbond.Weighted>
0.0000

> <Gold.Chemscore.DEClash.Weighted>
1.6241

> <Gold.Chemscore.DEInternal.Weighted>
3.6832

> <Gold.Chemscore.Rot.Weighted>
9.2825

> <Gold.Chemscore.Internal.Correction.Weighted>
   9.000000E+99

> <Gold.Protein.RotatedTorsions>
[ 6907 6896 6895 6894 ] final  -51.74 input  -60.11 | X-H torsion
[ 7974 7965 7964 7962 ] final  164.51 input  175.53 | X-H torsion
[ 8008 7997 7996 7995 ] final   50.82 input   59.86 | X-H torsion
[ 10167 10162 10161 10158 ] final  110.38 input  -65.29 | X-H torsion
[ 10718 10713 10712 10709 ] final  -19.77 input   66.30 | X-H torsion
[ 10763 10752 10751 10750 ] final  -40.98 input  -60.55 | X-H torsion
[ 11005 11000 10999 10996 ] final  -20.32 input  -57.11 | X-H torsion

> <Gold.Protein.ActiveResidues>
 VAL166  LYS551  ARG553  GLY616  TRP617  ASP618  TYR619  PRO620  LYS621  CYS622 
 ASP623  PHE694  ASN695  SER759  ASP760  ASP761  ALA762  ILE779  LEU786  VAL792 
 PHE793  MET794  SER795  GLU796  ALA797  LYS798  CYS799  TRP800  GLU811  SER814 

> <Gold.Protein.RotatedAtoms>
  150.8583  134.7928  159.7062 H   0  0  0  0  0  0  0  0  0  0  0  0  # atno 6907 bound_to 6896
  152.4628  134.5142  159.9773 H   0  0  0  0  0  0  0  0  0  0  0  0  # atno 6908 bound_to 6896
  151.5250  133.3421  159.2944 H   0  0  0  0  0  0  0  0  0  0  0  0  # atno 6909 bound_to 6896
  144.7542  139.8336  143.6355 H   0  0  0  0  0  0  0  0  0  0  0  0  # atno 7974 bound_to 7965
  155.4251  140.3448  155.4275 H   0  0  0  0  0  0  0  0  0  0  0  0  # atno 8008 bound_to 7997
  156.1370  140.1531  156.9010 H   0  0  0  0  0  0  0  0  0  0  0  0  # atno 8009 bound_to 7997
  154.4940  140.0833  156.7636 H   0  0  0  0  0  0  0  0  0  0  0  0  # atno 8010 bound_to 7997
  139.6693  144.7126  151.1718 H   0  0  0  0  0  0  0  0  0  0  0  0  # atno 10167 bound_to 10162
  156.5411  130.4678  149.6498 H   0  0  0  0  0  0  0  0  0  0  0  0  # atno 10718 bound_to 10713
  153.9550  135.6746  153.4744 H   0  0  0  0  0  0  0  0  0  0  0  0  # atno 10763 bound_to 10752
  153.0866  135.4896  154.8605 H   0  0  0  0  0  0  0  0  0  0  0  0  # atno 10764 bound_to 10752
  154.7304  135.3137  154.8860 H   0  0  0  0  0  0  0  0  0  0  0  0  # atno 10765 bound_to 10752
  140.8453  133.7896  155.9906 H   0  0  0  0  0  0  0  0  0  0  0  0  # atno 11005 bound_to 11000
  146.1532  139.4621  143.0036 LP  0  0  0  0  0  0  0  0  0  0  0  0  # atno 17320 bound_to 7965
  145.6837  141.0184  143.1592 LP  0  0  0  0  0  0  0  0  0  0  0  0  # atno 17321 bound_to 7965
  140.7612  143.5869  150.8836 LP  0  0  0  0  0  0  0  0  0  0  0  0  # atno 17342 bound_to 10162
  139.9533  143.6247  152.3023 LP  0  0  0  0  0  0  0  0  0  0  0  0  # atno 17343 bound_to 10162
  156.2971  130.7156  151.2019 LP  0  0  0  0  0  0  0  0  0  0  0  0  # atno 17370 bound_to 10713
  157.7405  131.0516  150.5161 LP  0  0  0  0  0  0  0  0  0  0  0  0  # atno 17371 bound_to 10713
  140.8850  134.2565  157.5124 LP  0  0  0  0  0  0  0  0  0  0  0  0  # atno 17394 bound_to 11000
  139.8703  134.9633  156.4459 LP  0  0  0  0  0  0  0  0  0  0  0  0  # atno 17395 bound_to 11000

$$$$
