AV-unprocessed.smi:35|AV-procd|sdf|276|dock4
  -GOLD-   2262016 43D 1   1.00000     0.00000
 Structure written by MMmdl.
 28 29  0  0  0  0  0  0  0  0  2 V2000
  153.0683  138.9305  156.7393 O   0  0  0  0  0  0  0  0  0  0  0  0
  152.1048  139.5558  156.3000 C   0  0  0  0  0  0  0  0  0  0  0  0
  151.5709  140.6383  156.9368 N   0  5  0  0  0  0  0  0  0  0  0  0
  150.5047  141.3335  156.4419 C   0  0  0  0  0  0  0  0  0  0  0  0
  149.9991  142.2941  157.0227 O   0  0  0  0  0  0  0  0  0  0  0  0
  149.9368  140.9295  155.2025 N   0  0  0  0  0  0  0  0  0  0  0  0
  148.7526  141.6874  154.6468 C   0  0  1  0  0  0  0  0  0  0  0  0
  148.4859  141.2315  153.3514 O   0  0  0  0  0  0  0  0  0  0  0  0
  147.1151  140.8670  153.2273 C   0  0  1  0  0  0  0  0  0  0  0  0
  146.9801  139.7693  152.1598 C   0  0  0  0  0  0  0  0  0  0  0  0
  147.8540  138.6950  152.4345 O   0  0  0  0  0  0  0  0  0  0  0  0
  146.7301  140.4430  154.6462 C   0  0  2  0  0  0  0  0  0  0  0  0
  145.3376  140.4798  154.8948 O   0  0  0  0  0  0  0  0  0  0  0  0
  147.5068  141.4297  155.5089 C   0  0  2  0  0  0  0  0  0  0  0  0
  146.8004  142.6352  155.7394 O   0  0  0  0  0  0  0  0  0  0  0  0
  150.4421  139.8207  154.5447 C   0  0  0  0  0  0  0  0  0  0  0  0
  151.4895  139.1342  155.0442 C   0  0  0  0  0  0  0  0  0  0  0  0
  152.1067  137.5682  153.9984 Br  0  0  0  0  0  0  0  0  0  0  0  0
  149.0570  142.7344  154.5982 H   0  0  0  0  0  0  0  0  0  0  0  0
  146.5636  141.7621  152.9335 H   0  0  0  0  0  0  0  0  0  0  0  0
  145.9614  139.3811  152.1528 H   0  0  0  0  0  0  0  0  0  0  0  0
  147.1799  140.1636  151.1630 H   0  0  0  0  0  0  0  0  0  0  0  0
  148.6931  138.8820  152.0424 H   0  0  0  0  0  0  0  0  0  0  0  0
  147.0979  139.4342  154.8389 H   0  0  0  0  0  0  0  0  0  0  0  0
  144.8904  140.4667  154.0622 H   0  0  0  0  0  0  0  0  0  0  0  0
  147.7737  140.9992  156.4753 H   0  0  0  0  0  0  0  0  0  0  0  0
  147.4179  143.3502  155.7030 H   0  0  0  0  0  0  0  0  0  0  0  0
  149.9949  139.4884  153.6202 H   0  0  0  0  0  0  0  0  0  0  0  0
  1  2  2  0  0  0  0
  2 17  1  0  0  0  0
  2  3  1  0  0  0  0
  3  4  1  0  0  0  0
  4  5  2  0  0  0  0
  4  6  1  0  0  0  0
  6  7  1  0  0  0  0
  6 16  1  0  0  0  0
  7 14  1  0  0  0  0
  7  8  1  0  0  0  0
  7 19  1  0  0  0  0
  8  9  1  0  0  0  0
  9 10  1  0  0  0  0
  9 12  1  0  0  0  0
  9 20  1  0  0  0  0
 10 11  1  0  0  0  0
 10 21  1  0  0  0  0
 10 22  1  0  0  0  0
 11 23  1  0  0  0  0
 12 13  1  0  0  0  0
 12 14  1  0  0  0  0
 12 24  1  0  0  0  0
 13 25  1  0  0  0  0
 14 15  1  0  0  0  0
 14 26  1  0  0  0  0
 15 27  1  0  0  0  0
 16 17  2  0  0  0  0
 16 28  1  0  0  0  0
 17 18  1  0  0  0  0
M  CHG  1   3  -1
M  END
> <s_m_source_file>
AV-unprocessed.smi

> <i_m_source_file_index>
35

> <i_lp_mmshare_version>
43012

> <i_f3d_flags>
0

> <s_epik_input>
Tz1jMVtuSF1jKD1PKW4oW2NIXWMxQnIpW0NAQEhdMk9bQ0BASF0oW0NIMl1bT0hdKVtDQEBIXShbT0hdKVtDQEhdMltPSF0=

> <s_epik_cmdline>
J2VwaWtfcHl0aG9uJywgJy1waCcsICc3LjAnLCAnLXRuJywgJzgnLCAnLW1hJywgJzIwMCcsICctbWV0YWxfYmluZGluZycsICctaW1hZScsICc8aW5maWxlLm1hZT4nLCAnLW9tYWUnLCAnPG91dGZpbGUubWFlPic=

> <r_epik_Ionization_Penalty>
1.06112

> <r_epik_Ionization_Penalty_Charging>
2.1796e-09

> <r_epik_Ionization_Penalty_Neutral>
1.06112

> <r_epik_State_Penalty>
1.11484

> <r_epik_Charging_Adjusted_Penalty>
1.11484

> <i_epik_Tot_Q>
-1

> <i_epik_Tot_abs_Q>
1

> <r_epik_Metal_State_Penalty>
0.0032876

> <b_epik_Metal_Only>
0

> <s_epik_Chemistry_Notes>
This compound contains an acetal/aminal-like group ( X-CH(R)-Y where X, Y are N, S, or O) that may be acid/base labile, releasing an aldehyde.

> <s_lp_Force_Field>
OPLS_2005

> <r_lp_Energy>
40.7288

> <b_lp_Chiralities_Consistent>
1

> <s_lp_Variant>
AV-unprocessed.smi:35-30

> <Gold.Version>
5.8.1

> <Gold.Id.Protein>
6NUR|6NUR_protein|mol2

> <Gold.PLP.Fitness>
41.5694

> <Gold.PLP.PLP>
-25.8460

> <Gold.PLP.part.hbond>
-5.9282

> <Gold.PLP.part.metal>
0.0000

> <Gold.PLP.part.buried>
6.1271

> <Gold.PLP.part.nonpolar>
-27.2997

> <Gold.PLP.part.repulsive>
3.5448

> <Gold.PLP.ligand.clash>
0.0000

> <Gold.PLP.ligand.torsion>
0.2008

> <Gold.PLP.Chemscore.Hbond>
4.3920

> <Gold.PLP.Chemscore.CHOScore>
0.9787

> <Gold.PLP.Chemscore.Metal>
0.0000

> <Gold.Chemscore.Hbonds>
donor molecule, donor type, donor heavy atom, donor atom, acceptor molecule, acceptor atom, score
      L1  H    11    23       P1  7957  0.91
      L1  H    13    25       P1 10175  1.00
      L1  H    15    27       P1  8028  0.60
      P1  H  7997  8009       L1     1  1.00
      P1  H  8011  8017       L1     8  0.83
      L1  C    16    28       P1  7957  0.96

> <Gold.PLP.Chemscore.Internal.Correction>
0.0129

> <Gold.Rescore>
     Score         DG    S(hbond)    S(metal)    S(lipo)     H(rot)  DE(clash)    DE(int)     intcor
      9.90     -11.22       2.87        0.00      46.54       3.63       0.99       0.34       ----

> <Gold.Chemscore.Fitness>
9.8969

> <Gold.Chemscore.DG>
-11.2228

> <Gold.Chemscore.ZeroCoef>
-5.4800

> <Gold.Chemscore.Hbond>
2.8685

> <Gold.Chemscore.Metal>
0.0000

> <Gold.Chemscore.Lipo>
46.5379

> <Gold.Chemscore.Internal_Hbond>
0.0000

> <Gold.Chemscore.DEClash>
0.9869

> <Gold.Chemscore.DEInternal>
0.3390

> <Gold.Chemscore.Rot>
3.6261

> <Gold.Chemscore.Internal.Correction>
   9.000000E+99

> <Gold.Chemscore.Hbonds>
donor molecule, donor type, donor heavy atom, donor atom, acceptor molecule, acceptor atom, score
      L1  H    11    23       P1  7957  0.80
      L1  H    13    25       P1 10175  0.97
      L1  H    15    27       P1  8028  0.04
      P1  H  7997  8009       L1     1  0.30
      P1  H  8011  8017       L1     8  0.17

> <Gold.Chemscore.Hbond.Weighted>
-9.5807

> <Gold.Chemscore.Metal.Weighted>
-0.0000

> <Gold.Chemscore.Lipo.Weighted>
-5.4449

> <Gold.Chemscore.Internal_Hbond.Weighted>
0.0000

> <Gold.Chemscore.DEClash.Weighted>
0.9869

> <Gold.Chemscore.DEInternal.Weighted>
0.3390

> <Gold.Chemscore.Rot.Weighted>
9.2828

> <Gold.Chemscore.Internal.Correction.Weighted>
   9.000000E+99

> <Gold.Protein.RotatedTorsions>
[ 6907 6896 6895 6894 ] final   76.02 input  -60.11 | X-H torsion
[ 7974 7965 7964 7962 ] final  -48.06 input  175.53 | X-H torsion
[ 8008 7997 7996 7995 ] final -172.32 input   59.86 | X-H torsion
[ 10167 10162 10161 10158 ] final  106.65 input  -65.29 | X-H torsion
[ 10718 10713 10712 10709 ] final   98.91 input   66.30 | X-H torsion
[ 10763 10752 10751 10750 ] final  -81.35 input  -60.55 | X-H torsion
[ 11005 11000 10999 10996 ] final  -68.30 input  -57.11 | X-H torsion

> <Gold.Protein.ActiveResidues>
 VAL166  LYS551  ARG553  GLY616  TRP617  ASP618  TYR619  PRO620  LYS621  CYS622 
 ASP623  PHE694  ASN695  SER759  ASP760  ASP761  ALA762  ILE779  LEU786  VAL792 
 PHE793  MET794  SER795  GLU796  ALA797  LYS798  CYS799  TRP800  GLU811  SER814 

> <Gold.Protein.RotatedAtoms>
  152.5054  134.4032  159.9423 H   0  0  0  0  0  0  0  0  0  0  0  0  # atno 6907 bound_to 6896
  151.3997  133.3755  159.2738 H   0  0  0  0  0  0  0  0  0  0  0  0  # atno 6908 bound_to 6896
  150.9371  134.8804  159.7647 H   0  0  0  0  0  0  0  0  0  0  0  0  # atno 6909 bound_to 6896
  145.9551  140.7534  142.9485 H   0  0  0  0  0  0  0  0  0  0  0  0  # atno 7974 bound_to 7965
  155.9430  140.1112  157.1039 H   0  0  0  0  0  0  0  0  0  0  0  0  # atno 8008 bound_to 7997
  154.4093  140.1215  156.5019 H   0  0  0  0  0  0  0  0  0  0  0  0  # atno 8009 bound_to 7997
  155.6937  140.3472  155.4906 H   0  0  0  0  0  0  0  0  0  0  0  0  # atno 8010 bound_to 7997
  139.6992  144.7097  151.1215 H   0  0  0  0  0  0  0  0  0  0  0  0  # atno 10167 bound_to 10162
  157.6886  131.0654  150.4869 H   0  0  0  0  0  0  0  0  0  0  0  0  # atno 10718 bound_to 10713
  154.5624  135.5629  153.7020 H   0  0  0  0  0  0  0  0  0  0  0  0  # atno 10763 bound_to 10752
  153.0022  135.6277  154.2226 H   0  0  0  0  0  0  0  0  0  0  0  0  # atno 10764 bound_to 10752
  154.2164  135.2871  155.2920 H   0  0  0  0  0  0  0  0  0  0  0  0  # atno 10765 bound_to 10752
  141.1528  133.6738  156.6424 H   0  0  0  0  0  0  0  0  0  0  0  0  # atno 11005 bound_to 11000
  144.6803  140.2499  143.7333 LP  0  0  0  0  0  0  0  0  0  0  0  0  # atno 17320 bound_to 7965
  145.8117  139.2006  143.1989 LP  0  0  0  0  0  0  0  0  0  0  0  0  # atno 17321 bound_to 7965
  140.7705  143.5448  150.9271 LP  0  0  0  0  0  0  0  0  0  0  0  0  # atno 17342 bound_to 10162
  139.9129  143.6698  152.3112 LP  0  0  0  0  0  0  0  0  0  0  0  0  # atno 17343 bound_to 10162
  156.5197  130.4159  149.6257 LP  0  0  0  0  0  0  0  0  0  0  0  0  # atno 17370 bound_to 10713
  156.3165  130.7257  151.2161 LP  0  0  0  0  0  0  0  0  0  0  0  0  # atno 17371 bound_to 10713
  140.3383  134.7871  157.4378 LP  0  0  0  0  0  0  0  0  0  0  0  0  # atno 17394 bound_to 11000
  140.0959  134.5538  155.8399 LP  0  0  0  0  0  0  0  0  0  0  0  0  # atno 17395 bound_to 11000

$$$$
