#       Name:                AV-unprocessed.smi:283
#       Creating user name   scv26
#       Creation time:       Thu Mar 26 21:43:05 2020


#       File generated by GOLD software.
#

@<TRIPOS>MOLECULE
AV-unprocessed.smi:283
    59    62     1
SMALL
NO_CHARGES


@<TRIPOS>ATOM
      1 ****        -3.7033   1.0108  -1.3810 C.3            1 S1                 0.0000
      2 ****        -3.4731   0.8689   0.1348 C.3            1 S1                 0.0000
      3 ****        -2.3954  -0.0781   0.4198 N.pl3          1 S1                 0.0000
      4 ****        -1.0988   0.2306   0.1943 C.ar           1 S1                 0.0000
      5 ****        -0.7192   1.4928  -0.1350 N.ar           1 S1                 0.0000
      6 ****         0.5700   1.7679  -0.3531 C.ar           1 S1                 0.0000
      7 ****         1.6196   0.9454  -0.2956 N.ar           1 S1                 0.0000
      8 ****         1.2456  -0.3232   0.0407 C.ar           1 S1                 0.0000
      9 ****        -0.0846  -0.7558   0.3023 C.ar           1 S1                 0.0000
     10 ****        -0.0867  -2.1088   0.6152 N.2            1 S1                 0.0000
     11 ****         1.1713  -2.4520   0.5403 C.2            1 S1                 0.0000
     12 ****         2.0406  -1.4412   0.1942 N.pl3          1 S1                 0.0000
     13 ****         3.5223  -1.5349   0.0235 C.3            1 S1                 0.0000
     14 ****         4.1071  -0.4562   0.6865 O.3            1 S1                 0.0000
     15 ****         5.1626   0.0758  -0.1061 C.3            1 S1                 0.0000
     16 ****         5.4185   1.5401   0.2824 C.3            1 S1                 0.0000
     17 ****         6.2623   1.6022   1.4123 O.3            1 S1                 0.0000
     18 ****         4.6197  -0.0942  -1.5258 C.3            1 S1                 0.0000
     19 ****         5.6278  -0.0326  -2.5186 O.3            1 S1                 0.0000
     20 ****         3.9104  -1.4451  -1.4616 C.3            1 S1                 0.0000
     21 ****         4.7640  -2.5167  -1.8209 O.3            1 S1                 0.0000
     22 ****        -4.7835   0.4928   0.8250 C.ar           1 S1                 0.0000
     23 ****        -5.1496  -0.8682   0.9524 C.ar           1 S1                 0.0000
     24 ****        -6.3586  -1.2322   1.5743 C.ar           1 S1                 0.0000
     25 ****        -7.2204  -0.2384   2.0711 C.ar           1 S1                 0.0000
     26 ****        -6.8732   1.1186   1.9401 C.ar           1 S1                 0.0000
     27 ****        -5.6642   1.4895   1.3177 C.ar           1 S1                 0.0000
     28 ****        -5.3018   3.1738   1.1675 Cl             1 S1                 0.0000
     29 ****         3.8003  -2.4787   0.4954 H              1 S1                 0.0000
     30 ****         6.0583  -0.5353   0.0223 H              1 S1                 0.0000
     31 ****         3.8881   0.6873  -1.7313 H              1 S1                 0.0000
     32 ****         3.0293  -1.4672  -2.1047 H              1 S1                 0.0000
     33 ****        -4.4754   1.7516  -1.5905 H              1 S1                 0.0000
     34 ****        -4.0234   0.0663  -1.8220 H              1 S1                 0.0000
     35 ****        -2.8014   1.3292  -1.9030 H              1 S1                 0.0000
     36 ****        -3.1578   1.8327   0.5325 H              1 S1                 0.0000
     37 ****        -2.6929  -1.0007   0.7026 H              1 S1                 0.0000
     38 ****         0.7923   2.7925  -0.6118 H              1 S1                 0.0000
     39 ****         1.5018  -3.4627   0.7315 H              1 S1                 0.0000
     40 ****         5.9238   2.0620  -0.5306 H              1 S1                 0.0000
     41 ****         4.4842   2.0687   0.4746 H              1 S1                 0.0000
     42 ****         7.0738   1.1643   1.2054 H              1 S1                 0.0000
     43 ****         5.2191  -0.1164  -3.3666 H              1 S1                 0.0000
     44 ****         5.0749  -2.3689  -2.7009 H              1 S1                 0.0000
     45 ****        -4.5078  -1.6471   0.5681 H              1 S1                 0.0000
     46 ****        -6.6262  -2.2744   1.6671 H              1 S1                 0.0000
     47 ****        -8.1492  -0.5160   2.5473 H              1 S1                 0.0000
     48 ****        -7.5412   1.8795   2.3162 H              1 S1                 0.0000
     49 ****        -1.4050   2.2163  -0.2142 LP             1 S1                 0.0000
     50 ****         2.5628   1.2242  -0.4764 LP             1 S1                 0.0000
     51 ****        -0.8700  -2.6865   0.8448 LP             1 S1                 0.0000
     52 ****         4.4730  -0.7640   1.5648 LP             1 S1                 0.0000
     53 ****         3.4183   0.2519   0.8422 LP             1 S1                 0.0000
     54 ****         5.8223   1.1484   2.1872 LP             1 S1                 0.0000
     55 ****         6.4444   2.5576   1.6451 LP             1 S1                 0.0000
     56 ****         6.2803  -0.7782  -2.3834 LP             1 S1                 0.0000
     57 ****         6.1061   0.8437  -2.4597 LP             1 S1                 0.0000
     58 ****         4.2585  -3.3786  -1.7817 LP             1 S1                 0.0000
     59 ****         5.5397  -2.5562  -1.1910 LP             1 S1                 0.0000
@<TRIPOS>BOND
    1    1    2 1     
    2    1   33 1     
    3    1   34 1     
    4    1   35 1     
    5    2    3 1     
    6    2   22 1     
    7    2   36 1     
    8    3    4 1     
    9    3   37 1     
   10    4    9 ar    
   11    4    5 ar    
   12    5    6 ar    
   13    6    7 ar    
   14    6   38 1     
   15    7    8 ar    
   16    8   12 1     
   17    8    9 ar    
   18    9   10 1     
   19   10   11 2     
   20   11   12 1     
   21   11   39 1     
   22   12   13 1     
   23   13   29 1     
   24   13   20 1     
   25   13   14 1     
   26   14   15 1     
   27   15   30 1     
   28   15   16 1     
   29   15   18 1     
   30   16   17 1     
   31   16   40 1     
   32   16   41 1     
   33   17   42 1     
   34   18   31 1     
   35   18   19 1     
   36   18   20 1     
   37   19   43 1     
   38   20   32 1     
   39   20   21 1     
   40   21   44 1     
   41   22   27 ar    
   42   22   23 ar    
   43   23   24 ar    
   44   23   45 1     
   45   24   25 ar    
   46   24   46 1     
   47   25   26 ar    
   48   25   47 1     
   49   26   27 ar    
   50   26   48 1     
   51   27   28 1     
   52    5   49 1     
   53    7   50 1     
   54   10   51 1     
   55   14   52 1     
   56   14   53 1     
   57   17   54 1     
   58   17   55 1     
   59   19   56 1     
   60   19   57 1     
   61   21   58 1     
   62   21   59 1     
@<TRIPOS>SUBSTRUCTURE
      1 S1             1
@<TRIPOS>SET
LONE_PAIRS      STATIC     ATOMS    <user>   **** ""
11 49 50 51 52 53 54 55 56 57 58 59
DONOR_HYDROGENS      STATIC     ATOMS    <user>   **** ""
4 37 42 43 44
ATOM$BLUE        STATIC     ATOMS    COLORGROUP SYSTEM
11 49 50 51 52 53 54 55 56 57 58 59
ATOM$RED        STATIC     ATOMS    COLORGROUP SYSTEM
4 37 42 43 44
