AV-unprocessed.smi:11|AV-procd|sdf|55|dock6
  -GOLD-   2262015173D 1   1.00000     0.00000
 Structure written by MMmdl.
 33 35  0  0  0  0  0  0  0  0  1 V2000
  149.4171  139.1138  157.7717 C   0  0  0  0  0  0  0  0  0  0  0  0
  149.6218  139.0103  156.2510 C   0  0  0  0  0  0  0  0  0  0  0  0
  150.4938  140.1252  155.6220 C   0  0  1  0  0  0  0  0  0  0  0  0
  150.6305  139.8651  154.2386 O   0  0  0  0  0  0  0  0  0  0  0  0
  149.9649  141.5463  155.8711 C   0  0  0  0  0  0  0  0  0  0  0  0
  150.5413  141.8977  157.2410 C   0  0  0  0  0  0  0  0  0  0  0  0
  151.8284  141.2190  157.2845 N   0  0  0  0  0  0  0  0  0  0  0  0
  152.5617  141.1149  158.4838 C   0  0  0  0  0  0  0  0  0  0  0  0
  153.3733  140.0375  158.6427 N   0  0  0  0  0  0  0  0  0  0  0  0
  154.0901  139.9004  159.7617 C   0  0  0  0  0  0  0  0  0  0  0  0
  154.1379  140.7043  160.8261 N   0  0  0  0  0  0  0  0  0  0  0  0
  153.3120  141.7773  160.6742 C   0  0  0  0  0  0  0  0  0  0  0  0
  153.1033  142.7988  161.5769 N   0  0  0  0  0  0  0  0  0  0  0  0
  152.1842  143.7032  161.0750 C   0  0  0  0  0  0  0  0  0  0  0  0
  151.7785  143.2846  159.8334 C   0  0  0  0  0  0  0  0  0  0  0  0
  152.4883  142.0626  159.5465 C   0  0  0  0  0  0  0  0  0  0  0  0
  151.8871  140.1692  156.2763 C   0  0  0  0  0  0  0  0  0  0  0  0
  153.5413  142.8932  162.4819 H   0  0  0  0  0  0  0  0  0  0  0  0
  148.7501  138.3253  158.1203 H   0  0  0  0  0  0  0  0  0  0  0  0
  148.9694  140.0671  158.0527 H   0  0  0  0  0  0  0  0  0  0  0  0
  150.3540  139.0075  158.3171 H   0  0  0  0  0  0  0  0  0  0  0  0
  150.0524  138.0346  156.0226 H   0  0  0  0  0  0  0  0  0  0  0  0
  148.6408  139.0168  155.7740 H   0  0  0  0  0  0  0  0  0  0  0  0
  149.7676  139.7701  153.8650 H   0  0  0  0  0  0  0  0  0  0  0  0
  150.3778  142.2321  155.1295 H   0  0  0  0  0  0  0  0  0  0  0  0
  148.8807  141.6408  155.8299 H   0  0  0  0  0  0  0  0  0  0  0  0
  150.6523  142.9748  157.3688 H   0  0  0  0  0  0  0  0  0  0  0  0
  149.8937  141.5211  158.0339 H   0  0  0  0  0  0  0  0  0  0  0  0
  154.7144  139.0208  159.8119 H   0  0  0  0  0  0  0  0  0  0  0  0
  151.8907  144.5721  161.6455 H   0  0  0  0  0  0  0  0  0  0  0  0
  151.0631  143.7762  159.1918 H   0  0  0  0  0  0  0  0  0  0  0  0
  152.1585  139.2017  156.6999 H   0  0  0  0  0  0  0  0  0  0  0  0
  152.6523  140.4462  155.5502 H   0  0  0  0  0  0  0  0  0  0  0  0
  1  2  1  0  0  0  0
  1 19  1  0  0  0  0
  1 20  1  0  0  0  0
  1 21  1  0  0  0  0
  2  3  1  0  0  0  0
  2 22  1  0  0  0  0
  2 23  1  0  0  0  0
  3 17  1  0  0  0  0
  3  4  1  0  0  0  0
  3  5  1  0  0  0  0
  4 24  1  0  0  0  0
  5  6  1  0  0  0  0
  5 25  1  0  0  0  0
  5 26  1  0  0  0  0
  6  7  1  0  0  0  0
  6 27  1  0  0  0  0
  6 28  1  0  0  0  0
  7  8  1  0  0  0  0
  7 17  1  0  0  0  0
  8 16  1  0  0  0  0
  8  9  2  0  0  0  0
  9 10  1  0  0  0  0
 10 11  2  0  0  0  0
 10 29  1  0  0  0  0
 11 12  1  0  0  0  0
 12 16  2  0  0  0  0
 12 13  1  0  0  0  0
 13 18  1  0  0  0  0
 13 14  1  0  0  0  0
 14 15  2  0  0  0  0
 14 30  1  0  0  0  0
 15 16  1  0  0  0  0
 15 31  1  0  0  0  0
 17 32  1  0  0  0  0
 17 33  1  0  0  0  0
M  END
> <s_m_source_file>
AV-unprocessed.smi

> <i_m_source_file_index>
11

> <i_lp_mmshare_version>
43012

> <i_f3d_flags>
0

> <s_epik_input>
W0NIM11bQ0gyXVtDQEBdMShbT0hdKVtDSDJdW0NIMl1OKFtDSDJdMSljKG5bY0hdbjIpYyhjMjMpW2NIXVtjSF1bbkhdMw==

> <s_epik_cmdline>
J2VwaWtfcHl0aG9uJywgJy1waCcsICc3LjAnLCAnLXRuJywgJzgnLCAnLW1hJywgJzIwMCcsICctbWV0YWxfYmluZGluZycsICctaW1hZScsICc8aW5maWxlLm1hZT4nLCAnLW9tYWUnLCAnPG91dGZpbGUubWFlPic=

> <r_lp_tautomer_probability>
0.999998

> <r_epik_Ionization_Penalty>
0.0511253

> <r_epik_Ionization_Penalty_Charging>
0

> <r_epik_Ionization_Penalty_Neutral>
0.0511253

> <r_epik_State_Penalty>
0.0394181

> <r_epik_Charging_Adjusted_Penalty>
0.0394181

> <i_epik_Tot_Q>
0

> <i_epik_Tot_abs_Q>
0

> <r_epik_Metal_State_Penalty>
0.0367127

> <b_epik_Metal_Only>
0

> <s_lp_Force_Field>
OPLS_2005

> <r_lp_Energy>
27.4132

> <b_lp_Chiralities_Consistent>
1

> <s_lp_Variant>
AV-unprocessed.smi:11-1

> <Gold.Version>
5.8.1

> <Gold.Id.Protein>
6NUR|6NUR_protein|mol2

> <Gold.PLP.Fitness>
38.2882

> <Gold.PLP.PLP>
-32.4122

> <Gold.PLP.part.hbond>
-2.3673

> <Gold.PLP.part.metal>
0.0000

> <Gold.PLP.part.buried>
-4.9220

> <Gold.PLP.part.nonpolar>
-24.8285

> <Gold.PLP.part.repulsive>
0.0440

> <Gold.PLP.ligand.clash>
0.0000

> <Gold.PLP.ligand.torsion>
0.1828

> <Gold.PLP.Chemscore.Hbond>
2.0000

> <Gold.PLP.Chemscore.CHOScore>
0.0000

> <Gold.PLP.Chemscore.Metal>
0.0000

> <Gold.Chemscore.Hbonds>
donor molecule, donor type, donor heavy atom, donor atom, acceptor molecule, acceptor atom, score
      P1  H  7989  7998       L1     4  1.00
      P1  H  7997  8008       L1     9  1.00

> <Gold.PLP.Chemscore.Internal.Correction>
0.2415

> <Gold.Rescore>
     Score         DG    S(hbond)    S(metal)    S(lipo)     H(rot)  DE(clash)    DE(int)     intcor
     13.86     -14.11       1.54        0.00      61.03       1.43       0.02       0.23       ----

> <Gold.Chemscore.Fitness>
13.8623

> <Gold.Chemscore.DG>
-14.1093

> <Gold.Chemscore.ZeroCoef>
-5.4800

> <Gold.Chemscore.Hbond>
1.5407

> <Gold.Chemscore.Metal>
0.0000

> <Gold.Chemscore.Lipo>
61.0264

> <Gold.Chemscore.Internal_Hbond>
0.0000

> <Gold.Chemscore.DEClash>
0.0174

> <Gold.Chemscore.DEInternal>
0.2296

> <Gold.Chemscore.Rot>
1.4283

> <Gold.Chemscore.Internal.Correction>
   9.000000E+99

> <Gold.Chemscore.Hbonds>
donor molecule, donor type, donor heavy atom, donor atom, acceptor molecule, acceptor atom, score
      P1  H  7989  7998       L1     4  0.80
      P1  H  7997  8008       L1     9  0.35

> <Gold.Chemscore.Hbond.Weighted>
-5.1458

> <Gold.Chemscore.Metal.Weighted>
-0.0000

> <Gold.Chemscore.Lipo.Weighted>
-7.1401

> <Gold.Chemscore.Internal_Hbond.Weighted>
0.0000

> <Gold.Chemscore.DEClash.Weighted>
0.0174

> <Gold.Chemscore.DEInternal.Weighted>
0.2296

> <Gold.Chemscore.Rot.Weighted>
3.6566

> <Gold.Chemscore.Internal.Correction.Weighted>
   9.000000E+99

> <Gold.Protein.RotatedTorsions>
[ 6907 6896 6895 6894 ] final    8.28 input  -60.11 | X-H torsion
[ 7974 7965 7964 7962 ] final  149.48 input  175.53 | X-H torsion
[ 8008 7997 7996 7995 ] final  -86.89 input   59.86 | X-H torsion
[ 10167 10162 10161 10158 ] final  -76.75 input  -65.29 | X-H torsion
[ 10718 10713 10712 10709 ] final   12.20 input   66.30 | X-H torsion
[ 10763 10752 10751 10750 ] final  130.77 input  -60.55 | X-H torsion
[ 11005 11000 10999 10996 ] final -108.54 input  -57.11 | X-H torsion

> <Gold.Protein.ActiveResidues>
 VAL166  LYS551  ARG553  GLY616  TRP617  ASP618  TYR619  PRO620  LYS621  CYS622 
 ASP623  PHE694  ASN695  SER759  ASP760  ASP761  ALA762  ILE779  LEU786  VAL792 
 PHE793  MET794  SER795  GLU796  ALA797  LYS798  CYS799  TRP800  GLU811  SER814 

> <Gold.Protein.RotatedAtoms>
  151.7034  135.0926  160.0254 H   0  0  0  0  0  0  0  0  0  0  0  0  # atno 6907 bound_to 6896
  152.3706  133.6410  159.6093 H   0  0  0  0  0  0  0  0  0  0  0  0  # atno 6908 bound_to 6896
  150.7671  133.9192  159.3434 H   0  0  0  0  0  0  0  0  0  0  0  0  # atno 6909 bound_to 6896
  144.8435  139.6286  143.6006 H   0  0  0  0  0  0  0  0  0  0  0  0  # atno 7974 bound_to 7965
  154.6571  140.0572  157.0020 H   0  0  0  0  0  0  0  0  0  0  0  0  # atno 8008 bound_to 7997
  155.1285  140.3254  155.4461 H   0  0  0  0  0  0  0  0  0  0  0  0  # atno 8009 bound_to 7997
  156.2602  140.1985  156.6404 H   0  0  0  0  0  0  0  0  0  0  0  0  # atno 8010 bound_to 7997
  140.4830  143.2397  151.8028 H   0  0  0  0  0  0  0  0  0  0  0  0  # atno 10167 bound_to 10162
  157.0067  130.6101  149.5703 H   0  0  0  0  0  0  0  0  0  0  0  0  # atno 10718 bound_to 10713
  153.7635  135.3192  155.3341 H   0  0  0  0  0  0  0  0  0  0  0  0  # atno 10763 bound_to 10752
  154.8222  135.4595  154.0815 H   0  0  0  0  0  0  0  0  0  0  0  0  # atno 10764 bound_to 10752
  153.2053  135.6928  153.8265 H   0  0  0  0  0  0  0  0  0  0  0  0  # atno 10765 bound_to 10752
  141.0896  133.9078  157.2106 H   0  0  0  0  0  0  0  0  0  0  0  0  # atno 11005 bound_to 11000
  146.2723  139.6667  142.9287 LP  0  0  0  0  0  0  0  0  0  0  0  0  # atno 17320 bound_to 7965
  145.4645  141.0434  143.2733 LP  0  0  0  0  0  0  0  0  0  0  0  0  # atno 17321 bound_to 7965
  139.4837  144.4748  151.9381 LP  0  0  0  0  0  0  0  0  0  0  0  0  # atno 17342 bound_to 10162
  140.3834  144.2708  150.5906 LP  0  0  0  0  0  0  0  0  0  0  0  0  # atno 17343 bound_to 10162
  156.0151  130.5245  150.8109 LP  0  0  0  0  0  0  0  0  0  0  0  0  # atno 17370 bound_to 10713
  157.5350  131.0938  150.9904 LP  0  0  0  0  0  0  0  0  0  0  0  0  # atno 17371 bound_to 10713
  139.9720  135.0125  156.9535 LP  0  0  0  0  0  0  0  0  0  0  0  0  # atno 17394 bound_to 11000
  140.5283  134.0839  155.7309 LP  0  0  0  0  0  0  0  0  0  0  0  0  # atno 17395 bound_to 11000

$$$$
