AV-unprocessed.smi:1578|AV-procd|sdf|6352|dock8
  -GOLD-   22720 6573D 1   1.00000     0.00000
 Structure written by MMmdl.
 45 46  0  0  0  0  0  0  0  0  2 V2000
  147.1526  140.8844  153.1475 C   0  0  0  0  0  0  0  0  0  0  0  0
  147.1488  141.3274  154.6165 C   0  0  2  0  0  0  0  0  0  0  0  0
  145.9302  142.2196  154.9408 C   0  0  0  0  0  0  0  0  0  0  0  0
  144.6998  141.4327  155.2103 N   0  3  0  0  0  0  0  0  0  0  0  0
  144.9480  140.2175  156.0199 C   0  0  0  0  0  0  0  0  0  0  0  0
  143.6469  139.4128  156.1795 C   0  0  0  0  0  0  0  0  0  0  0  0
  142.6446  140.2343  156.7663 O   0  0  0  0  0  0  0  0  0  0  0  0
  142.3412  141.3662  155.9596 C   0  0  0  0  0  0  0  0  0  0  0  0
  143.5997  142.2343  155.7973 C   0  0  0  0  0  0  0  0  0  0  0  0
  148.3907  142.0406  154.9108 N   0  0  0  0  0  0  0  0  0  0  0  0
  149.6264  141.5107  154.9474 C   0  0  0  0  0  0  0  0  0  0  0  0
  149.8564  140.3328  154.6778 O   0  0  0  0  0  0  0  0  0  0  0  0
  150.7862  142.4119  155.4035 C   0  0  0  0  0  0  0  0  0  0  0  0
  151.3389  142.0670  156.7256 N   0  0  0  0  0  0  0  0  0  0  0  0
  151.1697  143.0232  157.7464 C   0  0  0  0  0  0  0  0  0  0  0  0
  151.6335  142.8498  158.9984 C   0  0  0  0  0  0  0  0  0  0  0  0
  151.5006  143.9351  160.0553 C   0  0  0  0  0  0  0  0  0  0  0  0
  150.2215  144.1582  160.3570 F   0  0  0  0  0  0  0  0  0  0  0  0
  152.1409  143.5944  161.1746 F   0  0  0  0  0  0  0  0  0  0  0  0
  152.0274  145.0730  159.6061 F   0  0  0  0  0  0  0  0  0  0  0  0
  152.3514  141.6165  159.2543 C   0  0  0  0  0  0  0  0  0  0  0  0
  152.5362  140.6987  158.2851 C   0  0  0  0  0  0  0  0  0  0  0  0
  152.0230  140.9014  156.9283 C   0  0  0  0  0  0  0  0  0  0  0  0
  152.2074  140.0827  156.0282 O   0  0  0  0  0  0  0  0  0  0  0  0
  146.2445  140.3329  152.9024 H   0  0  0  0  0  0  0  0  0  0  0  0
  148.0002  140.2314  152.9370 H   0  0  0  0  0  0  0  0  0  0  0  0
  147.2155  141.7390  152.4727 H   0  0  0  0  0  0  0  0  0  0  0  0
  147.0903  140.4214  155.2210 H   0  0  0  0  0  0  0  0  0  0  0  0
  146.1708  142.8075  155.8281 H   0  0  0  0  0  0  0  0  0  0  0  0
  145.7480  142.9382  154.1405 H   0  0  0  0  0  0  0  0  0  0  0  0
  145.7036  139.5971  155.5365 H   0  0  0  0  0  0  0  0  0  0  0  0
  145.3395  140.5012  156.9981 H   0  0  0  0  0  0  0  0  0  0  0  0
  143.3031  139.0337  155.2156 H   0  0  0  0  0  0  0  0  0  0  0  0
  143.8158  138.5471  156.8201 H   0  0  0  0  0  0  0  0  0  0  0  0
  141.9613  141.0459  154.9879 H   0  0  0  0  0  0  0  0  0  0  0  0
  141.5478  141.9400  156.4385 H   0  0  0  0  0  0  0  0  0  0  0  0
  143.9085  142.6298  156.7661 H   0  0  0  0  0  0  0  0  0  0  0  0
  143.3716  143.0891  155.1613 H   0  0  0  0  0  0  0  0  0  0  0  0
  148.3000  143.0211  155.1358 H   0  0  0  0  0  0  0  0  0  0  0  0
  151.5790  142.3542  154.6558 H   0  0  0  0  0  0  0  0  0  0  0  0
  150.4485  143.4489  155.3729 H   0  0  0  0  0  0  0  0  0  0  0  0
  150.6498  143.9191  157.4375 H   0  0  0  0  0  0  0  0  0  0  0  0
  152.7435  141.4214  160.2416 H   0  0  0  0  0  0  0  0  0  0  0  0
  153.0739  139.7898  158.5131 H   0  0  0  0  0  0  0  0  0  0  0  0
  144.3743  141.1064  154.3115 H   0  0  0  0  0  0  0  0  0  0  0  0
  1  2  1  0  0  0  0
  1 25  1  0  0  0  0
  1 26  1  0  0  0  0
  1 27  1  0  0  0  0
  2  3  1  0  0  0  0
  2 10  1  0  0  0  0
  2 28  1  0  0  0  0
  3  4  1  0  0  0  0
  3 29  1  0  0  0  0
  3 30  1  0  0  0  0
  4  9  1  0  0  0  0
  4  5  1  0  0  0  0
  4 45  1  0  0  0  0
  5  6  1  0  0  0  0
  5 31  1  0  0  0  0
  5 32  1  0  0  0  0
  6  7  1  0  0  0  0
  6 33  1  0  0  0  0
  6 34  1  0  0  0  0
  7  8  1  0  0  0  0
  8  9  1  0  0  0  0
  8 35  1  0  0  0  0
  8 36  1  0  0  0  0
  9 37  1  0  0  0  0
  9 38  1  0  0  0  0
 10 11  1  0  0  0  0
 10 39  1  0  0  0  0
 11 12  2  0  0  0  0
 11 13  1  0  0  0  0
 13 14  1  0  0  0  0
 13 40  1  0  0  0  0
 13 41  1  0  0  0  0
 14 23  1  0  0  0  0
 14 15  1  0  0  0  0
 15 16  2  0  0  0  0
 15 42  1  0  0  0  0
 16 17  1  0  0  0  0
 16 21  1  0  0  0  0
 17 18  1  0  0  0  0
 17 19  1  0  0  0  0
 17 20  1  0  0  0  0
 21 22  2  0  0  0  0
 21 43  1  0  0  0  0
 22 23  1  0  0  0  0
 22 44  1  0  0  0  0
 23 24  2  0  0  0  0
M  CHG  1   4   1
M  END
> <s_m_source_file>
AV-unprocessed.smi

> <i_m_source_file_index>
1578

> <i_lp_mmshare_version>
43012

> <i_f3d_flags>
0

> <s_epik_input>
W0NIMl0xW0NIMl1PW0NIMl1bQ0gyXU4xW0NIMl1bQ0BASF0oW0NIM10pW05IXUMoPU8pW0NIMl1uMltjSF1jKEMoRikoRilGKVtjSF1bY0hdYzI9Tw==

> <s_epik_cmdline>
J2VwaWtfcHl0aG9uJywgJy1waCcsICc3LjAnLCAnLXRuJywgJzgnLCAnLW1hJywgJzIwMCcsICctbWV0YWxfYmluZGluZycsICctaW1hZScsICc8aW5maWxlLm1hZT4nLCAnLW9tYWUnLCAnPG91dGZpbGUubWFlPic=

> <r_lp_tautomer_probability>
1

> <r_epik_Ionization_Penalty>
0.656654

> <r_epik_Ionization_Penalty_Charging>
0.656653

> <r_epik_Ionization_Penalty_Neutral>
9.12373e-08

> <r_epik_State_Penalty>
0.675641

> <r_epik_Charging_Adjusted_Penalty>
1.33229

> <i_epik_Tot_Q>
1

> <i_epik_Tot_abs_Q>
1

> <r_epik_Metal_State_Penalty>
0.675695

> <b_epik_Metal_Only>
0

> <s_lp_Force_Field>
OPLS_2005

> <r_lp_Energy>
34.2523

> <b_lp_Chiralities_Consistent>
1

> <s_lp_Variant>
AV-unprocessed.smi:1578-3

> <Gold.Version>
5.8.1

> <Gold.Id.Protein>
6NUR|6NUR_protein|mol2

> <Gold.PLP.Fitness>
52.5802

> <Gold.PLP.PLP>
-41.7134

> <Gold.PLP.part.hbond>
-1.9813

> <Gold.PLP.part.metal>
0.0000

> <Gold.PLP.part.buried>
-6.7854

> <Gold.PLP.part.nonpolar>
-34.4107

> <Gold.PLP.part.repulsive>
0.2813

> <Gold.PLP.ligand.clash>
0.0000

> <Gold.PLP.ligand.torsion>
0.6276

> <Gold.PLP.Chemscore.Hbond>
3.0000

> <Gold.PLP.Chemscore.CHOScore>
1.0000

> <Gold.PLP.Chemscore.Metal>
0.0000

> <Gold.Chemscore.Hbonds>
donor molecule, donor type, donor heavy atom, donor atom, acceptor molecule, acceptor atom, score
      L1  H     4    45       P1 10175  1.98
      L1  H    10    39       P1  8028  1.00
      P1  H  7989  7998       L1    12  0.34
      L1  C    15    42       P1  8028  0.81

> <Gold.PLP.Chemscore.Internal.Correction>
0.1221

> <Gold.Rescore>
     Score         DG    S(hbond)    S(metal)    S(lipo)     H(rot)  DE(clash)    DE(int)     intcor
     11.53     -15.54       1.84        0.00      81.03       2.17       1.91       2.10       ----

> <Gold.Chemscore.Fitness>
11.5261

> <Gold.Chemscore.DG>
-15.5396

> <Gold.Chemscore.ZeroCoef>
-5.4800

> <Gold.Chemscore.Hbond>
1.8379

> <Gold.Chemscore.Metal>
0.0000

> <Gold.Chemscore.Lipo>
81.0274

> <Gold.Chemscore.Internal_Hbond>
0.0000

> <Gold.Chemscore.DEClash>
1.9114

> <Gold.Chemscore.DEInternal>
2.1021

> <Gold.Chemscore.Rot>
2.1716

> <Gold.Chemscore.Internal.Correction>
   9.000000E+99

> <Gold.Chemscore.Hbonds>
donor molecule, donor type, donor heavy atom, donor atom, acceptor molecule, acceptor atom, score
      L1  H     4    45       P1 10175  0.76
      L1  H    10    39       P1  8028  0.98
      P1  H  7989  7998       L1    12  0.02

> <Gold.Chemscore.Hbond.Weighted>
-6.1385

> <Gold.Chemscore.Metal.Weighted>
-0.0000

> <Gold.Chemscore.Lipo.Weighted>
-9.4802

> <Gold.Chemscore.Internal_Hbond.Weighted>
0.0000

> <Gold.Chemscore.DEClash.Weighted>
1.9114

> <Gold.Chemscore.DEInternal.Weighted>
2.1021

> <Gold.Chemscore.Rot.Weighted>
5.5592

> <Gold.Chemscore.Internal.Correction.Weighted>
   9.000000E+99

> <Gold.Protein.RotatedTorsions>
[ 6907 6896 6895 6894 ] final  -14.70 input  -60.11 | X-H torsion
[ 7974 7965 7964 7962 ] final   58.25 input  175.53 | X-H torsion
[ 8008 7997 7996 7995 ] final  142.23 input   59.86 | X-H torsion
[ 10167 10162 10161 10158 ] final -106.79 input  -65.29 | X-H torsion
[ 10718 10713 10712 10709 ] final  -62.05 input   66.30 | X-H torsion
[ 10763 10752 10751 10750 ] final   64.44 input  -60.55 | X-H torsion
[ 11005 11000 10999 10996 ] final   21.53 input  -57.11 | X-H torsion

> <Gold.Protein.ActiveResidues>
 VAL166  LYS551  ARG553  GLY616  TRP617  ASP618  TYR619  PRO620  LYS621  CYS622 
 ASP623  PHE694  ASN695  SER759  ASP760  ASP761  ALA762  ILE779  LEU786  VAL792 
 PHE793  MET794  SER795  GLU796  ALA797  LYS798  CYS799  TRP800  GLU811  SER814 

> <Gold.Protein.RotatedAtoms>
  151.3353  135.0851  159.9352 H   0  0  0  0  0  0  0  0  0  0  0  0  # atno 6907 bound_to 6896
  152.5224  133.9501  159.7678 H   0  0  0  0  0  0  0  0  0  0  0  0  # atno 6908 bound_to 6896
  150.9848  133.6156  159.2747 H   0  0  0  0  0  0  0  0  0  0  0  0  # atno 6909 bound_to 6896
  145.9203  139.3724  143.0482 H   0  0  0  0  0  0  0  0  0  0  0  0  # atno 7974 bound_to 7965
  156.2953  140.2294  156.4695 H   0  0  0  0  0  0  0  0  0  0  0  0  # atno 8008 bound_to 7997
  154.7948  140.0452  157.1249 H   0  0  0  0  0  0  0  0  0  0  0  0  # atno 8009 bound_to 7997
  154.9603  140.3053  155.5037 H   0  0  0  0  0  0  0  0  0  0  0  0  # atno 8010 bound_to 7997
  140.1840  143.3944  152.1259 H   0  0  0  0  0  0  0  0  0  0  0  0  # atno 10167 bound_to 10162
  156.0880  130.4205  150.1081 H   0  0  0  0  0  0  0  0  0  0  0  0  # atno 10718 bound_to 10713
  153.0056  135.5393  154.6510 H   0  0  0  0  0  0  0  0  0  0  0  0  # atno 10763 bound_to 10752
  154.5742  135.2844  155.0799 H   0  0  0  0  0  0  0  0  0  0  0  0  # atno 10764 bound_to 10752
  154.1953  135.6493  153.5124 H   0  0  0  0  0  0  0  0  0  0  0  0  # atno 10765 bound_to 10752
  140.3906  134.1824  155.7662 H   0  0  0  0  0  0  0  0  0  0  0  0  # atno 11005 bound_to 11000
  145.8559  140.9503  143.0725 LP  0  0  0  0  0  0  0  0  0  0  0  0  # atno 17320 bound_to 7965
  144.6752  140.0467  143.7479 LP  0  0  0  0  0  0  0  0  0  0  0  0  # atno 17321 bound_to 7965
  139.5284  144.7130  151.5145 LP  0  0  0  0  0  0  0  0  0  0  0  0  # atno 17342 bound_to 10162
  140.6501  143.8715  150.6776 LP  0  0  0  0  0  0  0  0  0  0  0  0  # atno 17343 bound_to 10162
  156.9097  130.9648  151.3565 LP  0  0  0  0  0  0  0  0  0  0  0  0  # atno 17370 bound_to 10713
  157.6021  130.8520  149.8818 LP  0  0  0  0  0  0  0  0  0  0  0  0  # atno 17371 bound_to 10713
  141.1892  133.8243  157.0965 LP  0  0  0  0  0  0  0  0  0  0  0  0  # atno 17394 bound_to 11000
  140.0410  134.9854  157.0961 LP  0  0  0  0  0  0  0  0  0  0  0  0  # atno 17395 bound_to 11000

$$$$
