#       Name:                AV-unprocessed.smi:1400
#       Creating user name   scv26
#       Creation time:       Fri Mar 27 05:31:25 2020


#       File generated by GOLD software.
#

@<TRIPOS>MOLECULE
AV-unprocessed.smi:1400
    39    40     1
SMALL
NO_CHARGES


@<TRIPOS>ATOM
      1 ****        -3.7199  -3.0274  -0.7736 C.3            1 S1                 0.0000
      2 ****        -3.2367  -2.5970   0.6133 C.2            1 S1                 0.0000
      3 ****        -3.3169  -3.4131   1.5318 O.2            1 S1                 0.0000
      4 ****        -2.7387  -1.3485   0.7837 N.am           1 S1                 0.0000
      5 ****        -2.1767  -0.8850   2.0579 C.3            1 S1                 0.0000
      6 ****        -0.6534  -0.7258   1.9018 C.3            1 S1                 0.0000
      7 ****        -0.3047   0.2255   0.7372 C.3            1 S1                 0.0000
      8 ****         1.1383   0.2164   0.5105 N.am           1 S1                 0.0000
      9 ****         1.8541   1.1960  -0.0612 C.2            1 S1                 0.0000
     10 ****         1.2912   2.2196  -0.4565 O.2            1 S1                 0.0000
     11 ****         3.1779   0.9289  -0.1390 N.pl3          1 S1                -1.0000
     12 ****         4.0135   1.8265  -0.6869 C.2            1 S1                 0.0000
     13 ****         4.4825   1.7186  -1.9354 N.2            1 S1                 0.0000
     14 ****         5.3402   2.7588  -2.2983 C.2            1 S1                 0.0000
     15 ****         5.5358   3.6759  -1.2999 C.2            1 S1                 0.0000
     16 ****         4.6446   3.2567   0.1354 S.3            1 S1                 0.0000
     17 ****        -1.0642  -0.1639  -0.5518 C.3            1 S1                 0.0000
     18 ****        -2.5674  -0.3491  -0.2788 C.3            1 S1                 0.0000
     19 ****        -2.9162  -2.9461  -1.5061 H              1 S1                 0.0000
     20 ****        -4.5602  -2.4130  -1.0977 H              1 S1                 0.0000
     21 ****        -4.0526  -4.0659  -0.7593 H              1 S1                 0.0000
     22 ****        -2.6282   0.0713   2.3260 H              1 S1                 0.0000
     23 ****        -2.3949  -1.5589   2.8873 H              1 S1                 0.0000
     24 ****        -0.2207  -0.3538   2.8312 H              1 S1                 0.0000
     25 ****        -0.2087  -1.7064   1.7245 H              1 S1                 0.0000
     26 ****        -0.6138   1.2306   1.0307 H              1 S1                 0.0000
     27 ****         1.6416  -0.6032   0.8163 H              1 S1                 0.0000
     28 ****         5.7680   2.7664  -3.2898 H              1 S1                 0.0000
     29 ****         6.1465   4.5657  -1.3195 H              1 S1                 0.0000
     30 ****        -0.9190   0.5971  -1.3193 H              1 S1                 0.0000
     31 ****        -0.6559  -1.0915  -0.9561 H              1 S1                 0.0000
     32 ****        -3.0832  -0.6007  -1.2042 H              1 S1                 0.0000
     33 ****        -3.0035   0.5962   0.0473 H              1 S1                 0.0000
     34 ****        -3.6890  -4.3251   1.3592 LP             1 S1                 0.0000
     35 ****        -3.0099  -3.1639   2.4503 LP             1 S1                 0.0000
     36 ****         0.3018   2.3187  -0.3507 LP             1 S1                 0.0000
     37 ****         1.8242   2.9504  -0.8829 LP             1 S1                 0.0000
     38 ****         3.5346   0.0629   0.2115 LP             1 S1                 0.0000
     39 ****         4.2422   0.9662  -2.5488 LP             1 S1                 0.0000
@<TRIPOS>BOND
    1    1    2 1     
    2    1   19 1     
    3    1   20 1     
    4    1   21 1     
    5    2    3 2     
    6    2    4 am    
    7    4   18 1     
    8    4    5 1     
    9    5    6 1     
   10    5   22 1     
   11    5   23 1     
   12    6    7 1     
   13    6   24 1     
   14    6   25 1     
   15    7    8 1     
   16    7   17 1     
   17    7   26 1     
   18    8    9 am    
   19    8   27 1     
   20    9   10 2     
   21    9   11 1     
   22   11   12 1     
   23   12   16 1     
   24   12   13 2     
   25   13   14 1     
   26   14   15 2     
   27   14   28 1     
   28   15   16 1     
   29   15   29 1     
   30   17   18 1     
   31   17   30 1     
   32   17   31 1     
   33   18   32 1     
   34   18   33 1     
   35    3   34 1     
   36    3   35 1     
   37   10   36 1     
   38   10   37 1     
   39   11   38 1     
   40   13   39 1     
@<TRIPOS>SUBSTRUCTURE
      1 S1             1
@<TRIPOS>SET
LONE_PAIRS      STATIC     ATOMS    <user>   **** ""
6 34 35 36 37 38 39
DONOR_HYDROGENS      STATIC     ATOMS    <user>   **** ""
1 27
ATOM$BLUE        STATIC     ATOMS    COLORGROUP SYSTEM
6 34 35 36 37 38 39
ATOM$RED        STATIC     ATOMS    COLORGROUP SYSTEM
1 27
