AV-unprocessed.smi:1414|AV-procd|sdf|5760|dock7
  -GOLD-   22720 5393D 1   1.00000     0.00000
 Structure written by MMmdl.
 45 46  0  0  0  0  0  0  0  0  1 V2000
  150.7560  140.8969  157.4068 C   0  0  0  0  0  0  0  0  0  0  0  0
  150.9581  141.2320  155.9192 C   0  0  2  0  0  0  0  0  0  0  0  0
  149.6740  141.6765  155.1789 C   0  0  0  0  0  0  0  0  0  0  0  0
  148.9062  140.5536  154.6095 N   0  0  0  0  0  0  0  0  0  0  0  0
  147.2117  140.3556  154.9414 S   0  0  0  0  0  0  0  0  0  0  0  0
  147.0275  140.5161  156.3919 O   0  0  0  0  0  0  0  0  0  0  0  0
  146.4701  141.2175  154.0077 O   0  0  0  0  0  0  0  0  0  0  0  0
  146.8844  138.5904  154.5136 C   0  0  0  0  0  0  0  0  0  0  0  0
  146.1861  138.4468  153.1514 C   0  0  0  0  0  0  0  0  0  0  0  0
  146.5046  137.1728  152.5185 N   0  0  0  0  0  0  0  0  0  0  0  0
  145.6415  136.1617  152.3490 C   0  0  0  0  0  0  0  0  0  0  0  0
  144.4696  136.1993  152.7223 O   0  0  0  0  0  0  0  0  0  0  0  0
  146.2303  135.1149  151.7465 N   0  0  0  0  0  0  0  0  0  0  0  0
  145.6422  133.8843  151.3499 C   0  0  0  0  0  0  0  0  0  0  0  0
  144.2384  133.7684  151.4121 C   0  0  0  0  0  0  0  0  0  0  0  0
  143.6339  132.5509  151.0465 C   0  0  0  0  0  0  0  0  0  0  0  0
  144.4625  131.4878  150.6393 C   0  0  0  0  0  0  0  0  0  0  0  0
  145.8084  131.5764  150.5882 N   0  0  0  0  0  0  0  0  0  0  0  0
  146.3818  132.7478  150.9385 C   0  0  0  0  0  0  0  0  0  0  0  0
  149.6956  139.4670  154.0141 C   0  0  0  0  0  0  0  0  0  0  0  0
  150.8370  139.0472  154.9505 C   0  0  1  0  0  0  0  0  0  0  0  0
  151.7334  137.9765  154.3198 C   0  0  0  0  0  0  0  0  0  0  0  0
  151.6405  140.1856  155.2332 O   0  0  0  0  0  0  0  0  0  0  0  0
  150.3003  141.7336  157.9366 H   0  0  0  0  0  0  0  0  0  0  0  0
  151.7126  140.6877  157.8860 H   0  0  0  0  0  0  0  0  0  0  0  0
  150.1217  140.0285  157.5606 H   0  0  0  0  0  0  0  0  0  0  0  0
  151.6391  142.0835  155.9015 H   0  0  0  0  0  0  0  0  0  0  0  0
  149.0459  142.2789  155.8347 H   0  0  0  0  0  0  0  0  0  0  0  0
  149.9554  142.3259  154.3493 H   0  0  0  0  0  0  0  0  0  0  0  0
  147.8209  138.0406  154.5629 H   0  0  0  0  0  0  0  0  0  0  0  0
  146.2385  138.1863  155.2931 H   0  0  0  0  0  0  0  0  0  0  0  0
  145.1047  138.4953  153.2798 H   0  0  0  0  0  0  0  0  0  0  0  0
  146.4549  139.2685  152.4879 H   0  0  0  0  0  0  0  0  0  0  0  0
  147.4515  137.0515  152.1900 H   0  0  0  0  0  0  0  0  0  0  0  0
  147.2244  135.1918  151.5897 H   0  0  0  0  0  0  0  0  0  0  0  0
  143.6292  134.6014  151.7318 H   0  0  0  0  0  0  0  0  0  0  0  0
  142.5608  132.4342  151.0789 H   0  0  0  0  0  0  0  0  0  0  0  0
  144.0331  130.5393  150.3524 H   0  0  0  0  0  0  0  0  0  0  0  0
  147.4602  132.7497  150.9051 H   0  0  0  0  0  0  0  0  0  0  0  0
  149.0573  138.6139  153.7864 H   0  0  0  0  0  0  0  0  0  0  0  0
  150.1004  139.8168  153.0639 H   0  0  0  0  0  0  0  0  0  0  0  0
  150.4269  138.6370  155.8717 H   0  0  0  0  0  0  0  0  0  0  0  0
  151.1642  137.0756  154.0892 H   0  0  0  0  0  0  0  0  0  0  0  0
  152.5392  137.6949  154.9981 H   0  0  0  0  0  0  0  0  0  0  0  0
  152.1858  138.3337  153.3943 H   0  0  0  0  0  0  0  0  0  0  0  0
  1  2  1  0  0  0  0
  1 24  1  0  0  0  0
  1 25  1  0  0  0  0
  1 26  1  0  0  0  0
  2 23  1  0  0  0  0
  2  3  1  0  0  0  0
  2 27  1  0  0  0  0
  3  4  1  0  0  0  0
  3 28  1  0  0  0  0
  3 29  1  0  0  0  0
  4  5  1  0  0  0  0
  4 20  1  0  0  0  0
  5  6  2  0  0  0  0
  5  7  2  0  0  0  0
  5  8  1  0  0  0  0
  8  9  1  0  0  0  0
  8 30  1  0  0  0  0
  8 31  1  0  0  0  0
  9 10  1  0  0  0  0
  9 32  1  0  0  0  0
  9 33  1  0  0  0  0
 10 11  1  0  0  0  0
 10 34  1  0  0  0  0
 11 12  2  0  0  0  0
 11 13  1  0  0  0  0
 13 14  1  0  0  0  0
 13 35  1  0  0  0  0
 14 19  1  0  0  0  0
 14 15  2  0  0  0  0
 15 16  1  0  0  0  0
 15 36  1  0  0  0  0
 16 17  2  0  0  0  0
 16 37  1  0  0  0  0
 17 18  1  0  0  0  0
 17 38  1  0  0  0  0
 18 19  2  0  0  0  0
 19 39  1  0  0  0  0
 20 21  1  0  0  0  0
 20 40  1  0  0  0  0
 20 41  1  0  0  0  0
 21 22  1  0  0  0  0
 21 23  1  0  0  0  0
 21 42  1  0  0  0  0
 22 43  1  0  0  0  0
 22 44  1  0  0  0  0
 22 45  1  0  0  0  0
M  END
> <s_m_source_file>
AV-unprocessed.smi

> <i_m_source_file_index>
1414

> <i_lp_mmshare_version>
43012

> <i_f3d_flags>
0

> <s_epik_input>
W0NIM11bQ0BASF0xW0NIMl1OKFtDSDJdW0NASF0oTzEpW0NIM10pUyg9TykoPU8pW0NIMl1bQ0gyXVtOSF1DKD1PKVtOSF1jMltjSF1bY0hdW2NIXW5bY0hdMg==

> <s_epik_cmdline>
J2VwaWtfcHl0aG9uJywgJy1waCcsICc3LjAnLCAnLXRuJywgJzgnLCAnLW1hJywgJzIwMCcsICctbWV0YWxfYmluZGluZycsICctaW1hZScsICc8aW5maWxlLm1hZT4nLCAnLW9tYWUnLCAnPG91dGZpbGUubWFlPic=

> <r_epik_Ionization_Penalty>
0.00437531

> <r_epik_Ionization_Penalty_Charging>
0

> <r_epik_Ionization_Penalty_Neutral>
0.00437531

> <r_epik_State_Penalty>
0.00312896

> <r_epik_Charging_Adjusted_Penalty>
0.00312896

> <i_epik_Tot_Q>
0

> <i_epik_Tot_abs_Q>
0

> <r_epik_Metal_State_Penalty>
-0

> <b_epik_Metal_Only>
0

> <s_lp_Force_Field>
OPLS_2005

> <r_lp_Energy>
6.94025

> <b_lp_Chiralities_Consistent>
1

> <s_lp_Variant>
AV-unprocessed.smi:1414-1

> <Gold.Version>
5.8.1

> <Gold.Id.Protein>
6NUR|6NUR_protein|mol2

> <Gold.PLP.Fitness>
48.5001

> <Gold.PLP.PLP>
-38.7544

> <Gold.PLP.part.hbond>
-3.0000

> <Gold.PLP.part.metal>
0.0000

> <Gold.PLP.part.buried>
-4.9182

> <Gold.PLP.part.nonpolar>
-31.6735

> <Gold.PLP.part.repulsive>
0.5550

> <Gold.PLP.ligand.clash>
0.0000

> <Gold.PLP.ligand.torsion>
1.8162

> <Gold.PLP.Chemscore.Hbond>
2.7646

> <Gold.PLP.Chemscore.CHOScore>
0.9904

> <Gold.PLP.Chemscore.Metal>
0.0000

> <Gold.Chemscore.Hbonds>
donor molecule, donor type, donor heavy atom, donor atom, acceptor molecule, acceptor atom, score
      L1  H    10    34       P1  7948  1.00
      L1  H    13    35       P1  7948  1.00
      P1  H  7989  7998       L1    23  0.80
      L1  C    19    39       P1 10747  0.96

> <Gold.PLP.Chemscore.Internal.Correction>
2.1129

> <Gold.Rescore>
     Score         DG    S(hbond)    S(metal)    S(lipo)     H(rot)  DE(clash)    DE(int)     intcor
     14.96     -18.28       1.94        0.00      88.41       1.57       0.12       3.19       ----

> <Gold.Chemscore.Fitness>
14.9615

> <Gold.Chemscore.DG>
-18.2791

> <Gold.Chemscore.ZeroCoef>
-5.4800

> <Gold.Chemscore.Hbond>
1.9375

> <Gold.Chemscore.Metal>
0.0000

> <Gold.Chemscore.Lipo>
88.4092

> <Gold.Chemscore.Internal_Hbond>
0.0000

> <Gold.Chemscore.DEClash>
0.1229

> <Gold.Chemscore.DEInternal>
3.1946

> <Gold.Chemscore.Rot>
1.5687

> <Gold.Chemscore.Internal.Correction>
   9.000000E+99

> <Gold.Chemscore.Hbonds>
donor molecule, donor type, donor heavy atom, donor atom, acceptor molecule, acceptor atom, score
      L1  H    10    34       P1  7948  0.99
      L1  H    13    35       P1  7948  0.83
      P1  H  7989  7998       L1    23  0.03

> <Gold.Chemscore.Hbond.Weighted>
-6.4712

> <Gold.Chemscore.Metal.Weighted>
-0.0000

> <Gold.Chemscore.Lipo.Weighted>
-10.3439

> <Gold.Chemscore.Internal_Hbond.Weighted>
0.0000

> <Gold.Chemscore.DEClash.Weighted>
0.1229

> <Gold.Chemscore.DEInternal.Weighted>
3.1946

> <Gold.Chemscore.Rot.Weighted>
4.0160

> <Gold.Chemscore.Internal.Correction.Weighted>
   9.000000E+99

> <Gold.Protein.RotatedTorsions>
[ 6907 6896 6895 6894 ] final  129.10 input  -60.11 | X-H torsion
[ 7974 7965 7964 7962 ] final   35.49 input  175.53 | X-H torsion
[ 8008 7997 7996 7995 ] final  116.37 input   59.86 | X-H torsion
[ 10167 10162 10161 10158 ] final   -8.75 input  -65.29 | X-H torsion
[ 10718 10713 10712 10709 ] final  -92.23 input   66.30 | X-H torsion
[ 10763 10752 10751 10750 ] final  104.29 input  -60.55 | X-H torsion
[ 11005 11000 10999 10996 ] final   88.93 input  -57.11 | X-H torsion

> <Gold.Protein.ActiveResidues>
 VAL166  LYS551  ARG553  GLY616  TRP617  ASP618  TYR619  PRO620  LYS621  CYS622 
 ASP623  PHE694  ASN695  SER759  ASP760  ASP761  ALA762  ILE779  LEU786  VAL792 
 PHE793  MET794  SER795  GLU796  ALA797  LYS798  CYS799  TRP800  GLU811  SER814 

> <Gold.Protein.RotatedAtoms>
  152.3656  133.6352  159.6047 H   0  0  0  0  0  0  0  0  0  0  0  0  # atno 6907 bound_to 6896
  150.7632  133.9353  159.3448 H   0  0  0  0  0  0  0  0  0  0  0  0  # atno 6908 bound_to 6896
  151.7184  135.0900  160.0331 H   0  0  0  0  0  0  0  0  0  0  0  0  # atno 6909 bound_to 6896
  146.1279  139.6136  142.9246 H   0  0  0  0  0  0  0  0  0  0  0  0  # atno 7974 bound_to 7965
  156.2435  140.2919  156.0513 H   0  0  0  0  0  0  0  0  0  0  0  0  # atno 8008 bound_to 7997
  155.1878  140.0406  157.2912 H   0  0  0  0  0  0  0  0  0  0  0  0  # atno 8009 bound_to 7997
  154.6215  140.2477  155.7550 H   0  0  0  0  0  0  0  0  0  0  0  0  # atno 8010 bound_to 7997
  140.7068  143.5934  150.8870 H   0  0  0  0  0  0  0  0  0  0  0  0  # atno 10167 bound_to 10162
  156.0000  130.4979  150.5594 H   0  0  0  0  0  0  0  0  0  0  0  0  # atno 10718 bound_to 10713
  153.3640  135.3948  155.1739 H   0  0  0  0  0  0  0  0  0  0  0  0  # atno 10763 bound_to 10752
  154.8684  135.3686  154.5063 H   0  0  0  0  0  0  0  0  0  0  0  0  # atno 10764 bound_to 10752
  153.5525  135.7082  153.5645 H   0  0  0  0  0  0  0  0  0  0  0  0  # atno 10765 bound_to 10752
  139.8886  134.8519  156.3069 H   0  0  0  0  0  0  0  0  0  0  0  0  # atno 11005 bound_to 11000
  145.5324  141.0426  143.2375 LP  0  0  0  0  0  0  0  0  0  0  0  0  # atno 17320 bound_to 7965
  144.7661  139.6842  143.7214 LP  0  0  0  0  0  0  0  0  0  0  0  0  # atno 17321 bound_to 7965
  139.9660  143.6110  152.2988 LP  0  0  0  0  0  0  0  0  0  0  0  0  # atno 17342 bound_to 10162
  139.6680  144.7662  151.1836 LP  0  0  0  0  0  0  0  0  0  0  0  0  # atno 17343 bound_to 10162
  157.3505  131.0732  151.1717 LP  0  0  0  0  0  0  0  0  0  0  0  0  # atno 17370 bound_to 10713
  157.2535  130.6625  149.5942 LP  0  0  0  0  0  0  0  0  0  0  0  0  # atno 17371 bound_to 10713
  140.9876  133.7228  156.0765 LP  0  0  0  0  0  0  0  0  0  0  0  0  # atno 17394 bound_to 11000
  140.7668  134.3878  157.5515 LP  0  0  0  0  0  0  0  0  0  0  0  0  # atno 17395 bound_to 11000

$$$$
