AV-unprocessed.smi:340|AV-procd|sdf|2381|dock7
  -GOLD-   2262022303D 1   1.00000     0.00000
 Structure written by MMmdl.
 34 35  0  0  0  0  0  0  0  0  2 V2000
  149.7271  134.1739  154.5581 C   0  0  0  0  0  0  0  0  0  0  0  0
  150.3999  135.3755  155.7741 S   0  0  0  0  0  0  0  0  0  0  0  0
  149.2308  136.0579  156.3521 O   0  0  0  0  0  0  0  0  0  0  0  0
  151.2412  134.5895  156.6912 O   0  0  0  0  0  0  0  0  0  0  0  0
  151.2656  136.3350  154.7966 N   0  5  0  0  0  0  0  0  0  0  0  0
  150.7213  137.6228  154.4059 C   0  0  0  0  0  0  0  0  0  0  0  0
  151.0732  138.7072  155.4140 C   0  0  0  0  0  0  0  0  0  0  0  0
  150.0724  139.5247  155.9852 C   0  0  0  0  0  0  0  0  0  0  0  0
  150.4487  140.5146  156.9144 C   0  0  0  0  0  0  0  0  0  0  0  0
  151.8125  140.6537  157.2443 C   0  0  0  0  0  0  0  0  0  0  0  0
  152.1907  141.6337  158.1726 N   0  0  0  0  0  0  0  0  0  0  0  0
  151.9464  141.2455  159.5562 C   0  0  0  0  0  0  0  0  0  0  0  0
  152.4986  142.3199  160.5090 C   0  0  0  0  0  0  0  0  0  0  0  0
  151.9257  143.5848  160.1885 O   0  0  0  0  0  0  0  0  0  0  0  0
  152.2324  143.9894  158.8571 C   0  0  0  0  0  0  0  0  0  0  0  0
  151.6681  142.9592  157.8645 C   0  0  0  0  0  0  0  0  0  0  0  0
  152.7780  139.8752  156.7005 N   0  0  0  0  0  0  0  0  0  0  0  0
  152.4125  138.9274  155.8099 C   0  0  0  0  0  0  0  0  0  0  0  0
  149.1041  133.4464  155.0774 H   0  0  0  0  0  0  0  0  0  0  0  0
  150.5496  133.6596  154.0619 H   0  0  0  0  0  0  0  0  0  0  0  0
  149.1278  134.7031  153.8178 H   0  0  0  0  0  0  0  0  0  0  0  0
  151.0901  137.9391  153.4296 H   0  0  0  0  0  0  0  0  0  0  0  0
  149.6354  137.5897  154.3107 H   0  0  0  0  0  0  0  0  0  0  0  0
  149.0282  139.4080  155.7286 H   0  0  0  0  0  0  0  0  0  0  0  0
  149.7019  141.1510  157.3663 H   0  0  0  0  0  0  0  0  0  0  0  0
  150.8752  141.1202  159.7215 H   0  0  0  0  0  0  0  0  0  0  0  0
  152.4198  140.2843  159.7600 H   0  0  0  0  0  0  0  0  0  0  0  0
  152.2531  142.0695  161.5410 H   0  0  0  0  0  0  0  0  0  0  0  0
  153.5865  142.3750  160.4444 H   0  0  0  0  0  0  0  0  0  0  0  0
  151.7933  144.9698  158.6725 H   0  0  0  0  0  0  0  0  0  0  0  0
  153.3119  144.0947  158.7366 H   0  0  0  0  0  0  0  0  0  0  0  0
  151.9365  143.2341  156.8437 H   0  0  0  0  0  0  0  0  0  0  0  0
  150.5786  142.9511  157.9213 H   0  0  0  0  0  0  0  0  0  0  0  0
  153.2255  138.3350  155.4129 H   0  0  0  0  0  0  0  0  0  0  0  0
  1  2  1  0  0  0  0
  1 19  1  0  0  0  0
  1 20  1  0  0  0  0
  1 21  1  0  0  0  0
  2  3  2  0  0  0  0
  2  4  2  0  0  0  0
  2  5  1  0  0  0  0
  5  6  1  0  0  0  0
  6  7  1  0  0  0  0
  6 22  1  0  0  0  0
  6 23  1  0  0  0  0
  7 18  1  0  0  0  0
  7  8  2  0  0  0  0
  8  9  1  0  0  0  0
  8 24  1  0  0  0  0
  9 10  2  0  0  0  0
  9 25  1  0  0  0  0
 10 11  1  0  0  0  0
 10 17  1  0  0  0  0
 11 16  1  0  0  0  0
 11 12  1  0  0  0  0
 12 13  1  0  0  0  0
 12 26  1  0  0  0  0
 12 27  1  0  0  0  0
 13 14  1  0  0  0  0
 13 28  1  0  0  0  0
 13 29  1  0  0  0  0
 14 15  1  0  0  0  0
 15 16  1  0  0  0  0
 15 30  1  0  0  0  0
 15 31  1  0  0  0  0
 16 32  1  0  0  0  0
 16 33  1  0  0  0  0
 17 18  2  0  0  0  0
 18 34  1  0  0  0  0
M  CHG  1   5  -1
M  END
> <s_m_source_file>
AV-unprocessed.smi

> <i_m_source_file_index>
340

> <i_lp_mmshare_version>
43012

> <i_f3d_flags>
0

> <s_epik_input>
W0NIM11TKD1PKSg9TylbTkhdW0NIMl1jMVtjSF1bY0hdYyhuW2NIXTEpTjJbQ0gyXVtDSDJdT1tDSDJdW0NIMl0y

> <s_epik_cmdline>
J2VwaWtfcHl0aG9uJywgJy1waCcsICc3LjAnLCAnLXRuJywgJzgnLCAnLW1hJywgJzIwMCcsICctbWV0YWxfYmluZGluZycsICctaW1hZScsICc8aW5maWxlLm1hZT4nLCAnLW9tYWUnLCAnPG91dGZpbGUubWFlPic=

> <r_lp_tautomer_probability>
1

> <r_epik_Ionization_Penalty>
5.97683

> <r_epik_Ionization_Penalty_Charging>
5.90424

> <r_epik_Ionization_Penalty_Neutral>
0.0725937

> <r_epik_State_Penalty>
5.9092

> <r_epik_Charging_Adjusted_Penalty>
11.8134

> <i_epik_Tot_Q>
-1

> <i_epik_Tot_abs_Q>
1

> <r_epik_Metal_State_Penalty>
1.87112

> <b_epik_Metal_Only>
1

> <s_lp_Force_Field>
OPLS_2005

> <r_lp_Energy>
14.5027

> <b_lp_Chiralities_Consistent>
1

> <s_lp_Variant>
AV-unprocessed.smi:340-2

> <Gold.Version>
5.8.1

> <Gold.Id.Protein>
6NUR|6NUR_protein|mol2

> <Gold.PLP.Fitness>
38.6765

> <Gold.PLP.PLP>
-30.7097

> <Gold.PLP.part.hbond>
-2.1483

> <Gold.PLP.part.metal>
0.0000

> <Gold.PLP.part.buried>
-3.0740

> <Gold.PLP.part.nonpolar>
-24.9797

> <Gold.PLP.part.repulsive>
0.2304

> <Gold.PLP.ligand.clash>
0.0000

> <Gold.PLP.ligand.torsion>
1.0506

> <Gold.PLP.Chemscore.Hbond>
3.0000

> <Gold.PLP.Chemscore.CHOScore>
0.0000

> <Gold.PLP.Chemscore.Metal>
0.0000

> <Gold.Chemscore.Hbonds>
donor molecule, donor type, donor heavy atom, donor atom, acceptor molecule, acceptor atom, score
      P1  H  7997  8009       L1    17  1.00
      P1  H 10752 10764       L1     5  2.00

> <Gold.PLP.Chemscore.Internal.Correction>
1.0680

> <Gold.Rescore>
     Score         DG    S(hbond)    S(metal)    S(lipo)     H(rot)  DE(clash)    DE(int)     intcor
     15.49     -16.58       1.90        0.00      74.52       1.54       0.15       0.93       ----

> <Gold.Chemscore.Fitness>
15.4941

> <Gold.Chemscore.DG>
-16.5762

> <Gold.Chemscore.ZeroCoef>
-5.4800

> <Gold.Chemscore.Hbond>
1.8956

> <Gold.Chemscore.Metal>
0.0000

> <Gold.Chemscore.Lipo>
74.5245

> <Gold.Chemscore.Internal_Hbond>
0.0000

> <Gold.Chemscore.DEClash>
0.1494

> <Gold.Chemscore.DEInternal>
0.9328

> <Gold.Chemscore.Rot>
1.5448

> <Gold.Chemscore.Internal.Correction>
   9.000000E+99

> <Gold.Chemscore.Hbonds>
donor molecule, donor type, donor heavy atom, donor atom, acceptor molecule, acceptor atom, score
      P1  H  7997  8009       L1    17  0.54
      P1  H 10752 10764       L1     5  0.78

> <Gold.Chemscore.Hbond.Weighted>
-6.3314

> <Gold.Chemscore.Metal.Weighted>
-0.0000

> <Gold.Chemscore.Lipo.Weighted>
-8.7194

> <Gold.Chemscore.Internal_Hbond.Weighted>
0.0000

> <Gold.Chemscore.DEClash.Weighted>
0.1494

> <Gold.Chemscore.DEInternal.Weighted>
0.9328

> <Gold.Chemscore.Rot.Weighted>
3.9546

> <Gold.Chemscore.Internal.Correction.Weighted>
   9.000000E+99

> <Gold.Protein.RotatedTorsions>
[ 6907 6896 6895 6894 ] final  -94.62 input  -60.11 | X-H torsion
[ 7974 7965 7964 7962 ] final   40.82 input  175.53 | X-H torsion
[ 8008 7997 7996 7995 ] final -169.09 input   59.86 | X-H torsion
[ 10167 10162 10161 10158 ] final  140.29 input  -65.29 | X-H torsion
[ 10718 10713 10712 10709 ] final  178.09 input   66.30 | X-H torsion
[ 10763 10752 10751 10750 ] final  -67.42 input  -60.55 | X-H torsion
[ 11005 11000 10999 10996 ] final  135.46 input  -57.11 | X-H torsion

> <Gold.Protein.ActiveResidues>
 VAL166  LYS551  ARG553  GLY616  TRP617  ASP618  TYR619  PRO620  LYS621  CYS622 
 ASP623  PHE694  ASN695  SER759  ASP760  ASP761  ALA762  ILE779  LEU786  VAL792 
 PHE793  MET794  SER795  GLU796  ALA797  LYS798  CYS799  TRP800  GLU811  SER814 

> <Gold.Protein.RotatedAtoms>
  150.6946  134.1783  159.4238 H   0  0  0  0  0  0  0  0  0  0  0  0  # atno 6907 bound_to 6896
  151.9759  135.0051  160.0564 H   0  0  0  0  0  0  0  0  0  0  0  0  # atno 6908 bound_to 6896
  152.1799  133.4665  159.4990 H   0  0  0  0  0  0  0  0  0  0  0  0  # atno 6909 bound_to 6896
  146.0874  139.5488  142.9498 H   0  0  0  0  0  0  0  0  0  0  0  0  # atno 7974 bound_to 7965
  155.9003  140.1040  157.1355 H   0  0  0  0  0  0  0  0  0  0  0  0  # atno 8008 bound_to 7997
  154.4025  140.1294  156.4492 H   0  0  0  0  0  0  0  0  0  0  0  0  # atno 8009 bound_to 7997
  155.7430  140.3466  155.5116 H   0  0  0  0  0  0  0  0  0  0  0  0  # atno 8010 bound_to 7997
  139.5053  144.6243  151.5976 H   0  0  0  0  0  0  0  0  0  0  0  0  # atno 10167 bound_to 10162
  156.8957  130.9862  151.3043 H   0  0  0  0  0  0  0  0  0  0  0  0  # atno 10718 bound_to 10713
  154.3742  135.6088  153.5756 H   0  0  0  0  0  0  0  0  0  0  0  0  # atno 10763 bound_to 10752
  152.9789  135.5845  154.4486 H   0  0  0  0  0  0  0  0  0  0  0  0  # atno 10764 bound_to 10752
  154.4245  135.2846  155.1931 H   0  0  0  0  0  0  0  0  0  0  0  0  # atno 10765 bound_to 10752
  139.9981  134.9489  157.0011 H   0  0  0  0  0  0  0  0  0  0  0  0  # atno 11005 bound_to 11000
  145.6104  141.0340  143.1969 LP  0  0  0  0  0  0  0  0  0  0  0  0  # atno 17320 bound_to 7965
  144.7335  139.7654  143.7338 LP  0  0  0  0  0  0  0  0  0  0  0  0  # atno 17321 bound_to 7965
  140.5955  143.9704  150.6351 LP  0  0  0  0  0  0  0  0  0  0  0  0  # atno 17342 bound_to 10162
  140.2899  143.3331  152.1072 LP  0  0  0  0  0  0  0  0  0  0  0  0  # atno 17343 bound_to 10162
  157.6056  130.8545  149.8871 LP  0  0  0  0  0  0  0  0  0  0  0  0  # atno 17370 bound_to 10713
  156.0607  130.3700  150.0990 LP  0  0  0  0  0  0  0  0  0  0  0  0  # atno 17371 bound_to 10713
  140.4779  134.1319  155.7212 LP  0  0  0  0  0  0  0  0  0  0  0  0  # atno 17394 bound_to 11000
  141.1621  133.8774  157.1820 LP  0  0  0  0  0  0  0  0  0  0  0  0  # atno 17395 bound_to 11000

$$$$
