AV-unprocessed.smi:1325|AV-procd|sdf|5473|dock10
  -GOLD-   22720 5 43D 1   1.00000     0.00000
 Structure written by MMmdl.
 35 36  0  0  0  0  0  0  0  0  1 V2000
  152.4511  138.7253  154.4905 C   0  0  0  0  0  0  0  0  0  0  0  0
  151.5324  138.8449  155.6765 C   0  0  0  0  0  0  0  0  0  0  0  0
  151.1535  140.0375  155.9998 N   0  0  0  0  0  0  0  0  0  0  0  0
  150.3147  140.2598  157.0737 N   0  0  0  0  0  0  0  0  0  0  0  0
  149.9913  141.6752  157.2934 C   0  0  0  0  0  0  0  0  0  0  0  0
  151.2297  142.5898  157.1666 C   0  0  1  0  0  0  0  0  0  0  0  0
  150.9871  143.5458  156.1527 O   0  0  0  0  0  0  0  0  0  0  0  0
  151.5485  143.2622  158.4934 C   0  0  0  0  0  0  0  0  0  0  0  0
  151.5030  144.6688  158.6164 C   0  0  0  0  0  0  0  0  0  0  0  0
  151.7914  145.2837  159.8502 C   0  0  0  0  0  0  0  0  0  0  0  0
  152.1258  144.4965  160.9686 C   0  0  0  0  0  0  0  0  0  0  0  0
  152.1697  143.0937  160.8530 C   0  0  0  0  0  0  0  0  0  0  0  0
  151.8806  142.4783  159.6194 C   0  0  0  0  0  0  0  0  0  0  0  0
  149.8114  139.2828  157.8811 C   0  0  0  0  0  0  0  0  0  0  0  0
  149.0685  139.5271  158.8332 O   0  0  0  0  0  0  0  0  0  0  0  0
  150.2412  137.9333  157.5073 C   0  0  0  0  0  0  0  0  0  0  0  0
  149.7357  136.8795  158.3265 C   0  0  0  0  0  0  0  0  0  0  0  0
  149.3405  136.0280  159.0040 N   0  0  0  0  0  0  0  0  0  0  0  0
  151.0645  137.7021  156.4543 C   0  0  0  0  0  0  0  0  0  0  0  0
  151.5410  136.3211  156.0249 C   0  0  0  0  0  0  0  0  0  0  0  0
  153.3839  138.2361  154.7705 H   0  0  0  0  0  0  0  0  0  0  0  0
  152.7052  139.7005  154.0723 H   0  0  0  0  0  0  0  0  0  0  0  0
  151.9858  138.1384  153.6986 H   0  0  0  0  0  0  0  0  0  0  0  0
  149.2005  142.0076  156.6176 H   0  0  0  0  0  0  0  0  0  0  0  0
  149.5659  141.7762  158.2938 H   0  0  0  0  0  0  0  0  0  0  0  0
  152.0992  142.0054  156.8633 H   0  0  0  0  0  0  0  0  0  0  0  0
  150.0846  143.8198  156.2110 H   0  0  0  0  0  0  0  0  0  0  0  0
  151.2442  145.2805  157.7644 H   0  0  0  0  0  0  0  0  0  0  0  0
  151.7553  146.3596  159.9384 H   0  0  0  0  0  0  0  0  0  0  0  0
  152.3469  144.9682  161.9147 H   0  0  0  0  0  0  0  0  0  0  0  0
  152.4242  142.4892  161.7111 H   0  0  0  0  0  0  0  0  0  0  0  0
  151.9140  141.4013  159.5423 H   0  0  0  0  0  0  0  0  0  0  0  0
  151.1173  135.5282  156.6403 H   0  0  0  0  0  0  0  0  0  0  0  0
  152.6265  136.2509  156.1012 H   0  0  0  0  0  0  0  0  0  0  0  0
  151.2543  136.1206  154.9923 H   0  0  0  0  0  0  0  0  0  0  0  0
  1  2  1  0  0  0  0
  1 21  1  0  0  0  0
  1 22  1  0  0  0  0
  1 23  1  0  0  0  0
  2 19  1  0  0  0  0
  2  3  2  0  0  0  0
  3  4  1  0  0  0  0
  4  5  1  0  0  0  0
  4 14  1  0  0  0  0
  5  6  1  0  0  0  0
  5 24  1  0  0  0  0
  5 25  1  0  0  0  0
  6  7  1  0  0  0  0
  6  8  1  0  0  0  0
  6 26  1  0  0  0  0
  7 27  1  0  0  0  0
  8 13  1  0  0  0  0
  8  9  2  0  0  0  0
  9 10  1  0  0  0  0
  9 28  1  0  0  0  0
 10 11  2  0  0  0  0
 10 29  1  0  0  0  0
 11 12  1  0  0  0  0
 11 30  1  0  0  0  0
 12 13  2  0  0  0  0
 12 31  1  0  0  0  0
 13 32  1  0  0  0  0
 14 15  2  0  0  0  0
 14 16  1  0  0  0  0
 16 17  1  0  0  0  0
 16 19  2  0  0  0  0
 17 18  3  0  0  0  0
 19 20  1  0  0  0  0
 20 33  1  0  0  0  0
 20 34  1  0  0  0  0
 20 35  1  0  0  0  0
M  END
> <s_m_source_file>
AV-unprocessed.smi

> <i_m_source_file_index>
1325

> <i_lp_mmshare_version>
43012

> <i_f3d_flags>
0

> <s_epik_input>
TiNDYyhjMVtDSDNdKWMoPU8pbihuYzFbQ0gzXSlbQ0gyXVtDQEhdKFtPSF0pYzJbY0hdW2NIXVtjSF1bY0hdW2NIXTI=

> <s_epik_cmdline>
J2VwaWtfcHl0aG9uJywgJy1waCcsICc3LjAnLCAnLXRuJywgJzgnLCAnLW1hJywgJzIwMCcsICctbWV0YWxfYmluZGluZycsICctaW1hZScsICc8aW5maWxlLm1hZT4nLCAnLW9tYWUnLCAnPG91dGZpbGUubWFlPic=

> <r_lp_tautomer_probability>
1

> <r_epik_Ionization_Penalty>
7.1854e-08

> <r_epik_Ionization_Penalty_Charging>
1.40848e-10

> <r_epik_Ionization_Penalty_Neutral>
7.17131e-08

> <r_epik_State_Penalty>
-0

> <r_epik_Charging_Adjusted_Penalty>
1.40848e-10

> <i_epik_Tot_Q>
0

> <i_epik_Tot_abs_Q>
0

> <r_epik_Metal_State_Penalty>
-0

> <b_epik_Metal_Only>
0

> <s_lp_Force_Field>
OPLS_2005

> <r_lp_Energy>
28.0712

> <b_lp_Chiralities_Consistent>
1

> <s_lp_Variant>
AV-unprocessed.smi:1325-2

> <Gold.Version>
5.8.1

> <Gold.Id.Protein>
6NUR|6NUR_protein|mol2

> <Gold.PLP.Fitness>
40.3934

> <Gold.PLP.PLP>
-36.3999

> <Gold.PLP.part.hbond>
-3.8341

> <Gold.PLP.part.metal>
0.0000

> <Gold.PLP.part.buried>
-1.2300

> <Gold.PLP.part.nonpolar>
-31.2004

> <Gold.PLP.part.repulsive>
0.0000

> <Gold.PLP.ligand.clash>
0.0000

> <Gold.PLP.ligand.torsion>
0.9692

> <Gold.PLP.Chemscore.Hbond>
1.9760

> <Gold.PLP.Chemscore.CHOScore>
0.0000

> <Gold.PLP.Chemscore.Metal>
0.0000

> <Gold.Chemscore.Hbonds>
donor molecule, donor type, donor heavy atom, donor atom, acceptor molecule, acceptor atom, score
      L1  H     7    27       P1  8028  0.98
      P1  H  6896  6909       L1    18  0.94

> <Gold.PLP.Chemscore.Internal.Correction>
0.0039

> <Gold.Rescore>
     Score         DG    S(hbond)    S(metal)    S(lipo)     H(rot)  DE(clash)    DE(int)     intcor
     17.22     -19.55       1.85        0.00     109.13       1.90       1.33       1.00       ----

> <Gold.Chemscore.Fitness>
17.2186

> <Gold.Chemscore.DG>
-19.5477

> <Gold.Chemscore.ZeroCoef>
-5.4800

> <Gold.Chemscore.Hbond>
1.8491

> <Gold.Chemscore.Metal>
0.0000

> <Gold.Chemscore.Lipo>
109.1253

> <Gold.Chemscore.Internal_Hbond>
0.0000

> <Gold.Chemscore.DEClash>
1.3321

> <Gold.Chemscore.DEInternal>
0.9971

> <Gold.Chemscore.Rot>
1.9047

> <Gold.Chemscore.Internal.Correction>
   9.000000E+99

> <Gold.Chemscore.Hbonds>
donor molecule, donor type, donor heavy atom, donor atom, acceptor molecule, acceptor atom, score
      L1  H     7    27       P1  8028  0.90
      P1  H  6896  6909       L1    18  0.84

> <Gold.Chemscore.Hbond.Weighted>
-6.1761

> <Gold.Chemscore.Metal.Weighted>
-0.0000

> <Gold.Chemscore.Lipo.Weighted>
-12.7677

> <Gold.Chemscore.Internal_Hbond.Weighted>
0.0000

> <Gold.Chemscore.DEClash.Weighted>
1.3321

> <Gold.Chemscore.DEInternal.Weighted>
0.9971

> <Gold.Chemscore.Rot.Weighted>
4.8760

> <Gold.Chemscore.Internal.Correction.Weighted>
   9.000000E+99

> <Gold.Protein.RotatedTorsions>
[ 6907 6896 6895 6894 ] final   47.19 input  -60.11 | X-H torsion
[ 7974 7965 7964 7962 ] final -148.42 input  175.53 | X-H torsion
[ 8008 7997 7996 7995 ] final   21.67 input   59.86 | X-H torsion
[ 10167 10162 10161 10158 ] final   67.89 input  -65.29 | X-H torsion
[ 10718 10713 10712 10709 ] final -115.59 input   66.30 | X-H torsion
[ 10763 10752 10751 10750 ] final  -81.60 input  -60.55 | X-H torsion
[ 11005 11000 10999 10996 ] final  -48.21 input  -57.11 | X-H torsion

> <Gold.Protein.ActiveResidues>
 VAL166  LYS551  ARG553  GLY616  TRP617  ASP618  TYR619  PRO620  LYS621  CYS622 
 ASP623  PHE694  ASN695  SER759  ASP760  ASP761  ALA762  ILE779  LEU786  VAL792 
 PHE793  MET794  SER795  GLU796  ALA797  LYS798  CYS799  TRP800  GLU811  SER814 

> <Gold.Protein.RotatedAtoms>
  152.2652  134.7992  160.0423 H   0  0  0  0  0  0  0  0  0  0  0  0  # atno 6907 bound_to 6896
  151.8624  133.3454  159.3716 H   0  0  0  0  0  0  0  0  0  0  0  0  # atno 6908 bound_to 6896
  150.7131  134.5121  159.5656 H   0  0  0  0  0  0  0  0  0  0  0  0  # atno 6909 bound_to 6896
  144.8031  140.5199  143.5694 H   0  0  0  0  0  0  0  0  0  0  0  0  # atno 7974 bound_to 7965
  154.9542  140.3069  155.5061 H   0  0  0  0  0  0  0  0  0  0  0  0  # atno 8008 bound_to 7997
  156.2984  140.2313  156.4560 H   0  0  0  0  0  0  0  0  0  0  0  0  # atno 8009 bound_to 7997
  154.8026  140.0433  157.1272 H   0  0  0  0  0  0  0  0  0  0  0  0  # atno 8010 bound_to 7997
  140.0846  144.5041  150.7139 H   0  0  0  0  0  0  0  0  0  0  0  0  # atno 10167 bound_to 10162
  156.0906  130.6089  150.8925 H   0  0  0  0  0  0  0  0  0  0  0  0  # atno 10718 bound_to 10713
  154.5655  135.5620  153.7047 H   0  0  0  0  0  0  0  0  0  0  0  0  # atno 10763 bound_to 10752
  153.0031  135.6284  154.2186 H   0  0  0  0  0  0  0  0  0  0  0  0  # atno 10764 bound_to 10752
  154.2124  135.2873  155.2933 H   0  0  0  0  0  0  0  0  0  0  0  0  # atno 10765 bound_to 10752
  141.0687  133.6685  156.3409 H   0  0  0  0  0  0  0  0  0  0  0  0  # atno 11005 bound_to 11000
  145.5505  139.1476  143.3397 LP  0  0  0  0  0  0  0  0  0  0  0  0  # atno 17320 bound_to 7965
  146.2316  140.5643  142.8973 LP  0  0  0  0  0  0  0  0  0  0  0  0  # atno 17321 bound_to 7965
  140.7060  143.2468  151.4724 LP  0  0  0  0  0  0  0  0  0  0  0  0  # atno 17342 bound_to 10162
  139.5760  144.1819  152.1903 LP  0  0  0  0  0  0  0  0  0  0  0  0  # atno 17343 bound_to 10162
  157.6053  131.0939  150.8889 LP  0  0  0  0  0  0  0  0  0  0  0  0  # atno 17370 bound_to 10713
  156.9039  130.5256  149.5282 LP  0  0  0  0  0  0  0  0  0  0  0  0  # atno 17371 bound_to 10713
  140.5719  134.5832  157.5459 LP  0  0  0  0  0  0  0  0  0  0  0  0  # atno 17394 bound_to 11000
  139.9502  134.7631  156.0467 LP  0  0  0  0  0  0  0  0  0  0  0  0  # atno 17395 bound_to 11000

$$$$
