AV-unprocessed.smi:1554|AV-procd|sdf|6252|dock2
  -GOLD-   22720 6433D 1   1.00000     0.00000
 Structure written by MMmdl.
 48 50  0  0  0  0  0  0  0  0  2 V2000
  153.0026  142.7502  161.5908 C   0  0  0  0  0  0  0  0  0  0  0  0
  152.4563  142.3659  160.2261 C   0  0  0  0  0  0  0  0  0  0  0  0
  152.7474  141.0786  159.7211 C   0  0  0  0  0  0  0  0  0  0  0  0
  152.2362  140.7579  158.4690 C   0  0  0  0  0  0  0  0  0  0  0  0
  152.3481  139.5927  157.7076 N   0  3  0  0  0  0  0  0  0  0  0  0
  151.6720  139.7489  156.5361 C   0  0  0  0  0  0  0  0  0  0  0  0
  151.1278  140.9960  156.5387 N   0  0  0  0  0  0  0  0  0  0  0  0
  150.3027  141.6599  155.5190 C   0  0  0  0  0  0  0  0  0  0  0  0
  149.3762  140.6846  154.7669 C   0  0  2  0  0  0  0  0  0  0  0  0
  150.1372  139.9167  153.8561 O   0  0  0  0  0  0  0  0  0  0  0  0
  148.2880  141.4386  153.9767 C   0  0  0  0  0  0  0  0  0  0  0  0
  147.0395  141.6893  154.6994 N   0  0  0  0  0  0  0  0  0  0  0  0
  147.2446  141.8962  156.1322 C   0  0  0  0  0  0  0  0  0  0  0  0
  145.9246  142.1930  156.8642 C   0  0  0  0  0  0  0  0  0  0  0  0
  145.2901  143.3206  156.2707 O   0  0  0  0  0  0  0  0  0  0  0  0
  145.0240  143.1418  154.8824 C   0  0  1  0  0  0  0  0  0  0  0  0
  144.3367  144.4066  154.3571 C   0  0  0  0  0  0  0  0  0  0  0  0
  146.3490  142.8520  154.1506 C   0  0  0  0  0  0  0  0  0  0  0  0
  151.4560  141.6641  157.7247 C   0  0  0  0  0  0  0  0  0  0  0  0
  151.1606  142.9368  158.2081 C   0  0  0  0  0  0  0  0  0  0  0  0
  151.6744  143.2838  159.4780 C   0  0  0  0  0  0  0  0  0  0  0  0
  151.3733  144.6679  160.0274 C   0  0  0  0  0  0  0  0  0  0  0  0
  153.5594  141.9293  162.0435 H   0  0  0  0  0  0  0  0  0  0  0  0
  152.1905  143.0139  162.2687 H   0  0  0  0  0  0  0  0  0  0  0  0
  153.6756  143.6037  161.5066 H   0  0  0  0  0  0  0  0  0  0  0  0
  153.3439  140.3752  160.2836 H   0  0  0  0  0  0  0  0  0  0  0  0
  151.5822  139.0152  155.7479 H   0  0  0  0  0  0  0  0  0  0  0  0
  149.7043  142.4109  156.0362 H   0  0  0  0  0  0  0  0  0  0  0  0
  150.9482  142.2072  154.8316 H   0  0  0  0  0  0  0  0  0  0  0  0
  148.9284  140.0105  155.4957 H   0  0  0  0  0  0  0  0  0  0  0  0
  149.6997  139.9320  153.0179 H   0  0  0  0  0  0  0  0  0  0  0  0
  148.6929  142.3905  153.6295 H   0  0  0  0  0  0  0  0  0  0  0  0
  148.0718  140.8652  153.0738 H   0  0  0  0  0  0  0  0  0  0  0  0
  147.6967  141.0154  156.5858 H   0  0  0  0  0  0  0  0  0  0  0  0
  147.9385  142.7231  156.2920 H   0  0  0  0  0  0  0  0  0  0  0  0
  145.2587  141.3296  156.8251 H   0  0  0  0  0  0  0  0  0  0  0  0
  146.1142  142.4041  157.9167 H   0  0  0  0  0  0  0  0  0  0  0  0
  144.3453  142.2958  154.7579 H   0  0  0  0  0  0  0  0  0  0  0  0
  144.1066  144.3165  153.2952 H   0  0  0  0  0  0  0  0  0  0  0  0
  144.9716  145.2834  154.4888 H   0  0  0  0  0  0  0  0  0  0  0  0
  143.4011  144.5903  154.8857 H   0  0  0  0  0  0  0  0  0  0  0  0
  146.9967  143.7281  154.2134 H   0  0  0  0  0  0  0  0  0  0  0  0
  146.1452  142.6920  153.0910 H   0  0  0  0  0  0  0  0  0  0  0  0
  150.5711  143.6384  157.6365 H   0  0  0  0  0  0  0  0  0  0  0  0
  150.7692  145.2508  159.3313 H   0  0  0  0  0  0  0  0  0  0  0  0
  152.2977  145.2176  160.2070 H   0  0  0  0  0  0  0  0  0  0  0  0
  150.8237  144.5966  160.9664 H   0  0  0  0  0  0  0  0  0  0  0  0
  152.8488  138.7519  157.9658 H   0  0  0  0  0  0  0  0  0  0  0  0
  1  2  1  0  0  0  0
  1 23  1  0  0  0  0
  1 24  1  0  0  0  0
  1 25  1  0  0  0  0
  2 21  1  0  0  0  0
  2  3  2  0  0  0  0
  3  4  1  0  0  0  0
  3 26  1  0  0  0  0
  4 19  2  0  0  0  0
  4  5  1  0  0  0  0
  5  6  2  0  0  0  0
  5 48  1  0  0  0  0
  6  7  1  0  0  0  0
  6 27  1  0  0  0  0
  7  8  1  0  0  0  0
  7 19  1  0  0  0  0
  8  9  1  0  0  0  0
  8 28  1  0  0  0  0
  8 29  1  0  0  0  0
  9 10  1  0  0  0  0
  9 11  1  0  0  0  0
  9 30  1  0  0  0  0
 10 31  1  0  0  0  0
 11 12  1  0  0  0  0
 11 32  1  0  0  0  0
 11 33  1  0  0  0  0
 12 18  1  0  0  0  0
 12 13  1  0  0  0  0
 13 14  1  0  0  0  0
 13 34  1  0  0  0  0
 13 35  1  0  0  0  0
 14 15  1  0  0  0  0
 14 36  1  0  0  0  0
 14 37  1  0  0  0  0
 15 16  1  0  0  0  0
 16 17  1  0  0  0  0
 16 18  1  0  0  0  0
 16 38  1  0  0  0  0
 17 39  1  0  0  0  0
 17 40  1  0  0  0  0
 17 41  1  0  0  0  0
 18 42  1  0  0  0  0
 18 43  1  0  0  0  0
 19 20  1  0  0  0  0
 20 21  2  0  0  0  0
 20 44  1  0  0  0  0
 21 22  1  0  0  0  0
 22 45  1  0  0  0  0
 22 46  1  0  0  0  0
 22 47  1  0  0  0  0
M  CHG  1   5   1
M  END
> <s_m_source_file>
AV-unprocessed.smi

> <i_m_source_file_index>
1554

> <i_lp_mmshare_version>
43012

> <i_f3d_flags>
0

> <s_epik_input>
W0NIM11jKFtjSF0xKWMoW0NIM10pW2NIXWMoYzEyKW4oW2NIXW4yKVtDSDJdW0NASF0oW09IXSlbQ0gyXU4zW0NIMl1bQ0gyXU9bQ0BASF0oW0NIM10pW0NIMl0z

> <s_epik_cmdline>
J2VwaWtfcHl0aG9uJywgJy1waCcsICc3LjAnLCAnLXRuJywgJzgnLCAnLW1hJywgJzIwMCcsICctbWV0YWxfYmluZGluZycsICctaW1hZScsICc8aW5maWxlLm1hZT4nLCAnLW9tYWUnLCAnPG91dGZpbGUubWFlPic=

> <r_epik_Ionization_Penalty>
1.42504

> <r_epik_Ionization_Penalty_Charging>
1.21068

> <r_epik_Ionization_Penalty_Neutral>
0.214359

> <r_epik_State_Penalty>
1.46962

> <r_epik_Charging_Adjusted_Penalty>
2.6803

> <i_epik_Tot_Q>
1

> <i_epik_Tot_abs_Q>
1

> <r_epik_Metal_State_Penalty>
5.48754

> <b_epik_Metal_Only>
0

> <s_lp_Force_Field>
OPLS_2005

> <r_lp_Energy>
34.8696

> <b_lp_Chiralities_Consistent>
1

> <s_lp_Variant>
AV-unprocessed.smi:1554-13

> <Gold.Version>
5.8.1

> <Gold.Id.Protein>
6NUR|6NUR_protein|mol2

> <Gold.PLP.Fitness>
52.5525

> <Gold.PLP.PLP>
-48.9514

> <Gold.PLP.part.hbond>
-2.0000

> <Gold.PLP.part.metal>
0.0000

> <Gold.PLP.part.buried>
-5.8325

> <Gold.PLP.part.nonpolar>
-40.1465

> <Gold.PLP.part.repulsive>
0.3571

> <Gold.PLP.ligand.clash>
0.0000

> <Gold.PLP.ligand.torsion>
1.1535

> <Gold.PLP.Chemscore.Hbond>
1.9440

> <Gold.PLP.Chemscore.CHOScore>
0.0000

> <Gold.PLP.Chemscore.Metal>
0.0000

> <Gold.Chemscore.Hbonds>
donor molecule, donor type, donor heavy atom, donor atom, acceptor molecule, acceptor atom, score
      L1  H    10    31       P1  7957  1.00
      P1  H  7989  7998       L1    10  0.91

> <Gold.PLP.Chemscore.Internal.Correction>
0.0761

> <Gold.Rescore>
     Score         DG    S(hbond)    S(metal)    S(lipo)     H(rot)  DE(clash)    DE(int)     intcor
     17.55     -18.77       1.23        0.00     123.12       2.04       0.05       1.17       ----

> <Gold.Chemscore.Fitness>
17.5473

> <Gold.Chemscore.DG>
-18.7694

> <Gold.Chemscore.ZeroCoef>
-5.4800

> <Gold.Chemscore.Hbond>
1.2318

> <Gold.Chemscore.Metal>
0.0000

> <Gold.Chemscore.Lipo>
123.1159

> <Gold.Chemscore.Internal_Hbond>
0.0000

> <Gold.Chemscore.DEClash>
0.0487

> <Gold.Chemscore.DEInternal>
1.1734

> <Gold.Chemscore.Rot>
2.0427

> <Gold.Chemscore.Internal.Correction>
   9.000000E+99

> <Gold.Chemscore.Hbonds>
donor molecule, donor type, donor heavy atom, donor atom, acceptor molecule, acceptor atom, score
      L1  H    10    31       P1  7957  0.98
      P1  H  7989  7998       L1    10  0.14

> <Gold.Chemscore.Hbond.Weighted>
-4.1143

> <Gold.Chemscore.Metal.Weighted>
-0.0000

> <Gold.Chemscore.Lipo.Weighted>
-14.4046

> <Gold.Chemscore.Internal_Hbond.Weighted>
0.0000

> <Gold.Chemscore.DEClash.Weighted>
0.0487

> <Gold.Chemscore.DEInternal.Weighted>
1.1734

> <Gold.Chemscore.Rot.Weighted>
5.2294

> <Gold.Chemscore.Internal.Correction.Weighted>
   9.000000E+99

> <Gold.Protein.RotatedTorsions>
[ 6907 6896 6895 6894 ] final -159.80 input  -60.11 | X-H torsion
[ 7974 7965 7964 7962 ] final   63.45 input  175.53 | X-H torsion
[ 8008 7997 7996 7995 ] final  128.03 input   59.86 | X-H torsion
[ 10167 10162 10161 10158 ] final  167.81 input  -65.29 | X-H torsion
[ 10718 10713 10712 10709 ] final -169.96 input   66.30 | X-H torsion
[ 10763 10752 10751 10750 ] final -165.15 input  -60.55 | X-H torsion
[ 11005 11000 10999 10996 ] final  179.93 input  -57.11 | X-H torsion

> <Gold.Protein.ActiveResidues>
 VAL166  LYS551  ARG553  GLY616  TRP617  ASP618  TYR619  PRO620  LYS621  CYS622 
 ASP623  PHE694  ASN695  SER759  ASP760  ASP761  ALA762  ILE779  LEU786  VAL792 
 PHE793  MET794  SER795  GLU796  ALA797  LYS798  CYS799  TRP800  GLU811  SER814 

> <Gold.Protein.RotatedAtoms>
  151.3391  133.3969  159.2669 H   0  0  0  0  0  0  0  0  0  0  0  0  # atno 6907 bound_to 6896
  150.9892  134.9232  159.7900 H   0  0  0  0  0  0  0  0  0  0  0  0  # atno 6908 bound_to 6896
  152.5242  134.3356  159.9251 H   0  0  0  0  0  0  0  0  0  0  0  0  # atno 6909 bound_to 6896
  145.8617  139.3319  143.0815 H   0  0  0  0  0  0  0  0  0  0  0  0  # atno 7974 bound_to 7965
  156.2905  140.2654  156.2369 H   0  0  0  0  0  0  0  0  0  0  0  0  # atno 8008 bound_to 7997
  155.0016  140.0388  157.2380 H   0  0  0  0  0  0  0  0  0  0  0  0  # atno 8009 bound_to 7997
  154.7596  140.2758  155.6229 H   0  0  0  0  0  0  0  0  0  0  0  0  # atno 8010 bound_to 7997
  139.4953  144.3881  151.9547 H   0  0  0  0  0  0  0  0  0  0  0  0  # atno 10167 bound_to 10162
  156.7192  130.9263  151.3096 H   0  0  0  0  0  0  0  0  0  0  0  0  # atno 10718 bound_to 10713
  154.6960  135.2979  154.9411 H   0  0  0  0  0  0  0  0  0  0  0  0  # atno 10763 bound_to 10752
  154.0359  135.6664  153.4789 H   0  0  0  0  0  0  0  0  0  0  0  0  # atno 10764 bound_to 10752
  153.0646  135.5095  154.8078 H   0  0  0  0  0  0  0  0  0  0  0  0  # atno 10765 bound_to 10752
  140.4116  134.6686  157.4617 H   0  0  0  0  0  0  0  0  0  0  0  0  # atno 11005 bound_to 11000
  145.9240  140.9095  143.0390 LP  0  0  0  0  0  0  0  0  0  0  0  0  # atno 17320 bound_to 7965
  144.6726  140.1328  143.7442 LP  0  0  0  0  0  0  0  0  0  0  0  0  # atno 17321 bound_to 7965
  140.3319  144.3307  150.5985 LP  0  0  0  0  0  0  0  0  0  0  0  0  # atno 17342 bound_to 10162
  140.5638  143.2189  151.7719 LP  0  0  0  0  0  0  0  0  0  0  0  0  # atno 17343 bound_to 10162
  157.6905  130.9228  150.0500 LP  0  0  0  0  0  0  0  0  0  0  0  0  # atno 17370 bound_to 10713
  156.1606  130.3644  149.9305 LP  0  0  0  0  0  0  0  0  0  0  0  0  # atno 17371 bound_to 10713
  140.0263  134.6472  155.9168 LP  0  0  0  0  0  0  0  0  0  0  0  0  # atno 17394 bound_to 11000
  141.1819  133.6548  156.5054 LP  0  0  0  0  0  0  0  0  0  0  0  0  # atno 17395 bound_to 11000

$$$$
