AV-unprocessed.smi:1743|AV-procd|sdf|7023|dock8
  -GOLD-   22720 8243D 1   1.00000     0.00000
 Structure written by MMmdl.
 38 39  0  0  0  0  0  0  0  0  1 V2000
  152.8145  131.3582  157.8378 C   0  0  0  0  0  0  0  0  0  0  0  0
  152.4242  132.7115  157.6315 O   0  0  0  0  0  0  0  0  0  0  0  0
  151.5101  132.9847  156.6345 C   0  0  0  0  0  0  0  0  0  0  0  0
  151.1542  134.3270  156.3953 C   0  0  0  0  0  0  0  0  0  0  0  0
  150.2205  134.6142  155.3813 C   0  0  0  0  0  0  0  0  0  0  0  0
  149.6647  133.5442  154.6405 C   0  0  0  0  0  0  0  0  0  0  0  0
  148.7309  133.7060  153.5817 N   0  0  0  0  0  0  0  0  0  0  0  0
  147.8123  132.8311  153.1373 C   0  0  0  0  0  0  0  0  0  0  0  0
  147.6553  131.6882  153.5664 O   0  0  0  0  0  0  0  0  0  0  0  0
  147.0903  133.3571  152.1372 N   0  0  0  0  0  0  0  0  0  0  0  0
  146.0188  132.6838  151.4078 C   0  0  2  0  0  0  0  0  0  0  0  0
  146.3206  132.7056  149.8979 C   0  0  0  0  0  0  0  0  0  0  0  0
  145.1780  132.0740  149.0826 C   0  0  0  0  0  0  0  0  0  0  0  0
  143.8136  132.7198  149.3899 C   0  0  2  0  0  0  0  0  0  0  0  0
  143.7713  134.0338  148.8694 O   0  0  0  0  0  0  0  0  0  0  0  0
  143.5249  132.7412  150.9030 C   0  0  0  0  0  0  0  0  0  0  0  0
  144.6747  133.3719  151.7082 C   0  0  0  0  0  0  0  0  0  0  0  0
  150.0999  132.2382  154.9470 C   0  0  0  0  0  0  0  0  0  0  0  0
  150.9926  131.9557  155.9188 N   0  0  0  0  0  0  0  0  0  0  0  0
  153.5366  131.3109  158.6529 H   0  0  0  0  0  0  0  0  0  0  0  0
  153.2903  130.9395  156.9498 H   0  0  0  0  0  0  0  0  0  0  0  0
  151.9623  130.7356  158.1140 H   0  0  0  0  0  0  0  0  0  0  0  0
  151.5931  135.1241  156.9770 H   0  0  0  0  0  0  0  0  0  0  0  0
  149.9630  135.6430  155.1838 H   0  0  0  0  0  0  0  0  0  0  0  0
  148.8047  134.5719  153.0682 H   0  0  0  0  0  0  0  0  0  0  0  0
  147.3011  134.3021  151.8517 H   0  0  0  0  0  0  0  0  0  0  0  0
  145.9406  131.6425  151.7259 H   0  0  0  0  0  0  0  0  0  0  0  0
  146.4777  133.7330  149.5660 H   0  0  0  0  0  0  0  0  0  0  0  0
  147.2506  132.1729  149.6961 H   0  0  0  0  0  0  0  0  0  0  0  0
  145.3967  132.1412  148.0162 H   0  0  0  0  0  0  0  0  0  0  0  0
  145.1264  131.0096  149.3150 H   0  0  0  0  0  0  0  0  0  0  0  0
  143.0299  132.1541  148.8850 H   0  0  0  0  0  0  0  0  0  0  0  0
  142.8684  134.3080  148.8199 H   0  0  0  0  0  0  0  0  0  0  0  0
  142.5922  133.2697  151.1037 H   0  0  0  0  0  0  0  0  0  0  0  0
  143.3736  131.7180  151.2492 H   0  0  0  0  0  0  0  0  0  0  0  0
  144.4530  133.3050  152.7740 H   0  0  0  0  0  0  0  0  0  0  0  0
  144.7422  134.4355  151.4749 H   0  0  0  0  0  0  0  0  0  0  0  0
  149.7169  131.3899  154.3987 H   0  0  0  0  0  0  0  0  0  0  0  0
  1  2  1  0  0  0  0
  1 20  1  0  0  0  0
  1 21  1  0  0  0  0
  1 22  1  0  0  0  0
  2  3  1  0  0  0  0
  3 19  1  0  0  0  0
  3  4  2  0  0  0  0
  4  5  1  0  0  0  0
  4 23  1  0  0  0  0
  5  6  2  0  0  0  0
  5 24  1  0  0  0  0
  6  7  1  0  0  0  0
  6 18  1  0  0  0  0
  7  8  1  0  0  0  0
  7 25  1  0  0  0  0
  8  9  2  0  0  0  0
  8 10  1  0  0  0  0
 10 11  1  0  0  0  0
 10 26  1  0  0  0  0
 11 17  1  0  0  0  0
 11 12  1  0  0  0  0
 11 27  1  0  0  0  0
 12 13  1  0  0  0  0
 12 28  1  0  0  0  0
 12 29  1  0  0  0  0
 13 14  1  0  0  0  0
 13 30  1  0  0  0  0
 13 31  1  0  0  0  0
 14 15  1  0  0  0  0
 14 16  1  0  0  0  0
 14 32  1  0  0  0  0
 15 33  1  0  0  0  0
 16 17  1  0  0  0  0
 16 34  1  0  0  0  0
 16 35  1  0  0  0  0
 17 36  1  0  0  0  0
 17 37  1  0  0  0  0
 18 19  2  0  0  0  0
 18 38  1  0  0  0  0
M  END
> <s_m_source_file>
AV-unprocessed.smi

> <i_m_source_file_index>
1743

> <i_lp_mmshare_version>
43012

> <i_f3d_flags>
0

> <s_epik_input>
W0NIM11PYzFbY0hdW2NIXWMoW2NIXW4xKVtOSF1DKD1PKVtOSF1bQ0BASF0yW0NIMl1bQ0gyXVtDQEBIXShbT0hdKVtDSDJdW0NIMl0y

> <s_epik_cmdline>
J2VwaWtfcHl0aG9uJywgJy1waCcsICc3LjAnLCAnLXRuJywgJzgnLCAnLW1hJywgJzIwMCcsICctbWV0YWxfYmluZGluZycsICctaW1hZScsICc8aW5maWxlLm1hZT4nLCAnLW9tYWUnLCAnPG91dGZpbGUubWFlPic=

> <r_lp_tautomer_probability>
1

> <r_epik_Ionization_Penalty>
9.95686e-05

> <r_epik_Ionization_Penalty_Charging>
0

> <r_epik_Ionization_Penalty_Neutral>
9.95686e-05

> <r_epik_State_Penalty>
-0

> <r_epik_Charging_Adjusted_Penalty>
0

> <i_epik_Tot_Q>
0

> <i_epik_Tot_abs_Q>
0

> <r_epik_Metal_State_Penalty>
-0

> <b_epik_Metal_Only>
0

> <s_lp_Force_Field>
OPLS_2005

> <r_lp_Energy>
13.581

> <b_lp_Chiralities_Consistent>
1

> <s_lp_Variant>
AV-unprocessed.smi:1743-2

> <Gold.Version>
5.8.1

> <Gold.Id.Protein>
6NUR|6NUR_protein|mol2

> <Gold.PLP.Fitness>
42.9200

> <Gold.PLP.PLP>
-34.9192

> <Gold.PLP.part.hbond>
-4.0000

> <Gold.PLP.part.metal>
0.0000

> <Gold.PLP.part.buried>
-4.4768

> <Gold.PLP.part.nonpolar>
-26.5388

> <Gold.PLP.part.repulsive>
0.0938

> <Gold.PLP.ligand.clash>
0.0000

> <Gold.PLP.ligand.torsion>
0.1894

> <Gold.PLP.Chemscore.Hbond>
2.7920

> <Gold.PLP.Chemscore.CHOScore>
0.0000

> <Gold.PLP.Chemscore.Metal>
0.0000

> <Gold.Chemscore.Hbonds>
donor molecule, donor type, donor heavy atom, donor atom, acceptor molecule, acceptor atom, score
      L1  H     7    25       P1  7948  0.80
      L1  H    15    33       P1 10186  1.00
      P1  H  6896  6907       L1     2  0.99

> <Gold.PLP.Chemscore.Internal.Correction>
0.0036

> <Gold.Rescore>
     Score         DG    S(hbond)    S(metal)    S(lipo)     H(rot)  DE(clash)    DE(int)     intcor
     15.70     -17.23       2.03        0.00      81.36       1.77       0.00       1.53       ----

> <Gold.Chemscore.Fitness>
15.6989

> <Gold.Chemscore.DG>
-17.2313

> <Gold.Chemscore.ZeroCoef>
-5.4800

> <Gold.Chemscore.Hbond>
2.0262

> <Gold.Chemscore.Metal>
0.0000

> <Gold.Chemscore.Lipo>
81.3553

> <Gold.Chemscore.Internal_Hbond>
0.0000

> <Gold.Chemscore.DEClash>
0.0017

> <Gold.Chemscore.DEInternal>
1.5307

> <Gold.Chemscore.Rot>
1.7714

> <Gold.Chemscore.Internal.Correction>
   9.000000E+99

> <Gold.Chemscore.Hbonds>
donor molecule, donor type, donor heavy atom, donor atom, acceptor molecule, acceptor atom, score
      L1  H     7    25       P1  7948  0.11
      L1  H    10    26       P1  7948  0.01
      L1  H    15    33       P1 10186  0.95
      P1  H  6896  6907       L1     2  0.42

> <Gold.Chemscore.Hbond.Weighted>
-6.7675

> <Gold.Chemscore.Metal.Weighted>
-0.0000

> <Gold.Chemscore.Lipo.Weighted>
-9.5186

> <Gold.Chemscore.Internal_Hbond.Weighted>
0.0000

> <Gold.Chemscore.DEClash.Weighted>
0.0017

> <Gold.Chemscore.DEInternal.Weighted>
1.5307

> <Gold.Chemscore.Rot.Weighted>
4.5347

> <Gold.Chemscore.Internal.Correction.Weighted>
   9.000000E+99

> <Gold.Protein.RotatedTorsions>
[ 6907 6896 6895 6894 ] final  165.44 input  -60.11 | X-H torsion
[ 7974 7965 7964 7962 ] final   47.86 input  175.53 | X-H torsion
[ 8008 7997 7996 7995 ] final -174.61 input   59.86 | X-H torsion
[ 10167 10162 10161 10158 ] final  -24.91 input  -65.29 | X-H torsion
[ 10718 10713 10712 10709 ] final   91.86 input   66.30 | X-H torsion
[ 10763 10752 10751 10750 ] final   51.73 input  -60.55 | X-H torsion
[ 11005 11000 10999 10996 ] final  148.91 input  -57.11 | X-H torsion

> <Gold.Protein.ActiveResidues>
 VAL166  LYS551  ARG553  GLY616  TRP617  ASP618  TYR619  PRO620  LYS621  CYS622 
 ASP623  PHE694  ASN695  SER759  ASP760  ASP761  ALA762  ILE779  LEU786  VAL792 
 PHE793  MET794  SER795  GLU796  ALA797  LYS798  CYS799  TRP800  GLU811  SER814 

> <Gold.Protein.RotatedAtoms>
  151.8944  133.3523  159.3809 H   0  0  0  0  0  0  0  0  0  0  0  0  # atno 6907 bound_to 6896
  150.7095  134.4891  159.5516 H   0  0  0  0  0  0  0  0  0  0  0  0  # atno 6908 bound_to 6896
  152.2467  134.8174  160.0503 H   0  0  0  0  0  0  0  0  0  0  0  0  # atno 6909 bound_to 6896
  146.0259  139.4705  142.9868 H   0  0  0  0  0  0  0  0  0  0  0  0  # atno 7974 bound_to 7965
  155.9722  140.1165  157.0802 H   0  0  0  0  0  0  0  0  0  0  0  0  # atno 8008 bound_to 7997
  154.4159  140.1161  156.5390 H   0  0  0  0  0  0  0  0  0  0  0  0  # atno 8009 bound_to 7997
  155.6581  140.3473  155.4775 H   0  0  0  0  0  0  0  0  0  0  0  0  # atno 8010 bound_to 7997
  140.7287  143.4312  151.0800 H   0  0  0  0  0  0  0  0  0  0  0  0  # atno 10167 bound_to 10162
  157.6960  131.0422  150.3793 H   0  0  0  0  0  0  0  0  0  0  0  0  # atno 10718 bound_to 10713
  152.9786  135.5836  154.4464 H   0  0  0  0  0  0  0  0  0  0  0  0  # atno 10763 bound_to 10752
  154.4058  135.2769  155.2070 H   0  0  0  0  0  0  0  0  0  0  0  0  # atno 10764 bound_to 10752
  154.3881  135.6131  153.5882 H   0  0  0  0  0  0  0  0  0  0  0  0  # atno 10765 bound_to 10752
  140.1000  134.8989  157.1781 H   0  0  0  0  0  0  0  0  0  0  0  0  # atno 11005 bound_to 11000
  145.7119  141.0103  143.1449 LP  0  0  0  0  0  0  0  0  0  0  0  0  # atno 17320 bound_to 7965
  144.7009  139.8767  143.7444 LP  0  0  0  0  0  0  0  0  0  0  0  0  # atno 17321 bound_to 7965
  139.7969  143.8139  152.3158 LP  0  0  0  0  0  0  0  0  0  0  0  0  # atno 17342 bound_to 10162
  139.8142  144.7323  150.9657 LP  0  0  0  0  0  0  0  0  0  0  0  0  # atno 17343 bound_to 10162
  156.4209  130.3952  149.6826 LP  0  0  0  0  0  0  0  0  0  0  0  0  # atno 17370 bound_to 10713
  156.4077  130.7706  151.2718 LP  0  0  0  0  0  0  0  0  0  0  0  0  # atno 17371 bound_to 10713
  140.3233  134.2892  155.7242 LP  0  0  0  0  0  0  0  0  0  0  0  0  # atno 17394 bound_to 11000
  141.2103  133.7724  156.9941 LP  0  0  0  0  0  0  0  0  0  0  0  0  # atno 17395 bound_to 11000

$$$$
