AV-unprocessed.smi:1264|AV-procd|sdf|5313|dock3
  -GOLD-   22720 4433D 1   1.00000     0.00000
 Structure written by MMmdl.
 43 43  0  0  0  0  0  0  0  0  1 V2000
  152.3761  139.0946  154.7159 C   0  0  0  0  0  0  0  0  0  0  0  0
  151.5007  140.1297  155.2434 N   0  0  0  0  0  0  0  0  0  0  0  0
  150.1680  140.1352  155.0986 C   0  0  0  0  0  0  0  0  0  0  0  0
  149.5534  139.2476  154.5038 O   0  0  0  0  0  0  0  0  0  0  0  0
  149.4177  141.3134  155.7431 C   0  0  2  0  0  0  0  0  0  0  0  0
  148.5711  141.9927  154.6403 C   0  0  0  0  0  0  0  0  0  0  0  0
  147.0474  141.7476  154.7328 C   0  0  0  0  0  0  0  0  0  0  0  0
  146.5883  140.5551  153.8768 C   0  0  0  0  0  0  0  0  0  0  0  0
  146.2738  143.0161  154.3418 C   0  0  0  0  0  0  0  0  0  0  0  0
  150.3806  142.2834  156.2627 N   0  0  0  0  0  0  0  0  0  0  0  0
  150.6495  142.4910  157.5609 C   0  0  0  0  0  0  0  0  0  0  0  0
  150.0721  141.9059  158.4771 O   0  0  0  0  0  0  0  0  0  0  0  0
  151.7518  143.5018  157.8730 C   0  0  0  0  0  0  0  0  0  0  0  0
  152.1098  143.4136  159.3341 C   0  0  0  0  0  0  0  0  0  0  0  0
  152.5722  142.2809  160.0661 C   0  0  0  0  0  0  0  0  0  0  0  0
  152.8230  140.8814  159.5823 C   0  0  0  0  0  0  0  0  0  0  0  0
  152.7843  142.5696  161.3390 N   0  0  0  0  0  0  0  0  0  0  0  0
  152.4601  143.9216  161.4856 O   0  0  0  0  0  0  0  0  0  0  0  0
  152.0584  144.3993  160.2808 C   0  0  0  0  0  0  0  0  0  0  0  0
  151.6580  145.8348  160.2300 C   0  0  0  0  0  0  0  0  0  0  0  0
  153.4152  139.3394  154.9351 H   0  0  0  0  0  0  0  0  0  0  0  0
  152.2674  139.0070  153.6342 H   0  0  0  0  0  0  0  0  0  0  0  0
  152.1498  138.1284  155.1682 H   0  0  0  0  0  0  0  0  0  0  0  0
  151.9333  140.8911  155.7462 H   0  0  0  0  0  0  0  0  0  0  0  0
  148.7760  140.9421  156.5439 H   0  0  0  0  0  0  0  0  0  0  0  0
  148.7518  143.0691  154.6649 H   0  0  0  0  0  0  0  0  0  0  0  0
  148.9168  141.6580  153.6605 H   0  0  0  0  0  0  0  0  0  0  0  0
  146.7911  141.5294  155.7700 H   0  0  0  0  0  0  0  0  0  0  0  0
  146.8599  140.6901  152.8295 H   0  0  0  0  0  0  0  0  0  0  0  0
  145.5060  140.4325  153.9255 H   0  0  0  0  0  0  0  0  0  0  0  0
  147.0295  139.6195  154.2201 H   0  0  0  0  0  0  0  0  0  0  0  0
  146.4731  143.2993  153.3076 H   0  0  0  0  0  0  0  0  0  0  0  0
  146.5503  143.8581  154.9768 H   0  0  0  0  0  0  0  0  0  0  0  0
  145.1981  142.8692  154.4448 H   0  0  0  0  0  0  0  0  0  0  0  0
  150.9111  142.8045  155.5799 H   0  0  0  0  0  0  0  0  0  0  0  0
  152.6182  143.3160  157.2371 H   0  0  0  0  0  0  0  0  0  0  0  0
  151.3952  144.4984  157.6097 H   0  0  0  0  0  0  0  0  0  0  0  0
  152.8130  140.8262  158.4940 H   0  0  0  0  0  0  0  0  0  0  0  0
  152.0600  140.1974  159.9545 H   0  0  0  0  0  0  0  0  0  0  0  0
  153.7924  140.5149  159.9213 H   0  0  0  0  0  0  0  0  0  0  0  0
  150.8580  145.9896  159.5057 H   0  0  0  0  0  0  0  0  0  0  0  0
  152.5030  146.4597  159.9404 H   0  0  0  0  0  0  0  0  0  0  0  0
  151.3008  146.1758  161.2020 H   0  0  0  0  0  0  0  0  0  0  0  0
  1  2  1  0  0  0  0
  1 21  1  0  0  0  0
  1 22  1  0  0  0  0
  1 23  1  0  0  0  0
  2  3  1  0  0  0  0
  2 24  1  0  0  0  0
  3  4  2  0  0  0  0
  3  5  1  0  0  0  0
  5  6  1  0  0  0  0
  5 10  1  0  0  0  0
  5 25  1  0  0  0  0
  6  7  1  0  0  0  0
  6 26  1  0  0  0  0
  6 27  1  0  0  0  0
  7  8  1  0  0  0  0
  7  9  1  0  0  0  0
  7 28  1  0  0  0  0
  8 29  1  0  0  0  0
  8 30  1  0  0  0  0
  8 31  1  0  0  0  0
  9 32  1  0  0  0  0
  9 33  1  0  0  0  0
  9 34  1  0  0  0  0
 10 11  1  0  0  0  0
 10 35  1  0  0  0  0
 11 12  2  0  0  0  0
 11 13  1  0  0  0  0
 13 14  1  0  0  0  0
 13 36  1  0  0  0  0
 13 37  1  0  0  0  0
 14 19  2  0  0  0  0
 14 15  1  0  0  0  0
 15 16  1  0  0  0  0
 15 17  2  0  0  0  0
 16 38  1  0  0  0  0
 16 39  1  0  0  0  0
 16 40  1  0  0  0  0
 17 18  1  0  0  0  0
 18 19  1  0  0  0  0
 19 20  1  0  0  0  0
 20 41  1  0  0  0  0
 20 42  1  0  0  0  0
 20 43  1  0  0  0  0
M  END
> <s_m_source_file>
AV-unprocessed.smi

> <i_m_source_file_index>
1264

> <i_lp_mmshare_version>
43012

> <i_f3d_flags>
0

> <s_epik_input>
W0NIM11bTkhdQyg9TylbQ0BIXShbQ0gyXVtDSF0oW0NIM10pW0NIM10pW05IXUMoPU8pW0NIMl1jMWMoW0NIM10pbm9jMVtDSDNd

> <s_epik_cmdline>
J2VwaWtfcHl0aG9uJywgJy1waCcsICc3LjAnLCAnLXRuJywgJzgnLCAnLW1hJywgJzIwMCcsICctbWV0YWxfYmluZGluZycsICctaW1hZScsICc8aW5maWxlLm1hZT4nLCAnLW9tYWUnLCAnPG91dGZpbGUubWFlPic=

> <r_lp_tautomer_probability>
1

> <r_epik_Ionization_Penalty>
6.00781e-08

> <r_epik_Ionization_Penalty_Charging>
0

> <r_epik_Ionization_Penalty_Neutral>
6.00781e-08

> <r_epik_State_Penalty>
-0

> <r_epik_Charging_Adjusted_Penalty>
0

> <i_epik_Tot_Q>
0

> <i_epik_Tot_abs_Q>
0

> <r_epik_Metal_State_Penalty>
-0

> <b_epik_Metal_Only>
0

> <s_lp_Force_Field>
OPLS_2005

> <r_lp_Energy>
-0.565017

> <b_lp_Chiralities_Consistent>
1

> <s_lp_Variant>
AV-unprocessed.smi:1264-1

> <Gold.Version>
5.8.1

> <Gold.Id.Protein>
6NUR|6NUR_protein|mol2

> <Gold.PLP.Fitness>
41.7544

> <Gold.PLP.PLP>
-44.6170

> <Gold.PLP.part.hbond>
-0.3429

> <Gold.PLP.part.metal>
0.0000

> <Gold.PLP.part.buried>
-5.7689

> <Gold.PLP.part.nonpolar>
-39.7221

> <Gold.PLP.part.repulsive>
1.8955

> <Gold.PLP.ligand.clash>
0.0000

> <Gold.PLP.ligand.torsion>
1.4739

> <Gold.PLP.Chemscore.Hbond>
0.0000

> <Gold.PLP.Chemscore.CHOScore>
0.0000

> <Gold.PLP.Chemscore.Metal>
0.0000

> <Gold.PLP.Chemscore.Internal.Correction>
0.0853

> <Gold.Rescore>
     Score         DG    S(hbond)    S(metal)    S(lipo)     H(rot)  DE(clash)    DE(int)     intcor
     10.92     -12.84       0.00        0.00     108.69       2.09       0.26       1.66       ----

> <Gold.Chemscore.Fitness>
10.9189

> <Gold.Chemscore.DG>
-12.8385

> <Gold.Chemscore.ZeroCoef>
-5.4800

> <Gold.Chemscore.Hbond>
0.0000

> <Gold.Chemscore.Metal>
0.0000

> <Gold.Chemscore.Lipo>
108.6920

> <Gold.Chemscore.Internal_Hbond>
0.0000

> <Gold.Chemscore.DEClash>
0.2556

> <Gold.Chemscore.DEInternal>
1.6641

> <Gold.Chemscore.Rot>
2.0931

> <Gold.Chemscore.Internal.Correction>
   9.000000E+99

> <Gold.Chemscore.Hbond.Weighted>
-0.0000

> <Gold.Chemscore.Metal.Weighted>
-0.0000

> <Gold.Chemscore.Lipo.Weighted>
-12.7170

> <Gold.Chemscore.Internal_Hbond.Weighted>
0.0000

> <Gold.Chemscore.DEClash.Weighted>
0.2556

> <Gold.Chemscore.DEInternal.Weighted>
1.6641

> <Gold.Chemscore.Rot.Weighted>
5.3584

> <Gold.Chemscore.Internal.Correction.Weighted>
   9.000000E+99

> <Gold.Protein.RotatedTorsions>
[ 6907 6896 6895 6894 ] final   63.31 input  -60.11 | X-H torsion
[ 7974 7965 7964 7962 ] final  -88.38 input  175.53 | X-H torsion
[ 8008 7997 7996 7995 ] final  147.67 input   59.86 | X-H torsion
[ 10167 10162 10161 10158 ] final  -78.01 input  -65.29 | X-H torsion
[ 10718 10713 10712 10709 ] final  -21.86 input   66.30 | X-H torsion
[ 10763 10752 10751 10750 ] final  -41.65 input  -60.55 | X-H torsion
[ 11005 11000 10999 10996 ] final -162.63 input  -57.11 | X-H torsion

> <Gold.Protein.ActiveResidues>
 VAL166  LYS551  ARG553  GLY616  TRP617  ASP618  TYR619  PRO620  LYS621  CYS622 
 ASP623  PHE694  ASN695  SER759  ASP760  ASP761  ALA762  ILE779  LEU786  VAL792 
 PHE793  MET794  SER795  GLU796  ALA797  LYS798  CYS799  TRP800  GLU811  SER814 

> <Gold.Protein.RotatedAtoms>
  152.4243  134.5898  159.9970 H   0  0  0  0  0  0  0  0  0  0  0  0  # atno 6907 bound_to 6896
  151.6039  133.3348  159.3061 H   0  0  0  0  0  0  0  0  0  0  0  0  # atno 6908 bound_to 6896
  150.8132  134.7336  159.6772 H   0  0  0  0  0  0  0  0  0  0  0  0  # atno 6909 bound_to 6896
  145.4539  140.9561  143.2007 H   0  0  0  0  0  0  0  0  0  0  0  0  # atno 7974 bound_to 7965
  156.2817  140.2149  156.5575 H   0  0  0  0  0  0  0  0  0  0  0  0  # atno 8008 bound_to 7997
  154.7240  140.0501  157.0688 H   0  0  0  0  0  0  0  0  0  0  0  0  # atno 8009 bound_to 7997
  155.0441  140.3149  155.4717 H   0  0  0  0  0  0  0  0  0  0  0  0  # atno 8010 bound_to 7997
  140.4720  143.2424  151.8190 H   0  0  0  0  0  0  0  0  0  0  0  0  # atno 10167 bound_to 10162
  156.5124  130.4613  149.6641 H   0  0  0  0  0  0  0  0  0  0  0  0  # atno 10718 bound_to 10713
  153.9661  135.6734  153.4746 H   0  0  0  0  0  0  0  0  0  0  0  0  # atno 10763 bound_to 10752
  153.0815  135.4921  154.8509 H   0  0  0  0  0  0  0  0  0  0  0  0  # atno 10764 bound_to 10752
  154.7245  135.3124  154.8953 H   0  0  0  0  0  0  0  0  0  0  0  0  # atno 10765 bound_to 10752
  140.6071  134.4888  157.5211 H   0  0  0  0  0  0  0  0  0  0  0  0  # atno 11005 bound_to 11000
  144.8044  139.6079  143.7057 LP  0  0  0  0  0  0  0  0  0  0  0  0  # atno 17320 bound_to 7965
  146.2489  139.6156  142.9441 LP  0  0  0  0  0  0  0  0  0  0  0  0  # atno 17321 bound_to 7965
  139.4820  144.4880  151.9222 LP  0  0  0  0  0  0  0  0  0  0  0  0  # atno 17342 bound_to 10162
  140.3965  144.2548  150.5896 LP  0  0  0  0  0  0  0  0  0  0  0  0  # atno 17343 bound_to 10162
  156.3227  130.7289  151.2204 LP  0  0  0  0  0  0  0  0  0  0  0  0  # atno 17370 bound_to 10713
  157.7448  131.0451  150.4827 LP  0  0  0  0  0  0  0  0  0  0  0  0  # atno 17371 bound_to 10713
  139.9208  134.8153  156.1218 LP  0  0  0  0  0  0  0  0  0  0  0  0  # atno 17394 bound_to 11000
  141.0833  133.6745  156.2383 LP  0  0  0  0  0  0  0  0  0  0  0  0  # atno 17395 bound_to 11000

$$$$
