AV-unprocessed.smi:3141|AV-procd|sdf|11969|dock5
  -GOLD-   2272017373D 1   1.00000     0.00000
 Structure written by MMmdl.
 35 37  0  0  0  0  0  0  0  0  1 V2000
  151.4855  141.2115  157.6248 O   0  0  0  0  0  0  0  0  0  0  0  0
  150.9298  142.1402  157.0378 C   0  0  0  0  0  0  0  0  0  0  0  0
  151.3162  143.4204  157.1133 N   0  0  0  0  0  0  0  0  0  0  0  0
  152.4211  143.9078  157.8734 C   0  0  0  0  0  0  0  0  0  0  0  0
  152.4724  143.5495  159.3429 C   0  0  0  0  0  0  0  0  0  0  0  0
  152.1408  144.9563  158.9283 C   0  0  0  0  0  0  0  0  0  0  0  0
  149.8626  141.9932  156.2410 N   0  0  0  0  0  0  0  0  0  0  0  0
  149.2178  140.7211  155.9279 C   0  0  1  0  0  0  0  0  0  0  0  0
  147.6798  140.8435  155.9461 C   0  0  0  0  0  0  0  0  0  0  0  0
  147.2090  140.6094  154.5079 C   0  0  0  0  0  0  0  0  0  0  0  0
  148.2875  139.7235  153.8917 C   0  0  0  0  0  0  0  0  0  0  0  0
  149.5862  140.2632  154.5009 C   0  0  2  0  0  0  0  0  0  0  0  0
  150.6890  139.3151  154.4687 N   0  0  0  0  0  0  0  0  0  0  0  0
  151.9559  139.4998  155.0079 C   0  0  0  0  0  0  0  0  0  0  0  0
  152.6629  138.3445  154.7636 C   0  0  0  0  0  0  0  0  0  0  0  0
  151.8547  137.4353  154.0862 N   0  0  0  0  0  0  0  0  0  0  0  0
  150.7016  138.0772  153.9512 C   0  0  0  0  0  0  0  0  0  0  0  0
  150.7892  144.1052  156.5918 H   0  0  0  0  0  0  0  0  0  0  0  0
  153.3821  143.9849  157.3666 H   0  0  0  0  0  0  0  0  0  0  0  0
  151.6652  142.9426  159.7485 H   0  0  0  0  0  0  0  0  0  0  0  0
  153.4523  143.3727  159.7813 H   0  0  0  0  0  0  0  0  0  0  0  0
  152.8992  145.7193  159.0901 H   0  0  0  0  0  0  0  0  0  0  0  0
  151.1121  145.2885  159.0555 H   0  0  0  0  0  0  0  0  0  0  0  0
  149.4760  142.8180  155.8063 H   0  0  0  0  0  0  0  0  0  0  0  0
  149.5171  139.9659  156.6578 H   0  0  0  0  0  0  0  0  0  0  0  0
  147.2671  140.0682  156.5930 H   0  0  0  0  0  0  0  0  0  0  0  0
  147.3262  141.8004  156.3330 H   0  0  0  0  0  0  0  0  0  0  0  0
  146.2171  140.1594  154.4595 H   0  0  0  0  0  0  0  0  0  0  0  0
  147.1693  141.5608  153.9756 H   0  0  0  0  0  0  0  0  0  0  0  0
  148.1146  138.6883  154.1881 H   0  0  0  0  0  0  0  0  0  0  0  0
  148.2886  139.7620  152.8020 H   0  0  0  0  0  0  0  0  0  0  0  0
  149.8773  141.1337  153.9092 H   0  0  0  0  0  0  0  0  0  0  0  0
  152.2426  140.4129  155.5084 H   0  0  0  0  0  0  0  0  0  0  0  0
  153.6815  138.0982  155.0252 H   0  0  0  0  0  0  0  0  0  0  0  0
  149.8441  137.6333  153.4667 H   0  0  0  0  0  0  0  0  0  0  0  0
  1  2  2  0  0  0  0
  2  3  1  0  0  0  0
  2  7  1  0  0  0  0
  3  4  1  0  0  0  0
  3 18  1  0  0  0  0
  4  6  1  0  0  0  0
  4  5  1  0  0  0  0
  4 19  1  0  0  0  0
  5  6  1  0  0  0  0
  5 20  1  0  0  0  0
  5 21  1  0  0  0  0
  6 22  1  0  0  0  0
  6 23  1  0  0  0  0
  7  8  1  0  0  0  0
  7 24  1  0  0  0  0
  8 12  1  0  0  0  0
  8  9  1  0  0  0  0
  8 25  1  0  0  0  0
  9 10  1  0  0  0  0
  9 26  1  0  0  0  0
  9 27  1  0  0  0  0
 10 11  1  0  0  0  0
 10 28  1  0  0  0  0
 10 29  1  0  0  0  0
 11 12  1  0  0  0  0
 11 30  1  0  0  0  0
 11 31  1  0  0  0  0
 12 13  1  0  0  0  0
 12 32  1  0  0  0  0
 13 17  1  0  0  0  0
 13 14  1  0  0  0  0
 14 15  2  0  0  0  0
 14 33  1  0  0  0  0
 15 16  1  0  0  0  0
 15 34  1  0  0  0  0
 16 17  2  0  0  0  0
 17 35  1  0  0  0  0
M  END
> <s_m_source_file>
AV-unprocessed.smi

> <i_m_source_file_index>
3141

> <i_lp_mmshare_version>
43012

> <i_f3d_flags>
0

> <s_epik_input>
W0NIMl0xW0NIMl1bQ0hdMVtOSF1DKD1PKVtOSF1bQ0BASF0yW0NIMl1bQ0gyXVtDSDJdW0NASF0ybjNbY0hdW2NIXW5bY0hdMw==

> <s_epik_cmdline>
J2VwaWtfcHl0aG9uJywgJy1waCcsICc3LjAnLCAnLXRuJywgJzgnLCAnLW1hJywgJzIwMCcsICctbWV0YWxfYmluZGluZycsICctaW1hZScsICc8aW5maWxlLm1hZT4nLCAnLW9tYWUnLCAnPG91dGZpbGUubWFlPic=

> <r_lp_tautomer_probability>
1

> <r_epik_Ionization_Penalty>
0.728419

> <r_epik_Ionization_Penalty_Charging>
0.728357

> <r_epik_Ionization_Penalty_Neutral>
6.27871e-05

> <r_epik_State_Penalty>
0.753408

> <r_epik_Charging_Adjusted_Penalty>
1.48176

> <i_epik_Tot_Q>
0

> <i_epik_Tot_abs_Q>
0

> <r_epik_Metal_State_Penalty>
0.332413

> <b_epik_Metal_Only>
0

> <s_lp_Force_Field>
OPLS_2005

> <r_lp_Energy>
34.7591

> <b_lp_Chiralities_Consistent>
1

> <s_lp_Variant>
AV-unprocessed.smi:3141-8

> <Gold.Version>
5.8.1

> <Gold.Id.Protein>
6NUR|6NUR_protein|mol2

> <Gold.PLP.Fitness>
50.5443

> <Gold.PLP.PLP>
-39.4449

> <Gold.PLP.part.hbond>
-3.0000

> <Gold.PLP.part.metal>
0.0000

> <Gold.PLP.part.buried>
-2.8477

> <Gold.PLP.part.nonpolar>
-33.9771

> <Gold.PLP.part.repulsive>
0.2363

> <Gold.PLP.ligand.clash>
0.0000

> <Gold.PLP.ligand.torsion>
0.2677

> <Gold.PLP.Chemscore.Hbond>
2.8640

> <Gold.PLP.Chemscore.CHOScore>
1.0000

> <Gold.PLP.Chemscore.Metal>
0.0000

> <Gold.Chemscore.Hbonds>
donor molecule, donor type, donor heavy atom, donor atom, acceptor molecule, acceptor atom, score
      L1  H     3    18       P1  8028  0.62
      L1  H     7    24       P1  8028  1.00
      P1  H 10752 10765       L1    16  0.83
      L1  C    17    35       P1  7948  1.00

> <Gold.PLP.Chemscore.Internal.Correction>
0.0429

> <Gold.Rescore>
     Score         DG    S(hbond)    S(metal)    S(lipo)     H(rot)  DE(clash)    DE(int)     intcor
     18.01     -19.85       2.68        0.00      80.65       1.57       0.06       1.77       ----

> <Gold.Chemscore.Fitness>
18.0130

> <Gold.Chemscore.DG>
-19.8458

> <Gold.Chemscore.ZeroCoef>
-5.4800

> <Gold.Chemscore.Hbond>
2.6798

> <Gold.Chemscore.Metal>
0.0000

> <Gold.Chemscore.Lipo>
80.6478

> <Gold.Chemscore.Internal_Hbond>
0.0000

> <Gold.Chemscore.DEClash>
0.0615

> <Gold.Chemscore.DEInternal>
1.7713

> <Gold.Chemscore.Rot>
1.5705

> <Gold.Chemscore.Internal.Correction>
   9.000000E+99

> <Gold.Chemscore.Hbonds>
donor molecule, donor type, donor heavy atom, donor atom, acceptor molecule, acceptor atom, score
      L1  H     3    18       P1  8028  0.59
      L1  H     7    24       P1  8028  0.96
      P1  H 10752 10765       L1    16  0.23

> <Gold.Chemscore.Hbond.Weighted>
-8.9506

> <Gold.Chemscore.Metal.Weighted>
-0.0000

> <Gold.Chemscore.Lipo.Weighted>
-9.4358

> <Gold.Chemscore.Internal_Hbond.Weighted>
0.0000

> <Gold.Chemscore.DEClash.Weighted>
0.0615

> <Gold.Chemscore.DEInternal.Weighted>
1.7713

> <Gold.Chemscore.Rot.Weighted>
4.0206

> <Gold.Chemscore.Internal.Correction.Weighted>
   9.000000E+99

> <Gold.Protein.RotatedTorsions>
[ 6907 6896 6895 6894 ] final  -86.03 input  -60.11 | X-H torsion
[ 7974 7965 7964 7962 ] final   88.73 input  175.53 | X-H torsion
[ 8008 7997 7996 7995 ] final  109.04 input   59.86 | X-H torsion
[ 10167 10162 10161 10158 ] final  160.89 input  -65.29 | X-H torsion
[ 10718 10713 10712 10709 ] final -172.43 input   66.30 | X-H torsion
[ 10763 10752 10751 10750 ] final  164.41 input  -60.55 | X-H torsion
[ 11005 11000 10999 10996 ] final -138.10 input  -57.11 | X-H torsion

> <Gold.Protein.ActiveResidues>
 VAL166  LYS551  ARG553  GLY616  TRP617  ASP618  TYR619  PRO620  LYS621  CYS622 
 ASP623  PHE694  ASN695  SER759  ASP760  ASP761  ALA762  ILE779  LEU786  VAL792 
 PHE793  MET794  SER795  GLU796  ALA797  LYS798  CYS799  TRP800  GLU811  SER814 

> <Gold.Protein.RotatedAtoms>
  150.6868  134.3113  159.4747 H   0  0  0  0  0  0  0  0  0  0  0  0  # atno 6907 bound_to 6896
  152.0998  134.9347  160.0579 H   0  0  0  0  0  0  0  0  0  0  0  0  # atno 6908 bound_to 6896
  152.0630  133.4036  159.4463 H   0  0  0  0  0  0  0  0  0  0  0  0  # atno 6909 bound_to 6896
  145.5417  139.2289  143.2562 H   0  0  0  0  0  0  0  0  0  0  0  0  # atno 7974 bound_to 7965
  156.1949  140.3065  155.9407 H   0  0  0  0  0  0  0  0  0  0  0  0  # atno 8008 bound_to 7997
  155.3088  140.0450  157.3051 H   0  0  0  0  0  0  0  0  0  0  0  0  # atno 8009 bound_to 7997
  154.5498  140.2288  155.8513 H   0  0  0  0  0  0  0  0  0  0  0  0  # atno 8010 bound_to 7997
  139.4844  144.4590  151.8730 H   0  0  0  0  0  0  0  0  0  0  0  0  # atno 10167 bound_to 10162
  156.7555  130.9394  151.3116 H   0  0  0  0  0  0  0  0  0  0  0  0  # atno 10718 bound_to 10713
  154.3084  135.2758  155.2577 H   0  0  0  0  0  0  0  0  0  0  0  0  # atno 10763 bound_to 10752
  154.4983  135.5815  153.6515 H   0  0  0  0  0  0  0  0  0  0  0  0  # atno 10764 bound_to 10752
  152.9891  135.6151  154.3260 H   0  0  0  0  0  0  0  0  0  0  0  0  # atno 10765 bound_to 10752
  140.8648  134.2124  157.4686 H   0  0  0  0  0  0  0  0  0  0  0  0  # atno 11005 bound_to 11000
  146.1976  140.6237  142.9117 LP  0  0  0  0  0  0  0  0  0  0  0  0  # atno 17320 bound_to 7965
  144.7573  140.5339  143.6760 LP  0  0  0  0  0  0  0  0  0  0  0  0  # atno 17321 bound_to 7965
  140.4051  144.2442  150.5891 LP  0  0  0  0  0  0  0  0  0  0  0  0  # atno 17342 bound_to 10162
  140.5020  143.2315  151.8664 LP  0  0  0  0  0  0  0  0  0  0  0  0  # atno 17343 bound_to 10162
  157.6758  130.9093  150.0147 LP  0  0  0  0  0  0  0  0  0  0  0  0  # atno 17370 bound_to 10713
  156.1373  130.3642  149.9637 LP  0  0  0  0  0  0  0  0  0  0  0  0  # atno 17371 bound_to 10713
  139.8708  134.9747  156.4855 LP  0  0  0  0  0  0  0  0  0  0  0  0  # atno 17394 bound_to 11000
  140.8641  133.8037  155.9296 LP  0  0  0  0  0  0  0  0  0  0  0  0  # atno 17395 bound_to 11000

$$$$
