AV-unprocessed.smi:2079|AV-procd|sdf|8475|dock4
  -GOLD-   2272011173D 1   1.00000     0.00000
 Structure written by MMmdl.
 42 43  0  0  0  0  0  0  0  0  2 V2000
  152.1095  142.3904  154.7994 C   0  0  0  0  0  0  0  0  0  0  0  0
  151.4406  141.2151  154.1735 C   0  0  0  0  0  0  0  0  0  0  0  0
  151.1499  140.8903  152.8783 C   0  0  0  0  0  0  0  0  0  0  0  0
  150.5151  139.6256  153.0008 C   0  0  0  0  0  0  0  0  0  0  0  0
  150.0557  138.9261  151.8557 N   0  0  0  0  0  0  0  0  0  0  0  0
  150.0060  139.3759  150.5903 C   0  0  0  0  0  0  0  0  0  0  0  0
  150.3846  140.4861  150.2156 O   0  0  0  0  0  0  0  0  0  0  0  0
  149.4873  138.4577  149.7615 N   0  0  0  0  0  0  0  0  0  0  0  0
  149.2749  138.6582  148.3322 C   0  0  0  0  0  0  0  0  0  0  0  0
  147.8822  138.1604  147.8900 C   0  0  0  0  0  0  0  0  0  0  0  0
  147.8599  136.7213  147.4966 N   0  3  2  0  0  0  0  0  0  0  0  0
  148.6153  135.8664  148.4587 C   0  0  0  0  0  0  0  0  0  0  0  0
  148.4893  134.3724  148.1286 C   0  0  0  0  0  0  0  0  0  0  0  0
  148.9673  134.0942  146.7043 C   0  0  0  0  0  0  0  0  0  0  0  0
  148.1801  134.9716  145.7290 C   0  0  0  0  0  0  0  0  0  0  0  0
  148.2930  136.4715  146.0809 C   0  0  1  0  0  0  0  0  0  0  0  0
  147.4901  137.2809  145.0406 C   0  0  0  0  0  0  0  0  0  0  0  0
  150.4229  139.2175  154.2572 N   0  0  0  0  0  0  0  0  0  0  0  0
  151.0163  140.2337  155.0152 O   0  0  0  0  0  0  0  0  0  0  0  0
  152.2266  143.2012  154.0801 H   0  0  0  0  0  0  0  0  0  0  0  0
  153.0988  142.1191  155.1677 H   0  0  0  0  0  0  0  0  0  0  0  0
  151.5264  142.7662  155.6403 H   0  0  0  0  0  0  0  0  0  0  0  0
  151.3618  141.4658  151.9892 H   0  0  0  0  0  0  0  0  0  0  0  0
  149.7148  137.9909  152.0217 H   0  0  0  0  0  0  0  0  0  0  0  0
  149.2012  137.5698  150.1484 H   0  0  0  0  0  0  0  0  0  0  0  0
  149.3891  139.7260  148.1521 H   0  0  0  0  0  0  0  0  0  0  0  0
  150.0612  138.1564  147.7653 H   0  0  0  0  0  0  0  0  0  0  0  0
  147.2134  138.3242  148.7310 H   0  0  0  0  0  0  0  0  0  0  0  0
  147.5021  138.7708  147.0695 H   0  0  0  0  0  0  0  0  0  0  0  0
  149.6659  136.1615  148.4603 H   0  0  0  0  0  0  0  0  0  0  0  0
  148.2479  136.0054  149.4736 H   0  0  0  0  0  0  0  0  0  0  0  0
  149.0714  133.7834  148.8379 H   0  0  0  0  0  0  0  0  0  0  0  0
  147.4514  134.0556  148.2400 H   0  0  0  0  0  0  0  0  0  0  0  0
  150.0341  134.3058  146.6194 H   0  0  0  0  0  0  0  0  0  0  0  0
  148.8338  133.0401  146.4593 H   0  0  0  0  0  0  0  0  0  0  0  0
  148.5444  134.7952  144.7162 H   0  0  0  0  0  0  0  0  0  0  0  0
  147.1317  134.6694  145.7342 H   0  0  0  0  0  0  0  0  0  0  0  0
  149.3416  136.7621  145.9961 H   0  0  0  0  0  0  0  0  0  0  0  0
  147.7171  136.9462  144.0281 H   0  0  0  0  0  0  0  0  0  0  0  0
  147.7305  138.3434  145.0629 H   0  0  0  0  0  0  0  0  0  0  0  0
  146.4156  137.1677  145.1894 H   0  0  0  0  0  0  0  0  0  0  0  0
  146.8938  136.4304  147.5477 H   0  0  0  0  0  0  0  0  0  0  0  0
  1  2  1  0  0  0  0
  1 20  1  0  0  0  0
  1 21  1  0  0  0  0
  1 22  1  0  0  0  0
  2 19  1  0  0  0  0
  2  3  2  0  0  0  0
  3  4  1  0  0  0  0
  3 23  1  0  0  0  0
  4  5  1  0  0  0  0
  4 18  2  0  0  0  0
  5  6  1  0  0  0  0
  5 24  1  0  0  0  0
  6  7  2  0  0  0  0
  6  8  1  0  0  0  0
  8  9  1  0  0  0  0
  8 25  1  0  0  0  0
  9 10  1  0  0  0  0
  9 26  1  0  0  0  0
  9 27  1  0  0  0  0
 10 11  1  0  0  0  0
 10 28  1  0  0  0  0
 10 29  1  0  0  0  0
 11 16  1  0  0  0  0
 11 12  1  0  0  0  0
 11 42  1  0  0  0  0
 12 13  1  0  0  0  0
 12 30  1  0  0  0  0
 12 31  1  0  0  0  0
 13 14  1  0  0  0  0
 13 32  1  0  0  0  0
 13 33  1  0  0  0  0
 14 15  1  0  0  0  0
 14 34  1  0  0  0  0
 14 35  1  0  0  0  0
 15 16  1  0  0  0  0
 15 36  1  0  0  0  0
 15 37  1  0  0  0  0
 16 17  1  0  0  0  0
 16 38  1  0  0  0  0
 17 39  1  0  0  0  0
 17 40  1  0  0  0  0
 17 41  1  0  0  0  0
 18 19  1  0  0  0  0
M  CHG  1  11   1
M  END
> <s_m_source_file>
AV-unprocessed.smi

> <i_m_source_file_index>
2079

> <i_lp_mmshare_version>
43012

> <i_f3d_flags>
0

> <s_epik_input>
W0NIM11jMVtjSF1jKG5vMSlbTkhdQyg9TylbTkhdW0NIMl1bQ0gyXU4yW0NIMl1bQ0gyXVtDSDJdW0NIMl1bQ0BIXTJbQ0gzXQ==

> <s_epik_cmdline>
J2VwaWtfcHl0aG9uJywgJy1waCcsICc3LjAnLCAnLXRuJywgJzgnLCAnLW1hJywgJzIwMCcsICctbWV0YWxfYmluZGluZycsICctaW1hZScsICc8aW5maWxlLm1hZT4nLCAnLW9tYWUnLCAnPG91dGZpbGUubWFlPic=

> <r_epik_Ionization_Penalty>
0.00265971

> <r_epik_Ionization_Penalty_Charging>
0.00262393

> <r_epik_Ionization_Penalty_Neutral>
3.57846e-05

> <r_epik_State_Penalty>
0.00182566

> <r_epik_Charging_Adjusted_Penalty>
0.00444959

> <i_epik_Tot_Q>
1

> <i_epik_Tot_abs_Q>
1

> <r_epik_Metal_State_Penalty>
0.0216344

> <b_epik_Metal_Only>
0

> <s_lp_Force_Field>
OPLS_2005

> <r_lp_Energy>
17.1717

> <b_lp_Chiralities_Consistent>
1

> <s_lp_Variant>
AV-unprocessed.smi:2079-1

> <Gold.Version>
5.8.1

> <Gold.Id.Protein>
6NUR|6NUR_protein|mol2

> <Gold.PLP.Fitness>
39.6297

> <Gold.PLP.PLP>
-31.2318

> <Gold.PLP.part.hbond>
-5.0389

> <Gold.PLP.part.metal>
0.0000

> <Gold.PLP.part.buried>
-5.2588

> <Gold.PLP.part.nonpolar>
-21.0580

> <Gold.PLP.part.repulsive>
0.3266

> <Gold.PLP.ligand.clash>
0.0000

> <Gold.PLP.ligand.torsion>
0.4606

> <Gold.PLP.Chemscore.Hbond>
3.1000

> <Gold.PLP.Chemscore.CHOScore>
0.0000

> <Gold.PLP.Chemscore.Metal>
0.0000

> <Gold.Chemscore.Hbonds>
donor molecule, donor type, donor heavy atom, donor atom, acceptor molecule, acceptor atom, score
      L1  H     5    24       P1  7948  0.80
      L1  H    11    42       P1  7921  0.34

> <Gold.PLP.Chemscore.Internal.Correction>
0.0191

> <Gold.Rescore>
     Score         DG    S(hbond)    S(metal)    S(lipo)     H(rot)  DE(clash)    DE(int)     intcor
     15.09     -17.06       2.60        0.00      59.10       1.57       0.01       1.96       ----

> <Gold.Chemscore.Fitness>
15.0867

> <Gold.Chemscore.DG>
-17.0599

> <Gold.Chemscore.ZeroCoef>
-5.4800

> <Gold.Chemscore.Hbond>
2.5999

> <Gold.Chemscore.Metal>
0.0000

> <Gold.Chemscore.Lipo>
59.0987

> <Gold.Chemscore.Internal_Hbond>
0.0000

> <Gold.Chemscore.DEClash>
0.0098

> <Gold.Chemscore.DEInternal>
1.9634

> <Gold.Chemscore.Rot>
1.5697

> <Gold.Chemscore.Internal.Correction>
   9.000000E+99

> <Gold.Chemscore.Hbonds>
donor molecule, donor type, donor heavy atom, donor atom, acceptor molecule, acceptor atom, score
      L1  H     5    24       P1  7948  0.12
      L1  H    11    42       P1  7921  0.02

> <Gold.Chemscore.Hbond.Weighted>
-8.6838

> <Gold.Chemscore.Metal.Weighted>
-0.0000

> <Gold.Chemscore.Lipo.Weighted>
-6.9146

> <Gold.Chemscore.Internal_Hbond.Weighted>
0.0000

> <Gold.Chemscore.DEClash.Weighted>
0.0098

> <Gold.Chemscore.DEInternal.Weighted>
1.9634

> <Gold.Chemscore.Rot.Weighted>
4.0185

> <Gold.Chemscore.Internal.Correction.Weighted>
   9.000000E+99

> <Gold.Protein.RotatedTorsions>
[ 6907 6896 6895 6894 ] final   83.83 input  -60.11 | X-H torsion
[ 7974 7965 7964 7962 ] final  -93.46 input  175.53 | X-H torsion
[ 8008 7997 7996 7995 ] final  104.25 input   59.86 | X-H torsion
[ 10167 10162 10161 10158 ] final  158.98 input  -65.29 | X-H torsion
[ 10718 10713 10712 10709 ] final  -56.21 input   66.30 | X-H torsion
[ 10763 10752 10751 10750 ] final   -9.16 input  -60.55 | X-H torsion
[ 11005 11000 10999 10996 ] final   30.79 input  -57.11 | X-H torsion

> <Gold.Protein.ActiveResidues>
 VAL166  LYS551  ARG553  GLY616  TRP617  ASP618  TYR619  PRO620  LYS621  CYS622 
 ASP623  PHE694  ASN695  SER759  ASP760  ASP761  ALA762  ILE779  LEU786  VAL792 
 PHE793  MET794  SER795  GLU796  ALA797  LYS798  CYS799  TRP800  GLU811  SER814 

> <Gold.Protein.RotatedAtoms>
  152.5337  134.2835  159.9016 H   0  0  0  0  0  0  0  0  0  0  0  0  # atno 6907 bound_to 6896
  151.2789  133.4212  159.2633 H   0  0  0  0  0  0  0  0  0  0  0  0  # atno 6908 bound_to 6896
  151.0301  134.9548  159.8163 H   0  0  0  0  0  0  0  0  0  0  0  0  # atno 6909 bound_to 6896
  145.3862  140.9523  143.2366 H   0  0  0  0  0  0  0  0  0  0  0  0  # atno 7974 bound_to 7965
  156.1556  140.3151  155.8721 H   0  0  0  0  0  0  0  0  0  0  0  0  # atno 8008 bound_to 7997
  155.3884  140.0492  157.3058 H   0  0  0  0  0  0  0  0  0  0  0  0  # atno 8009 bound_to 7997
  154.5098  140.2160  155.9189 H   0  0  0  0  0  0  0  0  0  0  0  0  # atno 8010 bound_to 7997
  139.4829  144.4773  151.8493 H   0  0  0  0  0  0  0  0  0  0  0  0  # atno 10167 bound_to 10162
  156.1306  130.4159  150.0275 H   0  0  0  0  0  0  0  0  0  0  0  0  # atno 10718 bound_to 10713
  153.4508  135.7015  153.6110 H   0  0  0  0  0  0  0  0  0  0  0  0  # atno 10763 bound_to 10752
  153.4445  135.3772  155.2248 H   0  0  0  0  0  0  0  0  0  0  0  0  # atno 10764 bound_to 10752
  154.8728  135.3982  154.3920 H   0  0  0  0  0  0  0  0  0  0  0  0  # atno 10765 bound_to 10752
  140.2907  134.2868  155.7777 H   0  0  0  0  0  0  0  0  0  0  0  0  # atno 11005 bound_to 11000
  144.8472  139.5378  143.6873 LP  0  0  0  0  0  0  0  0  0  0  0  0  # atno 17320 bound_to 7965
  146.2819  139.6900  142.9223 LP  0  0  0  0  0  0  0  0  0  0  0  0  # atno 17321 bound_to 7965
  140.4246  144.2197  150.5887 LP  0  0  0  0  0  0  0  0  0  0  0  0  # atno 17342 bound_to 10162
  140.4840  143.2369  151.8915 LP  0  0  0  0  0  0  0  0  0  0  0  0  # atno 17343 bound_to 10162
  156.8188  130.9351  151.3642 LP  0  0  0  0  0  0  0  0  0  0  0  0  # atno 17370 bound_to 10713
  157.6485  130.8864  149.9585 LP  0  0  0  0  0  0  0  0  0  0  0  0  # atno 17371 bound_to 10713
  141.2147  133.7583  156.9620 LP  0  0  0  0  0  0  0  0  0  0  0  0  # atno 17394 bound_to 11000
  140.1198  134.9424  157.2187 LP  0  0  0  0  0  0  0  0  0  0  0  0  # atno 17395 bound_to 11000

$$$$
