AV-unprocessed.smi:1644|AV-procd|sdf|6591|dock1
  -GOLD-   22720 7283D 1   1.00000     0.00000
 Structure written by MMmdl.
 50 52  0  0  0  0  0  0  0  0  2 V2000
  142.4387  134.9381  153.6402 C   0  0  0  0  0  0  0  0  0  0  0  0
  142.5084  136.3745  154.1694 C   0  0  0  0  0  0  0  0  0  0  0  0
  143.3085  137.3071  153.2371 C   0  0  0  0  0  0  0  0  0  0  0  0
  144.8333  137.0572  153.1824 C   0  0  1  0  0  0  0  0  0  0  0  0
  145.4483  137.5249  151.9559 N   0  0  0  0  0  0  0  0  0  0  0  0
  146.4248  138.4149  152.1778 C   0  0  0  0  0  0  0  0  0  0  0  0
  147.1125  138.9442  151.3063 O   0  0  0  0  0  0  0  0  0  0  0  0
  146.5192  138.6190  153.5040 N   0  0  0  0  0  0  0  0  0  0  0  0
  147.4829  139.5249  154.1362 C   0  0  0  0  0  0  0  0  0  0  0  0
  148.8863  138.8910  154.2209 C   0  0  1  0  0  0  0  0  0  0  0  0
  149.7863  139.6634  153.4506 O   0  0  0  0  0  0  0  0  0  0  0  0
  149.4085  138.8465  155.6701 C   0  0  0  0  0  0  0  0  0  0  0  0
  149.6668  140.1836  156.2180 N   0  0  0  0  0  0  0  0  0  0  0  0
  149.1353  141.3896  155.8803 C   0  0  0  0  0  0  0  0  0  0  0  0
  149.7073  142.3285  156.6850 N   0  3  0  0  0  0  0  0  0  0  0  0
  150.6179  141.7120  157.5466 C   0  0  0  0  0  0  0  0  0  0  0  0
  151.4395  142.2397  158.5356 C   0  0  0  0  0  0  0  0  0  0  0  0
  152.2629  141.3334  159.2419 C   0  0  0  0  0  0  0  0  0  0  0  0
  153.1739  141.8775  160.3292 C   0  0  0  0  0  0  0  0  0  0  0  0
  152.2440  139.9455  158.9455 C   0  0  0  0  0  0  0  0  0  0  0  0
  153.1366  138.9804  159.7071 C   0  0  0  0  0  0  0  0  0  0  0  0
  151.3987  139.4281  157.9384 C   0  0  0  0  0  0  0  0  0  0  0  0
  150.5953  140.3354  157.2523 C   0  0  0  0  0  0  0  0  0  0  0  0
  145.6367  137.8710  154.1800 C   0  0  0  0  0  0  0  0  0  0  0  0
  145.4829  137.8176  155.4005 O   0  0  0  0  0  0  0  0  0  0  0  0
  141.8740  134.3005  154.3209 H   0  0  0  0  0  0  0  0  0  0  0  0
  143.4352  134.5086  153.5329 H   0  0  0  0  0  0  0  0  0  0  0  0
  141.9496  134.9004  152.6665 H   0  0  0  0  0  0  0  0  0  0  0  0
  141.4938  136.7532  154.2950 H   0  0  0  0  0  0  0  0  0  0  0  0
  142.9578  136.3602  155.1628 H   0  0  0  0  0  0  0  0  0  0  0  0
  142.9032  137.2358  152.2267 H   0  0  0  0  0  0  0  0  0  0  0  0
  143.1414  138.3392  153.5473 H   0  0  0  0  0  0  0  0  0  0  0  0
  145.0539  135.9978  153.3188 H   0  0  0  0  0  0  0  0  0  0  0  0
  145.1726  137.1948  151.0421 H   0  0  0  0  0  0  0  0  0  0  0  0
  147.5168  140.4926  153.6316 H   0  0  0  0  0  0  0  0  0  0  0  0
  147.1173  139.7453  155.1407 H   0  0  0  0  0  0  0  0  0  0  0  0
  148.8676  137.8776  153.8183 H   0  0  0  0  0  0  0  0  0  0  0  0
  149.4093  139.8001  152.5944 H   0  0  0  0  0  0  0  0  0  0  0  0
  148.6889  138.3505  156.3233 H   0  0  0  0  0  0  0  0  0  0  0  0
  150.3335  138.2720  155.7346 H   0  0  0  0  0  0  0  0  0  0  0  0
  148.3977  141.5687  155.1114 H   0  0  0  0  0  0  0  0  0  0  0  0
  151.4496  143.2975  158.7548 H   0  0  0  0  0  0  0  0  0  0  0  0
  152.9553  141.4033  161.2863 H   0  0  0  0  0  0  0  0  0  0  0  0
  153.0477  142.9533  160.4548 H   0  0  0  0  0  0  0  0  0  0  0  0
  154.2191  141.6912  160.0806 H   0  0  0  0  0  0  0  0  0  0  0  0
  153.0232  137.9593  159.3416 H   0  0  0  0  0  0  0  0  0  0  0  0
  152.8864  138.9843  160.7683 H   0  0  0  0  0  0  0  0  0  0  0  0
  154.1850  139.2585  159.5963 H   0  0  0  0  0  0  0  0  0  0  0  0
  151.3828  138.3720  157.7114 H   0  0  0  0  0  0  0  0  0  0  0  0
  149.4912  143.3164  156.6450 H   0  0  0  0  0  0  0  0  0  0  0  0
  1  2  1  0  0  0  0
  1 26  1  0  0  0  0
  1 27  1  0  0  0  0
  1 28  1  0  0  0  0
  2  3  1  0  0  0  0
  2 29  1  0  0  0  0
  2 30  1  0  0  0  0
  3  4  1  0  0  0  0
  3 31  1  0  0  0  0
  3 32  1  0  0  0  0
  4 24  1  0  0  0  0
  4  5  1  0  0  0  0
  4 33  1  0  0  0  0
  5  6  1  0  0  0  0
  5 34  1  0  0  0  0
  6  7  2  0  0  0  0
  6  8  1  0  0  0  0
  8  9  1  0  0  0  0
  8 24  1  0  0  0  0
  9 10  1  0  0  0  0
  9 35  1  0  0  0  0
  9 36  1  0  0  0  0
 10 11  1  0  0  0  0
 10 12  1  0  0  0  0
 10 37  1  0  0  0  0
 11 38  1  0  0  0  0
 12 13  1  0  0  0  0
 12 39  1  0  0  0  0
 12 40  1  0  0  0  0
 13 23  1  0  0  0  0
 13 14  1  0  0  0  0
 14 15  2  0  0  0  0
 14 41  1  0  0  0  0
 15 16  1  0  0  0  0
 15 50  1  0  0  0  0
 16 23  2  0  0  0  0
 16 17  1  0  0  0  0
 17 18  2  0  0  0  0
 17 42  1  0  0  0  0
 18 19  1  0  0  0  0
 18 20  1  0  0  0  0
 19 43  1  0  0  0  0
 19 44  1  0  0  0  0
 19 45  1  0  0  0  0
 20 21  1  0  0  0  0
 20 22  2  0  0  0  0
 21 46  1  0  0  0  0
 21 47  1  0  0  0  0
 21 48  1  0  0  0  0
 22 23  1  0  0  0  0
 22 49  1  0  0  0  0
 24 25  2  0  0  0  0
M  CHG  1  15   1
M  END
> <s_m_source_file>
AV-unprocessed.smi

> <i_m_source_file_index>
1644

> <i_lp_mmshare_version>
43012

> <i_f3d_flags>
0

> <s_epik_input>
W0NIM11bQ0gyXVtDSDJdW0NAQEhdMVtOSF1DKD1PKU4oQzE9TylbQ0gyXVtDQEhdKFtPSF0pW0NIMl1uKFtjSF1uMiljKGMyMylbY0hdYyhbQ0gzXSljKFtjSF0zKVtDSDNd

> <s_epik_cmdline>
J2VwaWtfcHl0aG9uJywgJy1waCcsICc3LjAnLCAnLXRuJywgJzgnLCAnLW1hJywgJzIwMCcsICctbWV0YWxfYmluZGluZycsICctaW1hZScsICc8aW5maWxlLm1hZT4nLCAnLW9tYWUnLCAnPG91dGZpbGUubWFlPic=

> <r_lp_tautomer_probability>
1

> <r_epik_Ionization_Penalty>
1.06742

> <r_epik_Ionization_Penalty_Charging>
1.06736

> <r_epik_Ionization_Penalty_Neutral>
5.56132e-05

> <r_epik_State_Penalty>
1.12163

> <r_epik_Charging_Adjusted_Penalty>
2.18899

> <i_epik_Tot_Q>
1

> <i_epik_Tot_abs_Q>
1

> <r_epik_Metal_State_Penalty>
1.26636

> <b_epik_Metal_Only>
0

> <s_lp_Force_Field>
OPLS_2005

> <r_lp_Energy>
28.3475

> <b_lp_Chiralities_Consistent>
1

> <s_lp_Variant>
AV-unprocessed.smi:1644-8

> <Gold.Version>
5.8.1

> <Gold.Id.Protein>
6NUR|6NUR_protein|mol2

> <Gold.PLP.Fitness>
46.4894

> <Gold.PLP.PLP>
-36.6996

> <Gold.PLP.part.hbond>
-4.4452

> <Gold.PLP.part.metal>
0.0000

> <Gold.PLP.part.buried>
-7.4321

> <Gold.PLP.part.nonpolar>
-28.4395

> <Gold.PLP.part.repulsive>
3.1916

> <Gold.PLP.ligand.clash>
0.0000

> <Gold.PLP.ligand.torsion>
1.7414

> <Gold.PLP.Chemscore.Hbond>
4.3548

> <Gold.PLP.Chemscore.CHOScore>
0.0000

> <Gold.PLP.Chemscore.Metal>
0.0000

> <Gold.Chemscore.Hbonds>
donor molecule, donor type, donor heavy atom, donor atom, acceptor molecule, acceptor atom, score
      L1  H     5    34       P1 10171  0.14
      L1  H    11    38       P1  7957  0.82
      L1  H    15    50       P1  8028  1.95
      P1  H  7954  7966       L1     7  0.83
      P1  H  7989  7998       L1    11  0.42

> <Gold.PLP.Chemscore.Internal.Correction>
0.2083

> <Gold.Rescore>
     Score         DG    S(hbond)    S(metal)    S(lipo)     H(rot)  DE(clash)    DE(int)     intcor
     14.12     -17.96       2.94        0.00      84.02       2.80       1.33       2.51       ----

> <Gold.Chemscore.Fitness>
14.1209

> <Gold.Chemscore.DG>
-17.9586

> <Gold.Chemscore.ZeroCoef>
-5.4800

> <Gold.Chemscore.Hbond>
2.9361

> <Gold.Chemscore.Metal>
0.0000

> <Gold.Chemscore.Lipo>
84.0184

> <Gold.Chemscore.Internal_Hbond>
0.0000

> <Gold.Chemscore.DEClash>
1.3319

> <Gold.Chemscore.DEInternal>
2.5059

> <Gold.Chemscore.Rot>
2.7961

> <Gold.Chemscore.Internal.Correction>
   9.000000E+99

> <Gold.Chemscore.Hbonds>
donor molecule, donor type, donor heavy atom, donor atom, acceptor molecule, acceptor atom, score
      L1  H     5    34       P1 10171  0.14
      L1  H    11    38       P1  7957  0.77
      L1  H    15    50       P1  8028  0.92
      P1  H  7954  7966       L1     7  0.77
      P1  H  7989  7998       L1    11  0.22

> <Gold.Chemscore.Hbond.Weighted>
-9.8065

> <Gold.Chemscore.Metal.Weighted>
-0.0000

> <Gold.Chemscore.Lipo.Weighted>
-9.8301

> <Gold.Chemscore.Internal_Hbond.Weighted>
0.0000

> <Gold.Chemscore.DEClash.Weighted>
1.3319

> <Gold.Chemscore.DEInternal.Weighted>
2.5059

> <Gold.Chemscore.Rot.Weighted>
7.1580

> <Gold.Chemscore.Internal.Correction.Weighted>
   9.000000E+99

> <Gold.Protein.RotatedTorsions>
[ 6907 6896 6895 6894 ] final -103.75 input  -60.11 | X-H torsion
[ 7974 7965 7964 7962 ] final   38.64 input  175.53 | X-H torsion
[ 8008 7997 7996 7995 ] final   37.71 input   59.86 | X-H torsion
[ 10167 10162 10161 10158 ] final   10.99 input  -65.29 | X-H torsion
[ 10718 10713 10712 10709 ] final   82.51 input   66.30 | X-H torsion
[ 10763 10752 10751 10750 ] final   15.60 input  -60.55 | X-H torsion
[ 11005 11000 10999 10996 ] final   92.58 input  -57.11 | X-H torsion

> <Gold.Protein.ActiveResidues>
 VAL166  LYS551  ARG553  GLY616  TRP617  ASP618  TYR619  PRO620  LYS621  CYS622 
 ASP623  PHE694  ASN695  SER759  ASP760  ASP761  ALA762  ILE779  LEU786  VAL792 
 PHE793  MET794  SER795  GLU796  ALA797  LYS798  CYS799  TRP800  GLU811  SER814 

> <Gold.Protein.RotatedAtoms>
  150.7254  134.0382  159.3756 H   0  0  0  0  0  0  0  0  0  0  0  0  # atno 6907 bound_to 6896
  151.8354  135.0605  160.0451 H   0  0  0  0  0  0  0  0  0  0  0  0  # atno 6908 bound_to 6896
  152.2902  133.5518  159.5589 H   0  0  0  0  0  0  0  0  0  0  0  0  # atno 6909 bound_to 6896
  146.1046  139.5748  142.9392 H   0  0  0  0  0  0  0  0  0  0  0  0  # atno 7974 bound_to 7965
  155.2082  140.3321  155.4333 H   0  0  0  0  0  0  0  0  0  0  0  0  # atno 8008 bound_to 7997
  156.2381  140.1882  156.7114 H   0  0  0  0  0  0  0  0  0  0  0  0  # atno 8009 bound_to 7997
  154.6096  140.0611  156.9462 H   0  0  0  0  0  0  0  0  0  0  0  0  # atno 8010 bound_to 7997
  140.6160  143.8307  150.7119 H   0  0  0  0  0  0  0  0  0  0  0  0  # atno 10167 bound_to 10162
  157.6859  131.0051  150.2385 H   0  0  0  0  0  0  0  0  0  0  0  0  # atno 10718 bound_to 10713
  153.1510  135.6778  153.8882 H   0  0  0  0  0  0  0  0  0  0  0  0  # atno 10763 bound_to 10752
  153.8308  135.3118  155.3420 H   0  0  0  0  0  0  0  0  0  0  0  0  # atno 10764 bound_to 10752
  154.7862  135.4861  154.0038 H   0  0  0  0  0  0  0  0  0  0  0  0  # atno 10765 bound_to 10752
  139.8821  134.8741  156.3594 H   0  0  0  0  0  0  0  0  0  0  0  0  # atno 11005 bound_to 11000
  145.5786  141.0385  143.2135 LP  0  0  0  0  0  0  0  0  0  0  0  0  # atno 17320 bound_to 7965
  144.7460  139.7318  143.7292 LP  0  0  0  0  0  0  0  0  0  0  0  0  # atno 17321 bound_to 7965
  140.1886  143.4055  152.1880 LP  0  0  0  0  0  0  0  0  0  0  0  0  # atno 17342 bound_to 10162
  139.5399  144.7246  151.4769 LP  0  0  0  0  0  0  0  0  0  0  0  0  # atno 17343 bound_to 10162
  156.3004  130.3758  149.7755 LP  0  0  0  0  0  0  0  0  0  0  0  0  # atno 17370 bound_to 10713
  156.5387  130.8290  151.3262 LP  0  0  0  0  0  0  0  0  0  0  0  0  # atno 17371 bound_to 10713
  140.9540  133.7432  156.0310 LP  0  0  0  0  0  0  0  0  0  0  0  0  # atno 17394 bound_to 11000
  140.8071  134.3442  157.5423 LP  0  0  0  0  0  0  0  0  0  0  0  0  # atno 17395 bound_to 11000

$$$$
