AV-unprocessed.smi:36|AV-procd|sdf|295|dock1
  -GOLD-   2262016 93D 1   1.00000     0.00000
 Structure written by MMmdl.
 63 66  0  0  0  0  0  0  0  0  2 V2000
  146.7438  135.2051  162.8173 C   0  0  0  0  0  0  0  0  0  0  0  0
  145.4504  134.5995  162.2475 C   0  0  0  0  0  0  0  0  0  0  0  0
  145.2761  133.1643  162.7728 C   0  0  0  0  0  0  0  0  0  0  0  0
  144.2439  135.4589  162.6597 C   0  0  0  0  0  0  0  0  0  0  0  0
  145.5706  134.5476  160.3419 Si  0  0  0  0  0  0  0  0  0  0  0  0
  143.9823  133.8282  159.5812 C   0  0  0  0  0  0  0  0  0  0  0  0
  145.8937  136.2769  159.6248 C   0  0  0  0  0  0  0  0  0  0  0  0
  146.8852  133.5609  159.9341 O   0  0  0  0  0  0  0  0  0  0  0  0
  147.0800  132.9849  158.6586 C   0  0  0  0  0  0  0  0  0  0  0  0
  148.1504  133.7844  157.9034 C   0  0  2  0  0  0  0  0  0  0  0  0
  147.8159  135.1688  157.9192 O   0  0  0  0  0  0  0  0  0  0  0  0
  148.3062  135.7955  156.7712 C   0  0  1  0  0  0  0  0  0  0  0  0
  149.3485  136.7818  157.1854 N   0  0  0  0  0  0  0  0  0  0  0  0
  149.7860  137.0754  158.4272 C   0  0  0  0  0  0  0  0  0  0  0  0
  150.7301  138.0083  158.5396 N   0  0  0  0  0  0  0  0  0  0  0  0
  150.9285  138.3681  157.2142 C   0  0  0  0  0  0  0  0  0  0  0  0
  151.7878  139.3178  156.5952 C   0  0  0  0  0  0  0  0  0  0  0  0
  152.6389  140.0909  157.2873 N   0  5  0  0  0  0  0  0  0  0  0  0
  152.3335  140.4678  158.5549 C   0  0  0  0  0  0  0  0  0  0  0  0
  152.2141  139.7493  159.5495 O   0  0  0  0  0  0  0  0  0  0  0  0
  152.0508  141.9409  158.6868 C   0  0  0  0  0  0  0  0  0  0  0  0
  152.3158  142.5973  159.9105 C   0  0  0  0  0  0  0  0  0  0  0  0
  152.0805  143.9792  160.0484 C   0  0  0  0  0  0  0  0  0  0  0  0
  151.5858  144.7221  158.9605 C   0  0  0  0  0  0  0  0  0  0  0  0
  151.3313  144.0827  157.7329 C   0  0  0  0  0  0  0  0  0  0  0  0
  151.5669  142.7010  157.5940 C   0  0  0  0  0  0  0  0  0  0  0  0
  151.7322  139.4063  155.2415 N   0  0  0  0  0  0  0  0  0  0  0  0
  150.8881  138.6340  154.5468 C   0  0  0  0  0  0  0  0  0  0  0  0
  150.0267  137.7151  154.9946 N   0  0  0  0  0  0  0  0  0  0  0  0
  150.0793  137.6122  156.3545 C   0  0  0  0  0  0  0  0  0  0  0  0
  148.9188  134.7088  155.8826 C   0  0  0  0  0  0  0  0  0  0  0  0
  148.2329  133.4655  156.4107 C   0  0  1  0  0  0  0  0  0  0  0  0
  149.0021  132.3093  156.1483 O   0  0  0  0  0  0  0  0  0  0  0  0
  146.7194  135.2389  163.9071 H   0  0  0  0  0  0  0  0  0  0  0  0
  146.8972  136.2241  162.4618 H   0  0  0  0  0  0  0  0  0  0  0  0
  147.6165  134.6202  162.5258 H   0  0  0  0  0  0  0  0  0  0  0  0
  146.1085  132.5280  162.4698 H   0  0  0  0  0  0  0  0  0  0  0  0
  144.3612  132.7089  162.3937 H   0  0  0  0  0  0  0  0  0  0  0  0
  145.2253  133.1432  163.8618 H   0  0  0  0  0  0  0  0  0  0  0  0
  144.1433  135.5057  163.7444 H   0  0  0  0  0  0  0  0  0  0  0  0
  143.3129  135.0549  162.2611 H   0  0  0  0  0  0  0  0  0  0  0  0
  144.3418  136.4815  162.2945 H   0  0  0  0  0  0  0  0  0  0  0  0
  143.1185  134.4579  159.7933 H   0  0  0  0  0  0  0  0  0  0  0  0
  143.7610  132.8354  159.9719 H   0  0  0  0  0  0  0  0  0  0  0  0
  144.0589  133.7405  158.4978 H   0  0  0  0  0  0  0  0  0  0  0  0
  145.0880  136.9691  159.8678 H   0  0  0  0  0  0  0  0  0  0  0  0
  145.9808  136.2484  158.5390 H   0  0  0  0  0  0  0  0  0  0  0  0
  146.8182  136.7045  160.0122 H   0  0  0  0  0  0  0  0  0  0  0  0
  147.3915  131.9465  158.7768 H   0  0  0  0  0  0  0  0  0  0  0  0
  146.1385  132.9754  158.1093 H   0  0  0  0  0  0  0  0  0  0  0  0
  149.1322  133.6575  158.3617 H   0  0  0  0  0  0  0  0  0  0  0  0
  147.5181  136.3739  156.2880 H   0  0  0  0  0  0  0  0  0  0  0  0
  149.3886  136.5776  159.2993 H   0  0  0  0  0  0  0  0  0  0  0  0
  152.6968  142.0421  160.7553 H   0  0  0  0  0  0  0  0  0  0  0  0
  152.2812  144.4686  160.9898 H   0  0  0  0  0  0  0  0  0  0  0  0
  151.4057  145.7816  159.0662 H   0  0  0  0  0  0  0  0  0  0  0  0
  150.9581  144.6524  156.8949 H   0  0  0  0  0  0  0  0  0  0  0  0
  151.3749  142.2322  156.6396 H   0  0  0  0  0  0  0  0  0  0  0  0
  150.9060  138.7726  153.4761 H   0  0  0  0  0  0  0  0  0  0  0  0
  148.7267  134.9050  154.8274 H   0  0  0  0  0  0  0  0  0  0  0  0
  149.9973  134.6578  156.0451 H   0  0  0  0  0  0  0  0  0  0  0  0
  147.2365  133.3678  155.9773 H   0  0  0  0  0  0  0  0  0  0  0  0
  149.7388  132.5531  155.6087 H   0  0  0  0  0  0  0  0  0  0  0  0
  1  2  1  0  0  0  0
  1 34  1  0  0  0  0
  1 35  1  0  0  0  0
  1 36  1  0  0  0  0
  2  3  1  0  0  0  0
  2  4  1  0  0  0  0
  2  5  1  0  0  0  0
  3 37  1  0  0  0  0
  3 38  1  0  0  0  0
  3 39  1  0  0  0  0
  4 40  1  0  0  0  0
  4 41  1  0  0  0  0
  4 42  1  0  0  0  0
  5  6  1  0  0  0  0
  5  7  1  0  0  0  0
  5  8  1  0  0  0  0
  6 43  1  0  0  0  0
  6 44  1  0  0  0  0
  6 45  1  0  0  0  0
  7 46  1  0  0  0  0
  7 47  1  0  0  0  0
  7 48  1  0  0  0  0
  8  9  1  0  0  0  0
  9 10  1  0  0  0  0
  9 49  1  0  0  0  0
  9 50  1  0  0  0  0
 10 32  1  0  0  0  0
 10 11  1  0  0  0  0
 10 51  1  0  0  0  0
 11 12  1  0  0  0  0
 12 13  1  0  0  0  0
 12 31  1  0  0  0  0
 12 52  1  0  0  0  0
 13 30  1  0  0  0  0
 13 14  1  0  0  0  0
 14 15  2  0  0  0  0
 14 53  1  0  0  0  0
 15 16  1  0  0  0  0
 16 30  2  0  0  0  0
 16 17  1  0  0  0  0
 17 18  1  0  0  0  0
 17 27  2  0  0  0  0
 18 19  1  0  0  0  0
 19 20  2  0  0  0  0
 19 21  1  0  0  0  0
 21 26  1  0  0  0  0
 21 22  2  0  0  0  0
 22 23  1  0  0  0  0
 22 54  1  0  0  0  0
 23 24  2  0  0  0  0
 23 55  1  0  0  0  0
 24 25  1  0  0  0  0
 24 56  1  0  0  0  0
 25 26  2  0  0  0  0
 25 57  1  0  0  0  0
 26 58  1  0  0  0  0
 27 28  1  0  0  0  0
 28 29  2  0  0  0  0
 28 59  1  0  0  0  0
 29 30  1  0  0  0  0
 31 32  1  0  0  0  0
 31 60  1  0  0  0  0
 31 61  1  0  0  0  0
 32 33  1  0  0  0  0
 32 62  1  0  0  0  0
 33 63  1  0  0  0  0
M  CHG  1  18  -1
M  END
> <s_m_source_file>
AV-unprocessed.smi

> <i_m_source_file_index>
36

> <i_lp_mmshare_version>
43012

> <i_f3d_flags>
0

> <s_epik_input>
W0NIM11DKFtDSDNdKShbQ0gzXSlbU2ldKFtDSDNdKShbQ0gzXSlPW0NIMl1bQ0BASF0xT1tDQEhdKFtDSDJdW0NASF0xW09IXSluKFtjSF1uMiljKGMyMyluW2NIXW5jM1tOSF1DKD1PKWM0W2NIXVtjSF1bY0hdW2NIXVtjSF00

> <s_epik_cmdline>
J2VwaWtfcHl0aG9uJywgJy1waCcsICc3LjAnLCAnLXRuJywgJzgnLCAnLW1hJywgJzIwMCcsICctbWV0YWxfYmluZGluZycsICctaW1hZScsICc8aW5maWxlLm1hZT4nLCAnLW9tYWUnLCAnPG91dGZpbGUubWFlPic=

> <r_lp_tautomer_probability>
1

> <r_epik_Ionization_Penalty>
4.75685

> <r_epik_Ionization_Penalty_Charging>
3.55822

> <r_epik_Ionization_Penalty_Neutral>
1.19863

> <r_epik_State_Penalty>
3.564

> <r_epik_Charging_Adjusted_Penalty>
7.12222

> <i_epik_Tot_Q>
-1

> <i_epik_Tot_abs_Q>
1

> <r_epik_Metal_State_Penalty>
0.523258

> <b_epik_Metal_Only>
1

> <s_epik_Chemistry_Notes>
This compound contains an acetal/aminal-like group ( X-CH(R)-Y where X, Y are N, S, or O) that may be acid/base labile, releasing an aldehyde.

> <s_lp_Force_Field>
OPLS_2005

> <r_lp_Energy>
36.9476

> <b_lp_Chiralities_Consistent>
1

> <s_lp_Variant>
AV-unprocessed.smi:36-17

> <Gold.Version>
5.8.1

> <Gold.Id.Protein>
6NUR|6NUR_protein|mol2

> <Gold.PLP.Fitness>
52.5195

> <Gold.PLP.PLP>
-43.5708

> <Gold.PLP.part.hbond>
-2.0000

> <Gold.PLP.part.metal>
0.0000

> <Gold.PLP.part.buried>
-5.6412

> <Gold.PLP.part.nonpolar>
-36.0836

> <Gold.PLP.part.repulsive>
0.2144

> <Gold.PLP.ligand.clash>
0.0000

> <Gold.PLP.ligand.torsion>
1.7895

> <Gold.PLP.Chemscore.Hbond>
2.7000

> <Gold.PLP.Chemscore.CHOScore>
1.0000

> <Gold.PLP.Chemscore.Metal>
0.0000

> <Gold.Chemscore.Hbonds>
donor molecule, donor type, donor heavy atom, donor atom, acceptor molecule, acceptor atom, score
      P1  H  7989  7998       L1    27  0.14
      P1  H  7997  8008       L1    18  2.00
      L1  C    28    59       P1  7957  0.03

> <Gold.PLP.Chemscore.Internal.Correction>
1.4277

> <Gold.Rescore>
     Score         DG    S(hbond)    S(metal)    S(lipo)     H(rot)  DE(clash)    DE(int)     intcor
     10.07     -14.40       0.90        0.00     108.88       2.67       0.00       4.33       ----

> <Gold.Chemscore.Fitness>
10.0668

> <Gold.Chemscore.DG>
-14.4030

> <Gold.Chemscore.ZeroCoef>
-5.4800

> <Gold.Chemscore.Hbond>
0.9041

> <Gold.Chemscore.Metal>
0.0000

> <Gold.Chemscore.Lipo>
108.8826

> <Gold.Chemscore.Internal_Hbond>
0.0000

> <Gold.Chemscore.DEClash>
0.0025

> <Gold.Chemscore.DEInternal>
4.3337

> <Gold.Chemscore.Rot>
2.6702

> <Gold.Chemscore.Internal.Correction>
   9.000000E+99

> <Gold.Chemscore.Hbonds>
donor molecule, donor type, donor heavy atom, donor atom, acceptor molecule, acceptor atom, score
      P1  H  7997  8008       L1    18  0.88

> <Gold.Chemscore.Hbond.Weighted>
-3.0195

> <Gold.Chemscore.Metal.Weighted>
-0.0000

> <Gold.Chemscore.Lipo.Weighted>
-12.7393

> <Gold.Chemscore.Internal_Hbond.Weighted>
0.0000

> <Gold.Chemscore.DEClash.Weighted>
0.0025

> <Gold.Chemscore.DEInternal.Weighted>
4.3337

> <Gold.Chemscore.Rot.Weighted>
6.8358

> <Gold.Chemscore.Internal.Correction.Weighted>
   9.000000E+99

> <Gold.Protein.RotatedTorsions>
[ 6907 6896 6895 6894 ] final -134.81 input  -60.11 | X-H torsion
[ 7974 7965 7964 7962 ] final -104.45 input  175.53 | X-H torsion
[ 8008 7997 7996 7995 ] final  -60.46 input   59.86 | X-H torsion
[ 10167 10162 10161 10158 ] final  126.63 input  -65.29 | X-H torsion
[ 10718 10713 10712 10709 ] final  -42.39 input   66.30 | X-H torsion
[ 10763 10752 10751 10750 ] final  122.88 input  -60.55 | X-H torsion
[ 11005 11000 10999 10996 ] final  166.44 input  -57.11 | X-H torsion

> <Gold.Protein.ActiveResidues>
 VAL166  LYS551  ARG553  GLY616  TRP617  ASP618  TYR619  PRO620  LYS621  CYS622 
 ASP623  PHE694  ASN695  SER759  ASP760  ASP761  ALA762  ILE779  LEU786  VAL792 
 PHE793  MET794  SER795  GLU796  ALA797  LYS798  CYS799  TRP800  GLU811  SER814 

> <Gold.Protein.RotatedAtoms>
  150.9903  133.6157  159.2709 H   0  0  0  0  0  0  0  0  0  0  0  0  # atno 6907 bound_to 6896
  151.3380  135.0856  159.9371 H   0  0  0  0  0  0  0  0  0  0  0  0  # atno 6908 bound_to 6896
  152.5243  133.9519  159.7730 H   0  0  0  0  0  0  0  0  0  0  0  0  # atno 6909 bound_to 6896
  145.2429  140.9211  143.3139 H   0  0  0  0  0  0  0  0  0  0  0  0  # atno 7974 bound_to 7965
  154.4400  140.1039  156.6276 H   0  0  0  0  0  0  0  0  0  0  0  0  # atno 8008 bound_to 7997
  155.5639  140.3488  155.4479 H   0  0  0  0  0  0  0  0  0  0  0  0  # atno 8009 bound_to 7997
  156.0439  140.1288  157.0114 H   0  0  0  0  0  0  0  0  0  0  0  0  # atno 8010 bound_to 7997
  139.5621  144.6888  151.4014 H   0  0  0  0  0  0  0  0  0  0  0  0  # atno 10167 bound_to 10162
  156.2601  130.4196  149.8552 H   0  0  0  0  0  0  0  0  0  0  0  0  # atno 10718 bound_to 10713
  153.6367  135.3386  155.3059 H   0  0  0  0  0  0  0  0  0  0  0  0  # atno 10763 bound_to 10752
  154.8568  135.4308  154.2048 H   0  0  0  0  0  0  0  0  0  0  0  0  # atno 10764 bound_to 10752
  153.2957  135.7020  153.7324 H   0  0  0  0  0  0  0  0  0  0  0  0  # atno 10765 bound_to 10752
  140.2665  134.7861  157.3637 H   0  0  0  0  0  0  0  0  0  0  0  0  # atno 11005 bound_to 11000
  144.9572  139.4018  143.6373 LP  0  0  0  0  0  0  0  0  0  0  0  0  # atno 17320 bound_to 7965
  146.3323  139.8608  142.8856 LP  0  0  0  0  0  0  0  0  0  0  0  0  # atno 17321 bound_to 7965
  140.6901  143.7881  150.7243 LP  0  0  0  0  0  0  0  0  0  0  0  0  # atno 17342 bound_to 10162
  140.1360  143.4483  152.2224 LP  0  0  0  0  0  0  0  0  0  0  0  0  # atno 17343 bound_to 10162
  156.6070  130.8571  151.3445 LP  0  0  0  0  0  0  0  0  0  0  0  0  # atno 17370 bound_to 10713
  157.7247  130.9606  150.1585 LP  0  0  0  0  0  0  0  0  0  0  0  0  # atno 17371 bound_to 10713
  140.1414  134.4966  155.8028 LP  0  0  0  0  0  0  0  0  0  0  0  0  # atno 17394 bound_to 11000
  141.2183  133.6827  156.7217 LP  0  0  0  0  0  0  0  0  0  0  0  0  # atno 17395 bound_to 11000

$$$$
