AV-unprocessed.smi:1701|AV-procd|sdf|6828|dock8
  -GOLD-   22720 8 03D 1   1.00000     0.00000
 Structure written by MMmdl.
 55 57  0  0  0  0  0  0  0  0  3 V2000
  145.8566  136.4887  150.8198 C   0  0  0  0  0  0  0  0  0  0  0  0
  146.2642  137.8360  151.4351 C   0  0  0  0  0  0  0  0  0  0  0  0
  146.1040  137.8817  152.8887 N   0  0  0  0  0  0  0  0  0  0  0  0
  145.0358  137.1018  153.5186 C   0  0  0  0  0  0  0  0  0  0  0  0
  143.6574  137.3407  152.8841 C   0  0  0  0  0  0  0  0  0  0  0  0
  147.0820  138.5168  153.6929 C   0  0  0  0  0  0  0  0  0  0  0  0
  147.1808  138.3378  155.0956 C   0  0  0  0  0  0  0  0  0  0  0  0
  148.1830  139.0106  155.8238 C   0  0  0  0  0  0  0  0  0  0  0  0
  149.0930  139.8544  155.1550 C   0  0  0  0  0  0  0  0  0  0  0  0
  150.0740  140.5204  155.9394 N   0  0  0  0  0  0  0  0  0  0  0  0
  150.2797  140.4611  157.2704 C   0  0  0  0  0  0  0  0  0  0  0  0
  149.5939  139.8142  158.0580 O   0  0  0  0  0  0  0  0  0  0  0  0
  151.3122  141.2072  157.7019 N   0  0  0  0  0  0  0  0  0  0  0  0
  151.8005  141.3651  159.0730 C   0  0  1  0  0  0  0  0  0  0  0  0
  152.6338  140.1771  159.5819 C   0  0  0  0  0  0  0  0  0  0  0  0
  153.7783  140.8004  160.4060 C   0  0  0  0  0  0  0  0  0  0  0  0
  153.5360  142.2612  160.4344 N   0  3  2  0  0  0  0  0  0  0  0  0
  152.8584  142.6923  161.6880 C   0  0  0  0  0  0  0  0  0  0  0  0
  152.3962  144.1536  161.6216 C   0  0  0  0  0  0  0  0  0  0  0  0
  151.4513  144.3551  160.4346 C   0  0  0  0  0  0  0  0  0  0  0  0
  152.1665  143.9579  159.1386 C   0  0  0  0  0  0  0  0  0  0  0  0
  152.7777  142.5394  159.1908 C   0  0  2  0  0  0  0  0  0  0  0  0
  148.9532  140.0073  153.7556 C   0  0  0  0  0  0  0  0  0  0  0  0
  147.9769  139.3445  153.0988 N   0  3  0  0  0  0  0  0  0  0  0  0
  146.0362  136.4918  149.7448 H   0  0  0  0  0  0  0  0  0  0  0  0
  144.7979  136.2818  150.9688 H   0  0  0  0  0  0  0  0  0  0  0  0
  146.4235  135.6608  151.2459 H   0  0  0  0  0  0  0  0  0  0  0  0
  147.2894  138.0859  151.1633 H   0  0  0  0  0  0  0  0  0  0  0  0
  145.6542  138.6231  150.9909 H   0  0  0  0  0  0  0  0  0  0  0  0
  145.2824  136.0401  153.4931 H   0  0  0  0  0  0  0  0  0  0  0  0
  144.9873  137.3598  154.5768 H   0  0  0  0  0  0  0  0  0  0  0  0
  142.9016  136.7238  153.3707 H   0  0  0  0  0  0  0  0  0  0  0  0
  143.6533  137.0884  151.8236 H   0  0  0  0  0  0  0  0  0  0  0  0
  143.3412  138.3780  152.9826 H   0  0  0  0  0  0  0  0  0  0  0  0
  146.4995  137.6989  155.6360 H   0  0  0  0  0  0  0  0  0  0  0  0
  148.2495  138.8740  156.8932 H   0  0  0  0  0  0  0  0  0  0  0  0
  150.6780  141.1487  155.4305 H   0  0  0  0  0  0  0  0  0  0  0  0
  151.8013  141.7411  156.9974 H   0  0  0  0  0  0  0  0  0  0  0  0
  150.9597  141.5337  159.7479 H   0  0  0  0  0  0  0  0  0  0  0  0
  152.0246  139.5022  160.1840 H   0  0  0  0  0  0  0  0  0  0  0  0
  153.0471  139.5960  158.7561 H   0  0  0  0  0  0  0  0  0  0  0  0
  153.8556  140.3688  161.4051 H   0  0  0  0  0  0  0  0  0  0  0  0
  154.7297  140.6213  159.9034 H   0  0  0  0  0  0  0  0  0  0  0  0
  151.9978  142.0511  161.8856 H   0  0  0  0  0  0  0  0  0  0  0  0
  153.5437  142.5588  162.5260 H   0  0  0  0  0  0  0  0  0  0  0  0
  151.8914  144.4263  162.5489 H   0  0  0  0  0  0  0  0  0  0  0  0
  153.2590  144.8149  161.5302 H   0  0  0  0  0  0  0  0  0  0  0  0
  150.5485  143.7580  160.5675 H   0  0  0  0  0  0  0  0  0  0  0  0
  151.1303  145.3959  160.3819 H   0  0  0  0  0  0  0  0  0  0  0  0
  151.4854  144.0454  158.2915 H   0  0  0  0  0  0  0  0  0  0  0  0
  152.9674  144.6751  158.9536 H   0  0  0  0  0  0  0  0  0  0  0  0
  153.4921  142.4615  158.3684 H   0  0  0  0  0  0  0  0  0  0  0  0
  149.5673  140.6370  153.1303 H   0  0  0  0  0  0  0  0  0  0  0  0
  154.4200  142.7483  160.3905 H   0  0  0  0  0  0  0  0  0  0  0  0
  147.9061  139.4799  152.0903 H   0  0  0  0  0  0  0  0  0  0  0  0
  1  2  1  0  0  0  0
  1 25  1  0  0  0  0
  1 26  1  0  0  0  0
  1 27  1  0  0  0  0
  2  3  1  0  0  0  0
  2 28  1  0  0  0  0
  2 29  1  0  0  0  0
  3  4  1  0  0  0  0
  3  6  1  0  0  0  0
  4  5  1  0  0  0  0
  4 30  1  0  0  0  0
  4 31  1  0  0  0  0
  5 32  1  0  0  0  0
  5 33  1  0  0  0  0
  5 34  1  0  0  0  0
  6 24  1  0  0  0  0
  6  7  2  0  0  0  0
  7  8  1  0  0  0  0
  7 35  1  0  0  0  0
  8  9  2  0  0  0  0
  8 36  1  0  0  0  0
  9 10  1  0  0  0  0
  9 23  1  0  0  0  0
 10 11  1  0  0  0  0
 10 37  1  0  0  0  0
 11 12  2  0  0  0  0
 11 13  1  0  0  0  0
 13 14  1  0  0  0  0
 13 38  1  0  0  0  0
 14 22  1  0  0  0  0
 14 15  1  0  0  0  0
 14 39  1  0  0  0  0
 15 16  1  0  0  0  0
 15 40  1  0  0  0  0
 15 41  1  0  0  0  0
 16 17  1  0  0  0  0
 16 42  1  0  0  0  0
 16 43  1  0  0  0  0
 17 22  1  0  0  0  0
 17 18  1  0  0  0  0
 17 54  1  0  0  0  0
 18 19  1  0  0  0  0
 18 44  1  0  0  0  0
 18 45  1  0  0  0  0
 19 20  1  0  0  0  0
 19 46  1  0  0  0  0
 19 47  1  0  0  0  0
 20 21  1  0  0  0  0
 20 48  1  0  0  0  0
 20 49  1  0  0  0  0
 21 22  1  0  0  0  0
 21 50  1  0  0  0  0
 21 51  1  0  0  0  0
 22 52  1  0  0  0  0
 23 24  2  0  0  0  0
 23 53  1  0  0  0  0
 24 55  1  0  0  0  0
M  CHG  1  17   1
M  CHG  1  24   1
M  END
> <s_m_source_file>
AV-unprocessed.smi

> <i_m_source_file_index>
1701

> <i_lp_mmshare_version>
43012

> <i_f3d_flags>
0

> <s_epik_input>
W0NIM11bQ0gyXU4oW0NIMl1bQ0gzXSljMVtjSF1bY0hdYyhbY0hdbjEpW05IXUMoPU8pW05IXVtDQEhdKFtDSDJdW0NIMl0yKVtDQEBIXShOMjMpW0NIMl1bQ0gyXVtDSDJdW0NIMl0z

> <s_epik_cmdline>
J2VwaWtfcHl0aG9uJywgJy1waCcsICc3LjAnLCAnLXRuJywgJzgnLCAnLW1hJywgJzIwMCcsICctbWV0YWxfYmluZGluZycsICctaW1hZScsICc8aW5maWxlLm1hZT4nLCAnLW9tYWUnLCAnPG91dGZpbGUubWFlPic=

> <r_lp_tautomer_probability>
0.999994

> <r_epik_Ionization_Penalty>
0.302862

> <r_epik_Ionization_Penalty_Charging>
0.302842

> <r_epik_Ionization_Penalty_Neutral>
1.95166e-05

> <r_epik_State_Penalty>
0.019791

> <r_epik_Charging_Adjusted_Penalty>
0.322633

> <i_epik_Tot_Q>
2

> <i_epik_Tot_abs_Q>
2

> <r_epik_Metal_State_Penalty>
0.0536763

> <b_epik_Metal_Only>
0

> <s_lp_Force_Field>
OPLS_2005

> <r_lp_Energy>
65.6354

> <b_lp_Chiralities_Consistent>
1

> <s_lp_Variant>
AV-unprocessed.smi:1701-8

> <Gold.Version>
5.8.1

> <Gold.Id.Protein>
6NUR|6NUR_protein|mol2

> <Gold.PLP.Fitness>
40.1835

> <Gold.PLP.PLP>
-40.5891

> <Gold.PLP.part.hbond>
-1.0000

> <Gold.PLP.part.metal>
0.0000

> <Gold.PLP.part.buried>
0.4067

> <Gold.PLP.part.nonpolar>
-40.5593

> <Gold.PLP.part.repulsive>
0.2324

> <Gold.PLP.ligand.clash>
0.0000

> <Gold.PLP.ligand.torsion>
0.7355

> <Gold.PLP.Chemscore.Hbond>
0.3172

> <Gold.PLP.Chemscore.CHOScore>
0.0000

> <Gold.PLP.Chemscore.Metal>
0.0000

> <Gold.Chemscore.Hbonds>
donor molecule, donor type, donor heavy atom, donor atom, acceptor molecule, acceptor atom, score
      L1  H    24    55       P1  7957  0.34

> <Gold.PLP.Chemscore.Internal.Correction>
0.1137

> <Gold.Rescore>
     Score         DG    S(hbond)    S(metal)    S(lipo)     H(rot)  DE(clash)    DE(int)     intcor
     14.35     -17.20       0.35        0.00     118.70       1.30       0.83       2.02       ----

> <Gold.Chemscore.Fitness>
14.3491

> <Gold.Chemscore.DG>
-17.2018

> <Gold.Chemscore.ZeroCoef>
-5.4800

> <Gold.Chemscore.Hbond>
0.3495

> <Gold.Chemscore.Metal>
0.0000

> <Gold.Chemscore.Lipo>
118.6974

> <Gold.Chemscore.Internal_Hbond>
0.0000

> <Gold.Chemscore.DEClash>
0.8297

> <Gold.Chemscore.DEInternal>
2.0230

> <Gold.Chemscore.Rot>
1.3020

> <Gold.Chemscore.Internal.Correction>
   9.000000E+99

> <Gold.Chemscore.Hbonds>
donor molecule, donor type, donor heavy atom, donor atom, acceptor molecule, acceptor atom, score
      L1  H    24    55       P1  7957  0.33

> <Gold.Chemscore.Hbond.Weighted>
-1.1672

> <Gold.Chemscore.Metal.Weighted>
-0.0000

> <Gold.Chemscore.Lipo.Weighted>
-13.8876

> <Gold.Chemscore.Internal_Hbond.Weighted>
0.0000

> <Gold.Chemscore.DEClash.Weighted>
0.8297

> <Gold.Chemscore.DEInternal.Weighted>
2.0230

> <Gold.Chemscore.Rot.Weighted>
3.3330

> <Gold.Chemscore.Internal.Correction.Weighted>
   9.000000E+99

> <Gold.Protein.RotatedTorsions>
[ 6907 6896 6895 6894 ] final  131.18 input  -60.11 | X-H torsion
[ 7974 7965 7964 7962 ] final  -33.94 input  175.53 | X-H torsion
[ 8008 7997 7996 7995 ] final -155.60 input   59.86 | X-H torsion
[ 10167 10162 10161 10158 ] final  129.58 input  -65.29 | X-H torsion
[ 10718 10713 10712 10709 ] final -166.52 input   66.30 | X-H torsion
[ 10763 10752 10751 10750 ] final   95.42 input  -60.55 | X-H torsion
[ 11005 11000 10999 10996 ] final  -19.41 input  -57.11 | X-H torsion

> <Gold.Protein.ActiveResidues>
 VAL166  LYS551  ARG553  GLY616  TRP617  ASP618  TYR619  PRO620  LYS621  CYS622 
 ASP623  PHE694  ASN695  SER759  ASP760  ASP761  ALA762  ILE779  LEU786  VAL792 
 PHE793  MET794  SER795  GLU796  ALA797  LYS798  CYS799  TRP800  GLU811  SER814 

> <Gold.Protein.RotatedAtoms>
  152.3452  133.6114  159.5904 H   0  0  0  0  0  0  0  0  0  0  0  0  # atno 6907 bound_to 6896
  150.7503  133.9660  159.3539 H   0  0  0  0  0  0  0  0  0  0  0  0  # atno 6908 bound_to 6896
  151.7519  135.0831  160.0383 H   0  0  0  0  0  0  0  0  0  0  0  0  # atno 6909 bound_to 6896
  146.0870  140.5978  142.8882 H   0  0  0  0  0  0  0  0  0  0  0  0  # atno 7974 bound_to 7965
  155.7043  140.0770  157.2397 H   0  0  0  0  0  0  0  0  0  0  0  0  # atno 8008 bound_to 7997
  154.4068  140.1641  156.2279 H   0  0  0  0  0  0  0  0  0  0  0  0  # atno 8009 bound_to 7997
  155.9340  140.3389  155.6275 H   0  0  0  0  0  0  0  0  0  0  0  0  # atno 8010 bound_to 7997
  139.5471  144.6782  151.4439 H   0  0  0  0  0  0  0  0  0  0  0  0  # atno 10167 bound_to 10162
  156.6690  130.9076  151.3041 H   0  0  0  0  0  0  0  0  0  0  0  0  # atno 10718 bound_to 10713
  153.2530  135.4254  155.0817 H   0  0  0  0  0  0  0  0  0  0  0  0  # atno 10763 bound_to 10752
  154.8389  135.3430  154.6485 H   0  0  0  0  0  0  0  0  0  0  0  0  # atno 10764 bound_to 10752
  153.6906  135.7034  153.5148 H   0  0  0  0  0  0  0  0  0  0  0  0  # atno 10765 bound_to 10752
  140.8364  133.7958  155.9813 H   0  0  0  0  0  0  0  0  0  0  0  0  # atno 11005 bound_to 11000
  144.7332  140.4734  143.6922 LP  0  0  0  0  0  0  0  0  0  0  0  0  # atno 17320 bound_to 7965
  145.6112  139.1513  143.3075 LP  0  0  0  0  0  0  0  0  0  0  0  0  # atno 17321 bound_to 7965
  140.6723  143.8267  150.7014 LP  0  0  0  0  0  0  0  0  0  0  0  0  # atno 17342 bound_to 10162
  140.1695  143.4206  152.2011 LP  0  0  0  0  0  0  0  0  0  0  0  0  # atno 17343 bound_to 10162
  157.7083  130.9411  150.1005 LP  0  0  0  0  0  0  0  0  0  0  0  0  # atno 17370 bound_to 10713
  156.1953  130.3657  149.8857 LP  0  0  0  0  0  0  0  0  0  0  0  0  # atno 17371 bound_to 10713
  140.8942  134.2457  157.5077 LP  0  0  0  0  0  0  0  0  0  0  0  0  # atno 17394 bound_to 11000
  139.8704  134.9676  156.4603 LP  0  0  0  0  0  0  0  0  0  0  0  0  # atno 17395 bound_to 11000

$$$$
