AV-unprocessed.smi:148|AV-procd|sdf|1212|dock5
  -GOLD-   2262018393D 1   1.00000     0.00000
 Structure written by MMmdl.
 63 67  0  0  0  0  0  0  0  0  1 V2000
  146.6674  132.2148  160.7302 O   0  0  0  0  0  0  0  0  0  0  0  0
  146.1927  133.1480  159.7813 C   0  0  0  0  0  0  0  0  0  0  0  0
  147.3062  134.1415  159.3586 C   0  0  2  0  0  0  0  0  0  0  0  0
  148.4080  133.4320  158.5261 C   0  0  0  0  0  0  0  0  0  0  0  0
  147.8996  132.8258  157.3078 N   0  0  0  0  0  0  0  0  0  0  0  0
  146.9923  131.7943  157.2247 C   0  0  0  0  0  0  0  0  0  0  0  0
  146.6963  131.4100  156.0132 N   0  0  0  0  0  0  0  0  0  0  0  0
  147.4523  132.2459  155.2000 C   0  0  0  0  0  0  0  0  0  0  0  0
  147.6194  132.3807  153.7925 C   0  0  0  0  0  0  0  0  0  0  0  0
  147.0055  131.6105  152.8681 N   0  0  0  0  0  0  0  0  0  0  0  0
  146.9959  130.2257  153.3459 C   0  0  0  0  0  0  0  0  0  0  0  0
  146.5531  129.2523  152.2505 C   0  0  0  0  0  0  0  0  0  0  0  0
  145.1856  129.6705  151.7115 C   0  0  0  0  0  0  0  0  0  0  0  0
  145.2483  131.1187  151.2121 C   0  0  0  0  0  0  0  0  0  0  0  0
  145.7348  132.1134  152.3026 C   0  0  2  0  0  0  0  0  0  0  0  0
  145.8351  133.5599  151.7035 C   0  0  2  0  0  0  0  0  0  0  0  0
  145.7886  134.7419  152.6966 C   0  0  0  0  0  0  0  0  0  0  0  0
  145.3030  135.9705  151.9136 C   0  0  0  0  0  0  0  0  0  0  0  0
  144.8812  135.4589  150.5338 C   0  0  0  0  0  0  0  0  0  0  0  0
  144.7331  133.9453  150.6934 C   0  0  2  0  0  0  0  0  0  0  0  0
  143.4412  133.6710  151.2074 O   0  0  0  0  0  0  0  0  0  0  0  0
  148.4794  133.3259  153.3393 N   0  0  0  0  0  0  0  0  0  0  0  0
  149.1246  134.1107  154.2076 C   0  0  0  0  0  0  0  0  0  0  0  0
  149.0630  134.1089  155.5412 N   0  0  0  0  0  0  0  0  0  0  0  0
  148.2092  133.1483  155.9982 C   0  0  0  0  0  0  0  0  0  0  0  0
  147.9137  134.9363  160.5552 C   0  0  2  0  0  0  0  0  0  0  0  0
  146.9324  135.3073  161.6625 C   0  0  0  0  0  0  0  0  0  0  0  0
  146.2656  136.5762  161.1363 C   0  0  0  0  0  0  0  0  0  0  0  0
  147.2052  137.1623  160.2415 O   0  0  0  0  0  0  0  0  0  0  0  0
  148.3735  136.3527  160.1802 C   0  0  0  0  0  0  0  0  0  0  0  0
  146.4571  132.5315  161.5954 H   0  0  0  0  0  0  0  0  0  0  0  0
  145.8050  132.6010  158.9225 H   0  0  0  0  0  0  0  0  0  0  0  0
  145.3296  133.6670  160.1944 H   0  0  0  0  0  0  0  0  0  0  0  0
  146.8293  134.8668  158.6978 H   0  0  0  0  0  0  0  0  0  0  0  0
  149.1934  134.1243  158.2297 H   0  0  0  0  0  0  0  0  0  0  0  0
  148.8959  132.6610  159.1235 H   0  0  0  0  0  0  0  0  0  0  0  0
  146.5595  131.3288  158.0983 H   0  0  0  0  0  0  0  0  0  0  0  0
  147.9904  129.9430  153.6956 H   0  0  0  0  0  0  0  0  0  0  0  0
  146.3235  130.1385  154.2005 H   0  0  0  0  0  0  0  0  0  0  0  0
  147.2862  129.2431  151.4426 H   0  0  0  0  0  0  0  0  0  0  0  0
  146.5082  128.2375  152.6466 H   0  0  0  0  0  0  0  0  0  0  0  0
  144.8791  129.0053  150.9038 H   0  0  0  0  0  0  0  0  0  0  0  0
  144.4333  129.5812  152.4961 H   0  0  0  0  0  0  0  0  0  0  0  0
  145.9134  131.1705  150.3489 H   0  0  0  0  0  0  0  0  0  0  0  0
  144.2564  131.3859  150.8510 H   0  0  0  0  0  0  0  0  0  0  0  0
  144.9918  132.1190  153.1007 H   0  0  0  0  0  0  0  0  0  0  0  0
  146.7831  133.6263  151.1665 H   0  0  0  0  0  0  0  0  0  0  0  0
  145.0830  134.5289  153.5003 H   0  0  0  0  0  0  0  0  0  0  0  0
  146.7567  134.9439  153.1526 H   0  0  0  0  0  0  0  0  0  0  0  0
  144.4601  136.4325  152.4287 H   0  0  0  0  0  0  0  0  0  0  0  0
  146.0849  136.7252  151.8242 H   0  0  0  0  0  0  0  0  0  0  0  0
  143.9775  135.9423  150.1608 H   0  0  0  0  0  0  0  0  0  0  0  0
  145.6777  135.6665  149.8180 H   0  0  0  0  0  0  0  0  0  0  0  0
  144.8524  133.4393  149.7350 H   0  0  0  0  0  0  0  0  0  0  0  0
  142.8013  133.9141  150.5561 H   0  0  0  0  0  0  0  0  0  0  0  0
  149.7869  134.8444  153.7720 H   0  0  0  0  0  0  0  0  0  0  0  0
  148.7453  134.3645  160.9693 H   0  0  0  0  0  0  0  0  0  0  0  0
  146.2216  134.5330  161.9434 H   0  0  0  0  0  0  0  0  0  0  0  0
  147.4949  135.5512  162.5652 H   0  0  0  0  0  0  0  0  0  0  0  0
  145.3572  136.3360  160.5827 H   0  0  0  0  0  0  0  0  0  0  0  0
  146.0016  137.2632  161.9405 H   0  0  0  0  0  0  0  0  0  0  0  0
  149.0821  136.7213  160.9236 H   0  0  0  0  0  0  0  0  0  0  0  0
  148.8571  136.4379  159.2092 H   0  0  0  0  0  0  0  0  0  0  0  0
  1  2  1  0  0  0  0
  1 31  1  0  0  0  0
  2  3  1  0  0  0  0
  2 32  1  0  0  0  0
  2 33  1  0  0  0  0
  3  4  1  0  0  0  0
  3 26  1  0  0  0  0
  3 34  1  0  0  0  0
  4  5  1  0  0  0  0
  4 35  1  0  0  0  0
  4 36  1  0  0  0  0
  5 25  1  0  0  0  0
  5  6  1  0  0  0  0
  6  7  2  0  0  0  0
  6 37  1  0  0  0  0
  7  8  1  0  0  0  0
  8 25  2  0  0  0  0
  8  9  1  0  0  0  0
  9 10  1  0  0  0  0
  9 22  2  0  0  0  0
 10 15  1  0  0  0  0
 10 11  1  0  0  0  0
 11 12  1  0  0  0  0
 11 38  1  0  0  0  0
 11 39  1  0  0  0  0
 12 13  1  0  0  0  0
 12 40  1  0  0  0  0
 12 41  1  0  0  0  0
 13 14  1  0  0  0  0
 13 42  1  0  0  0  0
 13 43  1  0  0  0  0
 14 15  1  0  0  0  0
 14 44  1  0  0  0  0
 14 45  1  0  0  0  0
 15 16  1  0  0  0  0
 15 46  1  0  0  0  0
 16 20  1  0  0  0  0
 16 17  1  0  0  0  0
 16 47  1  0  0  0  0
 17 18  1  0  0  0  0
 17 48  1  0  0  0  0
 17 49  1  0  0  0  0
 18 19  1  0  0  0  0
 18 50  1  0  0  0  0
 18 51  1  0  0  0  0
 19 20  1  0  0  0  0
 19 52  1  0  0  0  0
 19 53  1  0  0  0  0
 20 21  1  0  0  0  0
 20 54  1  0  0  0  0
 21 55  1  0  0  0  0
 22 23  1  0  0  0  0
 23 24  2  0  0  0  0
 23 56  1  0  0  0  0
 24 25  1  0  0  0  0
 26 30  1  0  0  0  0
 26 27  1  0  0  0  0
 26 57  1  0  0  0  0
 27 28  1  0  0  0  0
 27 58  1  0  0  0  0
 27 59  1  0  0  0  0
 28 29  1  0  0  0  0
 28 60  1  0  0  0  0
 28 61  1  0  0  0  0
 29 30  1  0  0  0  0
 30 62  1  0  0  0  0
 30 63  1  0  0  0  0
M  END
> <s_m_source_file>
AV-unprocessed.smi

> <i_m_source_file_index>
148

> <i_lp_mmshare_version>
43012

> <i_f3d_flags>
0

> <s_epik_input>
W0NIMl0xT1tDSDJdW0NIMl1bQ0BIXTFbQ0BIXShbQ0gyXVtPSF0pW0NIMl1uKFtjSF1uMiljKGMyMyluW2NIXW5jM040W0NIMl1bQ0gyXVtDSDJdW0NIMl1bQ0BIXTRbQ0BASF01W0NIMl1bQ0gyXVtDSDJdW0NASF01W09IXQ==

> <s_epik_cmdline>
J2VwaWtfcHl0aG9uJywgJy1waCcsICc3LjAnLCAnLXRuJywgJzgnLCAnLW1hJywgJzIwMCcsICctbWV0YWxfYmluZGluZycsICctaW1hZScsICc8aW5maWxlLm1hZT4nLCAnLW9tYWUnLCAnPG91dGZpbGUubWFlPic=

> <r_lp_tautomer_probability>
1

> <r_epik_Ionization_Penalty>
0.00556303

> <r_epik_Ionization_Penalty_Charging>
0

> <r_epik_Ionization_Penalty_Neutral>
0.00556303

> <r_epik_State_Penalty>
0.00401767

> <r_epik_Charging_Adjusted_Penalty>
0.00401767

> <i_epik_Tot_Q>
0

> <i_epik_Tot_abs_Q>
0

> <r_epik_Metal_State_Penalty>
-0

> <b_epik_Metal_Only>
0

> <s_lp_Force_Field>
OPLS_2005

> <r_lp_Energy>
72.8369

> <b_lp_Chiralities_Consistent>
1

> <s_lp_Variant>
AV-unprocessed.smi:148-11

> <Gold.Version>
5.8.1

> <Gold.Id.Protein>
6NUR|6NUR_protein|mol2

> <Gold.PLP.Fitness>
41.6147

> <Gold.PLP.PLP>
-37.7300

> <Gold.PLP.part.hbond>
-2.0000

> <Gold.PLP.part.metal>
0.0000

> <Gold.PLP.part.buried>
-6.8421

> <Gold.PLP.part.nonpolar>
-30.2663

> <Gold.PLP.part.repulsive>
0.4406

> <Gold.PLP.ligand.clash>
0.0000

> <Gold.PLP.ligand.torsion>
1.6497

> <Gold.PLP.Chemscore.Hbond>
1.8288

> <Gold.PLP.Chemscore.CHOScore>
0.3444

> <Gold.PLP.Chemscore.Metal>
0.0000

> <Gold.Chemscore.Hbonds>
donor molecule, donor type, donor heavy atom, donor atom, acceptor molecule, acceptor atom, score
      L1  H    21    55       P1 10186  0.80
      P1  H  6934  6947       L1    29  1.00
      L1  C    23    56       P1  7948  0.31

> <Gold.PLP.Chemscore.Internal.Correction>
0.6648

> <Gold.Rescore>
     Score         DG    S(hbond)    S(metal)    S(lipo)     H(rot)  DE(clash)    DE(int)     intcor
      9.42     -13.36       1.50        0.00      97.23       3.32       0.01       3.94       ----

> <Gold.Chemscore.Fitness>
9.4153

> <Gold.Chemscore.DG>
-13.3615

> <Gold.Chemscore.ZeroCoef>
-5.4800

> <Gold.Chemscore.Hbond>
1.4988

> <Gold.Chemscore.Metal>
0.0000

> <Gold.Chemscore.Lipo>
97.2265

> <Gold.Chemscore.Internal_Hbond>
0.0000

> <Gold.Chemscore.DEClash>
0.0051

> <Gold.Chemscore.DEInternal>
3.9412

> <Gold.Chemscore.Rot>
3.3203

> <Gold.Chemscore.Internal.Correction>
   9.000000E+99

> <Gold.Chemscore.Hbonds>
donor molecule, donor type, donor heavy atom, donor atom, acceptor molecule, acceptor atom, score
      L1  H    21    55       P1 10186  0.71
      P1  H  6934  6947       L1    29  0.25

> <Gold.Chemscore.Hbond.Weighted>
-5.0060

> <Gold.Chemscore.Metal.Weighted>
-0.0000

> <Gold.Chemscore.Lipo.Weighted>
-11.3755

> <Gold.Chemscore.Internal_Hbond.Weighted>
0.0000

> <Gold.Chemscore.DEClash.Weighted>
0.0051

> <Gold.Chemscore.DEInternal.Weighted>
3.9412

> <Gold.Chemscore.Rot.Weighted>
8.5000

> <Gold.Chemscore.Internal.Correction.Weighted>
   9.000000E+99

> <Gold.Protein.RotatedTorsions>
[ 6907 6896 6895 6894 ] final   74.15 input  -60.11 | X-H torsion
[ 7974 7965 7964 7962 ] final   81.41 input  175.53 | X-H torsion
[ 8008 7997 7996 7995 ] final  -93.12 input   59.86 | X-H torsion
[ 10167 10162 10161 10158 ] final  -50.70 input  -65.29 | X-H torsion
[ 10718 10713 10712 10709 ] final   86.48 input   66.30 | X-H torsion
[ 10763 10752 10751 10750 ] final -175.42 input  -60.55 | X-H torsion
[ 11005 11000 10999 10996 ] final   26.81 input  -57.11 | X-H torsion

> <Gold.Protein.ActiveResidues>
 VAL166  LYS551  ARG553  GLY616  TRP617  ASP618  TYR619  PRO620  LYS621  CYS622 
 ASP623  PHE694  ASN695  SER759  ASP760  ASP761  ALA762  ILE779  LEU786  VAL792 
 PHE793  MET794  SER795  GLU796  ALA797  LYS798  CYS799  TRP800  GLU811  SER814 

> <Gold.Protein.RotatedAtoms>
  152.4961  134.4314  159.9513 H   0  0  0  0  0  0  0  0  0  0  0  0  # atno 6907 bound_to 6896
  151.4292  133.3669  159.2774 H   0  0  0  0  0  0  0  0  0  0  0  0  # atno 6908 bound_to 6896
  150.9166  134.8607  159.7521 H   0  0  0  0  0  0  0  0  0  0  0  0  # atno 6909 bound_to 6896
  145.6385  139.2420  143.2044 H   0  0  0  0  0  0  0  0  0  0  0  0  # atno 7974 bound_to 7965
  154.7316  140.0502  157.0731 H   0  0  0  0  0  0  0  0  0  0  0  0  # atno 8008 bound_to 7997
  155.0294  140.3156  155.4744 H   0  0  0  0  0  0  0  0  0  0  0  0  # atno 8009 bound_to 7997
  156.2843  140.2152  156.5415 H   0  0  0  0  0  0  0  0  0  0  0  0  # atno 8010 bound_to 7997
  140.6625  143.2647  151.4397 H   0  0  0  0  0  0  0  0  0  0  0  0  # atno 10167 bound_to 10162
  157.6929  131.0217  150.2978 H   0  0  0  0  0  0  0  0  0  0  0  0  # atno 10718 bound_to 10713
  154.5845  135.2839  155.0698 H   0  0  0  0  0  0  0  0  0  0  0  0  # atno 10763 bound_to 10752
  154.2022  135.6422  153.5094 H   0  0  0  0  0  0  0  0  0  0  0  0  # atno 10764 bound_to 10752
  153.0100  135.5471  154.6510 H   0  0  0  0  0  0  0  0  0  0  0  0  # atno 10765 bound_to 10752
  140.3330  134.2417  155.7700 H   0  0  0  0  0  0  0  0  0  0  0  0  # atno 11005 bound_to 11000
  146.1300  140.7198  142.9417 LP  0  0  0  0  0  0  0  0  0  0  0  0  # atno 17320 bound_to 7965
  144.7166  140.4232  143.7039 LP  0  0  0  0  0  0  0  0  0  0  0  0  # atno 17321 bound_to 7965
  139.5863  144.1598  152.2032 LP  0  0  0  0  0  0  0  0  0  0  0  0  # atno 17342 bound_to 10162
  140.0939  144.5597  150.7036 LP  0  0  0  0  0  0  0  0  0  0  0  0  # atno 17343 bound_to 10162
  156.3499  130.3829  149.7338 LP  0  0  0  0  0  0  0  0  0  0  0  0  # atno 17370 bound_to 10713
  156.4819  130.8045  151.3059 LP  0  0  0  0  0  0  0  0  0  0  0  0  # atno 17371 bound_to 10713
  141.2058  133.7849  157.0210 LP  0  0  0  0  0  0  0  0  0  0  0  0  # atno 17394 bound_to 11000
  140.0845  134.9629  157.1677 LP  0  0  0  0  0  0  0  0  0  0  0  0  # atno 17395 bound_to 11000

$$$$
