AV-unprocessed.smi:3342|AV-procd|sdf|12889|dock5
  -GOLD-   2272019293D 1   1.00000     0.00000
 Structure written by MMmdl.
 41 42  0  0  0  0  0  0  0  0  1 V2000
  153.2148  142.6547  162.0812 C   0  0  0  0  0  0  0  0  0  0  0  0
  153.6373  141.7166  160.9386 C   0  0  2  0  0  0  0  0  0  0  0  0
  152.5644  141.5797  159.8363 C   0  0  0  0  0  0  0  0  0  0  0  0
  152.2611  142.8412  159.1878 N   0  0  0  0  0  0  0  0  0  0  0  0
  151.3411  143.0585  158.1707 C   0  0  0  0  0  0  0  0  0  0  0  0
  151.3930  144.4018  157.8741 C   0  0  0  0  0  0  0  0  0  0  0  0
  152.3288  145.0275  158.6948 N   0  0  0  0  0  0  0  0  0  0  0  0
  152.7986  144.0411  159.4477 C   0  0  0  0  0  0  0  0  0  0  0  0
  153.9563  140.4047  161.4935 N   0  0  0  0  0  0  0  0  0  0  0  0
  155.1859  139.8694  161.5869 C   0  0  0  0  0  0  0  0  0  0  0  0
  156.1925  140.4728  161.2122 O   0  0  0  0  0  0  0  0  0  0  0  0
  155.2243  138.6312  162.1416 N   0  0  0  0  0  0  0  0  0  0  0  0
  154.0737  137.8739  162.6629 C   0  0  0  0  0  0  0  0  0  0  0  0
  153.7127  136.7696  161.6530 C   0  0  0  0  0  0  0  0  0  0  0  0
  154.9237  135.8462  161.3793 C   0  0  0  0  0  0  0  0  0  0  0  0
  154.6051  134.8358  160.2693 C   0  0  0  0  0  0  0  0  0  0  0  0
  155.5544  133.9474  159.9644 N   0  0  0  0  0  0  0  0  0  0  0  0
  153.5185  134.8541  159.6942 O   0  0  0  0  0  0  0  0  0  0  0  0
  156.1835  136.6747  161.0318 C   0  0  0  0  0  0  0  0  0  0  0  0
  156.4223  137.7860  162.0704 C   0  0  0  0  0  0  0  0  0  0  0  0
  153.0558  143.6727  161.7249 H   0  0  0  0  0  0  0  0  0  0  0  0
  153.9821  142.7009  162.8545 H   0  0  0  0  0  0  0  0  0  0  0  0
  152.2896  142.3168  162.5493 H   0  0  0  0  0  0  0  0  0  0  0  0
  154.5426  142.1341  160.4940 H   0  0  0  0  0  0  0  0  0  0  0  0
  152.8921  140.8779  159.0680 H   0  0  0  0  0  0  0  0  0  0  0  0
  151.6418  141.1743  160.2548 H   0  0  0  0  0  0  0  0  0  0  0  0
  150.7446  142.2609  157.7527 H   0  0  0  0  0  0  0  0  0  0  0  0
  150.8330  144.9619  157.1399 H   0  0  0  0  0  0  0  0  0  0  0  0
  153.5557  144.1945  160.2028 H   0  0  0  0  0  0  0  0  0  0  0  0
  153.1801  139.8542  161.8304 H   0  0  0  0  0  0  0  0  0  0  0  0
  154.3435  137.4268  163.6208 H   0  0  0  0  0  0  0  0  0  0  0  0
  153.1963  138.4862  162.8708 H   0  0  0  0  0  0  0  0  0  0  0  0
  152.8757  136.1833  162.0344 H   0  0  0  0  0  0  0  0  0  0  0  0
  153.3685  137.2325  160.7264 H   0  0  0  0  0  0  0  0  0  0  0  0
  155.1336  135.2957  162.2983 H   0  0  0  0  0  0  0  0  0  0  0  0
  155.3912  133.2624  159.2408 H   0  0  0  0  0  0  0  0  0  0  0  0
  156.4338  133.9645  160.4602 H   0  0  0  0  0  0  0  0  0  0  0  0
  157.0578  136.0244  160.9836 H   0  0  0  0  0  0  0  0  0  0  0  0
  156.0813  137.1269  160.0438 H   0  0  0  0  0  0  0  0  0  0  0  0
  157.3210  138.3493  161.8149 H   0  0  0  0  0  0  0  0  0  0  0  0
  156.6187  137.3493  163.0508 H   0  0  0  0  0  0  0  0  0  0  0  0
  1  2  1  0  0  0  0
  1 21  1  0  0  0  0
  1 22  1  0  0  0  0
  1 23  1  0  0  0  0
  2  3  1  0  0  0  0
  2  9  1  0  0  0  0
  2 24  1  0  0  0  0
  3  4  1  0  0  0  0
  3 25  1  0  0  0  0
  3 26  1  0  0  0  0
  4  8  1  0  0  0  0
  4  5  1  0  0  0  0
  5  6  2  0  0  0  0
  5 27  1  0  0  0  0
  6  7  1  0  0  0  0
  6 28  1  0  0  0  0
  7  8  2  0  0  0  0
  8 29  1  0  0  0  0
  9 10  1  0  0  0  0
  9 30  1  0  0  0  0
 10 11  2  0  0  0  0
 10 12  1  0  0  0  0
 12 20  1  0  0  0  0
 12 13  1  0  0  0  0
 13 14  1  0  0  0  0
 13 31  1  0  0  0  0
 13 32  1  0  0  0  0
 14 15  1  0  0  0  0
 14 33  1  0  0  0  0
 14 34  1  0  0  0  0
 15 16  1  0  0  0  0
 15 19  1  0  0  0  0
 15 35  1  0  0  0  0
 16 17  1  0  0  0  0
 16 18  2  0  0  0  0
 17 36  1  0  0  0  0
 17 37  1  0  0  0  0
 19 20  1  0  0  0  0
 19 38  1  0  0  0  0
 19 39  1  0  0  0  0
 20 40  1  0  0  0  0
 20 41  1  0  0  0  0
M  END
> <s_m_source_file>
AV-unprocessed.smi

> <i_m_source_file_index>
3342

> <i_lp_mmshare_version>
43012

> <i_f3d_flags>
0

> <s_epik_input>
W2NIXTFuW2NIXVtjSF1uMVtDSDJdW0NAQEhdKFtDSDNdKVtOSF1DKD1PKU4yW0NIMl1bQ0gyXVtDSF0oQyg9TylbTkgyXSlbQ0gyXVtDSDJdMg==

> <s_epik_cmdline>
J2VwaWtfcHl0aG9uJywgJy1waCcsICc3LjAnLCAnLXRuJywgJzgnLCAnLW1hJywgJzIwMCcsICctbWV0YWxfYmluZGluZycsICctaW1hZScsICc8aW5maWxlLm1hZT4nLCAnLW9tYWUnLCAnPG91dGZpbGUubWFlPic=

> <r_lp_tautomer_probability>
1

> <r_epik_Ionization_Penalty>
0.624431

> <r_epik_Ionization_Penalty_Charging>
0.624374

> <r_epik_Ionization_Penalty_Neutral>
5.67186e-05

> <r_epik_State_Penalty>
0.640677

> <r_epik_Charging_Adjusted_Penalty>
1.26505

> <i_epik_Tot_Q>
0

> <i_epik_Tot_abs_Q>
0

> <r_epik_Metal_State_Penalty>
0.307574

> <b_epik_Metal_Only>
0

> <s_lp_Force_Field>
OPLS_2005

> <r_lp_Energy>
29.2273

> <b_lp_Chiralities_Consistent>
1

> <s_lp_Variant>
AV-unprocessed.smi:3342-3

> <Gold.Version>
5.8.1

> <Gold.Id.Protein>
6NUR|6NUR_protein|mol2

> <Gold.PLP.Fitness>
44.4717

> <Gold.PLP.PLP>
-38.6362

> <Gold.PLP.part.hbond>
-1.8554

> <Gold.PLP.part.metal>
0.0000

> <Gold.PLP.part.buried>
-5.0917

> <Gold.PLP.part.nonpolar>
-31.8077

> <Gold.PLP.part.repulsive>
0.0586

> <Gold.PLP.ligand.clash>
0.0000

> <Gold.PLP.ligand.torsion>
0.1264

> <Gold.PLP.Chemscore.Hbond>
1.0000

> <Gold.PLP.Chemscore.CHOScore>
1.0000

> <Gold.PLP.Chemscore.Metal>
0.0000

> <Gold.Chemscore.Hbonds>
donor molecule, donor type, donor heavy atom, donor atom, acceptor molecule, acceptor atom, score
      P1  H  6896  6908       L1    18  0.07
      L1  C     6    28       P1  8028  1.00

> <Gold.PLP.Chemscore.Internal.Correction>
0.0883

> <Gold.Rescore>
     Score         DG    S(hbond)    S(metal)    S(lipo)     H(rot)  DE(clash)    DE(int)     intcor
     10.46     -12.25       1.00        0.00      79.17       2.28       1.54       0.25       ----

> <Gold.Chemscore.Fitness>
10.4645

> <Gold.Chemscore.DG>
-12.2540

> <Gold.Chemscore.ZeroCoef>
-5.4800

> <Gold.Chemscore.Hbond>
0.9992

> <Gold.Chemscore.Metal>
0.0000

> <Gold.Chemscore.Lipo>
79.1666

> <Gold.Chemscore.Internal_Hbond>
0.0000

> <Gold.Chemscore.DEClash>
1.5419

> <Gold.Chemscore.DEInternal>
0.2476

> <Gold.Chemscore.Rot>
2.2757

> <Gold.Chemscore.Internal.Correction>
   9.000000E+99

> <Gold.Chemscore.Hbonds>
donor molecule, donor type, donor heavy atom, donor atom, acceptor molecule, acceptor atom, score
      P1  H  6896  6908       L1    18  0.10

> <Gold.Chemscore.Hbond.Weighted>
-3.3374

> <Gold.Chemscore.Metal.Weighted>
-0.0000

> <Gold.Chemscore.Lipo.Weighted>
-9.2625

> <Gold.Chemscore.Internal_Hbond.Weighted>
0.0000

> <Gold.Chemscore.DEClash.Weighted>
1.5419

> <Gold.Chemscore.DEInternal.Weighted>
0.2476

> <Gold.Chemscore.Rot.Weighted>
5.8259

> <Gold.Chemscore.Internal.Correction.Weighted>
   9.000000E+99

> <Gold.Protein.RotatedTorsions>
[ 6907 6896 6895 6894 ] final  -25.41 input  -60.11 | X-H torsion
[ 7974 7965 7964 7962 ] final  -69.76 input  175.53 | X-H torsion
[ 8008 7997 7996 7995 ] final  159.60 input   59.86 | X-H torsion
[ 10167 10162 10161 10158 ] final  139.33 input  -65.29 | X-H torsion
[ 10718 10713 10712 10709 ] final   67.14 input   66.30 | X-H torsion
[ 10763 10752 10751 10750 ] final   33.14 input  -60.55 | X-H torsion
[ 11005 11000 10999 10996 ] final -125.27 input  -57.11 | X-H torsion

> <Gold.Protein.ActiveResidues>
 VAL166  LYS551  ARG553  GLY616  TRP617  ASP618  TYR619  PRO620  LYS621  CYS622 
 ASP623  PHE694  ASN695  SER759  ASP760  ASP761  ALA762  ILE779  LEU786  VAL792 
 PHE793  MET794  SER795  GLU796  ALA797  LYS798  CYS799  TRP800  GLU811  SER814 

> <Gold.Protein.RotatedAtoms>
  151.1756  135.0337  159.8769 H   0  0  0  0  0  0  0  0  0  0  0  0  # atno 6907 bound_to 6896
  152.5447  134.1121  159.8373 H   0  0  0  0  0  0  0  0  0  0  0  0  # atno 6908 bound_to 6896
  151.1232  133.5042  159.2634 H   0  0  0  0  0  0  0  0  0  0  0  0  # atno 6909 bound_to 6896
  145.6997  140.9121  143.0738 H   0  0  0  0  0  0  0  0  0  0  0  0  # atno 7974 bound_to 7965
  156.2228  140.1827  156.7435 H   0  0  0  0  0  0  0  0  0  0  0  0  # atno 8008 bound_to 7997
  154.5893  140.0653  156.9244 H   0  0  0  0  0  0  0  0  0  0  0  0  # atno 8009 bound_to 7997
  155.2365  140.3318  155.4299 H   0  0  0  0  0  0  0  0  0  0  0  0  # atno 8010 bound_to 7997
  139.5082  144.6301  151.5839 H   0  0  0  0  0  0  0  0  0  0  0  0  # atno 10167 bound_to 10162
  157.6212  130.9305  150.0202 H   0  0  0  0  0  0  0  0  0  0  0  0  # atno 10718 bound_to 10713
  153.0226  135.6395  154.1465 H   0  0  0  0  0  0  0  0  0  0  0  0  # atno 10763 bound_to 10752
  154.1198  135.2847  155.3212 H   0  0  0  0  0  0  0  0  0  0  0  0  # atno 10764 bound_to 10752
  154.6271  135.5505  153.7702 H   0  0  0  0  0  0  0  0  0  0  0  0  # atno 10765 bound_to 10752
  140.9775  134.0719  157.3801 H   0  0  0  0  0  0  0  0  0  0  0  0  # atno 11005 bound_to 11000
  144.6972  139.8931  143.7454 LP  0  0  0  0  0  0  0  0  0  0  0  0  # atno 17320 bound_to 7965
  146.0809  139.3797  143.0465 LP  0  0  0  0  0  0  0  0  0  0  0  0  # atno 17321 bound_to 7965
  140.6031  143.9574  150.6400 LP  0  0  0  0  0  0  0  0  0  0  0  0  # atno 17342 bound_to 10162
  140.2792  143.3401  152.1167 LP  0  0  0  0  0  0  0  0  0  0  0  0  # atno 17343 bound_to 10162
  156.1359  130.3642  149.9658 LP  0  0  0  0  0  0  0  0  0  0  0  0  # atno 17370 bound_to 10713
  156.7710  130.9186  151.3644 LP  0  0  0  0  0  0  0  0  0  0  0  0  # atno 17371 bound_to 10713
  139.8937  135.0131  156.6910 LP  0  0  0  0  0  0  0  0  0  0  0  0  # atno 17394 bound_to 11000
  140.7236  133.9119  155.8163 LP  0  0  0  0  0  0  0  0  0  0  0  0  # atno 17395 bound_to 11000

$$$$
