#       Name:                AV-unprocessed.smi:662
#       Creating user name   scv26
#       Creation time:       Fri Mar 27 00:19:35 2020


#       File generated by GOLD software.
#

@<TRIPOS>MOLECULE
AV-unprocessed.smi:662
    37    38     1
SMALL
NO_CHARGES


@<TRIPOS>ATOM
      1 ****        -1.2009  -0.6883  -0.5484 O.2            1 S1                 0.0000
      2 ****        -1.1691  -0.2909   0.6169 C.2            1 S1                 0.0000
      3 ****        -0.7362  -1.0418   1.6422 N.am           1 S1                 0.0000
      4 ****        -0.2300  -2.4082   1.5407 C.3            1 S1                 0.0000
      5 ****         1.3093  -2.4667   1.4966 C.3            1 S1                 0.0000
      6 ****         1.9162  -1.7333   0.3438 C.2            1 S1                 0.0000
      7 ****         1.9968  -2.2425  -0.8879 N.2            1 S1                 0.0000
      8 ****         2.5571  -1.3499  -1.8082 C.2            1 S1                 0.0000
      9 ****         2.7153  -1.7604  -3.2438 C.3            1 S1                 0.0000
     10 ****         3.2678  -0.7908  -3.9733 F              1 S1                 0.0000
     11 ****         3.4927  -2.8372  -3.3535 F              1 S1                 0.0000
     12 ****         1.5364  -2.0525  -3.7924 F              1 S1                 0.0000
     13 ****         2.9050  -0.1461  -1.2449 C.2            1 S1                 0.0000
     14 ****         2.5368  -0.0899   0.4565 S.3            1 S1                 0.0000
     15 ****        -1.6289   1.1299   0.9617 C.3            1 S1                 0.0000
     16 ****        -0.7129   2.2136   0.3679 C.3            1 S1                 0.0000
     17 ****        -1.6717   3.1649  -0.3374 C.3            1 S1                 0.0000
     18 ****        -3.0311   2.8394   0.2771 C.3            1 S1                 0.0000
     19 ****        -2.9824   1.3987   0.4602 N.3            1 S1                 0.0000
     20 ****        -0.7484  -0.6302   2.5641 H              1 S1                 0.0000
     21 ****        -0.5878  -2.9624   2.4084 H              1 S1                 0.0000
     22 ****        -0.6489  -2.9117   0.6677 H              1 S1                 0.0000
     23 ****         1.7196  -2.0559   2.4197 H              1 S1                 0.0000
     24 ****         1.6349  -3.5066   1.4549 H              1 S1                 0.0000
     25 ****         3.3513   0.7099  -1.7284 H              1 S1                 0.0000
     26 ****        -1.6472   1.2523   2.0464 H              1 S1                 0.0000
     27 ****        -0.1780   2.7286   1.1666 H              1 S1                 0.0000
     28 ****         0.0337   1.8263  -0.3277 H              1 S1                 0.0000
     29 ****        -1.3947   4.2119  -0.2117 H              1 S1                 0.0000
     30 ****        -1.6879   2.9494  -1.4067 H              1 S1                 0.0000
     31 ****        -3.1443   3.3269   1.2467 H              1 S1                 0.0000
     32 ****        -3.8654   3.1371  -0.3584 H              1 S1                 0.0000
     33 ****        -3.7062   1.0758   1.0862 H              1 S1                 0.0000
     34 ****        -0.8941  -1.6140  -0.7696 LP             1 S1                 0.0000
     35 ****        -1.5336  -0.0852  -1.2735 LP             1 S1                 0.0000
     36 ****         1.6895  -3.1635  -1.1271 LP             1 S1                 0.0000
     37 ****        -3.1571   0.9016  -0.3897 LP             1 S1                 0.0000
@<TRIPOS>BOND
    1    1    2 2     
    2    2    3 am    
    3    2   15 1     
    4    3    4 1     
    5    3   20 1     
    6    4    5 1     
    7    4   21 1     
    8    4   22 1     
    9    5    6 1     
   10    5   23 1     
   11    5   24 1     
   12    6   14 1     
   13    6    7 2     
   14    7    8 1     
   15    8    9 1     
   16    8   13 2     
   17    9   10 1     
   18    9   11 1     
   19    9   12 1     
   20   13   14 1     
   21   13   25 1     
   22   15   19 1     
   23   15   16 1     
   24   15   26 1     
   25   16   17 1     
   26   16   27 1     
   27   16   28 1     
   28   17   18 1     
   29   17   29 1     
   30   17   30 1     
   31   18   19 1     
   32   18   31 1     
   33   18   32 1     
   34   19   33 1     
   35    1   34 1     
   36    1   35 1     
   37    7   36 1     
   38   19   37 1     
@<TRIPOS>SUBSTRUCTURE
      1 S1             1
@<TRIPOS>SET
LONE_PAIRS      STATIC     ATOMS    <user>   **** ""
4 34 35 36 37
DONOR_HYDROGENS      STATIC     ATOMS    <user>   **** ""
2 20 33
ATOM$BLUE        STATIC     ATOMS    COLORGROUP SYSTEM
4 34 35 36 37
ATOM$RED        STATIC     ATOMS    COLORGROUP SYSTEM
2 20 33
