AV-unprocessed.smi:2229|AV-procd|sdf|9032|dock2
  -GOLD-   2272012233D 1   1.00000     0.00000
 Structure written by MMmdl.
 43 44  0  0  0  0  0  0  0  0  2 V2000
  152.3714  145.1141  158.9968 C   0  0  0  0  0  0  0  0  0  0  0  0
  151.7662  143.7015  158.9205 C   0  0  0  0  0  0  0  0  0  0  0  0
  152.5509  142.7322  159.8174 C   0  0  0  0  0  0  0  0  0  0  0  0
  151.6855  143.1632  157.4763 C   0  0  0  0  0  0  0  0  0  0  0  0
  150.5793  142.1146  157.2729 C   0  0  0  0  0  0  0  0  0  0  0  0
  150.6630  141.3513  155.9317 C   0  0  1  0  0  0  0  0  0  0  0  0
  150.4612  139.8377  156.0652 C   0  0  0  0  0  0  0  0  0  0  0  0
  150.1317  139.3786  154.6494 C   0  0  0  0  0  0  0  0  0  0  0  0
  149.2596  140.4975  154.0788 C   0  0  0  0  0  0  0  0  0  0  0  0
  149.6628  141.7859  154.8241 C   0  0  1  0  0  0  0  0  0  0  0  0
  148.4742  142.4561  155.3549 N   0  0  0  0  0  0  0  0  0  0  0  0
  147.6290  141.9408  156.2616 C   0  0  0  0  0  0  0  0  0  0  0  0
  147.8079  140.8590  156.8213 O   0  0  0  0  0  0  0  0  0  0  0  0
  146.3814  142.7687  156.5794 C   0  0  0  0  0  0  0  0  0  0  0  0
  146.2346  142.9593  158.0233 N   0  0  0  0  0  0  0  0  0  0  0  0
  147.1271  143.6732  158.7834 C   0  0  0  0  0  0  0  0  0  0  0  0
  146.7854  143.6562  160.0218 N   0  0  0  0  0  0  0  0  0  0  0  0
  145.5858  142.8789  160.1011 N   0  5  0  0  0  0  0  0  0  0  0  0
  145.2997  142.4769  158.8433 C   0  0  0  0  0  0  0  0  0  0  0  0
  144.3572  141.7862  158.4585 O   0  0  0  0  0  0  0  0  0  0  0  0
  153.3708  145.1428  158.5621 H   0  0  0  0  0  0  0  0  0  0  0  0
  152.4493  145.4504  160.0309 H   0  0  0  0  0  0  0  0  0  0  0  0
  151.7564  145.8463  158.4741 H   0  0  0  0  0  0  0  0  0  0  0  0
  150.7512  143.7566  159.3167 H   0  0  0  0  0  0  0  0  0  0  0  0
  153.5816  142.6247  159.4780 H   0  0  0  0  0  0  0  0  0  0  0  0
  152.0954  141.7416  159.8201 H   0  0  0  0  0  0  0  0  0  0  0  0
  152.5745  143.0829  160.8494 H   0  0  0  0  0  0  0  0  0  0  0  0
  151.5422  143.9894  156.7790 H   0  0  0  0  0  0  0  0  0  0  0  0
  152.6457  142.7144  157.2216 H   0  0  0  0  0  0  0  0  0  0  0  0
  150.6078  141.4044  158.0987 H   0  0  0  0  0  0  0  0  0  0  0  0
  149.6141  142.6168  157.3256 H   0  0  0  0  0  0  0  0  0  0  0  0
  151.6640  141.5070  155.5257 H   0  0  0  0  0  0  0  0  0  0  0  0
  151.3370  139.3290  156.4694 H   0  0  0  0  0  0  0  0  0  0  0  0
  149.6182  139.6276  156.7252 H   0  0  0  0  0  0  0  0  0  0  0  0
  151.0515  139.2970  154.0687 H   0  0  0  0  0  0  0  0  0  0  0  0
  149.6372  138.4073  154.6268 H   0  0  0  0  0  0  0  0  0  0  0  0
  149.3833  140.5933  152.9995 H   0  0  0  0  0  0  0  0  0  0  0  0
  148.2105  140.2571  154.2597 H   0  0  0  0  0  0  0  0  0  0  0  0
  150.1775  142.4490  154.1261 H   0  0  0  0  0  0  0  0  0  0  0  0
  148.2386  143.3506  154.9498 H   0  0  0  0  0  0  0  0  0  0  0  0
  146.4567  143.7327  156.0736 H   0  0  0  0  0  0  0  0  0  0  0  0
  145.4900  142.2826  156.1791 H   0  0  0  0  0  0  0  0  0  0  0  0
  147.9869  144.1548  158.3148 H   0  0  0  0  0  0  0  0  0  0  0  0
  1  2  1  0  0  0  0
  1 21  1  0  0  0  0
  1 22  1  0  0  0  0
  1 23  1  0  0  0  0
  2  3  1  0  0  0  0
  2  4  1  0  0  0  0
  2 24  1  0  0  0  0
  3 25  1  0  0  0  0
  3 26  1  0  0  0  0
  3 27  1  0  0  0  0
  4  5  1  0  0  0  0
  4 28  1  0  0  0  0
  4 29  1  0  0  0  0
  5  6  1  0  0  0  0
  5 30  1  0  0  0  0
  5 31  1  0  0  0  0
  6 10  1  0  0  0  0
  6  7  1  0  0  0  0
  6 32  1  0  0  0  0
  7  8  1  0  0  0  0
  7 33  1  0  0  0  0
  7 34  1  0  0  0  0
  8  9  1  0  0  0  0
  8 35  1  0  0  0  0
  8 36  1  0  0  0  0
  9 10  1  0  0  0  0
  9 37  1  0  0  0  0
  9 38  1  0  0  0  0
 10 11  1  0  0  0  0
 10 39  1  0  0  0  0
 11 12  1  0  0  0  0
 11 40  1  0  0  0  0
 12 13  2  0  0  0  0
 12 14  1  0  0  0  0
 14 15  1  0  0  0  0
 14 41  1  0  0  0  0
 14 42  1  0  0  0  0
 15 19  1  0  0  0  0
 15 16  1  0  0  0  0
 16 17  2  0  0  0  0
 16 43  1  0  0  0  0
 17 18  1  0  0  0  0
 18 19  1  0  0  0  0
 19 20  2  0  0  0  0
M  CHG  1  18  -1
M  END
> <s_m_source_file>
AV-unprocessed.smi

> <i_m_source_file_index>
2229

> <i_lp_mmshare_version>
43012

> <i_f3d_flags>
0

> <s_epik_input>
W0NIM11bQ0hdKFtDSDNdKVtDSDJdW0NIMl1bQ0BASF0xW0NIMl1bQ0gyXVtDSDJdW0NASF0xW05IXUMoPU8pW0NIMl1uMltjSF1uW25IXWMyPU8=

> <s_epik_cmdline>
J2VwaWtfcHl0aG9uJywgJy1waCcsICc3LjAnLCAnLXRuJywgJzgnLCAnLW1hJywgJzIwMCcsICctbWV0YWxfYmluZGluZycsICctaW1hZScsICc8aW5maWxlLm1hZT4nLCAnLW9tYWUnLCAnPG91dGZpbGUubWFlPic=

> <r_lp_tautomer_probability>
1

> <r_epik_Ionization_Penalty>
13.6733

> <r_epik_Ionization_Penalty_Charging>
13.6725

> <r_epik_Ionization_Penalty_Neutral>
0.000837689

> <r_epik_State_Penalty>
5.67062

> <r_epik_Charging_Adjusted_Penalty>
19.3431

> <i_epik_Tot_Q>
-1

> <i_epik_Tot_abs_Q>
1

> <r_epik_Metal_State_Penalty>
1.61781

> <b_epik_Metal_Only>
1

> <s_lp_Force_Field>
OPLS_2005

> <r_lp_Energy>
25.9104

> <b_lp_Chiralities_Consistent>
1

> <s_lp_Variant>
AV-unprocessed.smi:2229-6

> <Gold.Version>
5.8.1

> <Gold.Id.Protein>
6NUR|6NUR_protein|mol2

> <Gold.PLP.Fitness>
44.3152

> <Gold.PLP.PLP>
-36.8867

> <Gold.PLP.part.hbond>
-3.5790

> <Gold.PLP.part.metal>
0.0000

> <Gold.PLP.part.buried>
-1.2976

> <Gold.PLP.part.nonpolar>
-31.2713

> <Gold.PLP.part.repulsive>
0.1701

> <Gold.PLP.ligand.clash>
0.0000

> <Gold.PLP.ligand.torsion>
1.0264

> <Gold.PLP.Chemscore.Hbond>
2.1390

> <Gold.PLP.Chemscore.CHOScore>
1.0000

> <Gold.PLP.Chemscore.Metal>
0.0000

> <Gold.Chemscore.Hbonds>
donor molecule, donor type, donor heavy atom, donor atom, acceptor molecule, acceptor atom, score
      L1  H    11    40       P1  8028  0.40
      L1  C    16    43       P1  8029  0.88

> <Gold.PLP.Chemscore.Internal.Correction>
0.0643

> <Gold.Rescore>
     Score         DG    S(hbond)    S(metal)    S(lipo)     H(rot)  DE(clash)    DE(int)     intcor
      9.82     -13.80       1.32        0.00      90.35       2.59       0.87       3.12       ----

> <Gold.Chemscore.Fitness>
9.8158

> <Gold.Chemscore.DG>
-13.8031

> <Gold.Chemscore.ZeroCoef>
-5.4800

> <Gold.Chemscore.Hbond>
1.3153

> <Gold.Chemscore.Metal>
0.0000

> <Gold.Chemscore.Lipo>
90.3465

> <Gold.Chemscore.Internal_Hbond>
0.0000

> <Gold.Chemscore.DEClash>
0.8659

> <Gold.Chemscore.DEInternal>
3.1215

> <Gold.Chemscore.Rot>
2.5939

> <Gold.Chemscore.Internal.Correction>
   9.000000E+99

> <Gold.Chemscore.Hbonds>
donor molecule, donor type, donor heavy atom, donor atom, acceptor molecule, acceptor atom, score
      L1  H    11    40       P1  8028  0.39

> <Gold.Chemscore.Hbond.Weighted>
-4.3931

> <Gold.Chemscore.Metal.Weighted>
-0.0000

> <Gold.Chemscore.Lipo.Weighted>
-10.5705

> <Gold.Chemscore.Internal_Hbond.Weighted>
0.0000

> <Gold.Chemscore.DEClash.Weighted>
0.8659

> <Gold.Chemscore.DEInternal.Weighted>
3.1215

> <Gold.Chemscore.Rot.Weighted>
6.6405

> <Gold.Chemscore.Internal.Correction.Weighted>
   9.000000E+99

> <Gold.Protein.RotatedTorsions>
[ 6907 6896 6895 6894 ] final -123.74 input  -60.11 | X-H torsion
[ 7974 7965 7964 7962 ] final -151.17 input  175.53 | X-H torsion
[ 8008 7997 7996 7995 ] final -160.81 input   59.86 | X-H torsion
[ 10167 10162 10161 10158 ] final  -60.99 input  -65.29 | X-H torsion
[ 10718 10713 10712 10709 ] final   48.53 input   66.30 | X-H torsion
[ 10763 10752 10751 10750 ] final -156.31 input  -60.55 | X-H torsion
[ 11005 11000 10999 10996 ] final  106.23 input  -57.11 | X-H torsion

> <Gold.Protein.ActiveResidues>
 VAL166  LYS551  ARG553  GLY616  TRP617  ASP618  TYR619  PRO620  LYS621  CYS622 
 ASP623  PHE694  ASN695  SER759  ASP760  ASP761  ALA762  ILE779  LEU786  VAL792 
 PHE793  MET794  SER795  GLU796  ALA797  LYS798  CYS799  TRP800  GLU811  SER814 

> <Gold.Protein.RotatedAtoms>
  150.8700  133.7520  159.2964 H   0  0  0  0  0  0  0  0  0  0  0  0  # atno 6907 bound_to 6896
  151.5135  135.1064  159.9869 H   0  0  0  0  0  0  0  0  0  0  0  0  # atno 6908 bound_to 6896
  152.4688  133.7938  159.6972 H   0  0  0  0  0  0  0  0  0  0  0  0  # atno 6909 bound_to 6896
  144.7865  140.4833  143.5802 H   0  0  0  0  0  0  0  0  0  0  0  0  # atno 7974 bound_to 7965
  155.7829  140.0867  157.2050 H   0  0  0  0  0  0  0  0  0  0  0  0  # atno 8008 bound_to 7997
  154.3989  140.1504  156.3131 H   0  0  0  0  0  0  0  0  0  0  0  0  # atno 8009 bound_to 7997
  155.8636  140.3429  155.5775 H   0  0  0  0  0  0  0  0  0  0  0  0  # atno 8010 bound_to 7997
  140.6035  143.2367  151.5874 H   0  0  0  0  0  0  0  0  0  0  0  0  # atno 10167 bound_to 10162
  157.4696  130.8247  149.7974 H   0  0  0  0  0  0  0  0  0  0  0  0  # atno 10718 bound_to 10713
  154.7722  135.3148  154.8166 H   0  0  0  0  0  0  0  0  0  0  0  0  # atno 10763 bound_to 10752
  153.8899  135.6826  153.4765 H   0  0  0  0  0  0  0  0  0  0  0  0  # atno 10764 bound_to 10752
  153.1338  135.4768  154.9325 H   0  0  0  0  0  0  0  0  0  0  0  0  # atno 10765 bound_to 10752
  139.8811  134.9362  156.5634 H   0  0  0  0  0  0  0  0  0  0  0  0  # atno 11005 bound_to 11000
  145.5908  139.1495  143.3183 LP  0  0  0  0  0  0  0  0  0  0  0  0  # atno 17320 bound_to 7965
  146.2099  140.6034  142.9064 LP  0  0  0  0  0  0  0  0  0  0  0  0  # atno 17321 bound_to 7965
  139.5308  144.2922  152.1143 LP  0  0  0  0  0  0  0  0  0  0  0  0  # atno 17342 bound_to 10162
  140.2107  144.4566  150.6387 LP  0  0  0  0  0  0  0  0  0  0  0  0  # atno 17343 bound_to 10162
  156.0067  130.3852  150.2406 LP  0  0  0  0  0  0  0  0  0  0  0  0  # atno 17370 bound_to 10713
  157.0588  131.0084  151.3229 LP  0  0  0  0  0  0  0  0  0  0  0  0  # atno 17371 bound_to 10713
  140.8152  133.8397  155.8846 LP  0  0  0  0  0  0  0  0  0  0  0  0  # atno 17394 bound_to 11000
  140.9469  134.1828  157.4756 LP  0  0  0  0  0  0  0  0  0  0  0  0  # atno 17395 bound_to 11000

$$$$
