AV-unprocessed.smi:3112|AV-procd|sdf|11837|dock6
  -GOLD-   2272017213D 1   1.00000     0.00000
 Structure written by MMmdl.
 37 37  0  0  0  0  0  0  0  0  2 V2000
  144.7337  135.3759  151.4093 C   0  0  0  0  0  0  0  0  0  0  0  0
  145.0731  136.5079  152.3889 C   0  0  0  0  0  0  0  0  0  0  0  0
  146.3210  137.3143  151.9854 C   0  0  1  0  0  0  0  0  0  0  0  0
  146.1488  137.7948  150.6666 O   0  0  0  0  0  0  0  0  0  0  0  0
  146.5536  138.5175  152.9144 C   0  0  0  0  0  0  0  0  0  0  0  0
  147.9974  138.7959  153.0698 N   0  3  0  0  0  0  0  0  0  0  0  0
  148.3850  139.5447  154.2884 C   0  0  2  0  0  0  0  0  0  0  0  0
  147.6639  140.9052  154.2750 C   0  0  0  0  0  0  0  0  0  0  0  0
  149.9313  139.6409  154.4387 C   0  0  2  0  0  0  0  0  0  0  0  0
  150.6342  138.2771  154.2901 C   0  0  0  0  0  0  0  0  0  0  0  0
  150.3405  140.3337  155.6579 N   0  0  0  0  0  0  0  0  0  0  0  0
  149.9861  141.6040  156.0660 C   0  0  0  0  0  0  0  0  0  0  0  0
  150.5714  141.8257  157.2792 C   0  0  0  0  0  0  0  0  0  0  0  0
  151.2705  140.6155  157.5423 C   0  0  0  0  0  0  0  0  0  0  0  0
  151.1257  139.7244  156.5754 N   0  0  0  0  0  0  0  0  0  0  0  0
  143.8669  134.8128  151.7558 H   0  0  0  0  0  0  0  0  0  0  0  0
  145.5648  134.6771  151.3103 H   0  0  0  0  0  0  0  0  0  0  0  0
  144.4993  135.7623  150.4172 H   0  0  0  0  0  0  0  0  0  0  0  0
  144.2146  137.1733  152.4915 H   0  0  0  0  0  0  0  0  0  0  0  0
  145.2343  136.0679  153.3739 H   0  0  0  0  0  0  0  0  0  0  0  0
  147.1947  136.6614  152.0103 H   0  0  0  0  0  0  0  0  0  0  0  0
  145.3038  138.2154  150.6074 H   0  0  0  0  0  0  0  0  0  0  0  0
  146.0431  139.4007  152.5269 H   0  0  0  0  0  0  0  0  0  0  0  0
  146.1236  138.3034  153.8923 H   0  0  0  0  0  0  0  0  0  0  0  0
  148.5116  137.9271  153.0416 H   0  0  0  0  0  0  0  0  0  0  0  0
  147.9961  138.9922  155.1450 H   0  0  0  0  0  0  0  0  0  0  0  0
  147.8931  141.4952  155.1618 H   0  0  0  0  0  0  0  0  0  0  0  0
  146.5822  140.7673  154.2560 H   0  0  0  0  0  0  0  0  0  0  0  0
  147.9271  141.4982  153.3992 H   0  0  0  0  0  0  0  0  0  0  0  0
  150.3104  140.2391  153.6105 H   0  0  0  0  0  0  0  0  0  0  0  0
  150.3806  137.8093  153.3386 H   0  0  0  0  0  0  0  0  0  0  0  0
  150.3626  137.5797  155.0825 H   0  0  0  0  0  0  0  0  0  0  0  0
  151.7180  138.3945  154.3161 H   0  0  0  0  0  0  0  0  0  0  0  0
  149.3527  142.2400  155.4649 H   0  0  0  0  0  0  0  0  0  0  0  0
  150.5092  142.7166  157.8867 H   0  0  0  0  0  0  0  0  0  0  0  0
  151.8717  140.3583  158.4018 H   0  0  0  0  0  0  0  0  0  0  0  0
  148.2724  139.3519  152.2723 H   0  0  0  0  0  0  0  0  0  0  0  0
  1  2  1  0  0  0  0
  1 16  1  0  0  0  0
  1 17  1  0  0  0  0
  1 18  1  0  0  0  0
  2  3  1  0  0  0  0
  2 19  1  0  0  0  0
  2 20  1  0  0  0  0
  3  4  1  0  0  0  0
  3  5  1  0  0  0  0
  3 21  1  0  0  0  0
  4 22  1  0  0  0  0
  5  6  1  0  0  0  0
  5 23  1  0  0  0  0
  5 24  1  0  0  0  0
  6  7  1  0  0  0  0
  6 25  1  0  0  0  0
  6 37  1  0  0  0  0
  7  8  1  0  0  0  0
  7  9  1  0  0  0  0
  7 26  1  0  0  0  0
  8 27  1  0  0  0  0
  8 28  1  0  0  0  0
  8 29  1  0  0  0  0
  9 10  1  0  0  0  0
  9 11  1  0  0  0  0
  9 30  1  0  0  0  0
 10 31  1  0  0  0  0
 10 32  1  0  0  0  0
 10 33  1  0  0  0  0
 11 15  1  0  0  0  0
 11 12  1  0  0  0  0
 12 13  2  0  0  0  0
 12 34  1  0  0  0  0
 13 14  1  0  0  0  0
 13 35  1  0  0  0  0
 14 15  2  0  0  0  0
 14 36  1  0  0  0  0
M  CHG  1   6   1
M  END
> <s_m_source_file>
AV-unprocessed.smi

> <i_m_source_file_index>
3112

> <i_lp_mmshare_version>
43012

> <i_f3d_flags>
0

> <s_epik_input>
W0NIM11bQ0gyXVtDQEhdKFtPSF0pW0NIMl1bTkhdW0NASF0oW0NIM10pW0NASF0oW0NIM10pbjFbY0hdW2NIXVtjSF1uMQ==

> <s_epik_cmdline>
J2VwaWtfcHl0aG9uJywgJy1waCcsICc3LjAnLCAnLXRuJywgJzgnLCAnLW1hJywgJzIwMCcsICctbWV0YWxfYmluZGluZycsICctaW1hZScsICc8aW5maWxlLm1hZT4nLCAnLW9tYWUnLCAnPG91dGZpbGUubWFlPic=

> <r_lp_tautomer_probability>
1

> <r_epik_Ionization_Penalty>
0.0154842

> <r_epik_Ionization_Penalty_Charging>
0.0154724

> <r_epik_Ionization_Penalty_Neutral>
1.17979e-05

> <r_epik_State_Penalty>
0.0121607

> <r_epik_Charging_Adjusted_Penalty>
0.0276331

> <i_epik_Tot_Q>
1

> <i_epik_Tot_abs_Q>
1

> <r_epik_Metal_State_Penalty>
0.0121863

> <b_epik_Metal_Only>
0

> <s_lp_Force_Field>
OPLS_2005

> <r_lp_Energy>
12.6471

> <b_lp_Chiralities_Consistent>
1

> <s_lp_Variant>
AV-unprocessed.smi:3112-2

> <Gold.Version>
5.8.1

> <Gold.Id.Protein>
6NUR|6NUR_protein|mol2

> <Gold.PLP.Fitness>
48.3850

> <Gold.PLP.PLP>
-33.5281

> <Gold.PLP.part.hbond>
-4.2129

> <Gold.PLP.part.metal>
0.0000

> <Gold.PLP.part.buried>
0.0663

> <Gold.PLP.part.nonpolar>
-29.9164

> <Gold.PLP.part.repulsive>
0.0704

> <Gold.PLP.ligand.clash>
0.0000

> <Gold.PLP.ligand.torsion>
0.6502

> <Gold.PLP.Chemscore.Hbond>
4.4552

> <Gold.PLP.Chemscore.CHOScore>
0.8714

> <Gold.PLP.Chemscore.Metal>
0.0000

> <Gold.Chemscore.Hbonds>
donor molecule, donor type, donor heavy atom, donor atom, acceptor molecule, acceptor atom, score
      L1  H     4    22       P1 10171  1.00
      L1  H     6    25       P1  7948  1.49
      L1  H     6    37       P1  7957  1.00
      P1  H  7954  7966       L1     4  0.67
      L1  C    12    34       P1  8028  1.00

> <Gold.PLP.Chemscore.Internal.Correction>
0.1772

> <Gold.Rescore>
     Score         DG    S(hbond)    S(metal)    S(lipo)     H(rot)  DE(clash)    DE(int)     intcor
     15.21     -17.50       2.84        0.00      74.39       2.41       1.31       0.98       ----

> <Gold.Chemscore.Fitness>
15.2086

> <Gold.Chemscore.DG>
-17.4993

> <Gold.Chemscore.ZeroCoef>
-5.4800

> <Gold.Chemscore.Hbond>
2.8391

> <Gold.Chemscore.Metal>
0.0000

> <Gold.Chemscore.Lipo>
74.3886

> <Gold.Chemscore.Internal_Hbond>
0.0000

> <Gold.Chemscore.DEClash>
1.3123

> <Gold.Chemscore.DEInternal>
0.9784

> <Gold.Chemscore.Rot>
2.4089

> <Gold.Chemscore.Internal.Correction>
   9.000000E+99

> <Gold.Chemscore.Hbonds>
donor molecule, donor type, donor heavy atom, donor atom, acceptor molecule, acceptor atom, score
      L1  H     4    22       P1 10171  0.96
      L1  H     6    25       P1  7948  0.71
      L1  H     6    37       P1  7957  0.95
      P1  H  7954  7966       L1     4  0.28

> <Gold.Chemscore.Hbond.Weighted>
-9.4825

> <Gold.Chemscore.Metal.Weighted>
-0.0000

> <Gold.Chemscore.Lipo.Weighted>
-8.7035

> <Gold.Chemscore.Internal_Hbond.Weighted>
0.0000

> <Gold.Chemscore.DEClash.Weighted>
1.3123

> <Gold.Chemscore.DEInternal.Weighted>
0.9784

> <Gold.Chemscore.Rot.Weighted>
6.1667

> <Gold.Chemscore.Internal.Correction.Weighted>
   9.000000E+99

> <Gold.Protein.RotatedTorsions>
[ 6907 6896 6895 6894 ] final   99.13 input  -60.11 | X-H torsion
[ 7974 7965 7964 7962 ] final  171.98 input  175.53 | X-H torsion
[ 8008 7997 7996 7995 ] final -124.85 input   59.86 | X-H torsion
[ 10167 10162 10161 10158 ] final  -60.83 input  -65.29 | X-H torsion
[ 10718 10713 10712 10709 ] final -137.61 input   66.30 | X-H torsion
[ 10763 10752 10751 10750 ] final   64.95 input  -60.55 | X-H torsion
[ 11005 11000 10999 10996 ] final  -63.84 input  -57.11 | X-H torsion

> <Gold.Protein.ActiveResidues>
 VAL166  LYS551  ARG553  GLY616  TRP617  ASP618  TYR619  PRO620  LYS621  CYS622 
 ASP623  PHE694  ASN695  SER759  ASP760  ASP761  ALA762  ILE779  LEU786  VAL792 
 PHE793  MET794  SER795  GLU796  ALA797  LYS798  CYS799  TRP800  GLU811  SER814 

> <Gold.Protein.RotatedAtoms>
  152.5397  134.0476  159.8095 H   0  0  0  0  0  0  0  0  0  0  0  0  # atno 6907 bound_to 6896
  151.0622  133.5527  159.2640 H   0  0  0  0  0  0  0  0  0  0  0  0  # atno 6908 bound_to 6896
  151.2421  135.0600  159.9083 H   0  0  0  0  0  0  0  0  0  0  0  0  # atno 6909 bound_to 6896
  144.7280  139.9430  143.6429 H   0  0  0  0  0  0  0  0  0  0  0  0  # atno 7974 bound_to 7965
  155.2036  140.0416  157.2921 H   0  0  0  0  0  0  0  0  0  0  0  0  # atno 8008 bound_to 7997
  154.6058  140.2464  155.7704 H   0  0  0  0  0  0  0  0  0  0  0  0  # atno 8009 bound_to 7997
  156.2349  140.2925  156.0296 H   0  0  0  0  0  0  0  0  0  0  0  0  # atno 8010 bound_to 7997
  140.6045  143.2370  151.5852 H   0  0  0  0  0  0  0  0  0  0  0  0  # atno 10167 bound_to 10162
  156.2900  130.7369  151.1392 H   0  0  0  0  0  0  0  0  0  0  0  0  # atno 10718 bound_to 10713
  153.0076  135.5374  154.6590 H   0  0  0  0  0  0  0  0  0  0  0  0  # atno 10763 bound_to 10752
  154.5803  135.2849  155.0741 H   0  0  0  0  0  0  0  0  0  0  0  0  # atno 10764 bound_to 10752
  154.1873  135.6506  153.5103 H   0  0  0  0  0  0  0  0  0  0  0  0  # atno 10765 bound_to 10752
  141.1406  133.6657  156.5742 H   0  0  0  0  0  0  0  0  0  0  0  0  # atno 11005 bound_to 11000
  146.0770  139.3758  143.0488 LP  0  0  0  0  0  0  0  0  0  0  0  0  # atno 17320 bound_to 7965
  145.7892  140.9822  143.1058 LP  0  0  0  0  0  0  0  0  0  0  0  0  # atno 17321 bound_to 7965
  139.5315  144.2902  152.1158 LP  0  0  0  0  0  0  0  0  0  0  0  0  # atno 17342 bound_to 10162
  140.2089  144.4582  150.6395 LP  0  0  0  0  0  0  0  0  0  0  0  0  # atno 17343 bound_to 10162
  157.7340  131.0586  150.5549 LP  0  0  0  0  0  0  0  0  0  0  0  0  # atno 17370 bound_to 10713
  156.5664  130.4268  149.6039 LP  0  0  0  0  0  0  0  0  0  0  0  0  # atno 17371 bound_to 10713
  140.3888  134.7458  157.4708 LP  0  0  0  0  0  0  0  0  0  0  0  0  # atno 17394 bound_to 11000
  140.0581  134.6034  155.8781 LP  0  0  0  0  0  0  0  0  0  0  0  0  # atno 17395 bound_to 11000

$$$$
