AV-unprocessed.smi:92|AV-procd|sdf|843|dock3
  -GOLD-   2262017283D 1   1.00000     0.00000
 Structure written by MMmdl.
 61 64  0  0  0  0  0  0  0  0  2 V2000
  147.6809  143.2090  159.0127 C   0  0  0  0  0  0  0  0  0  0  0  0
  148.2494  142.1375  158.0720 C   0  0  0  0  0  0  0  0  0  0  0  0
  148.0498  142.4756  156.6371 N   0  3  2  0  0  0  0  0  0  0  0  0
  146.6272  142.4825  156.2198 C   0  0  0  0  0  0  0  0  0  0  0  0
  146.0714  141.0555  156.1230 C   0  0  0  0  0  0  0  0  0  0  0  0
  146.8868  140.1858  155.1371 C   0  0  2  0  0  0  0  0  0  0  0  0
  146.3243  138.8303  155.0138 N   0  0  0  0  0  0  0  0  0  0  0  0
  145.3979  138.3107  156.0122 C   0  0  0  0  0  0  0  0  0  0  0  0
  146.1972  138.2791  153.7843 C   0  0  0  0  0  0  0  0  0  0  0  0
  146.8429  138.8869  152.7576 N   0  0  0  0  0  0  0  0  0  0  0  0
  146.7486  138.3919  151.5200 C   0  0  0  0  0  0  0  0  0  0  0  0
  146.0730  137.3209  151.0994 N   0  0  0  0  0  0  0  0  0  0  0  0
  145.4313  136.7008  152.1309 C   0  0  0  0  0  0  0  0  0  0  0  0
  145.4490  137.1031  153.4964 C   0  0  0  0  0  0  0  0  0  0  0  0
  144.6977  136.2172  154.2584 N   0  0  0  0  0  0  0  0  0  0  0  0
  144.2653  135.3394  153.3954 C   0  0  0  0  0  0  0  0  0  0  0  0
  144.6277  135.5744  152.0884 N   0  0  0  0  0  0  0  0  0  0  0  0
  144.3138  134.7598  150.9511 C   0  0  0  0  0  0  0  0  0  0  0  0
  143.6459  133.3924  151.1232 C   0  0  0  0  0  0  0  0  0  0  0  0
  144.4797  132.8214  149.9553 C   0  0  0  0  0  0  0  0  0  0  0  0
  145.1351  131.4584  150.2273 C   0  0  0  0  0  0  0  0  0  0  0  0
  146.2201  131.5756  151.1254 O   0  0  0  0  0  0  0  0  0  0  0  0
  143.7873  132.7270  148.5775 C   0  0  0  0  0  0  0  0  0  0  0  0
  143.4102  133.9843  148.0540 O   0  0  0  0  0  0  0  0  0  0  0  0
  145.4145  134.0326  150.1711 C   0  0  0  0  0  0  0  0  0  0  0  0
  148.3999  140.2294  155.5063 C   0  0  1  0  0  0  0  0  0  0  0  0
  149.3084  139.5531  154.4626 C   0  0  0  0  0  0  0  0  0  0  0  0
  148.8803  141.6915  155.6862 C   0  0  0  0  0  0  0  0  0  0  0  0
  147.7568  142.8852  160.0510 H   0  0  0  0  0  0  0  0  0  0  0  0
  146.6279  143.3993  158.8034 H   0  0  0  0  0  0  0  0  0  0  0  0
  148.2179  144.1536  158.9307 H   0  0  0  0  0  0  0  0  0  0  0  0
  149.3020  141.9603  158.2916 H   0  0  0  0  0  0  0  0  0  0  0  0
  147.7332  141.2013  158.2883 H   0  0  0  0  0  0  0  0  0  0  0  0
  146.0327  143.0806  156.9116 H   0  0  0  0  0  0  0  0  0  0  0  0
  146.5494  142.9729  155.2485 H   0  0  0  0  0  0  0  0  0  0  0  0
  146.0674  140.6140  157.1196 H   0  0  0  0  0  0  0  0  0  0  0  0
  145.0298  141.0956  155.8022 H   0  0  0  0  0  0  0  0  0  0  0  0
  146.7804  140.6467  154.1542 H   0  0  0  0  0  0  0  0  0  0  0  0
  144.3703  138.2957  155.6498 H   0  0  0  0  0  0  0  0  0  0  0  0
  145.4282  138.9095  156.9225 H   0  0  0  0  0  0  0  0  0  0  0  0
  145.6747  137.2900  156.2768 H   0  0  0  0  0  0  0  0  0  0  0  0
  147.2884  138.9334  150.7570 H   0  0  0  0  0  0  0  0  0  0  0  0
  143.6574  134.4966  153.6909 H   0  0  0  0  0  0  0  0  0  0  0  0
  143.7251  135.3935  150.2869 H   0  0  0  0  0  0  0  0  0  0  0  0
  143.8895  132.9307  152.0817 H   0  0  0  0  0  0  0  0  0  0  0  0
  142.5681  133.3952  150.9570 H   0  0  0  0  0  0  0  0  0  0  0  0
  144.4144  130.7475  150.6331 H   0  0  0  0  0  0  0  0  0  0  0  0
  145.5156  131.0185  149.3048 H   0  0  0  0  0  0  0  0  0  0  0  0
  147.0093  131.3064  150.6808 H   0  0  0  0  0  0  0  0  0  0  0  0
  144.4413  132.2475  147.8484 H   0  0  0  0  0  0  0  0  0  0  0  0
  142.8855  132.1170  148.6355 H   0  0  0  0  0  0  0  0  0  0  0  0
  144.1926  134.4881  147.8895 H   0  0  0  0  0  0  0  0  0  0  0  0
  145.7272  134.5400  149.2579 H   0  0  0  0  0  0  0  0  0  0  0  0
  146.2774  133.7954  150.7956 H   0  0  0  0  0  0  0  0  0  0  0  0
  148.5435  139.7094  156.4530 H   0  0  0  0  0  0  0  0  0  0  0  0
  149.1619  139.9821  153.4708 H   0  0  0  0  0  0  0  0  0  0  0  0
  149.1325  138.4822  154.3925 H   0  0  0  0  0  0  0  0  0  0  0  0
  150.3601  139.6760  154.7227 H   0  0  0  0  0  0  0  0  0  0  0  0
  148.8466  142.2011  154.7221 H   0  0  0  0  0  0  0  0  0  0  0  0
  149.9252  141.7147  155.9934 H   0  0  0  0  0  0  0  0  0  0  0  0
  148.3572  143.4343  156.5522 H   0  0  0  0  0  0  0  0  0  0  0  0
  1  2  1  0  0  0  0
  1 29  1  0  0  0  0
  1 30  1  0  0  0  0
  1 31  1  0  0  0  0
  2  3  1  0  0  0  0
  2 32  1  0  0  0  0
  2 33  1  0  0  0  0
  3 28  1  0  0  0  0
  3  4  1  0  0  0  0
  3 61  1  0  0  0  0
  4  5  1  0  0  0  0
  4 34  1  0  0  0  0
  4 35  1  0  0  0  0
  5  6  1  0  0  0  0
  5 36  1  0  0  0  0
  5 37  1  0  0  0  0
  6  7  1  0  0  0  0
  6 26  1  0  0  0  0
  6 38  1  0  0  0  0
  7  8  1  0  0  0  0
  7  9  1  0  0  0  0
  8 39  1  0  0  0  0
  8 40  1  0  0  0  0
  8 41  1  0  0  0  0
  9 14  1  0  0  0  0
  9 10  2  0  0  0  0
 10 11  1  0  0  0  0
 11 12  2  0  0  0  0
 11 42  1  0  0  0  0
 12 13  1  0  0  0  0
 13 17  1  0  0  0  0
 13 14  2  0  0  0  0
 14 15  1  0  0  0  0
 15 16  2  0  0  0  0
 16 17  1  0  0  0  0
 16 43  1  0  0  0  0
 17 18  1  0  0  0  0
 18 25  1  0  0  0  0
 18 19  1  0  0  0  0
 18 44  1  0  0  0  0
 19 20  1  0  0  0  0
 19 45  1  0  0  0  0
 19 46  1  0  0  0  0
 20 21  1  0  0  0  0
 20 23  1  0  0  0  0
 20 25  1  0  0  0  0
 21 22  1  0  0  0  0
 21 47  1  0  0  0  0
 21 48  1  0  0  0  0
 22 49  1  0  0  0  0
 23 24  1  0  0  0  0
 23 50  1  0  0  0  0
 23 51  1  0  0  0  0
 24 52  1  0  0  0  0
 25 53  1  0  0  0  0
 25 54  1  0  0  0  0
 26 27  1  0  0  0  0
 26 28  1  0  0  0  0
 26 55  1  0  0  0  0
 27 56  1  0  0  0  0
 27 57  1  0  0  0  0
 27 58  1  0  0  0  0
 28 59  1  0  0  0  0
 28 60  1  0  0  0  0
M  CHG  1   3   1
M  END
> <s_m_source_file>
AV-unprocessed.smi

> <i_m_source_file_index>
92

> <i_lp_mmshare_version>
43012

> <i_f3d_flags>
0

> <s_epik_input>
W0NIM11bQ0gyXU4xW0NIMl1bQ0gyXVtDQEhdKFtDQEBIXShbQ0gzXSlbQ0gyXTEpTihbQ0gzXSljKG5bY0hdbjIpYyhjMjMpbltjSF1uM1tDSF0oW0NIMl00KVtDSDJdQzQoW0NIMl1bT0hdKVtDSDJdW09IXQ==

> <s_epik_cmdline>
J2VwaWtfcHl0aG9uJywgJy1waCcsICc3LjAnLCAnLXRuJywgJzgnLCAnLW1hJywgJzIwMCcsICctbWV0YWxfYmluZGluZycsICctaW1hZScsICc8aW5maWxlLm1hZT4nLCAnLW9tYWUnLCAnPG91dGZpbGUubWFlPic=

> <r_lp_tautomer_probability>
1

> <r_epik_Ionization_Penalty>
0.00235514

> <r_epik_Ionization_Penalty_Charging>
0.00137877

> <r_epik_Ionization_Penalty_Neutral>
0.000976366

> <r_epik_State_Penalty>
-0

> <r_epik_Charging_Adjusted_Penalty>
0.00137877

> <i_epik_Tot_Q>
1

> <i_epik_Tot_abs_Q>
1

> <r_epik_Metal_State_Penalty>
-0

> <b_epik_Metal_Only>
0

> <s_lp_Force_Field>
OPLS_2005

> <r_lp_Energy>
56.5643

> <b_lp_Chiralities_Consistent>
1

> <s_lp_Variant>
AV-unprocessed.smi:92-3

> <Gold.Version>
5.8.1

> <Gold.Id.Protein>
6NUR|6NUR_protein|mol2

> <Gold.PLP.Fitness>
51.2591

> <Gold.PLP.PLP>
-34.9161

> <Gold.PLP.part.hbond>
-5.7417

> <Gold.PLP.part.metal>
0.0000

> <Gold.PLP.part.buried>
0.0037

> <Gold.PLP.part.nonpolar>
-31.5641

> <Gold.PLP.part.repulsive>
2.4013

> <Gold.PLP.ligand.clash>
0.0000

> <Gold.PLP.ligand.torsion>
1.2719

> <Gold.PLP.Chemscore.Hbond>
5.0000

> <Gold.PLP.Chemscore.CHOScore>
0.8778

> <Gold.PLP.Chemscore.Metal>
0.0000

> <Gold.Chemscore.Hbonds>
donor molecule, donor type, donor heavy atom, donor atom, acceptor molecule, acceptor atom, score
      L1  H     3    61       P1  8028  2.00
      L1  H    22    49       P1 10747  0.94
      L1  H    24    52       P1  7921  1.00
      P1  H 10192 10197       L1    24  0.99
      L1  C    11    42       P1  7957  0.88

> <Gold.PLP.Chemscore.Internal.Correction>
1.2535

> <Gold.Rescore>
     Score         DG    S(hbond)    S(metal)    S(lipo)     H(rot)  DE(clash)    DE(int)     intcor
     11.26     -17.14       2.94        0.00      86.20       3.22       3.06       2.83       ----

> <Gold.Chemscore.Fitness>
11.2624

> <Gold.Chemscore.DG>
-17.1434

> <Gold.Chemscore.ZeroCoef>
-5.4800

> <Gold.Chemscore.Hbond>
2.9420

> <Gold.Chemscore.Metal>
0.0000

> <Gold.Chemscore.Lipo>
86.1998

> <Gold.Chemscore.Internal_Hbond>
0.0000

> <Gold.Chemscore.DEClash>
3.0554

> <Gold.Chemscore.DEInternal>
2.8255

> <Gold.Chemscore.Rot>
3.2219

> <Gold.Chemscore.Internal.Correction>
   9.000000E+99

> <Gold.Chemscore.Hbonds>
donor molecule, donor type, donor heavy atom, donor atom, acceptor molecule, acceptor atom, score
      L1  H     3    61       P1  8028  0.29
      L1  H    22    49       P1 10747  0.90
      L1  H    24    52       P1  7921  0.98
      P1  H 10192 10197       L1    24  0.24

> <Gold.Chemscore.Hbond.Weighted>
-9.8262

> <Gold.Chemscore.Metal.Weighted>
-0.0000

> <Gold.Chemscore.Lipo.Weighted>
-10.0854

> <Gold.Chemscore.Internal_Hbond.Weighted>
0.0000

> <Gold.Chemscore.DEClash.Weighted>
3.0554

> <Gold.Chemscore.DEInternal.Weighted>
2.8255

> <Gold.Chemscore.Rot.Weighted>
8.2482

> <Gold.Chemscore.Internal.Correction.Weighted>
   9.000000E+99

> <Gold.Protein.RotatedTorsions>
[ 6907 6896 6895 6894 ] final  -80.04 input  -60.11 | X-H torsion
[ 7974 7965 7964 7962 ] final   31.53 input  175.53 | X-H torsion
[ 8008 7997 7996 7995 ] final  -68.43 input   59.86 | X-H torsion
[ 10167 10162 10161 10158 ] final   11.98 input  -65.29 | X-H torsion
[ 10718 10713 10712 10709 ] final  -26.68 input   66.30 | X-H torsion
[ 10763 10752 10751 10750 ] final   75.39 input  -60.55 | X-H torsion
[ 11005 11000 10999 10996 ] final -106.93 input  -57.11 | X-H torsion

> <Gold.Protein.ActiveResidues>
 VAL166  LYS551  ARG553  GLY616  TRP617  ASP618  TYR619  PRO620  LYS621  CYS622 
 ASP623  PHE694  ASN695  SER759  ASP760  ASP761  ALA762  ILE779  LEU786  VAL792 
 PHE793  MET794  SER795  GLU796  ALA797  LYS798  CYS799  TRP800  GLU811  SER814 

> <Gold.Protein.RotatedAtoms>
  150.6937  134.4030  159.5127 H   0  0  0  0  0  0  0  0  0  0  0  0  # atno 6907 bound_to 6896
  152.1800  134.8759  160.0536 H   0  0  0  0  0  0  0  0  0  0  0  0  # atno 6908 bound_to 6896
  151.9753  133.3704  159.4123 H   0  0  0  0  0  0  0  0  0  0  0  0  # atno 6909 bound_to 6896
  146.1544  139.6644  142.9077 H   0  0  0  0  0  0  0  0  0  0  0  0  # atno 7974 bound_to 7965
  154.4867  140.0873  156.7503 H   0  0  0  0  0  0  0  0  0  0  0  0  # atno 8008 bound_to 7997
  155.4332  140.3450  155.4264 H   0  0  0  0  0  0  0  0  0  0  0  0  # atno 8009 bound_to 7997
  156.1272  140.1491  156.9107 H   0  0  0  0  0  0  0  0  0  0  0  0  # atno 8010 bound_to 7997
  140.6097  143.8433  150.7052 H   0  0  0  0  0  0  0  0  0  0  0  0  # atno 10167 bound_to 10162
  156.4481  130.4478  149.7008 H   0  0  0  0  0  0  0  0  0  0  0  0  # atno 10718 bound_to 10713
  153.0651  135.4990  154.8182 H   0  0  0  0  0  0  0  0  0  0  0  0  # atno 10763 bound_to 10752
  154.6942  135.2990  154.9438 H   0  0  0  0  0  0  0  0  0  0  0  0  # atno 10764 bound_to 10752
  154.0183  135.6745  153.4823 H   0  0  0  0  0  0  0  0  0  0  0  0  # atno 10765 bound_to 10752
  141.0980  133.8936  157.1915 H   0  0  0  0  0  0  0  0  0  0  0  0  # atno 11005 bound_to 11000
  145.4745  141.0437  143.2680 LP  0  0  0  0  0  0  0  0  0  0  0  0  # atno 17320 bound_to 7965
  144.7944  139.6263  143.7099 LP  0  0  0  0  0  0  0  0  0  0  0  0  # atno 17321 bound_to 7965
  140.1998  143.3968  152.1800 LP  0  0  0  0  0  0  0  0  0  0  0  0  # atno 17342 bound_to 10162
  139.5352  144.7202  151.4918 LP  0  0  0  0  0  0  0  0  0  0  0  0  # atno 17343 bound_to 10162
  156.3846  130.7596  151.2592 LP  0  0  0  0  0  0  0  0  0  0  0  0  # atno 17370 bound_to 10713
  157.7504  131.0286  150.4054 LP  0  0  0  0  0  0  0  0  0  0  0  0  # atno 17371 bound_to 10713
  139.9822  135.0094  156.9777 LP  0  0  0  0  0  0  0  0  0  0  0  0  # atno 17394 bound_to 11000
  140.5093  134.1018  155.7267 LP  0  0  0  0  0  0  0  0  0  0  0  0  # atno 17395 bound_to 11000

$$$$
