AV-unprocessed.smi:1108|AV-procd|sdf|4787|dock3
  -GOLD-   22720 3333D 1   1.00000     0.00000
 Structure written by MMmdl.
 31 32  0  0  0  0  0  0  0  0  1 V2000
  147.8904  141.7156  154.0502 C   0  0  0  0  0  0  0  0  0  0  0  0
  149.2526  141.3007  154.6224 C   0  0  2  0  0  0  0  0  0  0  0  0
  149.1668  139.9371  155.3412 C   0  0  0  0  0  0  0  0  0  0  0  0
  150.2711  139.0546  155.0087 N   0  0  0  0  0  0  0  0  0  0  0  0
  150.2768  137.6774  154.9373 C   0  0  0  0  0  0  0  0  0  0  0  0
  151.5437  137.2935  154.6027 C   0  0  0  0  0  0  0  0  0  0  0  0
  152.2491  138.5236  154.4847 C   0  0  0  0  0  0  0  0  0  0  0  0
  151.4837  139.5761  154.7240 N   0  0  0  0  0  0  0  0  0  0  0  0
  149.7190  142.3431  155.5363 N   0  0  0  0  0  0  0  0  0  0  0  0
  150.6824  142.2020  156.4589 C   0  0  0  0  0  0  0  0  0  0  0  0
  151.3072  141.1591  156.6529 O   0  0  0  0  0  0  0  0  0  0  0  0
  150.8731  143.3331  157.1505 N   0  0  0  0  0  0  0  0  0  0  0  0
  151.8141  143.5052  158.2091 C   0  0  0  0  0  0  0  0  0  0  0  0
  151.6778  144.7375  159.0771 C   0  0  0  0  0  0  0  0  0  0  0  0
  152.8070  144.6411  158.0885 C   0  0  0  0  0  0  0  0  0  0  0  0
  147.5236  140.9769  153.3370 H   0  0  0  0  0  0  0  0  0  0  0  0
  147.9581  142.6702  153.5271 H   0  0  0  0  0  0  0  0  0  0  0  0
  147.1422  141.8180  154.8369 H   0  0  0  0  0  0  0  0  0  0  0  0
  149.9404  141.2122  153.7792 H   0  0  0  0  0  0  0  0  0  0  0  0
  149.1412  140.0745  156.4230 H   0  0  0  0  0  0  0  0  0  0  0  0
  148.2395  139.4291  155.0719 H   0  0  0  0  0  0  0  0  0  0  0  0
  149.3909  137.0923  155.1354 H   0  0  0  0  0  0  0  0  0  0  0  0
  151.9112  136.2876  154.4650 H   0  0  0  0  0  0  0  0  0  0  0  0
  153.2872  138.6820  154.2332 H   0  0  0  0  0  0  0  0  0  0  0  0
  149.2681  143.2431  155.4603 H   0  0  0  0  0  0  0  0  0  0  0  0
  150.3060  144.1343  156.9143 H   0  0  0  0  0  0  0  0  0  0  0  0
  152.1761  142.6067  158.7075 H   0  0  0  0  0  0  0  0  0  0  0  0
  150.8716  145.4329  158.8520 H   0  0  0  0  0  0  0  0  0  0  0  0
  151.9235  144.6364  160.1322 H   0  0  0  0  0  0  0  0  0  0  0  0
  153.8074  144.4764  158.4833 H   0  0  0  0  0  0  0  0  0  0  0  0
  152.7543  145.2718  157.2030 H   0  0  0  0  0  0  0  0  0  0  0  0
  1  2  1  0  0  0  0
  1 16  1  0  0  0  0
  1 17  1  0  0  0  0
  1 18  1  0  0  0  0
  2  3  1  0  0  0  0
  2  9  1  0  0  0  0
  2 19  1  0  0  0  0
  3  4  1  0  0  0  0
  3 20  1  0  0  0  0
  3 21  1  0  0  0  0
  4  8  1  0  0  0  0
  4  5  1  0  0  0  0
  5  6  2  0  0  0  0
  5 22  1  0  0  0  0
  6  7  1  0  0  0  0
  6 23  1  0  0  0  0
  7  8  2  0  0  0  0
  7 24  1  0  0  0  0
  9 10  1  0  0  0  0
  9 25  1  0  0  0  0
 10 11  2  0  0  0  0
 10 12  1  0  0  0  0
 12 13  1  0  0  0  0
 12 26  1  0  0  0  0
 13 15  1  0  0  0  0
 13 14  1  0  0  0  0
 13 27  1  0  0  0  0
 14 15  1  0  0  0  0
 14 28  1  0  0  0  0
 14 29  1  0  0  0  0
 15 30  1  0  0  0  0
 15 31  1  0  0  0  0
M  END
> <s_m_source_file>
AV-unprocessed.smi

> <i_m_source_file_index>
1108

> <i_lp_mmshare_version>
43012

> <i_f3d_flags>
0

> <s_epik_input>
W0NIMl0xW0NIMl1bQ0hdMVtOSF1DKD1PKVtOSF1bQ0BIXShbQ0gzXSlbQ0gyXW4yW2NIXVtjSF1bY0hdbjI=

> <s_epik_cmdline>
J2VwaWtfcHl0aG9uJywgJy1waCcsICc3LjAnLCAnLXRuJywgJzgnLCAnLW1hJywgJzIwMCcsICctbWV0YWxfYmluZGluZycsICctaW1hZScsICc8aW5maWxlLm1hZT4nLCAnLW9tYWUnLCAnPG91dGZpbGUubWFlPic=

> <r_lp_tautomer_probability>
1

> <r_epik_Ionization_Penalty>
7.55353e-05

> <r_epik_Ionization_Penalty_Charging>
0

> <r_epik_Ionization_Penalty_Neutral>
7.55353e-05

> <r_epik_State_Penalty>
-0

> <r_epik_Charging_Adjusted_Penalty>
0

> <i_epik_Tot_Q>
0

> <i_epik_Tot_abs_Q>
0

> <r_epik_Metal_State_Penalty>
-0

> <b_epik_Metal_Only>
0

> <s_lp_Force_Field>
OPLS_2005

> <r_lp_Energy>
13.7116

> <b_lp_Chiralities_Consistent>
1

> <s_lp_Variant>
AV-unprocessed.smi:1108-1

> <Gold.Version>
5.8.1

> <Gold.Id.Protein>
6NUR|6NUR_protein|mol2

> <Gold.PLP.Fitness>
42.3439

> <Gold.PLP.PLP>
-36.3945

> <Gold.PLP.part.hbond>
-2.9503

> <Gold.PLP.part.metal>
0.0000

> <Gold.PLP.part.buried>
-5.1365

> <Gold.PLP.part.nonpolar>
-30.3608

> <Gold.PLP.part.repulsive>
0.2870

> <Gold.PLP.ligand.clash>
0.0000

> <Gold.PLP.ligand.torsion>
1.3449

> <Gold.PLP.Chemscore.Hbond>
2.8640

> <Gold.PLP.Chemscore.CHOScore>
0.0000

> <Gold.PLP.Chemscore.Metal>
0.0000

> <Gold.Chemscore.Hbonds>
donor molecule, donor type, donor heavy atom, donor atom, acceptor molecule, acceptor atom, score
      L1  H     9    25       P1  8028  1.00
      L1  H    12    26       P1  8028  0.86
      P1  H  7989  7998       L1     8  1.00

> <Gold.PLP.Chemscore.Internal.Correction>
0.0470

> <Gold.Rescore>
     Score         DG    S(hbond)    S(metal)    S(lipo)     H(rot)  DE(clash)    DE(int)     intcor
     15.97     -20.30       2.88        0.00      81.80       1.71       0.41       3.92       ----

> <Gold.Chemscore.Fitness>
15.9678

> <Gold.Chemscore.DG>
-20.2969

> <Gold.Chemscore.ZeroCoef>
-5.4800

> <Gold.Chemscore.Hbond>
2.8795

> <Gold.Chemscore.Metal>
0.0000

> <Gold.Chemscore.Lipo>
81.7997

> <Gold.Chemscore.Internal_Hbond>
0.0000

> <Gold.Chemscore.DEClash>
0.4108

> <Gold.Chemscore.DEInternal>
3.9183

> <Gold.Chemscore.Rot>
1.7075

> <Gold.Chemscore.Internal.Correction>
   9.000000E+99

> <Gold.Chemscore.Hbonds>
donor molecule, donor type, donor heavy atom, donor atom, acceptor molecule, acceptor atom, score
      L1  H     9    25       P1  8028  0.93
      L1  H    12    26       P1  8028  0.81
      P1  H  7989  7998       L1     8  0.84

> <Gold.Chemscore.Hbond.Weighted>
-9.6176

> <Gold.Chemscore.Metal.Weighted>
-0.0000

> <Gold.Chemscore.Lipo.Weighted>
-9.5706

> <Gold.Chemscore.Internal_Hbond.Weighted>
0.0000

> <Gold.Chemscore.DEClash.Weighted>
0.4108

> <Gold.Chemscore.DEInternal.Weighted>
3.9183

> <Gold.Chemscore.Rot.Weighted>
4.3713

> <Gold.Chemscore.Internal.Correction.Weighted>
   9.000000E+99

> <Gold.Protein.RotatedTorsions>
[ 6907 6896 6895 6894 ] final -151.55 input  -60.11 | X-H torsion
[ 7974 7965 7964 7962 ] final  148.12 input  175.53 | X-H torsion
[ 8008 7997 7996 7995 ] final  -39.38 input   59.86 | X-H torsion
[ 10167 10162 10161 10158 ] final  -65.55 input  -65.29 | X-H torsion
[ 10718 10713 10712 10709 ] final -178.00 input   66.30 | X-H torsion
[ 10763 10752 10751 10750 ] final -171.53 input  -60.55 | X-H torsion
[ 11005 11000 10999 10996 ] final -134.25 input  -57.11 | X-H torsion

> <Gold.Protein.ActiveResidues>
 VAL166  LYS551  ARG553  GLY616  TRP617  ASP618  TYR619  PRO620  LYS621  CYS622 
 ASP623  PHE694  ASN695  SER759  ASP760  ASP761  ALA762  ILE779  LEU786  VAL792 
 PHE793  MET794  SER795  GLU796  ALA797  LYS798  CYS799  TRP800  GLU811  SER814 

> <Gold.Protein.RotatedAtoms>
  151.2148  133.4535  159.2598 H   0  0  0  0  0  0  0  0  0  0  0  0  # atno 6907 bound_to 6896
  151.0942  134.9934  159.8427 H   0  0  0  0  0  0  0  0  0  0  0  0  # atno 6908 bound_to 6896
  152.5437  134.2079  159.8791 H   0  0  0  0  0  0  0  0  0  0  0  0  # atno 6909 bound_to 6896
  144.8538  139.6114  143.5962 H   0  0  0  0  0  0  0  0  0  0  0  0  # atno 7974 bound_to 7965
  154.4024  140.1553  156.2854 H   0  0  0  0  0  0  0  0  0  0  0  0  # atno 8008 bound_to 7997
  155.8832  140.3442  155.5881 H   0  0  0  0  0  0  0  0  0  0  0  0  # atno 8009 bound_to 7997
  155.7643  140.0822  157.2130 H   0  0  0  0  0  0  0  0  0  0  0  0  # atno 8010 bound_to 7997
  140.5721  143.2318  151.6516 H   0  0  0  0  0  0  0  0  0  0  0  0  # atno 10167 bound_to 10162
  156.8378  130.9675  151.3102 H   0  0  0  0  0  0  0  0  0  0  0  0  # atno 10718 bound_to 10713
  154.6295  135.2885  155.0233 H   0  0  0  0  0  0  0  0  0  0  0  0  # atno 10763 bound_to 10752
  154.1399  135.6520  153.4944 H   0  0  0  0  0  0  0  0  0  0  0  0  # atno 10764 bound_to 10752
  153.0273  135.5330  154.7117 H   0  0  0  0  0  0  0  0  0  0  0  0  # atno 10765 bound_to 10752
  140.9007  134.1694  157.4462 H   0  0  0  0  0  0  0  0  0  0  0  0  # atno 11005 bound_to 11000
  146.2806  139.6868  142.9231 LP  0  0  0  0  0  0  0  0  0  0  0  0  # atno 17320 bound_to 7965
  145.4447  141.0424  143.2838 LP  0  0  0  0  0  0  0  0  0  0  0  0  # atno 17321 bound_to 7965
  139.5123  144.3480  152.0678 LP  0  0  0  0  0  0  0  0  0  0  0  0  # atno 17342 bound_to 10162
  140.2619  144.4058  150.6182 LP  0  0  0  0  0  0  0  0  0  0  0  0  # atno 17343 bound_to 10162
  157.6372  130.8776  149.9381 LP  0  0  0  0  0  0  0  0  0  0  0  0  # atno 17370 bound_to 10713
  156.0898  130.3664  150.0417 LP  0  0  0  0  0  0  0  0  0  0  0  0  # atno 17371 bound_to 10713
  139.8742  134.9897  156.5468 LP  0  0  0  0  0  0  0  0  0  0  0  0  # atno 17394 bound_to 11000
  140.8233  133.8336  155.8916 LP  0  0  0  0  0  0  0  0  0  0  0  0  # atno 17395 bound_to 11000

$$$$
