AV-unprocessed.smi:418|AV-procd|sdf|2528|dock6
  -GOLD-   2262022483D 1   1.00000     0.00000
 Structure written by MMmdl.
 40 42  0  0  0  0  0  0  0  0  1 V2000
  154.8296  140.1469  161.7819 C   0  0  0  0  0  0  0  0  0  0  0  0
  153.9714  140.7610  160.7758 N   0  0  0  0  0  0  0  0  0  0  0  0
  153.7238  140.3048  159.5258 C   0  0  0  0  0  0  0  0  0  0  0  0
  154.1893  139.2833  159.0210 O   0  0  0  0  0  0  0  0  0  0  0  0
  152.8775  141.1736  158.9227 N   0  0  0  0  0  0  0  0  0  0  0  0
  152.3487  141.0703  157.5641 C   0  0  0  0  0  0  0  0  0  0  0  0
  150.8411  141.3909  157.5125 C   0  0  2  0  0  0  0  0  0  0  0  0
  150.1190  140.2219  157.8437 O   0  0  0  0  0  0  0  0  0  0  0  0
  150.3899  141.8238  156.1094 C   0  0  0  0  0  0  0  0  0  0  0  0
  150.4387  140.6957  155.2459 O   0  0  0  0  0  0  0  0  0  0  0  0
  149.2837  140.3166  154.5959 C   0  0  0  0  0  0  0  0  0  0  0  0
  148.2548  141.2148  154.2137 C   0  0  0  0  0  0  0  0  0  0  0  0
  147.1025  140.7414  153.5561 C   0  0  0  0  0  0  0  0  0  0  0  0
  146.9639  139.3706  153.2713 C   0  0  0  0  0  0  0  0  0  0  0  0
  147.9808  138.4726  153.6436 C   0  0  0  0  0  0  0  0  0  0  0  0
  149.1335  138.9445  154.3012 C   0  0  0  0  0  0  0  0  0  0  0  0
  150.1047  138.0689  154.6550 F   0  0  0  0  0  0  0  0  0  0  0  0
  152.5819  142.2183  159.8102 C   0  0  0  0  0  0  0  0  0  0  0  0
  151.7736  143.3594  159.6640 C   0  0  0  0  0  0  0  0  0  0  0  0
  151.6874  144.2364  160.7707 C   0  0  0  0  0  0  0  0  0  0  0  0
  152.3923  143.9634  161.9719 C   0  0  0  0  0  0  0  0  0  0  0  0
  153.2007  142.8086  162.0914 C   0  0  0  0  0  0  0  0  0  0  0  0
  153.2695  141.9562  160.9765 C   0  0  0  0  0  0  0  0  0  0  0  0
  155.3011  139.2333  161.4176 H   0  0  0  0  0  0  0  0  0  0  0  0
  154.2481  139.8956  162.6691 H   0  0  0  0  0  0  0  0  0  0  0  0
  155.6197  140.8383  162.0755 H   0  0  0  0  0  0  0  0  0  0  0  0
  152.8976  141.7816  156.9447 H   0  0  0  0  0  0  0  0  0  0  0  0
  152.5595  140.0907  157.1332 H   0  0  0  0  0  0  0  0  0  0  0  0
  150.5826  142.1751  158.2255 H   0  0  0  0  0  0  0  0  0  0  0  0
  150.7216  139.5910  158.2068 H   0  0  0  0  0  0  0  0  0  0  0  0
  149.3810  142.2382  156.1532 H   0  0  0  0  0  0  0  0  0  0  0  0
  151.0590  142.5972  155.7275 H   0  0  0  0  0  0  0  0  0  0  0  0
  148.3253  142.2731  154.4129 H   0  0  0  0  0  0  0  0  0  0  0  0
  146.3234  141.4328  153.2703 H   0  0  0  0  0  0  0  0  0  0  0  0
  146.0797  139.0086  152.7678 H   0  0  0  0  0  0  0  0  0  0  0  0
  147.8770  137.4197  153.4261 H   0  0  0  0  0  0  0  0  0  0  0  0
  151.2401  143.5642  158.7476 H   0  0  0  0  0  0  0  0  0  0  0  0
  151.0774  145.1249  160.7002 H   0  0  0  0  0  0  0  0  0  0  0  0
  152.3114  144.6462  162.8048 H   0  0  0  0  0  0  0  0  0  0  0  0
  153.7417  142.5944  163.0014 H   0  0  0  0  0  0  0  0  0  0  0  0
  1  2  1  0  0  0  0
  1 24  1  0  0  0  0
  1 25  1  0  0  0  0
  1 26  1  0  0  0  0
  2 23  1  0  0  0  0
  2  3  1  0  0  0  0
  3  4  2  0  0  0  0
  3  5  1  0  0  0  0
  5  6  1  0  0  0  0
  5 18  1  0  0  0  0
  6  7  1  0  0  0  0
  6 27  1  0  0  0  0
  6 28  1  0  0  0  0
  7  8  1  0  0  0  0
  7  9  1  0  0  0  0
  7 29  1  0  0  0  0
  8 30  1  0  0  0  0
  9 10  1  0  0  0  0
  9 31  1  0  0  0  0
  9 32  1  0  0  0  0
 10 11  1  0  0  0  0
 11 16  1  0  0  0  0
 11 12  2  0  0  0  0
 12 13  1  0  0  0  0
 12 33  1  0  0  0  0
 13 14  2  0  0  0  0
 13 34  1  0  0  0  0
 14 15  1  0  0  0  0
 14 35  1  0  0  0  0
 15 16  2  0  0  0  0
 15 36  1  0  0  0  0
 16 17  1  0  0  0  0
 18 23  2  0  0  0  0
 18 19  1  0  0  0  0
 19 20  2  0  0  0  0
 19 37  1  0  0  0  0
 20 21  1  0  0  0  0
 20 38  1  0  0  0  0
 21 22  2  0  0  0  0
 21 39  1  0  0  0  0
 22 23  1  0  0  0  0
 22 40  1  0  0  0  0
M  END
> <s_m_source_file>
AV-unprocessed.smi

> <i_m_source_file_index>
418

> <i_lp_mmshare_version>
43012

> <i_f3d_flags>
0

> <s_epik_input>
W2NIXTFbY0hdW2NIXVtjSF1jKGMxMiluKFtDSDNdKWMoPU8pbjJbQ0gyXVtDQEhdKFtPSF0pW0NIMl1PYzNbY0hdW2NIXVtjSF1bY0hdYzNG

> <s_epik_cmdline>
J2VwaWtfcHl0aG9uJywgJy1waCcsICc3LjAnLCAnLXRuJywgJzgnLCAnLW1hJywgJzIwMCcsICctbWV0YWxfYmluZGluZycsICctaW1hZScsICc8aW5maWxlLm1hZT4nLCAnLW9tYWUnLCAnPG91dGZpbGUubWFlPic=

> <r_lp_tautomer_probability>
1

> <r_epik_Ionization_Penalty>
2.40171e-06

> <r_epik_Ionization_Penalty_Charging>
2.41238e-09

> <r_epik_Ionization_Penalty_Neutral>
2.3993e-06

> <r_epik_State_Penalty>
-0

> <r_epik_Charging_Adjusted_Penalty>
2.41238e-09

> <i_epik_Tot_Q>
0

> <i_epik_Tot_abs_Q>
0

> <r_epik_Metal_State_Penalty>
-0

> <b_epik_Metal_Only>
0

> <s_lp_Force_Field>
OPLS_2005

> <r_lp_Energy>
46.4637

> <b_lp_Chiralities_Consistent>
1

> <s_lp_Variant>
AV-unprocessed.smi:418-1

> <Gold.Version>
5.8.1

> <Gold.Id.Protein>
6NUR|6NUR_protein|mol2

> <Gold.PLP.Fitness>
53.6704

> <Gold.PLP.PLP>
-51.0839

> <Gold.PLP.part.hbond>
-2.0000

> <Gold.PLP.part.metal>
0.0000

> <Gold.PLP.part.buried>
-2.1682

> <Gold.PLP.part.nonpolar>
-45.6933

> <Gold.PLP.part.repulsive>
0.0850

> <Gold.PLP.ligand.clash>
0.0000

> <Gold.PLP.ligand.torsion>
1.2554

> <Gold.PLP.Chemscore.Hbond>
1.6875

> <Gold.PLP.Chemscore.CHOScore>
0.0000

> <Gold.PLP.Chemscore.Metal>
0.0000

> <Gold.Chemscore.Hbonds>
donor molecule, donor type, donor heavy atom, donor atom, acceptor molecule, acceptor atom, score
      P1  H  7989  7998       L1    10  0.55
      P1  H  7997  8010       L1     4  0.98

> <Gold.PLP.Chemscore.Internal.Correction>
0.0348

> <Gold.Rescore>
     Score         DG    S(hbond)    S(metal)    S(lipo)     H(rot)  DE(clash)    DE(int)     intcor
     16.36     -18.28       0.82        0.00     135.66       2.27       0.70       1.22       ----

> <Gold.Chemscore.Fitness>
16.3582

> <Gold.Chemscore.DG>
-18.2780

> <Gold.Chemscore.ZeroCoef>
-5.4800

> <Gold.Chemscore.Hbond>
0.8200

> <Gold.Chemscore.Metal>
0.0000

> <Gold.Chemscore.Lipo>
135.6583

> <Gold.Chemscore.Internal_Hbond>
0.0000

> <Gold.Chemscore.DEClash>
0.7036

> <Gold.Chemscore.DEInternal>
1.2163

> <Gold.Chemscore.Rot>
2.2706

> <Gold.Chemscore.Internal.Correction>
   9.000000E+99

> <Gold.Chemscore.Hbonds>
donor molecule, donor type, donor heavy atom, donor atom, acceptor molecule, acceptor atom, score
      P1  H  7989  7998       L1    10  0.07
      P1  H  7997  8010       L1     4  0.27

> <Gold.Chemscore.Hbond.Weighted>
-2.7388

> <Gold.Chemscore.Metal.Weighted>
-0.0000

> <Gold.Chemscore.Lipo.Weighted>
-15.8720

> <Gold.Chemscore.Internal_Hbond.Weighted>
0.0000

> <Gold.Chemscore.DEClash.Weighted>
0.7036

> <Gold.Chemscore.DEInternal.Weighted>
1.2163

> <Gold.Chemscore.Rot.Weighted>
5.8128

> <Gold.Chemscore.Internal.Correction.Weighted>
   9.000000E+99

> <Gold.Protein.RotatedTorsions>
[ 6907 6896 6895 6894 ] final -179.41 input  -60.11 | X-H torsion
[ 7974 7965 7964 7962 ] final   39.08 input  175.53 | X-H torsion
[ 8008 7997 7996 7995 ] final   16.79 input   59.86 | X-H torsion
[ 10167 10162 10161 10158 ] final   23.60 input  -65.29 | X-H torsion
[ 10718 10713 10712 10709 ] final   25.85 input   66.30 | X-H torsion
[ 10763 10752 10751 10750 ] final   -2.72 input  -60.55 | X-H torsion
[ 11005 11000 10999 10996 ] final -136.48 input  -57.11 | X-H torsion

> <Gold.Protein.ActiveResidues>
 VAL166  LYS551  ARG553  GLY616  TRP617  ASP618  TYR619  PRO620  LYS621  CYS622 
 ASP623  PHE694  ASN695  SER759  ASP760  ASP761  ALA762  ILE779  LEU786  VAL792 
 PHE793  MET794  SER795  GLU796  ALA797  LYS798  CYS799  TRP800  GLU811  SER814 

> <Gold.Protein.RotatedAtoms>
  151.6530  133.3320  159.3156 H   0  0  0  0  0  0  0  0  0  0  0  0  # atno 6907 bound_to 6896
  150.7951  134.7008  159.6558 H   0  0  0  0  0  0  0  0  0  0  0  0  # atno 6908 bound_to 6896
  152.4036  134.6248  160.0111 H   0  0  0  0  0  0  0  0  0  0  0  0  # atno 6909 bound_to 6896
  146.1012  139.5695  142.9413 H   0  0  0  0  0  0  0  0  0  0  0  0  # atno 7974 bound_to 7965
  154.8821  140.2974  155.5419 H   0  0  0  0  0  0  0  0  0  0  0  0  # atno 8008 bound_to 7997
  156.3022  140.2440  156.3759 H   0  0  0  0  0  0  0  0  0  0  0  0  # atno 8009 bound_to 7997
  154.8706  140.0401  157.1711 H   0  0  0  0  0  0  0  0  0  0  0  0  # atno 8010 bound_to 7997
  140.5256  143.9929  150.6438 H   0  0  0  0  0  0  0  0  0  0  0  0  # atno 10167 bound_to 10162
  157.1989  130.6881  149.6180 H   0  0  0  0  0  0  0  0  0  0  0  0  # atno 10718 bound_to 10713
  153.3617  135.6990  153.6707 H   0  0  0  0  0  0  0  0  0  0  0  0  # atno 10763 bound_to 10752
  153.5392  135.3576  155.2711 H   0  0  0  0  0  0  0  0  0  0  0  0  # atno 10764 bound_to 10752
  154.8669  135.4199  154.2876 H   0  0  0  0  0  0  0  0  0  0  0  0  # atno 10765 bound_to 10752
  140.8801  134.1943  157.4596 H   0  0  0  0  0  0  0  0  0  0  0  0  # atno 11005 bound_to 11000
  145.5850  141.0377  143.2101 LP  0  0  0  0  0  0  0  0  0  0  0  0  # atno 17320 bound_to 7965
  144.7434  139.7385  143.7302 LP  0  0  0  0  0  0  0  0  0  0  0  0  # atno 17321 bound_to 7965
  140.3290  143.3089  152.0707 LP  0  0  0  0  0  0  0  0  0  0  0  0  # atno 17342 bound_to 10162
  139.4937  144.6522  151.6651 LP  0  0  0  0  0  0  0  0  0  0  0  0  # atno 17343 bound_to 10162
  155.9703  130.4589  150.6017 LP  0  0  0  0  0  0  0  0  0  0  0  0  # atno 17370 bound_to 10713
  157.3786  131.0777  151.1496 LP  0  0  0  0  0  0  0  0  0  0  0  0  # atno 17371 bound_to 10713
  139.8719  134.9813  156.5111 LP  0  0  0  0  0  0  0  0  0  0  0  0  # atno 17394 bound_to 11000
  140.8471  133.8160  155.9132 LP  0  0  0  0  0  0  0  0  0  0  0  0  # atno 17395 bound_to 11000

$$$$
