#       Name:                AV-unprocessed.smi:270
#       Creating user name   scv26
#       Creation time:       Thu Mar 26 21:27:42 2020


#       File generated by GOLD software.
#

@<TRIPOS>MOLECULE
AV-unprocessed.smi:270
    66    69     1
SMALL
NO_CHARGES


@<TRIPOS>ATOM
      1 ****        -6.7764  -1.9930   0.2989 C.3            1 S1                 0.0000
      2 ****        -5.9283  -2.0944  -0.9785 C.3            1 S1                 0.0000
      3 ****        -6.5281  -1.2507  -1.9590 O.3            1 S1                 0.0000
      4 ****        -5.5157  -0.7354  -2.8052 C.3            1 S1                 0.0000
      5 ****        -4.3898  -0.4429  -1.8259 C.3            1 S1                 0.0000
      6 ****        -4.4463  -1.6340  -0.8736 C.3            1 S1                 0.0000
      7 ****        -3.6368  -2.6631  -1.4192 O.3            1 S1                 0.0000
      8 ****        -3.9214  -1.3178   0.5518 C.3            1 S1                 0.0000
      9 ****        -2.5333  -0.8809   0.5738 N.pl3          1 S1                 0.0000
     10 ****        -1.4200  -1.6867   0.6455 C.2            1 S1                 0.0000
     11 ****        -0.2772  -1.0573   0.6416 N.2            1 S1                 0.0000
     12 ****        -0.6254   0.2873   0.5792 C.ar           1 S1                 0.0000
     13 ****         0.1249   1.4994   0.5461 C.ar           1 S1                 0.0000
     14 ****         1.5482   1.5642   0.5520 N.3            1 S1                 0.0000
     15 ****         2.2347   0.6560   1.4589 C.3            1 S1                 0.0000
     16 ****         3.1712   1.8231   1.7885 C.3            1 S1                 0.0000
     17 ****         4.4045   1.7858   1.0873 O.3            1 S1                 0.0000
     18 ****         5.3520   0.9131   1.6817 C.3            1 S1                 0.0000
     19 ****         6.6130   0.8852   0.8100 C.2            1 S1                 0.0000
     20 ****         7.6350   1.4170   1.2460 O.2            1 S1                 0.0000
     21 ****         6.5681   0.2833  -0.4016 N.am           1 S1                 0.0000
     22 ****         5.3686  -0.3773  -0.9262 C.3            1 S1                 0.0000
     23 ****         7.7552   0.2628  -1.2606 C.3            1 S1                 0.0000
     24 ****         2.1624   2.7584   1.1197 C.3            1 S1                 0.0000
     25 ****        -0.5956   2.6494   0.4540 N.ar           1 S1                 0.0000
     26 ****        -1.9311   2.6292   0.4282 C.ar           1 S1                 0.0000
     27 ****        -2.7488   1.5773   0.4691 N.ar           1 S1                 0.0000
     28 ****        -2.0440   0.4134   0.5375 C.ar           1 S1                 0.0000
     29 ****        -6.3841  -2.6312   1.0906 H              1 S1                 0.0000
     30 ****        -7.8012  -2.3102   0.1049 H              1 S1                 0.0000
     31 ****        -6.8177  -0.9695   0.6722 H              1 S1                 0.0000
     32 ****        -5.9831  -3.1208  -1.3465 H              1 S1                 0.0000
     33 ****        -5.2203  -1.4919  -3.5338 H              1 S1                 0.0000
     34 ****        -5.8517   0.1523  -3.3414 H              1 S1                 0.0000
     35 ****        -3.4213  -0.3061  -2.3093 H              1 S1                 0.0000
     36 ****        -4.6273   0.4768  -1.2907 H              1 S1                 0.0000
     37 ****        -2.7491  -2.3447  -1.4788 H              1 S1                 0.0000
     38 ****        -4.5239  -0.5380   1.0184 H              1 S1                 0.0000
     39 ****        -4.0064  -2.1976   1.1907 H              1 S1                 0.0000
     40 ****        -1.4832  -2.7643   0.6925 H              1 S1                 0.0000
     41 ****         1.6248   0.3481   2.3095 H              1 S1                 0.0000
     42 ****         2.7068  -0.1865   0.9532 H              1 S1                 0.0000
     43 ****         3.2807   2.0173   2.8566 H              1 S1                 0.0000
     44 ****         5.6066   1.2731   2.6799 H              1 S1                 0.0000
     45 ****         4.9530  -0.0948   1.7997 H              1 S1                 0.0000
     46 ****         5.0235  -1.1572  -0.2470 H              1 S1                 0.0000
     47 ****         5.5391  -0.8555  -1.8906 H              1 S1                 0.0000
     48 ****         4.5602   0.3412  -1.0650 H              1 S1                 0.0000
     49 ****         8.1152   1.2767  -1.4417 H              1 S1                 0.0000
     50 ****         7.5697  -0.1895  -2.2347 H              1 S1                 0.0000
     51 ****         8.5583  -0.3020  -0.7851 H              1 S1                 0.0000
     52 ****         2.5898   3.4284   0.3733 H              1 S1                 0.0000
     53 ****         1.5330   3.2806   1.8421 H              1 S1                 0.0000
     54 ****        -2.4121   3.5939   0.3618 H              1 S1                 0.0000
     55 ****        -7.0032  -0.4960  -1.5066 LP             1 S1                 0.0000
     56 ****        -7.1816  -1.7788  -2.5012 LP             1 S1                 0.0000
     57 ****        -3.9697  -2.9076  -2.3299 LP             1 S1                 0.0000
     58 ****        -3.6679  -3.4675  -0.8259 LP             1 S1                 0.0000
     59 ****         0.6409  -1.4523   0.6757 LP             1 S1                 0.0000
     60 ****         1.6517   1.4182  -0.4319 LP             1 S1                 0.0000
     61 ****         4.7888   2.7088   1.0685 LP             1 S1                 0.0000
     62 ****         4.2304   1.4782   0.1518 LP             1 S1                 0.0000
     63 ****         7.6273   1.8516   2.1466 LP             1 S1                 0.0000
     64 ****         8.4724   1.4141   0.6993 LP             1 S1                 0.0000
     65 ****        -0.1169   3.5260   0.4047 LP             1 S1                 0.0000
     66 ****        -3.7470   1.6348   0.4519 LP             1 S1                 0.0000
@<TRIPOS>BOND
    1    1    2 1     
    2    1   29 1     
    3    1   30 1     
    4    1   31 1     
    5    2    6 1     
    6    2    3 1     
    7    2   32 1     
    8    3    4 1     
    9    4    5 1     
   10    4   33 1     
   11    4   34 1     
   12    5    6 1     
   13    5   35 1     
   14    5   36 1     
   15    6    7 1     
   16    6    8 1     
   17    7   37 1     
   18    8    9 1     
   19    8   38 1     
   20    8   39 1     
   21    9   28 1     
   22    9   10 1     
   23   10   11 2     
   24   10   40 1     
   25   11   12 1     
   26   12   28 ar    
   27   12   13 ar    
   28   13   14 1     
   29   13   25 ar    
   30   14   24 1     
   31   14   15 1     
   32   15   16 1     
   33   15   41 1     
   34   15   42 1     
   35   16   17 1     
   36   16   24 1     
   37   16   43 1     
   38   17   18 1     
   39   18   19 1     
   40   18   44 1     
   41   18   45 1     
   42   19   20 2     
   43   19   21 am    
   44   21   22 1     
   45   21   23 1     
   46   22   46 1     
   47   22   47 1     
   48   22   48 1     
   49   23   49 1     
   50   23   50 1     
   51   23   51 1     
   52   24   52 1     
   53   24   53 1     
   54   25   26 ar    
   55   26   27 ar    
   56   26   54 1     
   57   27   28 ar    
   58    3   55 1     
   59    3   56 1     
   60    7   57 1     
   61    7   58 1     
   62   11   59 1     
   63   14   60 1     
   64   17   61 1     
   65   17   62 1     
   66   20   63 1     
   67   20   64 1     
   68   25   65 1     
   69   27   66 1     
@<TRIPOS>SUBSTRUCTURE
      1 S1             1
@<TRIPOS>SET
LONE_PAIRS      STATIC     ATOMS    <user>   **** ""
12 55 56 57 58 59 60 61 62 63 64 65 66
DONOR_HYDROGENS      STATIC     ATOMS    <user>   **** ""
1 37
ATOM$BLUE        STATIC     ATOMS    COLORGROUP SYSTEM
12 55 56 57 58 59 60 61 62 63 64 65 66
ATOM$RED        STATIC     ATOMS    COLORGROUP SYSTEM
1 37
