AV-unprocessed.smi:2446|AV-procd|sdf|9646|dock4
  -GOLD-   2272013283D 1   1.00000     0.00000
 Structure written by MMmdl.
 40 41  0  0  0  0  0  0  0  0  2 V2000
  147.4430  141.9248  154.2576 C   0  0  0  0  0  0  0  0  0  0  0  0
  148.4221  140.7629  154.2665 C   0  0  0  0  0  0  0  0  0  0  0  0
  148.1263  139.5989  153.5241 C   0  0  0  0  0  0  0  0  0  0  0  0
  148.9849  138.5578  153.5249 N   0  3  0  0  0  0  0  0  0  0  0  0
  150.1406  138.5659  154.2208 C   0  0  0  0  0  0  0  0  0  0  0  0
  150.4946  139.6970  154.9828 C   0  0  0  0  0  0  0  0  0  0  0  0
  149.6338  140.8245  155.0019 C   0  0  0  0  0  0  0  0  0  0  0  0
  149.9056  142.0008  155.7557 N   0  0  0  0  0  0  0  0  0  0  0  0
  150.8334  142.2071  156.7109 C   0  0  0  0  0  0  0  0  0  0  0  0
  151.6146  141.3538  157.1249 O   0  0  0  0  0  0  0  0  0  0  0  0
  150.8590  143.4646  157.1902 N   0  0  0  0  0  0  0  0  0  0  0  0
  151.7322  144.0282  158.2229 C   0  0  1  0  0  0  0  0  0  0  0  0
  151.0730  145.2825  158.8239 C   0  0  0  0  0  0  0  0  0  0  0  0
  151.9275  145.8743  159.9552 C   0  0  0  0  0  0  0  0  0  0  0  0
  152.2149  144.8288  161.0444 C   0  0  0  0  0  0  0  0  0  0  0  0
  152.8869  143.5690  160.4588 C   0  0  1  0  0  0  0  0  0  0  0  0
  153.1995  142.5187  161.5444 C   0  0  0  0  0  0  0  0  0  0  0  0
  154.1021  141.6393  161.1087 F   0  0  0  0  0  0  0  0  0  0  0  0
  153.6747  143.1201  162.6352 F   0  0  0  0  0  0  0  0  0  0  0  0
  152.0876  141.8651  161.8812 F   0  0  0  0  0  0  0  0  0  0  0  0
  152.0178  142.9855  159.3248 C   0  0  0  0  0  0  0  0  0  0  0  0
  146.5588  141.6928  153.6632 H   0  0  0  0  0  0  0  0  0  0  0  0
  147.9103  142.8137  153.8329 H   0  0  0  0  0  0  0  0  0  0  0  0
  147.1152  142.1576  155.2713 H   0  0  0  0  0  0  0  0  0  0  0  0
  147.2316  139.4683  152.9327 H   0  0  0  0  0  0  0  0  0  0  0  0
  150.7417  137.6707  154.1532 H   0  0  0  0  0  0  0  0  0  0  0  0
  151.4140  139.6694  155.5469 H   0  0  0  0  0  0  0  0  0  0  0  0
  149.3831  142.8183  155.4767 H   0  0  0  0  0  0  0  0  0  0  0  0
  150.1824  144.1040  156.7981 H   0  0  0  0  0  0  0  0  0  0  0  0
  152.6763  144.3389  157.7714 H   0  0  0  0  0  0  0  0  0  0  0  0
  150.9214  146.0340  158.0481 H   0  0  0  0  0  0  0  0  0  0  0  0
  150.0838  145.0336  159.2111 H   0  0  0  0  0  0  0  0  0  0  0  0
  152.8684  146.2453  159.5471 H   0  0  0  0  0  0  0  0  0  0  0  0
  151.4198  146.7347  160.3919 H   0  0  0  0  0  0  0  0  0  0  0  0
  152.8508  145.2721  161.8110 H   0  0  0  0  0  0  0  0  0  0  0  0
  151.2821  144.5554  161.5393 H   0  0  0  0  0  0  0  0  0  0  0  0
  153.8388  143.8752  160.0215 H   0  0  0  0  0  0  0  0  0  0  0  0
  151.0755  142.6215  159.7370 H   0  0  0  0  0  0  0  0  0  0  0  0
  152.5161  142.1172  158.8940 H   0  0  0  0  0  0  0  0  0  0  0  0
  148.7478  137.7277  152.9811 H   0  0  0  0  0  0  0  0  0  0  0  0
  1  2  1  0  0  0  0
  1 22  1  0  0  0  0
  1 23  1  0  0  0  0
  1 24  1  0  0  0  0
  2  7  1  0  0  0  0
  2  3  2  0  0  0  0
  3  4  1  0  0  0  0
  3 25  1  0  0  0  0
  4  5  2  0  0  0  0
  4 40  1  0  0  0  0
  5  6  1  0  0  0  0
  5 26  1  0  0  0  0
  6  7  2  0  0  0  0
  6 27  1  0  0  0  0
  7  8  1  0  0  0  0
  8  9  1  0  0  0  0
  8 28  1  0  0  0  0
  9 10  2  0  0  0  0
  9 11  1  0  0  0  0
 11 12  1  0  0  0  0
 11 29  1  0  0  0  0
 12 21  1  0  0  0  0
 12 13  1  0  0  0  0
 12 30  1  0  0  0  0
 13 14  1  0  0  0  0
 13 31  1  0  0  0  0
 13 32  1  0  0  0  0
 14 15  1  0  0  0  0
 14 33  1  0  0  0  0
 14 34  1  0  0  0  0
 15 16  1  0  0  0  0
 15 35  1  0  0  0  0
 15 36  1  0  0  0  0
 16 17  1  0  0  0  0
 16 21  1  0  0  0  0
 16 37  1  0  0  0  0
 17 18  1  0  0  0  0
 17 19  1  0  0  0  0
 17 20  1  0  0  0  0
 21 38  1  0  0  0  0
 21 39  1  0  0  0  0
M  CHG  1   4   1
M  END
> <s_m_source_file>
AV-unprocessed.smi

> <i_m_source_file_index>
2446

> <i_lp_mmshare_version>
43012

> <i_f3d_flags>
0

> <s_epik_input>
W0NIM11jMVtjSF1uW2NIXVtjSF1jMVtOSF1DKD1PKVtOSF1bQ0BASF0yW0NIMl1bQ0gyXVtDSDJdW0NAQEhdKEMoRikoRilGKVtDSDJdMg==

> <s_epik_cmdline>
J2VwaWtfcHl0aG9uJywgJy1waCcsICc3LjAnLCAnLXRuJywgJzgnLCAnLW1hJywgJzIwMCcsICctbWV0YWxfYmluZGluZycsICctaW1hZScsICc8aW5maWxlLm1hZT4nLCAnLW9tYWUnLCAnPG91dGZpbGUubWFlPic=

> <r_epik_Ionization_Penalty>
0.736582

> <r_epik_Ionization_Penalty_Charging>
0.736562

> <r_epik_Ionization_Penalty_Neutral>
1.98379e-05

> <r_epik_State_Penalty>
0.762314

> <r_epik_Charging_Adjusted_Penalty>
1.49888

> <i_epik_Tot_Q>
1

> <i_epik_Tot_abs_Q>
1

> <r_epik_Metal_State_Penalty>
0.914579

> <b_epik_Metal_Only>
0

> <s_lp_Force_Field>
OPLS_2005

> <r_lp_Energy>
31.4788

> <b_lp_Chiralities_Consistent>
1

> <s_lp_Variant>
AV-unprocessed.smi:2446-6

> <Gold.Version>
5.8.1

> <Gold.Id.Protein>
6NUR|6NUR_protein|mol2

> <Gold.PLP.Fitness>
57.0894

> <Gold.PLP.PLP>
-46.5365

> <Gold.PLP.part.hbond>
-4.0000

> <Gold.PLP.part.metal>
0.0000

> <Gold.PLP.part.buried>
3.6867

> <Gold.PLP.part.nonpolar>
-44.7724

> <Gold.PLP.part.repulsive>
0.2488

> <Gold.PLP.ligand.clash>
0.0000

> <Gold.PLP.ligand.torsion>
0.7339

> <Gold.PLP.Chemscore.Hbond>
4.0000

> <Gold.PLP.Chemscore.CHOScore>
0.0000

> <Gold.PLP.Chemscore.Metal>
0.0000

> <Gold.Chemscore.Hbonds>
donor molecule, donor type, donor heavy atom, donor atom, acceptor molecule, acceptor atom, score
      L1  H     4    40       P1  7948  2.00
      L1  H     8    28       P1  8028  1.00
      L1  H    11    29       P1  8028  1.00

> <Gold.PLP.Chemscore.Internal.Correction>
0.0206

> <Gold.Rescore>
     Score         DG    S(hbond)    S(metal)    S(lipo)     H(rot)  DE(clash)    DE(int)     intcor
     21.70     -26.56       2.80        0.00     122.15       1.00       1.66       3.20       ----

> <Gold.Chemscore.Fitness>
21.7004

> <Gold.Chemscore.DG>
-26.5555

> <Gold.Chemscore.ZeroCoef>
-5.4800

> <Gold.Chemscore.Hbond>
2.7977

> <Gold.Chemscore.Metal>
0.0000

> <Gold.Chemscore.Lipo>
122.1482

> <Gold.Chemscore.Internal_Hbond>
0.0000

> <Gold.Chemscore.DEClash>
1.6590

> <Gold.Chemscore.DEInternal>
3.1961

> <Gold.Chemscore.Rot>
1.0000

> <Gold.Chemscore.Internal.Correction>
   9.000000E+99

> <Gold.Chemscore.Hbonds>
donor molecule, donor type, donor heavy atom, donor atom, acceptor molecule, acceptor atom, score
      L1  H     4    40       P1  7948  0.99
      L1  H     8    28       P1  8028  0.95
      L1  H    11    29       P1  8028  0.98

> <Gold.Chemscore.Hbond.Weighted>
-9.3442

> <Gold.Chemscore.Metal.Weighted>
-0.0000

> <Gold.Chemscore.Lipo.Weighted>
-14.2913

> <Gold.Chemscore.Internal_Hbond.Weighted>
0.0000

> <Gold.Chemscore.DEClash.Weighted>
1.6590

> <Gold.Chemscore.DEInternal.Weighted>
3.1961

> <Gold.Chemscore.Rot.Weighted>
2.5600

> <Gold.Chemscore.Internal.Correction.Weighted>
   9.000000E+99

> <Gold.Protein.RotatedTorsions>
[ 6907 6896 6895 6894 ] final -108.17 input  -60.11 | X-H torsion
[ 7974 7965 7964 7962 ] final  -88.78 input  175.53 | X-H torsion
[ 8008 7997 7996 7995 ] final   71.22 input   59.86 | X-H torsion
[ 10167 10162 10161 10158 ] final   78.59 input  -65.29 | X-H torsion
[ 10718 10713 10712 10709 ] final  141.37 input   66.30 | X-H torsion
[ 10763 10752 10751 10750 ] final  166.50 input  -60.55 | X-H torsion
[ 11005 11000 10999 10996 ] final  -65.67 input  -57.11 | X-H torsion

> <Gold.Protein.ActiveResidues>
 VAL166  LYS551  ARG553  GLY616  TRP617  ASP618  TYR619  PRO620  LYS621  CYS622 
 ASP623  PHE694  ASN695  SER759  ASP760  ASP761  ALA762  ILE779  LEU786  VAL792 
 PHE793  MET794  SER795  GLU796  ALA797  LYS798  CYS799  TRP800  GLU811  SER814 

> <Gold.Protein.RotatedAtoms>
  150.7486  133.9717  159.3547 H   0  0  0  0  0  0  0  0  0  0  0  0  # atno 6907 bound_to 6896
  151.7652  135.0798  160.0361 H   0  0  0  0  0  0  0  0  0  0  0  0  # atno 6908 bound_to 6896
  152.3376  133.5993  159.5890 H   0  0  0  0  0  0  0  0  0  0  0  0  # atno 6909 bound_to 6896
  145.4485  140.9560  143.2035 H   0  0  0  0  0  0  0  0  0  0  0  0  # atno 7974 bound_to 7965
  155.7506  140.3488  155.5148 H   0  0  0  0  0  0  0  0  0  0  0  0  # atno 8008 bound_to 7997
  155.9008  140.1034  157.1372 H   0  0  0  0  0  0  0  0  0  0  0  0  # atno 8009 bound_to 7997
  154.4044  140.1286  156.4421 H   0  0  0  0  0  0  0  0  0  0  0  0  # atno 8010 bound_to 7997
  139.9694  144.5905  150.7999 H   0  0  0  0  0  0  0  0  0  0  0  0  # atno 10167 bound_to 10162
  157.3928  131.1007  151.0630 H   0  0  0  0  0  0  0  0  0  0  0  0  # atno 10718 bound_to 10713
  154.3399  135.2754  155.2428 H   0  0  0  0  0  0  0  0  0  0  0  0  # atno 10763 bound_to 10752
  154.4703  135.5884  153.6320 H   0  0  0  0  0  0  0  0  0  0  0  0  # atno 10764 bound_to 10752
  152.9858  135.6086  154.3599 H   0  0  0  0  0  0  0  0  0  0  0  0  # atno 10765 bound_to 10752
  141.1461  133.6685  156.6022 H   0  0  0  0  0  0  0  0  0  0  0  0  # atno 11005 bound_to 11000
  144.8076  139.6022  143.7044 LP  0  0  0  0  0  0  0  0  0  0  0  0  # atno 17320 bound_to 7965
  146.2517  139.6214  142.9422 LP  0  0  0  0  0  0  0  0  0  0  0  0  # atno 17321 bound_to 7965
  140.7527  143.2995  151.3117 LP  0  0  0  0  0  0  0  0  0  0  0  0  # atno 17342 bound_to 10162
  139.6493  144.0392  152.2614 LP  0  0  0  0  0  0  0  0  0  0  0  0  # atno 17343 bound_to 10162
  157.1657  130.6245  149.5624 LP  0  0  0  0  0  0  0  0  0  0  0  0  # atno 17370 bound_to 10713
  155.9802  130.4802  150.6762 LP  0  0  0  0  0  0  0  0  0  0  0  0  # atno 17371 bound_to 10713
  140.3679  134.7631  157.4579 LP  0  0  0  0  0  0  0  0  0  0  0  0  # atno 17394 bound_to 11000
  140.0733  134.5832  155.8618 LP  0  0  0  0  0  0  0  0  0  0  0  0  # atno 17395 bound_to 11000

$$$$
