AV-unprocessed.smi:63|AV-procd|sdf|607|dock1
  -GOLD-   2262016503D 1   1.00000     0.00000
 Structure written by MMmdl.
 29 30  0  0  0  0  0  0  0  0  1 V2000
  151.8968  144.6405  160.2055 C   0  0  0  0  0  0  0  0  0  0  0  0
  151.6180  143.5412  159.2021 C   0  0  0  0  0  0  0  0  0  0  0  0
  151.5528  143.8228  157.8253 C   0  0  0  0  0  0  0  0  0  0  0  0
  151.2850  142.7483  156.9601 C   0  0  0  0  0  0  0  0  0  0  0  0
  151.0998  141.4674  157.5290 C   0  0  0  0  0  0  0  0  0  0  0  0
  150.8217  140.3578  156.7025 N   0  0  0  0  0  0  0  0  0  0  0  0
  151.5551  139.1273  156.9825 C   0  0  0  0  0  0  0  0  0  0  0  0
  151.8319  138.4741  155.6260 C   0  0  0  0  0  0  0  0  0  0  0  0
  150.7779  139.0857  154.7097 C   0  0  0  0  0  0  0  0  0  0  0  0
  150.6305  140.5079  155.2604 C   0  0  1  0  0  0  0  0  0  0  0  0
  149.2825  141.1613  154.8943 C   0  0  0  0  0  0  0  0  0  0  0  0
  149.1990  141.3524  153.4983 O   0  0  0  0  0  0  0  0  0  0  0  0
  151.1800  141.2778  158.8711 N   0  0  0  0  0  0  0  0  0  0  0  0
  151.4348  142.2970  159.6983 N   0  0  0  0  0  0  0  0  0  0  0  0
  152.7622  145.2268  159.8953 H   0  0  0  0  0  0  0  0  0  0  0  0
  152.1003  144.2337  161.1971 H   0  0  0  0  0  0  0  0  0  0  0  0
  151.0380  145.3079  160.2795 H   0  0  0  0  0  0  0  0  0  0  0  0
  151.7023  144.8230  157.4461 H   0  0  0  0  0  0  0  0  0  0  0  0
  151.2300  142.9087  155.8934 H   0  0  0  0  0  0  0  0  0  0  0  0
  152.4854  139.3074  157.5229 H   0  0  0  0  0  0  0  0  0  0  0  0
  150.9270  138.4809  157.5964 H   0  0  0  0  0  0  0  0  0  0  0  0
  152.8262  138.7577  155.2785 H   0  0  0  0  0  0  0  0  0  0  0  0
  151.7860  137.3854  155.6624 H   0  0  0  0  0  0  0  0  0  0  0  0
  151.0670  139.0660  153.6587 H   0  0  0  0  0  0  0  0  0  0  0  0
  149.8408  138.5363  154.8128 H   0  0  0  0  0  0  0  0  0  0  0  0
  151.4488  141.1163  154.8713 H   0  0  0  0  0  0  0  0  0  0  0  0
  148.4478  140.5418  155.2239 H   0  0  0  0  0  0  0  0  0  0  0  0
  149.1662  142.1331  155.3730 H   0  0  0  0  0  0  0  0  0  0  0  0
  149.3603  140.5244  153.0724 H   0  0  0  0  0  0  0  0  0  0  0  0
  1  2  1  0  0  0  0
  1 15  1  0  0  0  0
  1 16  1  0  0  0  0
  1 17  1  0  0  0  0
  2 14  1  0  0  0  0
  2  3  2  0  0  0  0
  3  4  1  0  0  0  0
  3 18  1  0  0  0  0
  4  5  2  0  0  0  0
  4 19  1  0  0  0  0
  5  6  1  0  0  0  0
  5 13  1  0  0  0  0
  6 10  1  0  0  0  0
  6  7  1  0  0  0  0
  7  8  1  0  0  0  0
  7 20  1  0  0  0  0
  7 21  1  0  0  0  0
  8  9  1  0  0  0  0
  8 22  1  0  0  0  0
  8 23  1  0  0  0  0
  9 10  1  0  0  0  0
  9 24  1  0  0  0  0
  9 25  1  0  0  0  0
 10 11  1  0  0  0  0
 10 26  1  0  0  0  0
 11 12  1  0  0  0  0
 11 27  1  0  0  0  0
 11 28  1  0  0  0  0
 12 29  1  0  0  0  0
 13 14  2  0  0  0  0
M  END
> <s_m_source_file>
AV-unprocessed.smi

> <i_m_source_file_index>
63

> <i_lp_mmshare_version>
43012

> <i_f3d_flags>
0

> <s_epik_input>
W0NIM11jMVtjSF1bY0hdYyhubjEpTjJbQ0gyXVtDSDJdW0NIMl1bQ0BIXTJbQ0gyXVtPSF0=

> <s_epik_cmdline>
J2VwaWtfcHl0aG9uJywgJy1waCcsICc3LjAnLCAnLXRuJywgJzgnLCAnLW1hJywgJzIwMCcsICctbWV0YWxfYmluZGluZycsICctaW1hZScsICc8aW5maWxlLm1hZT4nLCAnLW9tYWUnLCAnPG91dGZpbGUubWFlPic=

> <r_lp_tautomer_probability>
1

> <r_epik_Ionization_Penalty>
4.30639e-05

> <r_epik_Ionization_Penalty_Charging>
0

> <r_epik_Ionization_Penalty_Neutral>
4.30639e-05

> <r_epik_State_Penalty>
-0

> <r_epik_Charging_Adjusted_Penalty>
0

> <i_epik_Tot_Q>
0

> <i_epik_Tot_abs_Q>
0

> <r_epik_Metal_State_Penalty>
-0

> <b_epik_Metal_Only>
0

> <s_lp_Force_Field>
OPLS_2005

> <r_lp_Energy>
32.9321

> <b_lp_Chiralities_Consistent>
1

> <s_lp_Variant>
AV-unprocessed.smi:63-1

> <Gold.Version>
5.8.1

> <Gold.Id.Protein>
6NUR|6NUR_protein|mol2

> <Gold.PLP.Fitness>
35.4847

> <Gold.PLP.PLP>
-30.8681

> <Gold.PLP.part.hbond>
-3.5508

> <Gold.PLP.part.metal>
0.0000

> <Gold.PLP.part.buried>
-3.4870

> <Gold.PLP.part.nonpolar>
-24.2270

> <Gold.PLP.part.repulsive>
0.0021

> <Gold.PLP.ligand.clash>
0.0000

> <Gold.PLP.ligand.torsion>
0.2211

> <Gold.PLP.Chemscore.Hbond>
1.5680

> <Gold.PLP.Chemscore.CHOScore>
0.0000

> <Gold.PLP.Chemscore.Metal>
0.0000

> <Gold.Chemscore.Hbonds>
donor molecule, donor type, donor heavy atom, donor atom, acceptor molecule, acceptor atom, score
      L1  H    12    29       P1  7957  0.62
      P1  H  8011  8017       L1    12  0.93

> <Gold.PLP.Chemscore.Internal.Correction>
0.3547

> <Gold.Rescore>
     Score         DG    S(hbond)    S(metal)    S(lipo)     H(rot)  DE(clash)    DE(int)     intcor
     13.80     -14.32       1.22        0.00      78.21       1.71       0.23       0.29       ----

> <Gold.Chemscore.Fitness>
13.8045

> <Gold.Chemscore.DG>
-14.3228

> <Gold.Chemscore.ZeroCoef>
-5.4800

> <Gold.Chemscore.Hbond>
1.2212

> <Gold.Chemscore.Metal>
0.0000

> <Gold.Chemscore.Lipo>
78.2144

> <Gold.Chemscore.Internal_Hbond>
0.0000

> <Gold.Chemscore.DEClash>
0.2272

> <Gold.Chemscore.DEInternal>
0.2911

> <Gold.Chemscore.Rot>
1.7138

> <Gold.Chemscore.Internal.Correction>
   9.000000E+99

> <Gold.Chemscore.Hbonds>
donor molecule, donor type, donor heavy atom, donor atom, acceptor molecule, acceptor atom, score
      L1  H    12    29       P1  7957  0.60
      P1  H  8011  8017       L1    12  0.23

> <Gold.Chemscore.Hbond.Weighted>
-4.0789

> <Gold.Chemscore.Metal.Weighted>
-0.0000

> <Gold.Chemscore.Lipo.Weighted>
-9.1511

> <Gold.Chemscore.Internal_Hbond.Weighted>
0.0000

> <Gold.Chemscore.DEClash.Weighted>
0.2272

> <Gold.Chemscore.DEInternal.Weighted>
0.2911

> <Gold.Chemscore.Rot.Weighted>
4.3872

> <Gold.Chemscore.Internal.Correction.Weighted>
   9.000000E+99

> <Gold.Protein.RotatedTorsions>
[ 6907 6896 6895 6894 ] final   82.44 input  -60.11 | X-H torsion
[ 7974 7965 7964 7962 ] final -130.54 input  175.53 | X-H torsion
[ 8008 7997 7996 7995 ] final   24.27 input   59.86 | X-H torsion
[ 10167 10162 10161 10158 ] final   65.81 input  -65.29 | X-H torsion
[ 10718 10713 10712 10709 ] final   49.84 input   66.30 | X-H torsion
[ 10763 10752 10751 10750 ] final -149.31 input  -60.55 | X-H torsion
[ 11005 11000 10999 10996 ] final   69.27 input  -57.11 | X-H torsion

> <Gold.Protein.ActiveResidues>
 VAL166  LYS551  ARG553  GLY616  TRP617  ASP618  TYR619  PRO620  LYS621  CYS622 
 ASP623  PHE694  ASN695  SER759  ASP760  ASP761  ALA762  ILE779  LEU786  VAL792 
 PHE793  MET794  SER795  GLU796  ALA797  LYS798  CYS799  TRP800  GLU811  SER814 

> <Gold.Protein.RotatedAtoms>
  152.5299  134.3049  159.9091 H   0  0  0  0  0  0  0  0  0  0  0  0  # atno 6907 bound_to 6896
  151.2999  133.4120  159.2646 H   0  0  0  0  0  0  0  0  0  0  0  0  # atno 6908 bound_to 6896
  151.0128  134.9426  159.8074 H   0  0  0  0  0  0  0  0  0  0  0  0  # atno 6909 bound_to 6896
  144.9465  140.7297  143.4814 H   0  0  0  0  0  0  0  0  0  0  0  0  # atno 7974 bound_to 7965
  154.9936  140.3117  155.4896 H   0  0  0  0  0  0  0  0  0  0  0  0  # atno 8008 bound_to 7997
  156.2936  140.2244  156.4983 H   0  0  0  0  0  0  0  0  0  0  0  0  # atno 8009 bound_to 7997
  154.7681  140.0454  157.1017 H   0  0  0  0  0  0  0  0  0  0  0  0  # atno 8010 bound_to 7997
  140.1073  144.4850  150.7000 H   0  0  0  0  0  0  0  0  0  0  0  0  # atno 10167 bound_to 10162
  157.4826  130.8325  149.8110 H   0  0  0  0  0  0  0  0  0  0  0  0  # atno 10718 bound_to 10713
  154.8184  135.3312  154.7108 H   0  0  0  0  0  0  0  0  0  0  0  0  # atno 10763 bound_to 10752
  153.7745  135.6923  153.4904 H   0  0  0  0  0  0  0  0  0  0  0  0  # atno 10764 bound_to 10752
  153.2022  135.4512  155.0228 H   0  0  0  0  0  0  0  0  0  0  0  0  # atno 10765 bound_to 10752
  139.9663  134.6975  156.0538 H   0  0  0  0  0  0  0  0  0  0  0  0  # atno 11005 bound_to 11000
  145.2910  139.1883  143.4740 LP  0  0  0  0  0  0  0  0  0  0  0  0  # atno 17320 bound_to 7965
  146.3305  140.2887  142.8614 LP  0  0  0  0  0  0  0  0  0  0  0  0  # atno 17321 bound_to 7965
  140.6945  143.2395  151.5039 LP  0  0  0  0  0  0  0  0  0  0  0  0  # atno 17342 bound_to 10162
  139.5638  144.2091  152.1734 LP  0  0  0  0  0  0  0  0  0  0  0  0  # atno 17343 bound_to 10162
  156.0130  130.3825  150.2203 LP  0  0  0  0  0  0  0  0  0  0  0  0  # atno 17370 bound_to 10713
  157.0390  131.0029  151.3289 LP  0  0  0  0  0  0  0  0  0  0  0  0  # atno 17371 bound_to 10713
  141.1343  133.6579  156.3549 LP  0  0  0  0  0  0  0  0  0  0  0  0  # atno 17394 bound_to 11000
  140.5389  134.6140  157.5373 LP  0  0  0  0  0  0  0  0  0  0  0  0  # atno 17395 bound_to 11000

$$$$
