AV-unprocessed.smi:2505|AV-procd|sdf|9856|dock9
  -GOLD-   2272013483D 1   1.00000     0.00000
 Structure written by MMmdl.
 48 52  0  0  0  0  0  0  0  0  1 V2000
  148.0089  135.5640  155.9545 O   0  0  0  0  0  0  0  0  0  0  0  0
  148.3706  135.7512  154.7957 C   0  0  0  0  0  0  0  0  0  0  0  0
  149.0614  136.8237  154.3646 N   0  0  0  0  0  0  0  0  0  0  0  0
  149.5329  137.9483  155.0931 C   0  0  0  0  0  0  0  0  0  0  0  0
  150.1789  138.9822  154.3838 C   0  0  0  0  0  0  0  0  0  0  0  0
  150.6650  140.0803  154.9998 N   0  0  0  0  0  0  0  0  0  0  0  0
  150.4982  140.1516  156.3230 C   0  0  0  0  0  0  0  0  0  0  0  0
  151.0741  141.3518  157.0083 C   0  0  0  0  0  0  0  0  0  0  0  0
  151.0642  141.4630  158.5193 C   0  0  0  0  0  0  0  0  0  0  0  0
  150.1736  142.3549  157.7000 C   0  0  0  0  0  0  0  0  0  0  0  0
  149.9187  139.2349  157.1027 N   0  0  0  0  0  0  0  0  0  0  0  0
  149.4295  138.1322  156.4947 C   0  0  0  0  0  0  0  0  0  0  0  0
  148.0806  134.8676  153.8249 N   0  0  0  0  0  0  0  0  0  0  0  0
  147.3473  133.6069  153.9579 C   0  0  1  0  0  0  0  0  0  0  0  0
  147.4303  132.7536  152.6815 C   0  0  2  0  0  0  0  0  0  0  0  0
  146.1858  132.4815  151.8805 C   0  0  0  0  0  0  0  0  0  0  0  0
  145.7370  131.1141  152.4028 C   0  0  0  0  0  0  0  0  0  0  0  0
  146.3443  131.0043  153.6880 O   0  0  0  0  0  0  0  0  0  0  0  0
  147.6552  131.5563  153.5919 C   0  0  2  0  0  0  0  0  0  0  0  0
  148.0978  132.4962  154.7336 C   0  0  0  0  0  0  0  0  0  0  0  0
  149.6107  132.6081  154.9425 C   0  0  0  0  0  0  0  0  0  0  0  0
  149.9956  131.5256  155.9529 C   0  0  0  0  0  0  0  0  0  0  0  0
  148.7233  131.2487  156.7604 C   0  0  0  0  0  0  0  0  0  0  0  0
  147.6376  132.1372  156.1445 C   0  0  0  0  0  0  0  0  0  0  0  0
  149.2633  136.8393  153.3754 H   0  0  0  0  0  0  0  0  0  0  0  0
  150.3106  138.9282  153.3129 H   0  0  0  0  0  0  0  0  0  0  0  0
  151.9439  141.7320  156.4760 H   0  0  0  0  0  0  0  0  0  0  0  0
  150.5888  140.6634  159.0844 H   0  0  0  0  0  0  0  0  0  0  0  0
  151.9317  141.9166  158.9939 H   0  0  0  0  0  0  0  0  0  0  0  0
  150.4445  143.4060  157.6246 H   0  0  0  0  0  0  0  0  0  0  0  0
  149.1050  142.1494  157.7207 H   0  0  0  0  0  0  0  0  0  0  0  0
  148.9709  137.4122  157.1530 H   0  0  0  0  0  0  0  0  0  0  0  0
  148.3967  135.0983  152.8940 H   0  0  0  0  0  0  0  0  0  0  0  0
  146.3145  133.7207  154.2955 H   0  0  0  0  0  0  0  0  0  0  0  0
  148.3185  132.9721  152.0856 H   0  0  0  0  0  0  0  0  0  0  0  0
  145.4255  133.2389  152.0733 H   0  0  0  0  0  0  0  0  0  0  0  0
  146.3723  132.4600  150.8065 H   0  0  0  0  0  0  0  0  0  0  0  0
  144.6525  131.0201  152.4612 H   0  0  0  0  0  0  0  0  0  0  0  0
  146.1157  130.3164  151.7620 H   0  0  0  0  0  0  0  0  0  0  0  0
  148.4027  130.8502  153.2270 H   0  0  0  0  0  0  0  0  0  0  0  0
  150.1723  132.5069  154.0132 H   0  0  0  0  0  0  0  0  0  0  0  0
  149.8680  133.5807  155.3636 H   0  0  0  0  0  0  0  0  0  0  0  0
  150.3061  130.6195  155.4314 H   0  0  0  0  0  0  0  0  0  0  0  0
  150.8255  131.8420  156.5858 H   0  0  0  0  0  0  0  0  0  0  0  0
  148.4498  130.1966  156.6716 H   0  0  0  0  0  0  0  0  0  0  0  0
  148.8579  131.4647  157.8209 H   0  0  0  0  0  0  0  0  0  0  0  0
  147.5347  133.0426  156.7430 H   0  0  0  0  0  0  0  0  0  0  0  0
  146.6655  131.6441  156.1599 H   0  0  0  0  0  0  0  0  0  0  0  0
  1  2  2  0  0  0  0
  2  3  1  0  0  0  0
  2 13  1  0  0  0  0
  3  4  1  0  0  0  0
  3 25  1  0  0  0  0
  4 12  1  0  0  0  0
  4  5  2  0  0  0  0
  5  6  1  0  0  0  0
  5 26  1  0  0  0  0
  6  7  2  0  0  0  0
  7  8  1  0  0  0  0
  7 11  1  0  0  0  0
  8 10  1  0  0  0  0
  8  9  1  0  0  0  0
  8 27  1  0  0  0  0
  9 10  1  0  0  0  0
  9 28  1  0  0  0  0
  9 29  1  0  0  0  0
 10 30  1  0  0  0  0
 10 31  1  0  0  0  0
 11 12  2  0  0  0  0
 12 32  1  0  0  0  0
 13 14  1  0  0  0  0
 13 33  1  0  0  0  0
 14 20  1  0  0  0  0
 14 15  1  0  0  0  0
 14 34  1  0  0  0  0
 15 19  1  0  0  0  0
 15 16  1  0  0  0  0
 15 35  1  0  0  0  0
 16 17  1  0  0  0  0
 16 36  1  0  0  0  0
 16 37  1  0  0  0  0
 17 18  1  0  0  0  0
 17 38  1  0  0  0  0
 17 39  1  0  0  0  0
 18 19  1  0  0  0  0
 19 20  1  0  0  0  0
 19 40  1  0  0  0  0
 20 24  1  0  0  0  0
 20 21  1  0  0  0  0
 21 22  1  0  0  0  0
 21 41  1  0  0  0  0
 21 42  1  0  0  0  0
 22 23  1  0  0  0  0
 22 43  1  0  0  0  0
 22 44  1  0  0  0  0
 23 24  1  0  0  0  0
 23 45  1  0  0  0  0
 23 46  1  0  0  0  0
 24 47  1  0  0  0  0
 24 48  1  0  0  0  0
M  END
> <s_m_source_file>
AV-unprocessed.smi

> <i_m_source_file_index>
2505

> <i_lp_mmshare_version>
43012

> <i_f3d_flags>
0

> <s_epik_input>
W0NIMl0xW0NIMl1bQ0hdMWMobltjSF0yKW5bY0hdYzJbTkhdQyg9TylbTkhdW0NAQEhdM1tDQEBIXShbQ0gyXVtDSDJdTzQpW0NASF00QzM1W0NIMl1bQ0gyXVtDSDJdW0NIMl01

> <s_epik_cmdline>
J2VwaWtfcHl0aG9uJywgJy1waCcsICc3LjAnLCAnLXRuJywgJzgnLCAnLW1hJywgJzIwMCcsICctbWV0YWxfYmluZGluZycsICctaW1hZScsICc8aW5maWxlLm1hZT4nLCAnLW9tYWUnLCAnPG91dGZpbGUubWFlPic=

> <r_lp_tautomer_probability>
1

> <r_epik_Ionization_Penalty>
2.6075e-05

> <r_epik_Ionization_Penalty_Charging>
0

> <r_epik_Ionization_Penalty_Neutral>
2.6075e-05

> <r_epik_State_Penalty>
-0

> <r_epik_Charging_Adjusted_Penalty>
0

> <i_epik_Tot_Q>
0

> <i_epik_Tot_abs_Q>
0

> <r_epik_Metal_State_Penalty>
-0

> <b_epik_Metal_Only>
0

> <s_lp_Force_Field>
OPLS_2005

> <r_lp_Energy>
62.9039

> <b_lp_Chiralities_Consistent>
1

> <s_lp_Variant>
AV-unprocessed.smi:2505-4

> <Gold.Version>
5.8.1

> <Gold.Id.Protein>
6NUR|6NUR_protein|mol2

> <Gold.PLP.Fitness>
41.4240

> <Gold.PLP.PLP>
-29.4545

> <Gold.PLP.part.hbond>
-2.8592

> <Gold.PLP.part.metal>
0.0000

> <Gold.PLP.part.buried>
-3.3064

> <Gold.PLP.part.nonpolar>
-24.1447

> <Gold.PLP.part.repulsive>
0.2584

> <Gold.PLP.ligand.clash>
0.0000

> <Gold.PLP.ligand.torsion>
0.1542

> <Gold.PLP.Chemscore.Hbond>
2.9920

> <Gold.PLP.Chemscore.CHOScore>
1.0000

> <Gold.PLP.Chemscore.Metal>
0.0000

> <Gold.Chemscore.Hbonds>
donor molecule, donor type, donor heavy atom, donor atom, acceptor molecule, acceptor atom, score
      L1  H     3    25       P1  7948  0.99
      L1  H    13    33       P1  7948  0.99
      P1  H  7989  7998       L1     6  0.95
      L1  C     5    26       P1  7957  1.00

> <Gold.PLP.Chemscore.Internal.Correction>
0.3019

> <Gold.Rescore>
     Score         DG    S(hbond)    S(metal)    S(lipo)     H(rot)  DE(clash)    DE(int)     intcor
     18.27     -20.11       2.49        0.00      79.79       1.17       0.60       1.24       ----

> <Gold.Chemscore.Fitness>
18.2650

> <Gold.Chemscore.DG>
-20.1138

> <Gold.Chemscore.ZeroCoef>
-5.4800

> <Gold.Chemscore.Hbond>
2.4864

> <Gold.Chemscore.Metal>
0.0000

> <Gold.Chemscore.Lipo>
79.7932

> <Gold.Chemscore.Internal_Hbond>
0.0000

> <Gold.Chemscore.DEClash>
0.6043

> <Gold.Chemscore.DEInternal>
1.2445

> <Gold.Chemscore.Rot>
1.1744

> <Gold.Chemscore.Internal.Correction>
   9.000000E+99

> <Gold.Chemscore.Hbonds>
donor molecule, donor type, donor heavy atom, donor atom, acceptor molecule, acceptor atom, score
      L1  H     3    25       P1  7948  0.91
      L1  H    13    33       P1  7948  0.76
      P1  H  7989  7998       L1     6  0.21

> <Gold.Chemscore.Hbond.Weighted>
-8.3044

> <Gold.Chemscore.Metal.Weighted>
-0.0000

> <Gold.Chemscore.Lipo.Weighted>
-9.3358

> <Gold.Chemscore.Internal_Hbond.Weighted>
0.0000

> <Gold.Chemscore.DEClash.Weighted>
0.6043

> <Gold.Chemscore.DEInternal.Weighted>
1.2445

> <Gold.Chemscore.Rot.Weighted>
3.0064

> <Gold.Chemscore.Internal.Correction.Weighted>
   9.000000E+99

> <Gold.Protein.RotatedTorsions>
[ 6907 6896 6895 6894 ] final  -99.05 input  -60.11 | X-H torsion
[ 7974 7965 7964 7962 ] final  137.60 input  175.53 | X-H torsion
[ 8008 7997 7996 7995 ] final  141.59 input   59.86 | X-H torsion
[ 10167 10162 10161 10158 ] final -164.53 input  -65.29 | X-H torsion
[ 10718 10713 10712 10709 ] final   51.66 input   66.30 | X-H torsion
[ 10763 10752 10751 10750 ] final   66.30 input  -60.55 | X-H torsion
[ 11005 11000 10999 10996 ] final   80.88 input  -57.11 | X-H torsion

> <Gold.Protein.ActiveResidues>
 VAL166  LYS551  ARG553  GLY616  TRP617  ASP618  TYR619  PRO620  LYS621  CYS622 
 ASP623  PHE694  ASN695  SER759  ASP760  ASP761  ALA762  ILE779  LEU786  VAL792 
 PHE793  MET794  SER795  GLU796  ALA797  LYS798  CYS799  TRP800  GLU811  SER814 

> <Gold.Protein.RotatedAtoms>
  150.7067  134.1100  159.3996 H   0  0  0  0  0  0  0  0  0  0  0  0  # atno 6907 bound_to 6896
  151.9087  135.0346  160.0522 H   0  0  0  0  0  0  0  0  0  0  0  0  # atno 6908 bound_to 6896
  152.2354  133.5056  159.5276 H   0  0  0  0  0  0  0  0  0  0  0  0  # atno 6909 bound_to 6896
  144.9452  139.4883  143.5552 H   0  0  0  0  0  0  0  0  0  0  0  0  # atno 7974 bound_to 7965
  156.2963  140.2311  156.4590 H   0  0  0  0  0  0  0  0  0  0  0  0  # atno 8008 bound_to 7997
  154.8035  140.0447  157.1311 H   0  0  0  0  0  0  0  0  0  0  0  0  # atno 8009 bound_to 7997
  154.9506  140.3041  155.5080 H   0  0  0  0  0  0  0  0  0  0  0  0  # atno 8010 bound_to 7997
  139.6244  144.0561  152.1961 H   0  0  0  0  0  0  0  0  0  0  0  0  # atno 10167 bound_to 10162
  157.5002  130.8432  149.8307 H   0  0  0  0  0  0  0  0  0  0  0  0  # atno 10718 bound_to 10713
  153.0134  135.5325  154.6802 H   0  0  0  0  0  0  0  0  0  0  0  0  # atno 10763 bound_to 10752
  154.5964  135.2864  155.0584 H   0  0  0  0  0  0  0  0  0  0  0  0  # atno 10764 bound_to 10752
  154.1657  135.6540  153.5049 H   0  0  0  0  0  0  0  0  0  0  0  0  # atno 10765 bound_to 10752
  139.9118  134.7954  156.1967 H   0  0  0  0  0  0  0  0  0  0  0  0  # atno 11005 bound_to 11000
  146.3301  139.8500  142.8875 LP  0  0  0  0  0  0  0  0  0  0  0  0  # atno 17320 bound_to 7965
  145.2928  141.0172  143.3653 LP  0  0  0  0  0  0  0  0  0  0  0  0  # atno 17321 bound_to 7965
  140.0211  144.6152  150.7566 LP  0  0  0  0  0  0  0  0  0  0  0  0  # atno 17342 bound_to 10162
  140.7402  143.2801  151.3624 LP  0  0  0  0  0  0  0  0  0  0  0  0  # atno 17343 bound_to 10162
  156.0224  130.3791  150.1922 LP  0  0  0  0  0  0  0  0  0  0  0  0  # atno 17370 bound_to 10713
  157.0111  130.9951  151.3365 LP  0  0  0  0  0  0  0  0  0  0  0  0  # atno 17371 bound_to 10713
  141.0550  133.6870  156.1843 LP  0  0  0  0  0  0  0  0  0  0  0  0  # atno 17394 bound_to 11000
  140.6751  134.4826  157.5588 LP  0  0  0  0  0  0  0  0  0  0  0  0  # atno 17395 bound_to 11000

$$$$
