AV-unprocessed.smi:2217|AV-procd|sdf|8970|dock4
  -GOLD-   2272012183D 1   1.00000     0.00000
 Structure written by MMmdl.
 45 48  0  0  0  0  0  0  0  0  1 V2000
  150.8955  145.6594  160.0007 C   0  0  0  0  0  0  0  0  0  0  0  0
  151.5662  144.3070  159.8842 C   0  0  0  0  0  0  0  0  0  0  0  0
  151.1771  143.3846  158.8950 C   0  0  0  0  0  0  0  0  0  0  0  0
  151.8357  142.1416  158.8287 C   0  0  0  0  0  0  0  0  0  0  0  0
  152.8684  141.8473  159.7472 C   0  0  0  0  0  0  0  0  0  0  0  0
  153.4546  140.5562  159.5846 N   0  0  0  0  0  0  0  0  0  0  0  0
  154.4456  139.9339  160.2592 C   0  0  0  0  0  0  0  0  0  0  0  0
  155.0158  140.4816  161.2011 O   0  0  0  0  0  0  0  0  0  0  0  0
  154.7567  138.6992  159.8384 N   0  0  0  0  0  0  0  0  0  0  0  0
  155.8052  137.8374  160.3828 C   0  0  2  0  0  0  0  0  0  0  0  0
  155.8279  136.4375  159.7264 C   0  0  2  0  0  0  0  0  0  0  0  0
  155.0690  136.1168  158.4613 C   0  0  0  0  0  0  0  0  0  0  0  0
  153.7744  135.4904  158.9889 C   0  0  0  0  0  0  0  0  0  0  0  0
  153.6771  135.9301  160.3422 O   0  0  0  0  0  0  0  0  0  0  0  0
  154.9916  135.9404  160.8951 C   0  0  2  0  0  0  0  0  0  0  0  0
  155.3805  137.1853  161.7197 C   0  0  0  0  0  0  0  0  0  0  0  0
  154.2974  137.8309  162.5846 C   0  0  0  0  0  0  0  0  0  0  0  0
  154.3624  137.1504  163.9524 C   0  0  0  0  0  0  0  0  0  0  0  0
  155.8034  136.6505  164.0914 C   0  0  0  0  0  0  0  0  0  0  0  0
  156.4836  136.9596  162.7532 C   0  0  0  0  0  0  0  0  0  0  0  0
  153.2334  142.7462  160.6969 N   0  0  0  0  0  0  0  0  0  0  0  0
  152.6034  143.9375  160.7612 C   0  0  0  0  0  0  0  0  0  0  0  0
  149.9080  145.6477  159.5385 H   0  0  0  0  0  0  0  0  0  0  0  0
  151.4979  146.4216  159.5061 H   0  0  0  0  0  0  0  0  0  0  0  0
  150.7765  145.9399  161.0476 H   0  0  0  0  0  0  0  0  0  0  0  0
  150.3879  143.6217  158.1968 H   0  0  0  0  0  0  0  0  0  0  0  0
  151.5472  141.4230  158.0753 H   0  0  0  0  0  0  0  0  0  0  0  0
  153.0367  140.0000  158.8531 H   0  0  0  0  0  0  0  0  0  0  0  0
  154.2330  138.3293  159.0571 H   0  0  0  0  0  0  0  0  0  0  0  0
  156.7932  138.2986  160.4286 H   0  0  0  0  0  0  0  0  0  0  0  0
  156.8328  136.0133  159.7566 H   0  0  0  0  0  0  0  0  0  0  0  0
  154.8650  137.0076  157.8674 H   0  0  0  0  0  0  0  0  0  0  0  0
  155.6100  135.4186  157.8223 H   0  0  0  0  0  0  0  0  0  0  0  0
  152.8983  135.7844  158.4102 H   0  0  0  0  0  0  0  0  0  0  0  0
  153.8433  134.4018  158.9749 H   0  0  0  0  0  0  0  0  0  0  0  0
  155.3073  134.9751  161.2935 H   0  0  0  0  0  0  0  0  0  0  0  0
  154.5032  138.8959  162.7022 H   0  0  0  0  0  0  0  0  0  0  0  0
  153.3010  137.7504  162.1492 H   0  0  0  0  0  0  0  0  0  0  0  0
  154.0781  137.8288  164.7572 H   0  0  0  0  0  0  0  0  0  0  0  0
  153.6763  136.3029  163.9775 H   0  0  0  0  0  0  0  0  0  0  0  0
  156.3237  137.1365  164.9173 H   0  0  0  0  0  0  0  0  0  0  0  0
  155.8091  135.5774  164.2862 H   0  0  0  0  0  0  0  0  0  0  0  0
  157.1697  136.1624  162.4644 H   0  0  0  0  0  0  0  0  0  0  0  0
  157.0841  137.8646  162.8570 H   0  0  0  0  0  0  0  0  0  0  0  0
  152.9384  144.6122  161.5352 H   0  0  0  0  0  0  0  0  0  0  0  0
  1  2  1  0  0  0  0
  1 23  1  0  0  0  0
  1 24  1  0  0  0  0
  1 25  1  0  0  0  0
  2 22  1  0  0  0  0
  2  3  2  0  0  0  0
  3  4  1  0  0  0  0
  3 26  1  0  0  0  0
  4  5  2  0  0  0  0
  4 27  1  0  0  0  0
  5  6  1  0  0  0  0
  5 21  1  0  0  0  0
  6  7  1  0  0  0  0
  6 28  1  0  0  0  0
  7  8  2  0  0  0  0
  7  9  1  0  0  0  0
  9 10  1  0  0  0  0
  9 29  1  0  0  0  0
 10 16  1  0  0  0  0
 10 11  1  0  0  0  0
 10 30  1  0  0  0  0
 11 15  1  0  0  0  0
 11 12  1  0  0  0  0
 11 31  1  0  0  0  0
 12 13  1  0  0  0  0
 12 32  1  0  0  0  0
 12 33  1  0  0  0  0
 13 14  1  0  0  0  0
 13 34  1  0  0  0  0
 13 35  1  0  0  0  0
 14 15  1  0  0  0  0
 15 16  1  0  0  0  0
 15 36  1  0  0  0  0
 16 20  1  0  0  0  0
 16 17  1  0  0  0  0
 17 18  1  0  0  0  0
 17 37  1  0  0  0  0
 17 38  1  0  0  0  0
 18 19  1  0  0  0  0
 18 39  1  0  0  0  0
 18 40  1  0  0  0  0
 19 20  1  0  0  0  0
 19 41  1  0  0  0  0
 19 42  1  0  0  0  0
 20 43  1  0  0  0  0
 20 44  1  0  0  0  0
 21 22  2  0  0  0  0
 22 45  1  0  0  0  0
M  END
> <s_m_source_file>
AV-unprocessed.smi

> <i_m_source_file_index>
2217

> <i_lp_mmshare_version>
43012

> <i_f3d_flags>
0

> <s_epik_input>
W0NIM11jMVtjSF1bY0hdYyhuW2NIXTEpW05IXUMoPU8pW05IXVtDQEBIXTJbQ0BASF0oW0NIMl1bQ0gyXU8zKVtDQEhdM0MyNFtDSDJdW0NIMl1bQ0gyXVtDSDJdNA==

> <s_epik_cmdline>
J2VwaWtfcHl0aG9uJywgJy1waCcsICc3LjAnLCAnLXRuJywgJzgnLCAnLW1hJywgJzIwMCcsICctbWV0YWxfYmluZGluZycsICctaW1hZScsICc8aW5maWxlLm1hZT4nLCAnLW9tYWUnLCAnPG91dGZpbGUubWFlPic=

> <r_lp_tautomer_probability>
1

> <r_epik_Ionization_Penalty>
6.14796e-05

> <r_epik_Ionization_Penalty_Charging>
0

> <r_epik_Ionization_Penalty_Neutral>
6.14796e-05

> <r_epik_State_Penalty>
-0

> <r_epik_Charging_Adjusted_Penalty>
0

> <i_epik_Tot_Q>
0

> <i_epik_Tot_abs_Q>
0

> <r_epik_Metal_State_Penalty>
-0

> <b_epik_Metal_Only>
0

> <s_lp_Force_Field>
OPLS_2005

> <r_lp_Energy>
58.8698

> <b_lp_Chiralities_Consistent>
1

> <s_lp_Variant>
AV-unprocessed.smi:2217-3

> <Gold.Version>
5.8.1

> <Gold.Id.Protein>
6NUR|6NUR_protein|mol2

> <Gold.PLP.Fitness>
39.1572

> <Gold.PLP.PLP>
-36.3194

> <Gold.PLP.part.hbond>
-1.0000

> <Gold.PLP.part.metal>
0.0000

> <Gold.PLP.part.buried>
-6.4399

> <Gold.PLP.part.nonpolar>
-30.0305

> <Gold.PLP.part.repulsive>
0.1265

> <Gold.PLP.ligand.clash>
0.0000

> <Gold.PLP.ligand.torsion>
0.1220

> <Gold.PLP.Chemscore.Hbond>
0.9588

> <Gold.PLP.Chemscore.CHOScore>
0.0000

> <Gold.PLP.Chemscore.Metal>
0.0000

> <Gold.PLP.Chemscore.Internal.Correction>
0.2055

> <Gold.Rescore>
     Score         DG    S(hbond)    S(metal)    S(lipo)     H(rot)  DE(clash)    DE(int)     intcor
     16.08     -17.46       0.90        0.00      98.69       1.00       0.02       1.36       ----

> <Gold.Chemscore.Fitness>
16.0755

> <Gold.Chemscore.DG>
-17.4603

> <Gold.Chemscore.ZeroCoef>
-5.4800

> <Gold.Chemscore.Hbond>
0.8962

> <Gold.Chemscore.Metal>
0.0000

> <Gold.Chemscore.Lipo>
98.6916

> <Gold.Chemscore.Internal_Hbond>
0.0000

> <Gold.Chemscore.DEClash>
0.0234

> <Gold.Chemscore.DEInternal>
1.3613

> <Gold.Chemscore.Rot>
1.0000

> <Gold.Chemscore.Internal.Correction>
   9.000000E+99

> <Gold.Chemscore.Hbond.Weighted>
-2.9934

> <Gold.Chemscore.Metal.Weighted>
-0.0000

> <Gold.Chemscore.Lipo.Weighted>
-11.5469

> <Gold.Chemscore.Internal_Hbond.Weighted>
0.0000

> <Gold.Chemscore.DEClash.Weighted>
0.0234

> <Gold.Chemscore.DEInternal.Weighted>
1.3613

> <Gold.Chemscore.Rot.Weighted>
2.5600

> <Gold.Chemscore.Internal.Correction.Weighted>
   9.000000E+99

> <Gold.Protein.RotatedTorsions>
[ 6907 6896 6895 6894 ] final   43.64 input  -60.11 | X-H torsion
[ 7974 7965 7964 7962 ] final -139.26 input  175.53 | X-H torsion
[ 8008 7997 7996 7995 ] final   63.07 input   59.86 | X-H torsion
[ 10167 10162 10161 10158 ] final  -27.95 input  -65.29 | X-H torsion
[ 10718 10713 10712 10709 ] final   74.03 input   66.30 | X-H torsion
[ 10763 10752 10751 10750 ] final   75.52 input  -60.55 | X-H torsion
[ 11005 11000 10999 10996 ] final  114.85 input  -57.11 | X-H torsion

> <Gold.Protein.ActiveResidues>
 VAL166  LYS551  ARG553  GLY616  TRP617  ASP618  TYR619  PRO620  LYS621  CYS622 
 ASP623  PHE694  ASN695  SER759  ASP760  ASP761  ALA762  ILE779  LEU786  VAL792 
 PHE793  MET794  SER795  GLU796  ALA797  LYS798  CYS799  TRP800  GLU811  SER814 

> <Gold.Protein.RotatedAtoms>
  152.2228  134.8397  160.0483 H   0  0  0  0  0  0  0  0  0  0  0  0  # atno 6907 bound_to 6896
  151.9174  133.3571  159.3893 H   0  0  0  0  0  0  0  0  0  0  0  0  # atno 6908 bound_to 6896
  150.7004  134.4595  159.5418 H   0  0  0  0  0  0  0  0  0  0  0  0  # atno 6909 bound_to 6896
  144.8691  140.6339  143.5278 H   0  0  0  0  0  0  0  0  0  0  0  0  # atno 7974 bound_to 7965
  155.6244  140.3496  155.4662 H   0  0  0  0  0  0  0  0  0  0  0  0  # atno 8008 bound_to 7997
  156.0053  140.1222  157.0531 H   0  0  0  0  0  0  0  0  0  0  0  0  # atno 8009 bound_to 7997
  154.4262  140.1092  156.5740 H   0  0  0  0  0  0  0  0  0  0  0  0  # atno 8010 bound_to 7997
  140.7273  143.4051  151.1200 H   0  0  0  0  0  0  0  0  0  0  0  0  # atno 10167 bound_to 10162
  157.6574  130.9658  150.1154 H   0  0  0  0  0  0  0  0  0  0  0  0  # atno 10718 bound_to 10713
  153.0661  135.4985  154.8202 H   0  0  0  0  0  0  0  0  0  0  0  0  # atno 10763 bound_to 10752
  154.6955  135.2992  154.9420 H   0  0  0  0  0  0  0  0  0  0  0  0  # atno 10764 bound_to 10752
  154.0161  135.6748  153.4821 H   0  0  0  0  0  0  0  0  0  0  0  0  # atno 10765 bound_to 10752
  139.8992  134.9575  156.6956 H   0  0  0  0  0  0  0  0  0  0  0  0  # atno 11005 bound_to 11000
  145.4164  139.1571  143.4098 LP  0  0  0  0  0  0  0  0  0  0  0  0  # atno 17320 bound_to 7965
  146.2917  140.4271  142.8737 LP  0  0  0  0  0  0  0  0  0  0  0  0  # atno 17321 bound_to 7965
  139.7676  143.8542  152.3114 LP  0  0  0  0  0  0  0  0  0  0  0  0  # atno 17342 bound_to 10162
  139.8449  144.7192  150.9285 LP  0  0  0  0  0  0  0  0  0  0  0  0  # atno 17343 bound_to 10162
  156.2039  130.3662  149.8753 LP  0  0  0  0  0  0  0  0  0  0  0  0  # atno 17370 bound_to 10713
  156.6650  130.8797  151.3553 LP  0  0  0  0  0  0  0  0  0  0  0  0  # atno 17371 bound_to 10713
  140.7191  133.9157  155.8134 LP  0  0  0  0  0  0  0  0  0  0  0  0  # atno 17394 bound_to 11000
  141.0241  134.0847  157.4087 LP  0  0  0  0  0  0  0  0  0  0  0  0  # atno 17395 bound_to 11000

$$$$
