AV-unprocessed.smi:438|AV-procd|sdf|2578|dock6
  -GOLD-   2262022563D 1   1.00000     0.00000
 Structure written by MMmdl.
 48 49  0  0  0  0  0  0  0  0  1 V2000
  145.4887  136.4277  155.2287 C   0  0  0  0  0  0  0  0  0  0  0  0
  146.1282  137.3686  154.2243 C   0  0  0  0  0  0  0  0  0  0  0  0
  147.0264  138.2430  154.7279 N   0  0  0  0  0  0  0  0  0  0  0  0
  147.5893  139.0839  153.8614 C   0  0  0  0  0  0  0  0  0  0  0  0
  148.7003  140.2834  154.5673 S   0  0  0  0  0  0  0  0  0  0  0  0
  150.0262  139.2112  155.2159 C   0  0  0  0  0  0  0  0  0  0  0  0
  151.1836  139.9625  155.8810 C   0  0  0  0  0  0  0  0  0  0  0  0
  152.3104  139.9038  155.3899 O   0  0  0  0  0  0  0  0  0  0  0  0
  150.8937  140.6810  156.9774 N   0  0  0  0  0  0  0  0  0  0  0  0
  151.8176  141.5757  157.6697 C   0  0  1  0  0  0  0  0  0  0  0  0
  151.3063  143.0277  157.5531 C   0  0  0  0  0  0  0  0  0  0  0  0
  152.2052  144.0111  158.3145 C   0  0  0  0  0  0  0  0  0  0  0  0
  152.3420  143.5993  159.7865 C   0  0  0  0  0  0  0  0  0  0  0  0
  152.8644  142.1600  159.9106 C   0  0  0  0  0  0  0  0  0  0  0  0
  151.9724  141.1555  159.1524 C   0  0  2  0  0  0  0  0  0  0  0  0
  152.5186  139.7245  159.3051 C   0  0  0  0  0  0  0  0  0  0  0  0
  147.3829  139.1497  152.5451 N   0  0  0  0  0  0  0  0  0  0  0  0
  146.4860  138.2837  152.0270 C   0  0  0  0  0  0  0  0  0  0  0  0
  146.2536  138.3334  150.6833 O   0  0  0  0  0  0  0  0  0  0  0  0
  145.8023  137.3487  152.8441 C   0  0  0  0  0  0  0  0  0  0  0  0
  144.7825  136.3790  152.2612 C   0  0  0  0  0  0  0  0  0  0  0  0
  145.4007  135.4582  151.2011 C   0  0  0  0  0  0  0  0  0  0  0  0
  144.7475  135.6475  149.9652 O   0  0  0  0  0  0  0  0  0  0  0  0
  145.5664  135.3941  154.8911 H   0  0  0  0  0  0  0  0  0  0  0  0
  144.4345  136.6739  155.3578 H   0  0  0  0  0  0  0  0  0  0  0  0
  145.9724  136.4978  156.2039 H   0  0  0  0  0  0  0  0  0  0  0  0
  149.5941  138.5187  155.9380 H   0  0  0  0  0  0  0  0  0  0  0  0
  150.4148  138.6072  154.3952 H   0  0  0  0  0  0  0  0  0  0  0  0
  149.9418  140.6625  157.3147 H   0  0  0  0  0  0  0  0  0  0  0  0
  152.7992  141.5118  157.1959 H   0  0  0  0  0  0  0  0  0  0  0  0
  151.2459  143.3257  156.5055 H   0  0  0  0  0  0  0  0  0  0  0  0
  150.2924  143.0924  157.9496 H   0  0  0  0  0  0  0  0  0  0  0  0
  153.1906  144.0440  157.8477 H   0  0  0  0  0  0  0  0  0  0  0  0
  151.7947  145.0188  158.2456 H   0  0  0  0  0  0  0  0  0  0  0  0
  153.0140  144.2850  160.3033 H   0  0  0  0  0  0  0  0  0  0  0  0
  151.3736  143.6820  160.2818 H   0  0  0  0  0  0  0  0  0  0  0  0
  153.8834  142.1109  159.5246 H   0  0  0  0  0  0  0  0  0  0  0  0
  152.9217  141.8857  160.9646 H   0  0  0  0  0  0  0  0  0  0  0  0
  150.9843  141.1788  159.6155 H   0  0  0  0  0  0  0  0  0  0  0  0
  153.4964  139.6226  158.8335 H   0  0  0  0  0  0  0  0  0  0  0  0
  151.8526  138.9887  158.8540 H   0  0  0  0  0  0  0  0  0  0  0  0
  152.6283  139.4579  160.3565 H   0  0  0  0  0  0  0  0  0  0  0  0
  145.3323  138.3270  150.4738 H   0  0  0  0  0  0  0  0  0  0  0  0
  144.3357  135.7848  153.0582 H   0  0  0  0  0  0  0  0  0  0  0  0
  143.9573  136.9443  151.8264 H   0  0  0  0  0  0  0  0  0  0  0  0
  146.4632  135.6702  151.0777 H   0  0  0  0  0  0  0  0  0  0  0  0
  145.3079  134.4121  151.4947 H   0  0  0  0  0  0  0  0  0  0  0  0
  145.3829  135.5530  149.2722 H   0  0  0  0  0  0  0  0  0  0  0  0
  1  2  1  0  0  0  0
  1 24  1  0  0  0  0
  1 25  1  0  0  0  0
  1 26  1  0  0  0  0
  2 20  1  0  0  0  0
  2  3  2  0  0  0  0
  3  4  1  0  0  0  0
  4  5  1  0  0  0  0
  4 17  2  0  0  0  0
  5  6  1  0  0  0  0
  6  7  1  0  0  0  0
  6 27  1  0  0  0  0
  6 28  1  0  0  0  0
  7  8  2  0  0  0  0
  7  9  1  0  0  0  0
  9 10  1  0  0  0  0
  9 29  1  0  0  0  0
 10 15  1  0  0  0  0
 10 11  1  0  0  0  0
 10 30  1  0  0  0  0
 11 12  1  0  0  0  0
 11 31  1  0  0  0  0
 11 32  1  0  0  0  0
 12 13  1  0  0  0  0
 12 33  1  0  0  0  0
 12 34  1  0  0  0  0
 13 14  1  0  0  0  0
 13 35  1  0  0  0  0
 13 36  1  0  0  0  0
 14 15  1  0  0  0  0
 14 37  1  0  0  0  0
 14 38  1  0  0  0  0
 15 16  1  0  0  0  0
 15 39  1  0  0  0  0
 16 40  1  0  0  0  0
 16 41  1  0  0  0  0
 16 42  1  0  0  0  0
 17 18  1  0  0  0  0
 18 19  1  0  0  0  0
 18 20  2  0  0  0  0
 19 43  1  0  0  0  0
 20 21  1  0  0  0  0
 21 22  1  0  0  0  0
 21 44  1  0  0  0  0
 21 45  1  0  0  0  0
 22 23  1  0  0  0  0
 22 46  1  0  0  0  0
 22 47  1  0  0  0  0
 23 48  1  0  0  0  0
M  END
> <s_m_source_file>
AV-unprocessed.smi

> <i_m_source_file_index>
438

> <i_lp_mmshare_version>
43012

> <i_f3d_flags>
0

> <s_epik_input>
W09IXVtDSDJdW0NIMl1jMWMoW09IXSluYyhuYzFbQ0gzXSlTW0NIMl1DKD1PKVtOSF1bQ0BASF0yW0NIMl1bQ0gyXVtDSDJdW0NIMl1bQ0BIXTJbQ0gzXQ==

> <s_epik_cmdline>
J2VwaWtfcHl0aG9uJywgJy1waCcsICc3LjAnLCAnLXRuJywgJzgnLCAnLW1hJywgJzIwMCcsICctbWV0YWxfYmluZGluZycsICctaW1hZScsICc8aW5maWxlLm1hZT4nLCAnLW9tYWUnLCAnPG91dGZpbGUubWFlPic=

> <r_lp_tautomer_probability>
0.0660145

> <r_epik_Ionization_Penalty>
2.91405

> <r_epik_Ionization_Penalty_Charging>
0

> <r_epik_Ionization_Penalty_Neutral>
2.91405

> <r_epik_State_Penalty>
2.44767

> <r_epik_Charging_Adjusted_Penalty>
2.44767

> <i_epik_Tot_Q>
0

> <i_epik_Tot_abs_Q>
0

> <r_epik_Metal_State_Penalty>
3.04288

> <b_epik_Metal_Only>
0

> <s_lp_Force_Field>
OPLS_2005

> <r_lp_Energy>
-0.453605

> <b_lp_Chiralities_Consistent>
1

> <s_lp_Variant>
AV-unprocessed.smi:438-16

> <Gold.Version>
5.8.1

> <Gold.Id.Protein>
6NUR|6NUR_protein|mol2

> <Gold.PLP.Fitness>
55.1995

> <Gold.PLP.PLP>
-44.7373

> <Gold.PLP.part.hbond>
-5.5143

> <Gold.PLP.part.metal>
0.0000

> <Gold.PLP.part.buried>
-7.9340

> <Gold.PLP.part.nonpolar>
-36.4209

> <Gold.PLP.part.repulsive>
3.7386

> <Gold.PLP.ligand.clash>
0.0000

> <Gold.PLP.ligand.torsion>
0.4189

> <Gold.PLP.Chemscore.Hbond>
3.7580

> <Gold.PLP.Chemscore.CHOScore>
0.0000

> <Gold.PLP.Chemscore.Metal>
0.0000

> <Gold.Chemscore.Hbonds>
donor molecule, donor type, donor heavy atom, donor atom, acceptor molecule, acceptor atom, score
      L1  H    19    43       P1 10171  1.00
      L1  H    23    48       P1  7921  1.00
      P1  H  7954  7966       L1    19  0.71
      P1  H  7989  7998       L1     8  0.25
      P1  H  7997  8010       L1     8  0.60

> <Gold.PLP.Chemscore.Internal.Correction>
0.0260

> <Gold.Rescore>
     Score         DG    S(hbond)    S(metal)    S(lipo)     H(rot)  DE(clash)    DE(int)     intcor
     17.13     -19.33       3.30        0.00      99.32       3.44       1.64       0.56       ----

> <Gold.Chemscore.Fitness>
17.1276

> <Gold.Chemscore.DG>
-19.3262

> <Gold.Chemscore.ZeroCoef>
-5.4800

> <Gold.Chemscore.Hbond>
3.2999

> <Gold.Chemscore.Metal>
0.0000

> <Gold.Chemscore.Lipo>
99.3216

> <Gold.Chemscore.Internal_Hbond>
0.0000

> <Gold.Chemscore.DEClash>
1.6419

> <Gold.Chemscore.DEInternal>
0.5567

> <Gold.Chemscore.Rot>
3.4359

> <Gold.Chemscore.Internal.Correction>
   9.000000E+99

> <Gold.Chemscore.Hbonds>
donor molecule, donor type, donor heavy atom, donor atom, acceptor molecule, acceptor atom, score
      L1  H    19    43       P1 10171  0.99
      L1  H    23    48       P1  7921  0.98
      P1  H  7954  7966       L1    19  0.27
      P1  H  7989  7998       L1     8  0.02
      P1  H  7997  8010       L1     8  0.60

> <Gold.Chemscore.Hbond.Weighted>
-11.0216

> <Gold.Chemscore.Metal.Weighted>
-0.0000

> <Gold.Chemscore.Lipo.Weighted>
-11.6206

> <Gold.Chemscore.Internal_Hbond.Weighted>
0.0000

> <Gold.Chemscore.DEClash.Weighted>
1.6419

> <Gold.Chemscore.DEInternal.Weighted>
0.5567

> <Gold.Chemscore.Rot.Weighted>
8.7960

> <Gold.Chemscore.Internal.Correction.Weighted>
   9.000000E+99

> <Gold.Protein.RotatedTorsions>
[ 6907 6896 6895 6894 ] final  130.10 input  -60.11 | X-H torsion
[ 7974 7965 7964 7962 ] final   49.19 input  175.53 | X-H torsion
[ 8008 7997 7996 7995 ] final   91.31 input   59.86 | X-H torsion
[ 10167 10162 10161 10158 ] final -173.33 input  -65.29 | X-H torsion
[ 10718 10713 10712 10709 ] final  -80.58 input   66.30 | X-H torsion
[ 10763 10752 10751 10750 ] final   20.02 input  -60.55 | X-H torsion
[ 11005 11000 10999 10996 ] final   27.36 input  -57.11 | X-H torsion

> <Gold.Protein.ActiveResidues>
 VAL166  LYS551  ARG553  GLY616  TRP617  ASP618  TYR619  PRO620  LYS621  CYS622 
 ASP623  PHE694  ASN695  SER759  ASP760  ASP761  ALA762  ILE779  LEU786  VAL792 
 PHE793  MET794  SER795  GLU796  ALA797  LYS798  CYS799  TRP800  GLU811  SER814 

> <Gold.Protein.RotatedAtoms>
  152.3559  133.6236  159.5978 H   0  0  0  0  0  0  0  0  0  0  0  0  # atno 6907 bound_to 6896
  150.7568  133.9501  159.3492 H   0  0  0  0  0  0  0  0  0  0  0  0  # atno 6908 bound_to 6896
  151.7346  135.0868  160.0357 H   0  0  0  0  0  0  0  0  0  0  0  0  # atno 6909 bound_to 6896
  146.0132  139.4567  142.9943 H   0  0  0  0  0  0  0  0  0  0  0  0  # atno 7974 bound_to 7965
  156.0223  140.3339  155.7051 H   0  0  0  0  0  0  0  0  0  0  0  0  # atno 8008 bound_to 7997
  155.6005  140.0655  157.2752 H   0  0  0  0  0  0  0  0  0  0  0  0  # atno 8009 bound_to 7997
  154.4320  140.1811  156.1156 H   0  0  0  0  0  0  0  0  0  0  0  0  # atno 8010 bound_to 7997
  139.5694  144.1677  152.1362 H   0  0  0  0  0  0  0  0  0  0  0  0  # atno 10167 bound_to 10162
  156.0067  130.4578  150.3822 H   0  0  0  0  0  0  0  0  0  0  0  0  # atno 10718 bound_to 10713
  153.1112  135.6697  153.9496 H   0  0  0  0  0  0  0  0  0  0  0  0  # atno 10763 bound_to 10752
  153.9039  135.3033  155.3450 H   0  0  0  0  0  0  0  0  0  0  0  0  # atno 10764 bound_to 10752
  154.7532  135.5024  153.9404 H   0  0  0  0  0  0  0  0  0  0  0  0  # atno 10765 bound_to 10752
  140.3272  134.2478  155.7708 H   0  0  0  0  0  0  0  0  0  0  0  0  # atno 11005 bound_to 11000
  145.7309  141.0042  143.1352 LP  0  0  0  0  0  0  0  0  0  0  0  0  # atno 17320 bound_to 7965
  144.6961  139.8983  143.7457 LP  0  0  0  0  0  0  0  0  0  0  0  0  # atno 17321 bound_to 7965
  140.1207  144.5376  150.6865 LP  0  0  0  0  0  0  0  0  0  0  0  0  # atno 17342 bound_to 10162
  140.6978  143.2415  151.4950 LP  0  0  0  0  0  0  0  0  0  0  0  0  # atno 17343 bound_to 10162
  157.1901  131.0413  151.2704 LP  0  0  0  0  0  0  0  0  0  0  0  0  # atno 17370 bound_to 10713
  157.4069  130.7363  149.6809 LP  0  0  0  0  0  0  0  0  0  0  0  0  # atno 17371 bound_to 10713
  141.2072  133.7811  157.0131 LP  0  0  0  0  0  0  0  0  0  0  0  0  # atno 17394 bound_to 11000
  140.0892  134.9603  157.1748 LP  0  0  0  0  0  0  0  0  0  0  0  0  # atno 17395 bound_to 11000

$$$$
