AV-unprocessed.smi:283|AV-procd|sdf|2130|dock10
  -GOLD-   2262021443D 1   1.00000     0.00000
 Structure written by MMmdl.
 48 51  0  0  0  0  0  0  0  0  1 V2000
  152.1957  140.2408  156.7720 C   0  0  0  0  0  0  0  0  0  0  0  0
  150.9852  141.0743  157.2306 C   0  0  1  0  0  0  0  0  0  0  0  0
  149.9920  140.2397  157.9057 N   0  0  0  0  0  0  0  0  0  0  0  0
  148.7449  140.0754  157.4112 C   0  0  0  0  0  0  0  0  0  0  0  0
  147.6444  140.3100  158.1726 N   0  0  0  0  0  0  0  0  0  0  0  0
  146.4243  140.1328  157.6574 C   0  0  0  0  0  0  0  0  0  0  0  0
  146.0873  139.7336  156.4286 N   0  0  0  0  0  0  0  0  0  0  0  0
  147.1897  139.4932  155.6608 C   0  0  0  0  0  0  0  0  0  0  0  0
  148.5419  139.6359  156.0776 C   0  0  0  0  0  0  0  0  0  0  0  0
  149.3924  139.2929  155.0361 N   0  0  0  0  0  0  0  0  0  0  0  0
  148.5844  138.9593  154.0658 C   0  0  0  0  0  0  0  0  0  0  0  0
  147.2366  139.0692  154.3493 N   0  0  0  0  0  0  0  0  0  0  0  0
  146.0395  138.7454  153.5009 C   0  0  2  0  0  0  0  0  0  0  0  0
  145.3764  137.6792  154.1062 O   0  0  0  0  0  0  0  0  0  0  0  0
  145.8192  136.4568  153.5306 C   0  0  1  0  0  0  0  0  0  0  0  0
  144.8509  135.3050  153.8568 C   0  0  0  0  0  0  0  0  0  0  0  0
  145.3282  134.0981  153.3014 O   0  0  0  0  0  0  0  0  0  0  0  0
  145.9416  136.8305  152.0451 C   0  0  1  0  0  0  0  0  0  0  0  0
  144.6889  136.6978  151.3922 O   0  0  0  0  0  0  0  0  0  0  0  0
  146.4396  138.2811  152.0858 C   0  0  1  0  0  0  0  0  0  0  0  0
  145.8818  139.0888  151.0657 O   0  0  0  0  0  0  0  0  0  0  0  0
  151.4555  142.2411  158.0976 C   0  0  0  0  0  0  0  0  0  0  0  0
  151.1002  143.5661  157.7508 C   0  0  0  0  0  0  0  0  0  0  0  0
  151.5190  144.6529  158.5411 C   0  0  0  0  0  0  0  0  0  0  0  0
  152.2937  144.4270  159.6927 C   0  0  0  0  0  0  0  0  0  0  0  0
  152.6424  143.1130  160.0552 C   0  0  0  0  0  0  0  0  0  0  0  0
  152.2250  142.0206  159.2684 C   0  0  0  0  0  0  0  0  0  0  0  0
  152.6674  140.4277  159.7762 Cl  0  0  0  0  0  0  0  0  0  0  0  0
  145.4250  139.6461  153.5122 H   0  0  0  0  0  0  0  0  0  0  0  0
  146.8128  136.2164  153.9108 H   0  0  0  0  0  0  0  0  0  0  0  0
  146.6519  136.1809  151.5327 H   0  0  0  0  0  0  0  0  0  0  0  0
  147.5222  138.3100  151.9692 H   0  0  0  0  0  0  0  0  0  0  0  0
  152.9106  140.8588  156.2283 H   0  0  0  0  0  0  0  0  0  0  0  0
  151.9032  139.4274  156.1087 H   0  0  0  0  0  0  0  0  0  0  0  0
  152.7180  139.8015  157.6225 H   0  0  0  0  0  0  0  0  0  0  0  0
  150.4981  141.4939  156.3514 H   0  0  0  0  0  0  0  0  0  0  0  0
  150.3204  139.7521  158.7267 H   0  0  0  0  0  0  0  0  0  0  0  0
  145.6008  140.3400  158.3247 H   0  0  0  0  0  0  0  0  0  0  0  0
  148.9645  138.6233  153.1125 H   0  0  0  0  0  0  0  0  0  0  0  0
  144.7104  135.1931  154.9323 H   0  0  0  0  0  0  0  0  0  0  0  0
  143.8719  135.5009  153.4183 H   0  0  0  0  0  0  0  0  0  0  0  0
  144.7343  133.4020  153.5373 H   0  0  0  0  0  0  0  0  0  0  0  0
  144.4241  137.5492  151.0788 H   0  0  0  0  0  0  0  0  0  0  0  0
  145.1320  139.5434  151.4183 H   0  0  0  0  0  0  0  0  0  0  0  0
  150.4979  143.7607  156.8757 H   0  0  0  0  0  0  0  0  0  0  0  0
  151.2432  145.6599  158.2646 H   0  0  0  0  0  0  0  0  0  0  0  0
  152.6153  145.2596  160.3007 H   0  0  0  0  0  0  0  0  0  0  0  0
  153.2304  142.9427  160.9451 H   0  0  0  0  0  0  0  0  0  0  0  0
  1  2  1  0  0  0  0
  1 33  1  0  0  0  0
  1 34  1  0  0  0  0
  1 35  1  0  0  0  0
  2  3  1  0  0  0  0
  2 22  1  0  0  0  0
  2 36  1  0  0  0  0
  3  4  1  0  0  0  0
  3 37  1  0  0  0  0
  4  9  1  0  0  0  0
  4  5  2  0  0  0  0
  5  6  1  0  0  0  0
  6  7  2  0  0  0  0
  6 38  1  0  0  0  0
  7  8  1  0  0  0  0
  8 12  1  0  0  0  0
  8  9  2  0  0  0  0
  9 10  1  0  0  0  0
 10 11  2  0  0  0  0
 11 12  1  0  0  0  0
 11 39  1  0  0  0  0
 12 13  1  0  0  0  0
 13 29  1  0  0  0  0
 13 20  1  0  0  0  0
 13 14  1  0  0  0  0
 14 15  1  0  0  0  0
 15 30  1  0  0  0  0
 15 16  1  0  0  0  0
 15 18  1  0  0  0  0
 16 17  1  0  0  0  0
 16 40  1  0  0  0  0
 16 41  1  0  0  0  0
 17 42  1  0  0  0  0
 18 31  1  0  0  0  0
 18 19  1  0  0  0  0
 18 20  1  0  0  0  0
 19 43  1  0  0  0  0
 20 32  1  0  0  0  0
 20 21  1  0  0  0  0
 21 44  1  0  0  0  0
 22 27  1  0  0  0  0
 22 23  2  0  0  0  0
 23 24  1  0  0  0  0
 23 45  1  0  0  0  0
 24 25  2  0  0  0  0
 24 46  1  0  0  0  0
 25 26  1  0  0  0  0
 25 47  1  0  0  0  0
 26 27  2  0  0  0  0
 26 48  1  0  0  0  0
 27 28  1  0  0  0  0
M  END
> <s_m_source_file>
AV-unprocessed.smi

> <i_m_source_file_index>
283

> <i_lp_mmshare_version>
43012

> <i_f3d_flags>
0

> <s_epik_input>
Q2xjMVtjSF1bY0hdW2NIXVtjSF1jMVtDQEhdKFtDSDNdKVtOSF1jKG5bY0hdbjIpYyhjMjMpbltjSF1uM1tDQEBIXTRPW0NASF0oW0NIMl1bT0hdKVtDQEBIXShbT0hdKVtDQEhdNFtPSF0=

> <s_epik_cmdline>
J2VwaWtfcHl0aG9uJywgJy1waCcsICc3LjAnLCAnLXRuJywgJzgnLCAnLW1hJywgJzIwMCcsICctbWV0YWxfYmluZGluZycsICctaW1hZScsICc8aW5maWxlLm1hZT4nLCAnLW9tYWUnLCAnPG91dGZpbGUubWFlPic=

> <r_lp_tautomer_probability>
1

> <r_epik_Ionization_Penalty>
0.000266407

> <r_epik_Ionization_Penalty_Charging>
0

> <r_epik_Ionization_Penalty_Neutral>
0.000266407

> <r_epik_State_Penalty>
-0

> <r_epik_Charging_Adjusted_Penalty>
0

> <i_epik_Tot_Q>
0

> <i_epik_Tot_abs_Q>
0

> <r_epik_Metal_State_Penalty>
-0

> <b_epik_Metal_Only>
0

> <s_epik_Chemistry_Notes>
This compound contains an acetal/aminal-like group ( X-CH(R)-Y where X, Y are N, S, or O) that may be acid/base labile, releasing an aldehyde.

> <s_lp_Force_Field>
OPLS_2005

> <r_lp_Energy>
48.0921

> <b_lp_Chiralities_Consistent>
1

> <s_lp_Variant>
AV-unprocessed.smi:283-6

> <Gold.Version>
5.8.1

> <Gold.Id.Protein>
6NUR|6NUR_protein|mol2

> <Gold.PLP.Fitness>
47.3458

> <Gold.PLP.PLP>
-37.3459

> <Gold.PLP.part.hbond>
-3.5308

> <Gold.PLP.part.metal>
0.0000

> <Gold.PLP.part.buried>
-1.7045

> <Gold.PLP.part.nonpolar>
-32.6995

> <Gold.PLP.part.repulsive>
0.3433

> <Gold.PLP.ligand.clash>
0.0000

> <Gold.PLP.ligand.torsion>
0.6036

> <Gold.PLP.Chemscore.Hbond>
1.9750

> <Gold.PLP.Chemscore.CHOScore>
1.7281

> <Gold.PLP.Chemscore.Metal>
0.0000

> <Gold.Chemscore.Hbonds>
donor molecule, donor type, donor heavy atom, donor atom, acceptor molecule, acceptor atom, score
      L1  H    19    43       P1 10171  1.00
      L1  H    21    44       P1 10175  1.00
      L1  C    11    39       P1  7948  0.66
      L1  C    11    39       P1  7957  0.96

> <Gold.PLP.Chemscore.Internal.Correction>
0.0978

> <Gold.Rescore>
     Score         DG    S(hbond)    S(metal)    S(lipo)     H(rot)  DE(clash)    DE(int)     intcor
     12.90     -13.57       1.78        0.00     108.09       4.10       0.09       0.58       ----

> <Gold.Chemscore.Fitness>
12.8969

> <Gold.Chemscore.DG>
-13.5676

> <Gold.Chemscore.ZeroCoef>
-5.4800

> <Gold.Chemscore.Hbond>
1.7752

> <Gold.Chemscore.Metal>
0.0000

> <Gold.Chemscore.Lipo>
108.0874

> <Gold.Chemscore.Internal_Hbond>
0.0000

> <Gold.Chemscore.DEClash>
0.0941

> <Gold.Chemscore.DEInternal>
0.5766

> <Gold.Chemscore.Rot>
4.0968

> <Gold.Chemscore.Internal.Correction>
   9.000000E+99

> <Gold.Chemscore.Hbonds>
donor molecule, donor type, donor heavy atom, donor atom, acceptor molecule, acceptor atom, score
      L1  H    19    43       P1 10171  0.95
      L1  H    21    44       P1 10175  0.44

> <Gold.Chemscore.Hbond.Weighted>
-5.9293

> <Gold.Chemscore.Metal.Weighted>
-0.0000

> <Gold.Chemscore.Lipo.Weighted>
-12.6462

> <Gold.Chemscore.Internal_Hbond.Weighted>
0.0000

> <Gold.Chemscore.DEClash.Weighted>
0.0941

> <Gold.Chemscore.DEInternal.Weighted>
0.5766

> <Gold.Chemscore.Rot.Weighted>
10.4879

> <Gold.Chemscore.Internal.Correction.Weighted>
   9.000000E+99

> <Gold.Protein.RotatedTorsions>
[ 6907 6896 6895 6894 ] final   31.57 input  -60.11 | X-H torsion
[ 7974 7965 7964 7962 ] final -110.68 input  175.53 | X-H torsion
[ 8008 7997 7996 7995 ] final -117.17 input   59.86 | X-H torsion
[ 10167 10162 10161 10158 ] final   89.31 input  -65.29 | X-H torsion
[ 10718 10713 10712 10709 ] final -145.88 input   66.30 | X-H torsion
[ 10763 10752 10751 10750 ] final   46.03 input  -60.55 | X-H torsion
[ 11005 11000 10999 10996 ] final  -23.83 input  -57.11 | X-H torsion

> <Gold.Protein.ActiveResidues>
 VAL166  LYS551  ARG553  GLY616  TRP617  ASP618  TYR619  PRO620  LYS621  CYS622 
 ASP623  PHE694  ASN695  SER759  ASP760  ASP761  ALA762  ILE779  LEU786  VAL792 
 PHE793  MET794  SER795  GLU796  ALA797  LYS798  CYS799  TRP800  GLU811  SER814 

> <Gold.Protein.RotatedAtoms>
  152.0622  134.9587  160.0574 H   0  0  0  0  0  0  0  0  0  0  0  0  # atno 6907 bound_to 6896
  152.0946  133.4213  159.4567 H   0  0  0  0  0  0  0  0  0  0  0  0  # atno 6908 bound_to 6896
  150.6837  134.2751  159.4648 H   0  0  0  0  0  0  0  0  0  0  0  0  # atno 6909 bound_to 6896
  145.1652  140.8898  143.3567 H   0  0  0  0  0  0  0  0  0  0  0  0  # atno 7974 bound_to 7965
  155.0795  140.0394  157.2634 H   0  0  0  0  0  0  0  0  0  0  0  0  # atno 8008 bound_to 7997
  154.6918  140.2655  155.6780 H   0  0  0  0  0  0  0  0  0  0  0  0  # atno 8009 bound_to 7997
  156.2731  140.2758  156.1499 H   0  0  0  0  0  0  0  0  0  0  0  0  # atno 8010 bound_to 7997
  139.8585  144.6556  150.9086 H   0  0  0  0  0  0  0  0  0  0  0  0  # atno 10167 bound_to 10162
  156.3880  130.7871  151.2070 H   0  0  0  0  0  0  0  0  0  0  0  0  # atno 10718 bound_to 10713
  152.9816  135.6021  154.3533 H   0  0  0  0  0  0  0  0  0  0  0  0  # atno 10763 bound_to 10752
  154.3221  135.2769  155.2516 H   0  0  0  0  0  0  0  0  0  0  0  0  # atno 10764 bound_to 10752
  154.4678  135.5949  153.6356 H   0  0  0  0  0  0  0  0  0  0  0  0  # atno 10765 bound_to 10752
  140.8788  133.7668  156.0277 H   0  0  0  0  0  0  0  0  0  0  0  0  # atno 11005 bound_to 11000
  145.0289  139.3358  143.6034 LP  0  0  0  0  0  0  0  0  0  0  0  0  # atno 17320 bound_to 7965
  146.3476  139.9619  142.8716 LP  0  0  0  0  0  0  0  0  0  0  0  0  # atno 17321 bound_to 7965
  140.7778  143.3765  151.1554 LP  0  0  0  0  0  0  0  0  0  0  0  0  # atno 17342 bound_to 10162
  139.7396  143.8945  152.3046 LP  0  0  0  0  0  0  0  0  0  0  0  0  # atno 17343 bound_to 10162
  157.7497  131.0324  150.4226 LP  0  0  0  0  0  0  0  0  0  0  0  0  # atno 17370 bound_to 10713
  156.4482  130.4006  149.6653 LP  0  0  0  0  0  0  0  0  0  0  0  0  # atno 17371 bound_to 10713
  140.8486  134.2981  157.5285 LP  0  0  0  0  0  0  0  0  0  0  0  0  # atno 17394 bound_to 11000
  139.8718  134.9455  156.3912 LP  0  0  0  0  0  0  0  0  0  0  0  0  # atno 17395 bound_to 11000

$$$$
