AV-unprocessed.smi:1239|AV-procd|sdf|5190|dock3
  -GOLD-   22720 4273D 1   1.00000     0.00000
 Structure written by MMmdl.
 49 50  0  0  0  0  0  0  0  0  3 V2000
  145.3207  137.9231  153.6121 C   0  0  0  0  0  0  0  0  0  0  0  0
  145.6184  137.5087  152.1535 C   0  0  1  0  0  0  0  0  0  0  0  0
  146.5864  138.5353  151.5092 C   0  0  0  0  0  0  0  0  0  0  0  0
  147.8185  138.7274  152.2740 N   0  0  0  0  0  0  0  0  0  0  0  0
  148.0446  139.7033  153.1648 C   0  0  0  0  0  0  0  0  0  0  0  0
  147.2308  140.5906  153.4192 O   0  0  0  0  0  0  0  0  0  0  0  0
  149.2695  139.5940  153.7072 N   0  0  0  0  0  0  0  0  0  0  0  0
  149.8740  140.4105  154.7017 C   0  0  0  0  0  0  0  0  0  0  0  0
  150.8315  139.8158  155.5495 C   0  0  0  0  0  0  0  0  0  0  0  0
  151.4478  140.5819  156.5601 C   0  0  0  0  0  0  0  0  0  0  0  0
  151.0951  141.9436  156.7265 C   0  0  0  0  0  0  0  0  0  0  0  0
  151.6664  142.7753  157.7137 N   0  0  0  0  0  0  0  0  0  0  0  0
  152.3493  142.1802  158.8571 C   0  0  0  0  0  0  0  0  0  0  0  0
  151.5355  144.2224  157.6066 C   0  0  0  0  0  0  0  0  0  0  0  0
  150.1597  142.4665  155.8965 N   0  3  0  0  0  0  0  0  0  0  0  0
  149.5467  141.7708  154.9148 C   0  0  0  0  0  0  0  0  0  0  0  0
  146.1245  136.1050  152.0127 N   0  3  0  0  0  0  0  0  0  0  0  0
  146.0054  135.2487  153.2238 C   0  0  0  0  0  0  0  0  0  0  0  0
  146.6091  133.8559  152.9695 C   0  0  0  0  0  0  0  0  0  0  0  0
  145.9795  133.2502  151.8497 O   0  0  0  0  0  0  0  0  0  0  0  0
  146.1710  134.0116  150.6663 C   0  0  0  0  0  0  0  0  0  0  0  0
  145.5338  135.3985  150.8448 C   0  0  0  0  0  0  0  0  0  0  0  0
  145.0295  138.9727  153.6658 H   0  0  0  0  0  0  0  0  0  0  0  0
  146.1903  137.7927  154.2571 H   0  0  0  0  0  0  0  0  0  0  0  0
  144.4937  137.3535  154.0365 H   0  0  0  0  0  0  0  0  0  0  0  0
  144.6688  137.5669  151.6191 H   0  0  0  0  0  0  0  0  0  0  0  0
  146.8205  138.2785  150.4761 H   0  0  0  0  0  0  0  0  0  0  0  0
  146.0909  139.5049  151.4501 H   0  0  0  0  0  0  0  0  0  0  0  0
  148.5482  138.0447  152.1269 H   0  0  0  0  0  0  0  0  0  0  0  0
  149.8533  138.8569  153.3393 H   0  0  0  0  0  0  0  0  0  0  0  0
  151.1001  138.7763  155.4269 H   0  0  0  0  0  0  0  0  0  0  0  0
  152.1819  140.1082  157.1947 H   0  0  0  0  0  0  0  0  0  0  0  0
  153.1965  141.5790  158.5255 H   0  0  0  0  0  0  0  0  0  0  0  0
  151.6693  141.5410  159.4208 H   0  0  0  0  0  0  0  0  0  0  0  0
  152.7286  142.9445  159.5357 H   0  0  0  0  0  0  0  0  0  0  0  0
  150.4843  144.5112  157.5823 H   0  0  0  0  0  0  0  0  0  0  0  0
  152.0187  144.5848  156.6990 H   0  0  0  0  0  0  0  0  0  0  0  0
  151.9990  144.7263  158.4547 H   0  0  0  0  0  0  0  0  0  0  0  0
  148.8143  142.3318  154.3544 H   0  0  0  0  0  0  0  0  0  0  0  0
  146.5377  135.6881  154.0665 H   0  0  0  0  0  0  0  0  0  0  0  0
  144.9562  135.1585  153.5088 H   0  0  0  0  0  0  0  0  0  0  0  0
  147.6856  133.9240  152.8030 H   0  0  0  0  0  0  0  0  0  0  0  0
  146.4633  133.2193  153.8425 H   0  0  0  0  0  0  0  0  0  0  0  0
  147.2345  134.0958  150.4359 H   0  0  0  0  0  0  0  0  0  0  0  0
  145.7043  133.4885  149.8316 H   0  0  0  0  0  0  0  0  0  0  0  0
  144.4567  135.2955  150.9853 H   0  0  0  0  0  0  0  0  0  0  0  0
  145.6792  135.9681  149.9286 H   0  0  0  0  0  0  0  0  0  0  0  0
  149.9004  143.4452  156.0220 H   0  0  0  0  0  0  0  0  0  0  0  0
  147.1148  136.1845  151.8299 H   0  0  0  0  0  0  0  0  0  0  0  0
  1  2  1  0  0  0  0
  1 23  1  0  0  0  0
  1 24  1  0  0  0  0
  1 25  1  0  0  0  0
  2  3  1  0  0  0  0
  2 17  1  0  0  0  0
  2 26  1  0  0  0  0
  3  4  1  0  0  0  0
  3 27  1  0  0  0  0
  3 28  1  0  0  0  0
  4  5  1  0  0  0  0
  4 29  1  0  0  0  0
  5  6  2  0  0  0  0
  5  7  1  0  0  0  0
  7  8  1  0  0  0  0
  7 30  1  0  0  0  0
  8 16  1  0  0  0  0
  8  9  2  0  0  0  0
  9 10  1  0  0  0  0
  9 31  1  0  0  0  0
 10 11  2  0  0  0  0
 10 32  1  0  0  0  0
 11 12  1  0  0  0  0
 11 15  1  0  0  0  0
 12 13  1  0  0  0  0
 12 14  1  0  0  0  0
 13 33  1  0  0  0  0
 13 34  1  0  0  0  0
 13 35  1  0  0  0  0
 14 36  1  0  0  0  0
 14 37  1  0  0  0  0
 14 38  1  0  0  0  0
 15 16  2  0  0  0  0
 15 48  1  0  0  0  0
 16 39  1  0  0  0  0
 17 22  1  0  0  0  0
 17 18  1  0  0  0  0
 17 49  1  0  0  0  0
 18 19  1  0  0  0  0
 18 40  1  0  0  0  0
 18 41  1  0  0  0  0
 19 20  1  0  0  0  0
 19 42  1  0  0  0  0
 19 43  1  0  0  0  0
 20 21  1  0  0  0  0
 21 22  1  0  0  0  0
 21 44  1  0  0  0  0
 21 45  1  0  0  0  0
 22 46  1  0  0  0  0
 22 47  1  0  0  0  0
M  CHG  1  15   1
M  CHG  1  17   1
M  END
> <s_m_source_file>
AV-unprocessed.smi

> <i_m_source_file_index>
1239

> <i_lp_mmshare_version>
43012

> <i_f3d_flags>
0

> <s_epik_input>
W0NIMl0xW0NIMl1PW0NIMl1bQ0gyXU4xW0NASF0oW0NIM10pW0NIMl1bTkhdQyg9TylbTkhdYzJbY0hdW2NIXWMoTihbQ0gzXSlbQ0gzXSluW2NIXTI=

> <s_epik_cmdline>
J2VwaWtfcHl0aG9uJywgJy1waCcsICc3LjAnLCAnLXRuJywgJzgnLCAnLW1hJywgJzIwMCcsICctbWV0YWxfYmluZGluZycsICctaW1hZScsICc8aW5maWxlLm1hZT4nLCAnLW9tYWUnLCAnPG91dGZpbGUubWFlPic=

> <r_lp_tautomer_probability>
0.999994

> <r_epik_Ionization_Penalty>
0.907597

> <r_epik_Ionization_Penalty_Charging>
0.907577

> <r_epik_Ionization_Penalty_Neutral>
2.023e-05

> <r_epik_State_Penalty>
0.909151

> <r_epik_Charging_Adjusted_Penalty>
1.81673

> <i_epik_Tot_Q>
2

> <i_epik_Tot_abs_Q>
2

> <r_epik_Metal_State_Penalty>
1.19543

> <b_epik_Metal_Only>
0

> <s_lp_Force_Field>
OPLS_2005

> <r_lp_Energy>
38.8579

> <b_lp_Chiralities_Consistent>
1

> <s_lp_Variant>
AV-unprocessed.smi:1239-6

> <Gold.Version>
5.8.1

> <Gold.Id.Protein>
6NUR|6NUR_protein|mol2

> <Gold.PLP.Fitness>
52.2982

> <Gold.PLP.PLP>
-40.8753

> <Gold.PLP.part.hbond>
-5.0000

> <Gold.PLP.part.metal>
0.0000

> <Gold.PLP.part.buried>
-1.4500

> <Gold.PLP.part.nonpolar>
-35.0275

> <Gold.PLP.part.repulsive>
0.6217

> <Gold.PLP.ligand.clash>
0.0000

> <Gold.PLP.ligand.torsion>
1.7056

> <Gold.PLP.Chemscore.Hbond>
4.9120

> <Gold.PLP.Chemscore.CHOScore>
0.0000

> <Gold.PLP.Chemscore.Metal>
0.0000

> <Gold.Chemscore.Hbonds>
donor molecule, donor type, donor heavy atom, donor atom, acceptor molecule, acceptor atom, score
      L1  H     4    29       P1  7948  0.94
      L1  H    15    48       P1  8028  1.98
      L1  H    17    49       P1  7948  2.00

> <Gold.PLP.Chemscore.Internal.Correction>
0.0982

> <Gold.Rescore>
     Score         DG    S(hbond)    S(metal)    S(lipo)     H(rot)  DE(clash)    DE(int)     intcor
     18.59     -21.33       2.91        0.00      85.26       1.51       0.26       2.48       ----

> <Gold.Chemscore.Fitness>
18.5941

> <Gold.Chemscore.DG>
-21.3335

> <Gold.Chemscore.ZeroCoef>
-5.4800

> <Gold.Chemscore.Hbond>
2.9145

> <Gold.Chemscore.Metal>
0.0000

> <Gold.Chemscore.Lipo>
85.2592

> <Gold.Chemscore.Internal_Hbond>
0.0000

> <Gold.Chemscore.DEClash>
0.2554

> <Gold.Chemscore.DEInternal>
2.4841

> <Gold.Chemscore.Rot>
1.5064

> <Gold.Chemscore.Internal.Correction>
   9.000000E+99

> <Gold.Chemscore.Hbonds>
donor molecule, donor type, donor heavy atom, donor atom, acceptor molecule, acceptor atom, score
      L1  H     4    29       P1  7948  0.91
      L1  H    15    48       P1  8028  0.94
      L1  H    17    49       P1  7948  1.00

> <Gold.Chemscore.Hbond.Weighted>
-9.7345

> <Gold.Chemscore.Metal.Weighted>
-0.0000

> <Gold.Chemscore.Lipo.Weighted>
-9.9753

> <Gold.Chemscore.Internal_Hbond.Weighted>
0.0000

> <Gold.Chemscore.DEClash.Weighted>
0.2554

> <Gold.Chemscore.DEInternal.Weighted>
2.4841

> <Gold.Chemscore.Rot.Weighted>
3.8563

> <Gold.Chemscore.Internal.Correction.Weighted>
   9.000000E+99

> <Gold.Protein.RotatedTorsions>
[ 6907 6896 6895 6894 ] final  -52.19 input  -60.11 | X-H torsion
[ 7974 7965 7964 7962 ] final   50.50 input  175.53 | X-H torsion
[ 8008 7997 7996 7995 ] final   93.26 input   59.86 | X-H torsion
[ 10167 10162 10161 10158 ] final  -15.97 input  -65.29 | X-H torsion
[ 10718 10713 10712 10709 ] final -160.00 input   66.30 | X-H torsion
[ 10763 10752 10751 10750 ] final -167.76 input  -60.55 | X-H torsion
[ 11005 11000 10999 10996 ] final   77.72 input  -57.11 | X-H torsion

> <Gold.Protein.ActiveResidues>
 VAL166  LYS551  ARG553  GLY616  TRP617  ASP618  TYR619  PRO620  LYS621  CYS622 
 ASP623  PHE694  ASN695  SER759  ASP760  ASP761  ALA762  ILE779  LEU786  VAL792 
 PHE793  MET794  SER795  GLU796  ALA797  LYS798  CYS799  TRP800  GLU811  SER814 

> <Gold.Protein.RotatedAtoms>
  150.8541  134.7875  159.7031 H   0  0  0  0  0  0  0  0  0  0  0  0  # atno 6907 bound_to 6896
  152.4598  134.5207  159.9791 H   0  0  0  0  0  0  0  0  0  0  0  0  # atno 6908 bound_to 6896
  151.5323  133.3409  159.2956 H   0  0  0  0  0  0  0  0  0  0  0  0  # atno 6909 bound_to 6896
  146.0006  139.4435  143.0017 H   0  0  0  0  0  0  0  0  0  0  0  0  # atno 7974 bound_to 7965
  156.0447  140.3315  155.7283 H   0  0  0  0  0  0  0  0  0  0  0  0  # atno 8008 bound_to 7997
  155.5692  140.0626  157.2828 H   0  0  0  0  0  0  0  0  0  0  0  0  # atno 8009 bound_to 7997
  154.4408  140.1864  156.0850 H   0  0  0  0  0  0  0  0  0  0  0  0  # atno 8010 bound_to 7997
  140.7227  143.5163  150.9687 H   0  0  0  0  0  0  0  0  0  0  0  0  # atno 10167 bound_to 10162
  156.5759  130.8708  151.2851 H   0  0  0  0  0  0  0  0  0  0  0  0  # atno 10718 bound_to 10713
  154.6699  135.2937  154.9756 H   0  0  0  0  0  0  0  0  0  0  0  0  # atno 10763 bound_to 10752
  154.0787  135.6607  153.4838 H   0  0  0  0  0  0  0  0  0  0  0  0  # atno 10764 bound_to 10752
  153.0480  135.5192  154.7690 H   0  0  0  0  0  0  0  0  0  0  0  0  # atno 10765 bound_to 10752
  139.9242  134.7706  156.1558 H   0  0  0  0  0  0  0  0  0  0  0  0  # atno 11005 bound_to 11000
  145.7493  140.9978  143.1259 LP  0  0  0  0  0  0  0  0  0  0  0  0  # atno 17320 bound_to 7965
  144.6918  139.9195  143.7467 LP  0  0  0  0  0  0  0  0  0  0  0  0  # atno 17321 bound_to 7965
  139.8879  143.6990  152.3149 LP  0  0  0  0  0  0  0  0  0  0  0  0  # atno 17342 bound_to 10162
  139.7295  144.7585  151.0824 LP  0  0  0  0  0  0  0  0  0  0  0  0  # atno 17343 bound_to 10162
  157.7337  130.9735  150.1994 LP  0  0  0  0  0  0  0  0  0  0  0  0  # atno 17370 bound_to 10713
  156.2674  130.3718  149.8067 LP  0  0  0  0  0  0  0  0  0  0  0  0  # atno 17371 bound_to 10713
  141.0788  133.6763  156.2291 LP  0  0  0  0  0  0  0  0  0  0  0  0  # atno 17394 bound_to 11000
  140.6384  134.5192  157.5567 LP  0  0  0  0  0  0  0  0  0  0  0  0  # atno 17395 bound_to 11000

$$$$
