#       Name:                AV-unprocessed.smi:3348
#       Creating user name   scv26
#       Creation time:       Fri Mar 27 19:35:16 2020


#       File generated by GOLD software.
#

@<TRIPOS>MOLECULE
AV-unprocessed.smi:3348
    50    51     1
SMALL
NO_CHARGES


@<TRIPOS>ATOM
      1 ****        -0.6964   2.8392  -0.6747 C.3            1 S1                 0.0000
      2 ****        -0.2206   2.4387   0.7379 C.3            1 S1                 0.0000
      3 ****        -1.3689   2.4669   1.7677 C.3            1 S1                 0.0000
      4 ****        -1.9904   3.7744   1.8880 N.pl3          1 S1                 0.0000
      5 ****        -1.4683   4.9199   2.4513 C.2            1 S1                 0.0000
      6 ****        -2.4168   5.8960   2.3415 C.2            1 S1                 0.0000
      7 ****        -3.5012   5.2416   1.6927 C.2            1 S1                 0.0000
      8 ****        -3.2441   3.9715   1.4245 N.2            1 S1                 0.0000
      9 ****         0.3936   1.1078   0.7484 N.3            1 S1                 0.0000
     10 ****         1.6255   0.9703  -0.0274 C.3            1 S1                 0.0000
     11 ****         2.1905  -0.4471   0.1024 C.3            1 S1                 0.0000
     12 ****         1.3862  -1.3231  -0.6733 O.3            1 S1                 0.0000
     13 ****         1.7681  -2.6931  -0.6146 C.3            1 S1                 0.0000
     14 ****         1.1920  -3.3606   0.6532 C.3            1 S1                 0.0000
     15 ****        -0.3450  -3.3970   0.6282 C.3            1 S1                 0.0000
     16 ****        -0.8635  -4.0925  -0.6395 C.3            1 S1                 0.0000
     17 ****        -0.2954  -3.4374  -1.9086 C.3            1 S1                 0.0000
     18 ****         1.2463  -3.4003  -1.8858 C.3            1 S1                 0.0000
     19 ****         1.8224  -2.7810  -3.1687 C.3            1 S1                 0.0000
     20 ****        -1.1707   3.8203  -0.6734 H              1 S1                 0.0000
     21 ****        -1.4207   2.1240  -1.0655 H              1 S1                 0.0000
     22 ****         0.1291   2.9018  -1.3826 H              1 S1                 0.0000
     23 ****         0.5255   3.1674   1.0576 H              1 S1                 0.0000
     24 ****        -2.1320   1.7320   1.5048 H              1 S1                 0.0000
     25 ****        -0.9956   2.1856   2.7533 H              1 S1                 0.0000
     26 ****        -0.4756   4.9444   2.8764 H              1 S1                 0.0000
     27 ****        -2.3473   6.9206   2.6753 H              1 S1                 0.0000
     28 ****        -4.4614   5.6487   1.4119 H              1 S1                 0.0000
     29 ****        -0.2803   0.4183   0.4302 H              1 S1                 0.0000
     30 ****         1.4595   1.1912  -1.0811 H              1 S1                 0.0000
     31 ****         2.3639   1.6865   0.3342 H              1 S1                 0.0000
     32 ****         3.2112  -0.4669  -0.2816 H              1 S1                 0.0000
     33 ****         2.2312  -0.7479   1.1495 H              1 S1                 0.0000
     34 ****         2.8569  -2.7697  -0.6019 H              1 S1                 0.0000
     35 ****         1.5717  -4.3806   0.7233 H              1 S1                 0.0000
     36 ****         1.5364  -2.8537   1.5539 H              1 S1                 0.0000
     37 ****        -0.7188  -3.9124   1.5132 H              1 S1                 0.0000
     38 ****        -0.7370  -2.3801   0.6750 H              1 S1                 0.0000
     39 ****        -0.5848  -5.1467  -0.6171 H              1 S1                 0.0000
     40 ****        -1.9532  -4.0617  -0.6614 H              1 S1                 0.0000
     41 ****        -0.6419  -3.9844  -2.7860 H              1 S1                 0.0000
     42 ****        -0.6899  -2.4247  -2.0032 H              1 S1                 0.0000
     43 ****         1.5961  -4.4333  -1.8499 H              1 S1                 0.0000
     44 ****         1.4969  -1.7479  -3.2945 H              1 S1                 0.0000
     45 ****         1.5028  -3.3381  -4.0498 H              1 S1                 0.0000
     46 ****         2.9126  -2.7871  -3.1525 H              1 S1                 0.0000
     47 ****        -3.8434   3.3066   0.9787 LP             1 S1                 0.0000
     48 ****         0.6623   0.9571   1.6998 LP             1 S1                 0.0000
     49 ****         1.4348  -1.0272  -1.6273 LP             1 S1                 0.0000
     50 ****         0.4432  -1.2488  -0.3489 LP             1 S1                 0.0000
@<TRIPOS>BOND
    1    1    2 1     
    2    1   20 1     
    3    1   21 1     
    4    1   22 1     
    5    2    3 1     
    6    2    9 1     
    7    2   23 1     
    8    3    4 1     
    9    3   24 1     
   10    3   25 1     
   11    4    8 1     
   12    4    5 1     
   13    5    6 2     
   14    5   26 1     
   15    6    7 1     
   16    6   27 1     
   17    7    8 2     
   18    7   28 1     
   19    9   10 1     
   20    9   29 1     
   21   10   11 1     
   22   10   30 1     
   23   10   31 1     
   24   11   12 1     
   25   11   32 1     
   26   11   33 1     
   27   12   13 1     
   28   13   18 1     
   29   13   14 1     
   30   13   34 1     
   31   14   15 1     
   32   14   35 1     
   33   14   36 1     
   34   15   16 1     
   35   15   37 1     
   36   15   38 1     
   37   16   17 1     
   38   16   39 1     
   39   16   40 1     
   40   17   18 1     
   41   17   41 1     
   42   17   42 1     
   43   18   19 1     
   44   18   43 1     
   45   19   44 1     
   46   19   45 1     
   47   19   46 1     
   48    8   47 1     
   49    9   48 1     
   50   12   49 1     
   51   12   50 1     
@<TRIPOS>SUBSTRUCTURE
      1 S1             1
@<TRIPOS>SET
LONE_PAIRS      STATIC     ATOMS    <user>   **** ""
4 47 48 49 50
DONOR_HYDROGENS      STATIC     ATOMS    <user>   **** ""
1 29
ATOM$BLUE        STATIC     ATOMS    COLORGROUP SYSTEM
4 47 48 49 50
ATOM$RED        STATIC     ATOMS    COLORGROUP SYSTEM
1 29
