AV-unprocessed.smi:233|AV-procd|sdf|1784|dock3
  -GOLD-   2262020333D 1   1.00000     0.00000
 Structure written by MMmdl.
 59 62  0  0  0  0  0  0  0  0  1 V2000
  151.8599  137.9719  159.5905 C   0  0  0  0  0  0  0  0  0  0  0  0
  152.3088  138.7936  158.3871 C   0  0  0  0  0  0  0  0  0  0  0  0
  153.4698  139.1945  158.3120 O   0  0  0  0  0  0  0  0  0  0  0  0
  151.3762  139.0354  157.4534 N   0  0  0  0  0  0  0  0  0  0  0  0
  151.5821  139.7991  156.2235 C   0  0  2  0  0  0  0  0  0  0  0  0
  150.7365  141.0869  156.2065 C   0  0  0  0  0  0  0  0  0  0  0  0
  149.2316  140.7953  156.0781 C   0  0  0  0  0  0  0  0  0  0  0  0
  148.9057  139.9446  154.8274 C   0  0  2  0  0  0  0  0  0  0  0  0
  147.4625  139.6765  154.7244 N   0  0  0  0  0  0  0  0  0  0  0  0
  146.5512  140.7914  154.9648 C   0  0  0  0  0  0  0  0  0  0  0  0
  147.0727  138.9850  153.6299 C   0  0  0  0  0  0  0  0  0  0  0  0
  147.2734  139.5664  152.4218 N   0  0  0  0  0  0  0  0  0  0  0  0
  146.9085  138.9277  151.3059 C   0  0  0  0  0  0  0  0  0  0  0  0
  146.3379  137.7272  151.1788 N   0  0  0  0  0  0  0  0  0  0  0  0
  146.1398  137.1400  152.3941 C   0  0  0  0  0  0  0  0  0  0  0  0
  146.4822  137.6905  153.6605 C   0  0  0  0  0  0  0  0  0  0  0  0
  146.1526  136.7969  154.6720 N   0  0  0  0  0  0  0  0  0  0  0  0
  145.6443  135.7751  154.0388 C   0  0  0  0  0  0  0  0  0  0  0  0
  145.5720  135.9091  152.6700 N   0  0  0  0  0  0  0  0  0  0  0  0
  145.0919  134.9390  151.7307 C   0  0  0  0  0  0  0  0  0  0  0  0
  144.5078  133.6084  152.2092 C   0  0  0  0  0  0  0  0  0  0  0  0
  145.0501  132.9203  150.9360 C   0  0  0  0  0  0  0  0  0  0  0  0
  145.6780  131.5329  151.1474 C   0  0  0  0  0  0  0  0  0  0  0  0
  146.6679  131.5684  152.1552 O   0  0  0  0  0  0  0  0  0  0  0  0
  144.0629  132.8554  149.7532 C   0  0  0  0  0  0  0  0  0  0  0  0
  143.9903  134.0917  149.0720 O   0  0  0  0  0  0  0  0  0  0  0  0
  146.0533  134.0942  150.8911 C   0  0  0  0  0  0  0  0  0  0  0  0
  149.7514  138.6441  154.8617 C   0  0  0  0  0  0  0  0  0  0  0  0
  151.2572  138.9312  154.9954 C   0  0  0  0  0  0  0  0  0  0  0  0
  150.8915  138.3171  159.9547 H   0  0  0  0  0  0  0  0  0  0  0  0
  152.5792  138.0560  160.4058 H   0  0  0  0  0  0  0  0  0  0  0  0
  151.7718  136.9198  159.3178 H   0  0  0  0  0  0  0  0  0  0  0  0
  150.4496  138.6640  157.6051 H   0  0  0  0  0  0  0  0  0  0  0  0
  152.6372  140.0732  156.1698 H   0  0  0  0  0  0  0  0  0  0  0  0
  150.9251  141.6808  157.1015 H   0  0  0  0  0  0  0  0  0  0  0  0
  151.0492  141.7066  155.3652 H   0  0  0  0  0  0  0  0  0  0  0  0
  148.8783  140.2848  156.9750 H   0  0  0  0  0  0  0  0  0  0  0  0
  148.7057  141.7491  156.0413 H   0  0  0  0  0  0  0  0  0  0  0  0
  149.2017  140.5212  153.9504 H   0  0  0  0  0  0  0  0  0  0  0  0
  145.5439  140.5853  154.5984 H   0  0  0  0  0  0  0  0  0  0  0  0
  146.9110  141.6974  154.4754 H   0  0  0  0  0  0  0  0  0  0  0  0
  146.4713  140.9875  156.0340 H   0  0  0  0  0  0  0  0  0  0  0  0
  147.0997  139.4542  150.3825 H   0  0  0  0  0  0  0  0  0  0  0  0
  145.3007  134.8934  154.5598 H   0  0  0  0  0  0  0  0  0  0  0  0
  144.3808  135.4650  151.0913 H   0  0  0  0  0  0  0  0  0  0  0  0
  144.9841  133.2519  153.1246 H   0  0  0  0  0  0  0  0  0  0  0  0
  143.4221  133.6062  152.3116 H   0  0  0  0  0  0  0  0  0  0  0  0
  144.9218  130.8083  151.4509 H   0  0  0  0  0  0  0  0  0  0  0  0
  146.1191  131.1455  150.2289 H   0  0  0  0  0  0  0  0  0  0  0  0
  147.5173  131.5327  151.7423 H   0  0  0  0  0  0  0  0  0  0  0  0
  144.3635  132.0966  149.0305 H   0  0  0  0  0  0  0  0  0  0  0  0
  143.0619  132.5770  150.0835 H   0  0  0  0  0  0  0  0  0  0  0  0
  144.8692  134.3760  148.8727 H   0  0  0  0  0  0  0  0  0  0  0  0
  146.2509  134.4901  149.8946 H   0  0  0  0  0  0  0  0  0  0  0  0
  146.9851  133.8728  151.4152 H   0  0  0  0  0  0  0  0  0  0  0  0
  149.4222  138.0136  155.6888 H   0  0  0  0  0  0  0  0  0  0  0  0
  149.6019  138.0582  153.9546 H   0  0  0  0  0  0  0  0  0  0  0  0
  151.5997  139.4435  154.0954 H   0  0  0  0  0  0  0  0  0  0  0  0
  151.8132  137.9938  155.0389 H   0  0  0  0  0  0  0  0  0  0  0  0
  1  2  1  0  0  0  0
  1 30  1  0  0  0  0
  1 31  1  0  0  0  0
  1 32  1  0  0  0  0
  2  3  2  0  0  0  0
  2  4  1  0  0  0  0
  4  5  1  0  0  0  0
  4 33  1  0  0  0  0
  5 29  1  0  0  0  0
  5  6  1  0  0  0  0
  5 34  1  0  0  0  0
  6  7  1  0  0  0  0
  6 35  1  0  0  0  0
  6 36  1  0  0  0  0
  7  8  1  0  0  0  0
  7 37  1  0  0  0  0
  7 38  1  0  0  0  0
  8  9  1  0  0  0  0
  8 28  1  0  0  0  0
  8 39  1  0  0  0  0
  9 10  1  0  0  0  0
  9 11  1  0  0  0  0
 10 40  1  0  0  0  0
 10 41  1  0  0  0  0
 10 42  1  0  0  0  0
 11 16  1  0  0  0  0
 11 12  2  0  0  0  0
 12 13  1  0  0  0  0
 13 14  2  0  0  0  0
 13 43  1  0  0  0  0
 14 15  1  0  0  0  0
 15 19  1  0  0  0  0
 15 16  2  0  0  0  0
 16 17  1  0  0  0  0
 17 18  2  0  0  0  0
 18 19  1  0  0  0  0
 18 44  1  0  0  0  0
 19 20  1  0  0  0  0
 20 27  1  0  0  0  0
 20 21  1  0  0  0  0
 20 45  1  0  0  0  0
 21 22  1  0  0  0  0
 21 46  1  0  0  0  0
 21 47  1  0  0  0  0
 22 23  1  0  0  0  0
 22 25  1  0  0  0  0
 22 27  1  0  0  0  0
 23 24  1  0  0  0  0
 23 48  1  0  0  0  0
 23 49  1  0  0  0  0
 24 50  1  0  0  0  0
 25 26  1  0  0  0  0
 25 51  1  0  0  0  0
 25 52  1  0  0  0  0
 26 53  1  0  0  0  0
 27 54  1  0  0  0  0
 27 55  1  0  0  0  0
 28 29  1  0  0  0  0
 28 56  1  0  0  0  0
 28 57  1  0  0  0  0
 29 58  1  0  0  0  0
 29 59  1  0  0  0  0
M  END
> <s_m_source_file>
AV-unprocessed.smi

> <i_m_source_file_index>
233

> <i_lp_mmshare_version>
43012

> <i_f3d_flags>
0

> <s_epik_input>
W0NIM11DKD1PKVtOSF1bQ0BASF0xW0NIMl1bQ0gyXVtDQEhdKFtDSDJdW0NIMl0xKU4oW0NIM10pYyhuW2NIXW4yKWMoYzIzKW5bY0hdbjNbQ0hdKFtDSDJdNClbQ0gyXUM0KFtDSDJdW09IXSlbQ0gyXVtPSF0=

> <s_epik_cmdline>
J2VwaWtfcHl0aG9uJywgJy1waCcsICc3LjAnLCAnLXRuJywgJzgnLCAnLW1hJywgJzIwMCcsICctbWV0YWxfYmluZGluZycsICctaW1hZScsICc8aW5maWxlLm1hZT4nLCAnLW9tYWUnLCAnPG91dGZpbGUubWFlPic=

> <r_lp_tautomer_probability>
1

> <r_epik_Ionization_Penalty>
0.0029036

> <r_epik_Ionization_Penalty_Charging>
0

> <r_epik_Ionization_Penalty_Neutral>
0.0029036

> <r_epik_State_Penalty>
0.00183591

> <r_epik_Charging_Adjusted_Penalty>
0.00183591

> <i_epik_Tot_Q>
0

> <i_epik_Tot_abs_Q>
0

> <r_epik_Metal_State_Penalty>
-0

> <b_epik_Metal_Only>
0

> <s_lp_Force_Field>
OPLS_2005

> <r_lp_Energy>
38.4195

> <b_lp_Chiralities_Consistent>
1

> <s_lp_Variant>
AV-unprocessed.smi:233-2

> <Gold.Version>
5.8.1

> <Gold.Id.Protein>
6NUR|6NUR_protein|mol2

> <Gold.PLP.Fitness>
49.2558

> <Gold.PLP.PLP>
-41.3842

> <Gold.PLP.part.hbond>
-3.9805

> <Gold.PLP.part.metal>
0.0000

> <Gold.PLP.part.buried>
-5.3613

> <Gold.PLP.part.nonpolar>
-36.5063

> <Gold.PLP.part.repulsive>
4.6265

> <Gold.PLP.ligand.clash>
0.0013

> <Gold.PLP.ligand.torsion>
1.1183

> <Gold.PLP.Chemscore.Hbond>
3.0000

> <Gold.PLP.Chemscore.CHOScore>
0.0523

> <Gold.PLP.Chemscore.Metal>
0.0000

> <Gold.Chemscore.Hbonds>
donor molecule, donor type, donor heavy atom, donor atom, acceptor molecule, acceptor atom, score
      L1  H    24    50       P1 10747  0.63
      L1  H    26    53       P1  7921  0.98
      P1  H  7997  8010       L1     3  1.00
      L1  C    13    43       P1  7957  0.20

> <Gold.PLP.Chemscore.Internal.Correction>
0.9526

> <Gold.Rescore>
     Score         DG    S(hbond)    S(metal)    S(lipo)     H(rot)  DE(clash)    DE(int)     intcor
     11.51     -15.42       2.98        0.00      85.51       3.91       1.39       2.52       ----

> <Gold.Chemscore.Fitness>
11.5089

> <Gold.Chemscore.DG>
-15.4246

> <Gold.Chemscore.ZeroCoef>
-5.4800

> <Gold.Chemscore.Hbond>
2.9751

> <Gold.Chemscore.Metal>
0.0000

> <Gold.Chemscore.Lipo>
85.5096

> <Gold.Chemscore.Internal_Hbond>
0.0000

> <Gold.Chemscore.DEClash>
1.3949

> <Gold.Chemscore.DEInternal>
2.5208

> <Gold.Chemscore.Rot>
3.9050

> <Gold.Chemscore.Internal.Correction>
   9.000000E+99

> <Gold.Chemscore.Hbonds>
donor molecule, donor type, donor heavy atom, donor atom, acceptor molecule, acceptor atom, score
      L1  H    24    50       P1 10747  0.62
      L1  H    26    53       P1  7921  0.93
      P1  H  7997  8010       L1     3  0.99

> <Gold.Chemscore.Hbond.Weighted>
-9.9368

> <Gold.Chemscore.Metal.Weighted>
-0.0000

> <Gold.Chemscore.Lipo.Weighted>
-10.0046

> <Gold.Chemscore.Internal_Hbond.Weighted>
0.0000

> <Gold.Chemscore.DEClash.Weighted>
1.3949

> <Gold.Chemscore.DEInternal.Weighted>
2.5208

> <Gold.Chemscore.Rot.Weighted>
9.9969

> <Gold.Chemscore.Internal.Correction.Weighted>
   9.000000E+99

> <Gold.Protein.RotatedTorsions>
[ 6907 6896 6895 6894 ] final  120.38 input  -60.11 | X-H torsion
[ 7974 7965 7964 7962 ] final  -36.32 input  175.53 | X-H torsion
[ 8008 7997 7996 7995 ] final   41.26 input   59.86 | X-H torsion
[ 10167 10162 10161 10158 ] final  176.23 input  -65.29 | X-H torsion
[ 10718 10713 10712 10709 ] final   73.13 input   66.30 | X-H torsion
[ 10763 10752 10751 10750 ] final  -11.58 input  -60.55 | X-H torsion
[ 11005 11000 10999 10996 ] final   31.67 input  -57.11 | X-H torsion

> <Gold.Protein.ActiveResidues>
 VAL166  LYS551  ARG553  GLY616  TRP617  ASP618  TYR619  PRO620  LYS621  CYS622 
 ASP623  PHE694  ASN695  SER759  ASP760  ASP761  ALA762  ILE779  LEU786  VAL792 
 PHE793  MET794  SER795  GLU796  ALA797  LYS798  CYS799  TRP800  GLU811  SER814 

> <Gold.Protein.RotatedAtoms>
  152.4402  133.7434  159.6653 H   0  0  0  0  0  0  0  0  0  0  0  0  # atno 6907 bound_to 6896
  150.8292  133.8109  159.3112 H   0  0  0  0  0  0  0  0  0  0  0  0  # atno 6908 bound_to 6896
  151.5769  135.1062  160.0060 H   0  0  0  0  0  0  0  0  0  0  0  0  # atno 6909 bound_to 6896
  146.0671  140.6265  142.8970 H   0  0  0  0  0  0  0  0  0  0  0  0  # atno 7974 bound_to 7965
  155.2666  140.3363  155.4268 H   0  0  0  0  0  0  0  0  0  0  0  0  # atno 8008 bound_to 7997
  156.2151  140.1785  156.7649 H   0  0  0  0  0  0  0  0  0  0  0  0  # atno 8009 bound_to 7997
  154.5742  140.0665  156.8994 H   0  0  0  0  0  0  0  0  0  0  0  0  # atno 8010 bound_to 7997
  139.5206  144.2940  152.0439 H   0  0  0  0  0  0  0  0  0  0  0  0  # atno 10167 bound_to 10162
  157.6533  130.9613  150.1026 H   0  0  0  0  0  0  0  0  0  0  0  0  # atno 10718 bound_to 10713
  153.4859  135.7017  153.5911 H   0  0  0  0  0  0  0  0  0  0  0  0  # atno 10763 bound_to 10752
  153.4105  135.3850  155.2047 H   0  0  0  0  0  0  0  0  0  0  0  0  # atno 10764 bound_to 10752
  154.8719  135.3903  154.4314 H   0  0  0  0  0  0  0  0  0  0  0  0  # atno 10765 bound_to 10752
  140.2815  134.2967  155.7799 H   0  0  0  0  0  0  0  0  0  0  0  0  # atno 11005 bound_to 11000
  144.7209  140.4369  143.7009 LP  0  0  0  0  0  0  0  0  0  0  0  0  # atno 17320 bound_to 7965
  145.6458  139.1557  143.2890 LP  0  0  0  0  0  0  0  0  0  0  0  0  # atno 17321 bound_to 7965
  140.2390  144.4290  150.6268 LP  0  0  0  0  0  0  0  0  0  0  0  0  # atno 17342 bound_to 10162
  140.6304  143.2187  151.6508 LP  0  0  0  0  0  0  0  0  0  0  0  0  # atno 17343 bound_to 10162
  156.1944  130.3656  149.8868 LP  0  0  0  0  0  0  0  0  0  0  0  0  # atno 17370 bound_to 10713
  156.6788  130.8849  151.3573 LP  0  0  0  0  0  0  0  0  0  0  0  0  # atno 17371 bound_to 10713
  141.2162  133.7528  156.9488 LP  0  0  0  0  0  0  0  0  0  0  0  0  # atno 17394 bound_to 11000
  140.1279  134.9375  157.2296 LP  0  0  0  0  0  0  0  0  0  0  0  0  # atno 17395 bound_to 11000

$$$$
