AV-unprocessed.smi:802|AV-procd|sdf|3792|dock1
  -GOLD-   22720 1223D 1   1.00000     0.00000
 Structure written by MMmdl.
 37 38  0  0  0  0  0  0  0  0  2 V2000
  147.6959  141.6681  153.6201 C   0  0  0  0  0  0  0  0  0  0  0  0
  148.8680  140.8736  154.1146 C   0  0  0  0  0  0  0  0  0  0  0  0
  148.9969  139.4623  154.2256 C   0  0  0  0  0  0  0  0  0  0  0  0
  150.2596  139.2910  154.7188 C   0  0  0  0  0  0  0  0  0  0  0  0
  151.0572  138.0827  155.0798 C   0  0  0  0  0  0  0  0  0  0  0  0
  151.2066  137.9497  156.9116 S   0  0  0  0  0  0  0  0  0  0  0  0
  149.8315  137.8403  157.4262 O   0  0  0  0  0  0  0  0  0  0  0  0
  152.1059  136.8121  157.1657 O   0  0  0  0  0  0  0  0  0  0  0  0
  151.8907  139.3771  157.2576 N   0  5  0  0  0  0  0  0  0  0  0  0
  151.1212  140.3768  157.9791 C   0  0  0  0  0  0  0  0  0  0  0  0
  151.9839  141.6420  158.2421 C   0  0  0  0  0  0  0  0  0  0  0  0
  152.1219  141.9933  159.7498 C   0  0  0  0  0  0  0  0  0  0  0  0
  153.0175  143.2245  159.9662 C   0  0  0  0  0  0  0  0  0  0  0  0
  152.4983  144.4386  159.1836 C   0  0  0  0  0  0  0  0  0  0  0  0
  152.3571  144.1101  157.6906 C   0  0  0  0  0  0  0  0  0  0  0  0
  151.4583  142.8818  157.4702 C   0  0  0  0  0  0  0  0  0  0  0  0
  150.8557  140.4971  154.9058 O   0  0  0  0  0  0  0  0  0  0  0  0
  149.9604  141.5004  154.5184 N   0  0  0  0  0  0  0  0  0  0  0  0
  146.8995  141.0143  153.2644 H   0  0  0  0  0  0  0  0  0  0  0  0
  147.9828  142.3197  152.7946 H   0  0  0  0  0  0  0  0  0  0  0  0
  147.2836  142.2931  154.4125 H   0  0  0  0  0  0  0  0  0  0  0  0
  148.2813  138.6933  153.9750 H   0  0  0  0  0  0  0  0  0  0  0  0
  150.5800  137.1761  154.7076 H   0  0  0  0  0  0  0  0  0  0  0  0
  152.0582  138.1383  154.6530 H   0  0  0  0  0  0  0  0  0  0  0  0
  150.2356  140.6668  157.4127 H   0  0  0  0  0  0  0  0  0  0  0  0
  150.7495  139.9978  158.9318 H   0  0  0  0  0  0  0  0  0  0  0  0
  152.9849  141.4355  157.8585 H   0  0  0  0  0  0  0  0  0  0  0  0
  151.1418  142.1905  160.1898 H   0  0  0  0  0  0  0  0  0  0  0  0
  152.5485  141.1614  160.3136 H   0  0  0  0  0  0  0  0  0  0  0  0
  153.0683  143.4634  161.0289 H   0  0  0  0  0  0  0  0  0  0  0  0
  154.0363  142.9947  159.6521 H   0  0  0  0  0  0  0  0  0  0  0  0
  151.5317  144.7467  159.5842 H   0  0  0  0  0  0  0  0  0  0  0  0
  153.1738  145.2839  159.3174 H   0  0  0  0  0  0  0  0  0  0  0  0
  151.9472  144.9694  157.1592 H   0  0  0  0  0  0  0  0  0  0  0  0
  153.3425  143.9226  157.2621 H   0  0  0  0  0  0  0  0  0  0  0  0
  151.4079  142.6849  156.3970 H   0  0  0  0  0  0  0  0  0  0  0  0
  150.4427  143.1311  157.7858 H   0  0  0  0  0  0  0  0  0  0  0  0
  1  2  1  0  0  0  0
  1 19  1  0  0  0  0
  1 20  1  0  0  0  0
  1 21  1  0  0  0  0
  2 18  2  0  0  0  0
  2  3  1  0  0  0  0
  3  4  2  0  0  0  0
  3 22  1  0  0  0  0
  4  5  1  0  0  0  0
  4 17  1  0  0  0  0
  5  6  1  0  0  0  0
  5 23  1  0  0  0  0
  5 24  1  0  0  0  0
  6  7  2  0  0  0  0
  6  8  2  0  0  0  0
  6  9  1  0  0  0  0
  9 10  1  0  0  0  0
 10 11  1  0  0  0  0
 10 25  1  0  0  0  0
 10 26  1  0  0  0  0
 11 16  1  0  0  0  0
 11 12  1  0  0  0  0
 11 27  1  0  0  0  0
 12 13  1  0  0  0  0
 12 28  1  0  0  0  0
 12 29  1  0  0  0  0
 13 14  1  0  0  0  0
 13 30  1  0  0  0  0
 13 31  1  0  0  0  0
 14 15  1  0  0  0  0
 14 32  1  0  0  0  0
 14 33  1  0  0  0  0
 15 16  1  0  0  0  0
 15 34  1  0  0  0  0
 15 35  1  0  0  0  0
 16 36  1  0  0  0  0
 16 37  1  0  0  0  0
 17 18  1  0  0  0  0
M  CHG  1   9  -1
M  END
> <s_m_source_file>
AV-unprocessed.smi

> <i_m_source_file_index>
802

> <i_lp_mmshare_version>
43012

> <i_f3d_flags>
0

> <s_epik_input>
W0NIM11jMVtjSF1jKG9uMSlbQ0gyXVMoPU8pKD1PKVtOSF1bQ0gyXVtDSF0yW0NIMl1bQ0gyXVtDSDJdW0NIMl1bQ0gyXTI=

> <s_epik_cmdline>
J2VwaWtfcHl0aG9uJywgJy1waCcsICc3LjAnLCAnLXRuJywgJzgnLCAnLW1hJywgJzIwMCcsICctbWV0YWxfYmluZGluZycsICctaW1hZScsICc8aW5maWxlLm1hZT4nLCAnLW9tYWUnLCAnPG91dGZpbGUubWFlPic=

> <r_lp_tautomer_probability>
1

> <r_epik_Ionization_Penalty>
5.54077

> <r_epik_Ionization_Penalty_Charging>
5.54077

> <r_epik_Ionization_Penalty_Neutral>
8.84355e-10

> <r_epik_State_Penalty>
5.54071

> <r_epik_Charging_Adjusted_Penalty>
11.0815

> <i_epik_Tot_Q>
-1

> <i_epik_Tot_abs_Q>
1

> <r_epik_Metal_State_Penalty>
1.54279

> <b_epik_Metal_Only>
1

> <s_lp_Force_Field>
OPLS_2005

> <r_lp_Energy>
6.62566

> <b_lp_Chiralities_Consistent>
1

> <s_lp_Variant>
AV-unprocessed.smi:802-2

> <Gold.Version>
5.8.1

> <Gold.Id.Protein>
6NUR|6NUR_protein|mol2

> <Gold.PLP.Fitness>
48.3458

> <Gold.PLP.PLP>
-39.5571

> <Gold.PLP.part.hbond>
-3.9936

> <Gold.PLP.part.metal>
0.0000

> <Gold.PLP.part.buried>
-2.7971

> <Gold.PLP.part.nonpolar>
-31.9833

> <Gold.PLP.part.repulsive>
0.2395

> <Gold.PLP.ligand.clash>
0.0000

> <Gold.PLP.ligand.torsion>
1.3942

> <Gold.PLP.Chemscore.Hbond>
3.5148

> <Gold.PLP.Chemscore.CHOScore>
0.0000

> <Gold.PLP.Chemscore.Metal>
0.0000

> <Gold.Chemscore.Hbonds>
donor molecule, donor type, donor heavy atom, donor atom, acceptor molecule, acceptor atom, score
      P1  H  7989  7998       L1    17  0.20
      P1  H  8011  8017       L1    18  0.01

> <Gold.PLP.Chemscore.Internal.Correction>
1.0327

> <Gold.Rescore>
     Score         DG    S(hbond)    S(metal)    S(lipo)     H(rot)  DE(clash)    DE(int)     intcor
     13.74     -17.31       0.95        0.00     106.71       1.50       0.03       3.53       ----

> <Gold.Chemscore.Fitness>
13.7439

> <Gold.Chemscore.DG>
-17.3088

> <Gold.Chemscore.ZeroCoef>
-5.4800

> <Gold.Chemscore.Hbond>
0.9498

> <Gold.Chemscore.Metal>
0.0000

> <Gold.Chemscore.Lipo>
106.7104

> <Gold.Chemscore.Internal_Hbond>
0.0000

> <Gold.Chemscore.DEClash>
0.0330

> <Gold.Chemscore.DEInternal>
3.5319

> <Gold.Chemscore.Rot>
1.4956

> <Gold.Chemscore.Internal.Correction>
   9.000000E+99

> <Gold.Chemscore.Hbond.Weighted>
-3.1724

> <Gold.Chemscore.Metal.Weighted>
-0.0000

> <Gold.Chemscore.Lipo.Weighted>
-12.4851

> <Gold.Chemscore.Internal_Hbond.Weighted>
0.0000

> <Gold.Chemscore.DEClash.Weighted>
0.0330

> <Gold.Chemscore.DEInternal.Weighted>
3.5319

> <Gold.Chemscore.Rot.Weighted>
3.8287

> <Gold.Chemscore.Internal.Correction.Weighted>
   9.000000E+99

> <Gold.Protein.RotatedTorsions>
[ 6907 6896 6895 6894 ] final   57.08 input  -60.11 | X-H torsion
[ 7974 7965 7964 7962 ] final  -99.98 input  175.53 | X-H torsion
[ 8008 7997 7996 7995 ] final   44.61 input   59.86 | X-H torsion
[ 10167 10162 10161 10158 ] final -139.66 input  -65.29 | X-H torsion
[ 10718 10713 10712 10709 ] final  163.07 input   66.30 | X-H torsion
[ 10763 10752 10751 10750 ] final -129.88 input  -60.55 | X-H torsion
[ 11005 11000 10999 10996 ] final  -19.15 input  -57.11 | X-H torsion

> <Gold.Protein.ActiveResidues>
 VAL166  LYS551  ARG553  GLY616  TRP617  ASP618  TYR619  PRO620  LYS621  CYS622 
 ASP623  PHE694  ASN695  SER759  ASP760  ASP761  ALA762  ILE779  LEU786  VAL792 
 PHE793  MET794  SER795  GLU796  ALA797  LYS798  CYS799  TRP800  GLU811  SER814 

> <Gold.Protein.RotatedAtoms>
  152.3697  134.6752  160.0179 H   0  0  0  0  0  0  0  0  0  0  0  0  # atno 6907 bound_to 6896
  151.7048  133.3306  159.3284 H   0  0  0  0  0  0  0  0  0  0  0  0  # atno 6908 bound_to 6896
  150.7665  134.6518  159.6337 H   0  0  0  0  0  0  0  0  0  0  0  0  # atno 6909 bound_to 6896
  145.3005  140.9376  143.2826 H   0  0  0  0  0  0  0  0  0  0  0  0  # atno 7974 bound_to 7965
  155.3221  140.3397  155.4241 H   0  0  0  0  0  0  0  0  0  0  0  0  # atno 8008 bound_to 7997
  156.1904  140.1695  156.8141 H   0  0  0  0  0  0  0  0  0  0  0  0  # atno 8009 bound_to 7997
  154.5435  140.0720  156.8533 H   0  0  0  0  0  0  0  0  0  0  0  0  # atno 8010 bound_to 7997
  139.8357  143.7388  152.2665 H   0  0  0  0  0  0  0  0  0  0  0  0  # atno 10167 bound_to 10162
  157.1137  131.0474  151.2446 H   0  0  0  0  0  0  0  0  0  0  0  0  # atno 10718 bound_to 10713
  154.8757  135.3881  154.3992 H   0  0  0  0  0  0  0  0  0  0  0  0  # atno 10763 bound_to 10752
  153.4718  135.7030  153.5994 H   0  0  0  0  0  0  0  0  0  0  0  0  # atno 10764 bound_to 10752
  153.4448  135.3847  155.2217 H   0  0  0  0  0  0  0  0  0  0  0  0  # atno 10765 bound_to 10752
  140.8339  133.7976  155.9787 H   0  0  0  0  0  0  0  0  0  0  0  0  # atno 11005 bound_to 11000
  144.9097  139.4544  143.6593 LP  0  0  0  0  0  0  0  0  0  0  0  0  # atno 17320 bound_to 7965
  146.3153  139.7898  142.8988 LP  0  0  0  0  0  0  0  0  0  0  0  0  # atno 17321 bound_to 7965
  139.7609  144.7507  151.0365 LP  0  0  0  0  0  0  0  0  0  0  0  0  # atno 17342 bound_to 10162
  140.7803  143.4752  151.0092 LP  0  0  0  0  0  0  0  0  0  0  0  0  # atno 17343 bound_to 10162
  157.4537  130.7613  149.7174 LP  0  0  0  0  0  0  0  0  0  0  0  0  # atno 17370 bound_to 10713
  155.9844  130.3991  150.3312 LP  0  0  0  0  0  0  0  0  0  0  0  0  # atno 17371 bound_to 10713
  140.8969  134.2427  157.5064 LP  0  0  0  0  0  0  0  0  0  0  0  0  # atno 17394 bound_to 11000
  139.8704  134.9688  156.4643 LP  0  0  0  0  0  0  0  0  0  0  0  0  # atno 17395 bound_to 11000

$$$$
