AV-unprocessed.smi:114|AV-procd|sdf|1118|dock9
  -GOLD-   2262018243D 1   1.00000     0.00000
 Structure written by MMmdl.
 32 34  0  0  0  0  0  0  0  0  1 V2000
  144.5926  134.0142  154.4527 N   0  0  0  0  0  0  0  0  0  0  0  0
  144.4023  135.3411  154.4729 C   0  0  0  0  0  0  0  0  0  0  0  0
  143.1327  135.8097  154.4860 N   0  0  0  0  0  0  0  0  0  0  0  0
  142.8988  137.1276  154.5062 C   0  0  0  0  0  0  0  0  0  0  0  0
  141.5996  137.5080  154.5195 F   0  0  0  0  0  0  0  0  0  0  0  0
  143.8047  138.1109  154.5154 N   0  0  0  0  0  0  0  0  0  0  0  0
  145.0866  137.6437  154.5033 C   0  0  0  0  0  0  0  0  0  0  0  0
  145.4670  136.2751  154.4811 C   0  0  0  0  0  0  0  0  0  0  0  0
  146.8511  136.1671  154.4719 N   0  0  0  0  0  0  0  0  0  0  0  0
  147.2618  137.4070  154.4872 C   0  0  0  0  0  0  0  0  0  0  0  0
  146.2672  138.3601  154.5119 N   0  0  0  0  0  0  0  0  0  0  0  0
  146.4313  139.8482  154.5410 C   0  0  1  0  0  0  0  0  0  0  0  0
  147.2374  140.1844  155.6257 O   0  0  0  0  0  0  0  0  0  0  0  0
  148.0385  141.3078  155.2789 C   0  0  1  0  0  0  0  0  0  0  0  0
  149.2416  141.4438  156.2291 C   0  0  0  0  0  0  0  0  0  0  0  0
  150.0288  142.5565  155.8603 O   0  0  0  0  0  0  0  0  0  0  0  0
  148.3815  141.0506  153.8037 C   0  0  1  0  0  0  0  0  0  0  0  0
  149.5086  140.2003  153.6809 O   0  0  0  0  0  0  0  0  0  0  0  0
  147.1001  140.4127  153.2693 C   0  0  1  0  0  0  0  0  0  0  0  0
  147.3211  139.4832  152.2202 O   0  0  0  0  0  0  0  0  0  0  0  0
  145.4218  140.2335  154.6901 H   0  0  0  0  0  0  0  0  0  0  0  0
  147.4162  142.2038  155.3302 H   0  0  0  0  0  0  0  0  0  0  0  0
  148.6101  141.9793  153.2800 H   0  0  0  0  0  0  0  0  0  0  0  0
  146.4436  141.1978  152.8916 H   0  0  0  0  0  0  0  0  0  0  0  0
  145.5310  133.6411  154.4425 H   0  0  0  0  0  0  0  0  0  0  0  0
  143.7982  133.3910  154.4468 H   0  0  0  0  0  0  0  0  0  0  0  0
  148.3114  137.6627  154.4855 H   0  0  0  0  0  0  0  0  0  0  0  0
  148.9193  141.5348  157.2672 H   0  0  0  0  0  0  0  0  0  0  0  0
  149.8769  140.5603  156.1609 H   0  0  0  0  0  0  0  0  0  0  0  0
  149.5313  143.3429  156.0244 H   0  0  0  0  0  0  0  0  0  0  0  0
  149.5799  139.9298  152.7780 H   0  0  0  0  0  0  0  0  0  0  0  0
  148.0640  139.7738  151.7135 H   0  0  0  0  0  0  0  0  0  0  0  0
  1  2  1  0  0  0  0
  1 25  1  0  0  0  0
  1 26  1  0  0  0  0
  2  8  1  0  0  0  0
  2  3  2  0  0  0  0
  3  4  1  0  0  0  0
  4  5  1  0  0  0  0
  4  6  2  0  0  0  0
  6  7  1  0  0  0  0
  7 11  1  0  0  0  0
  7  8  2  0  0  0  0
  8  9  1  0  0  0  0
  9 10  2  0  0  0  0
 10 11  1  0  0  0  0
 10 27  1  0  0  0  0
 11 12  1  0  0  0  0
 12 21  1  0  0  0  0
 12 19  1  0  0  0  0
 12 13  1  0  0  0  0
 13 14  1  0  0  0  0
 14 22  1  0  0  0  0
 14 15  1  0  0  0  0
 14 17  1  0  0  0  0
 15 16  1  0  0  0  0
 15 28  1  0  0  0  0
 15 29  1  0  0  0  0
 16 30  1  0  0  0  0
 17 23  1  0  0  0  0
 17 18  1  0  0  0  0
 17 19  1  0  0  0  0
 18 31  1  0  0  0  0
 19 24  1  0  0  0  0
 19 20  1  0  0  0  0
 20 32  1  0  0  0  0
M  END
> <s_m_source_file>
AV-unprocessed.smi

> <i_m_source_file_index>
114

> <i_lp_mmshare_version>
43012

> <i_f3d_flags>
0

> <s_epik_input>
RmMobjEpbmMoW05IMl0pYyhjMTIpbltjSF1uMltDQEBIXTNPW0NASF0oW0NIMl1bT0hdKVtDQEBIXShbT0hdKVtDQEBIXTNbT0hd

> <s_epik_cmdline>
J2VwaWtfcHl0aG9uJywgJy1waCcsICc3LjAnLCAnLXRuJywgJzgnLCAnLW1hJywgJzIwMCcsICctbWV0YWxfYmluZGluZycsICctaW1hZScsICc8aW5maWxlLm1hZT4nLCAnLW9tYWUnLCAnPG91dGZpbGUubWFlPic=

> <r_lp_tautomer_probability>
1

> <r_epik_Ionization_Penalty>
1.13199e-05

> <r_epik_Ionization_Penalty_Charging>
0

> <r_epik_Ionization_Penalty_Neutral>
1.13199e-05

> <r_epik_State_Penalty>
-0

> <r_epik_Charging_Adjusted_Penalty>
0

> <i_epik_Tot_Q>
0

> <i_epik_Tot_abs_Q>
0

> <r_epik_Metal_State_Penalty>
-0

> <b_epik_Metal_Only>
0

> <s_epik_Chemistry_Notes>
This compound contains an acetal/aminal-like group ( X-CH(R)-Y where X, Y are N, S, or O) that may be acid/base labile, releasing an aldehyde.

> <s_lp_Force_Field>
OPLS_2005

> <r_lp_Energy>
48.1785

> <b_lp_Chiralities_Consistent>
1

> <s_lp_Variant>
AV-unprocessed.smi:114-12

> <Gold.Version>
5.8.1

> <Gold.Id.Protein>
6NUR|6NUR_protein|mol2

> <Gold.PLP.Fitness>
31.5116

> <Gold.PLP.PLP>
-19.3522

> <Gold.PLP.part.hbond>
-4.8098

> <Gold.PLP.part.metal>
0.0000

> <Gold.PLP.part.buried>
-4.4033

> <Gold.PLP.part.nonpolar>
-11.3682

> <Gold.PLP.part.repulsive>
0.9135

> <Gold.PLP.ligand.clash>
0.0000

> <Gold.PLP.ligand.torsion>
0.0470

> <Gold.PLP.Chemscore.Hbond>
4.0837

> <Gold.PLP.Chemscore.CHOScore>
0.0000

> <Gold.PLP.Chemscore.Metal>
0.0000

> <Gold.Chemscore.Hbonds>
donor molecule, donor type, donor heavy atom, donor atom, acceptor molecule, acceptor atom, score
      L1  H     1    26       P1 10957  1.00
      L1  H    16    30       P1  8028  1.00
      L1  H    18    31       P1  7957  1.00
      L1  H    20    32       P1  7957  1.00
      P1  H  7989  7998       L1    18  0.09

> <Gold.PLP.Chemscore.Internal.Correction>
0.0024

> <Gold.Rescore>
     Score         DG    S(hbond)    S(metal)    S(lipo)     H(rot)  DE(clash)    DE(int)     intcor
     11.39     -11.48       3.96        0.00      26.20       4.03       0.00       0.09       ----

> <Gold.Chemscore.Fitness>
11.3870

> <Gold.Chemscore.DG>
-11.4759

> <Gold.Chemscore.ZeroCoef>
-5.4800

> <Gold.Chemscore.Hbond>
3.9644

> <Gold.Chemscore.Metal>
0.0000

> <Gold.Chemscore.Lipo>
26.2028

> <Gold.Chemscore.Internal_Hbond>
0.0000

> <Gold.Chemscore.DEClash>
0.0004

> <Gold.Chemscore.DEInternal>
0.0884

> <Gold.Chemscore.Rot>
4.0277

> <Gold.Chemscore.Internal.Correction>
   9.000000E+99

> <Gold.Chemscore.Hbonds>
donor molecule, donor type, donor heavy atom, donor atom, acceptor molecule, acceptor atom, score
      L1  H     1    26       P1 10957  0.95
      L1  H    16    30       P1  8028  0.95
      L1  H    18    31       P1  7957  0.99
      L1  H    20    32       P1  7957  0.99

> <Gold.Chemscore.Hbond.Weighted>
-13.2411

> <Gold.Chemscore.Metal.Weighted>
-0.0000

> <Gold.Chemscore.Lipo.Weighted>
-3.0657

> <Gold.Chemscore.Internal_Hbond.Weighted>
0.0000

> <Gold.Chemscore.DEClash.Weighted>
0.0004

> <Gold.Chemscore.DEInternal.Weighted>
0.0884

> <Gold.Chemscore.Rot.Weighted>
10.3110

> <Gold.Chemscore.Internal.Correction.Weighted>
   9.000000E+99

> <Gold.Protein.RotatedTorsions>
[ 6907 6896 6895 6894 ] final  145.07 input  -60.11 | X-H torsion
[ 7974 7965 7964 7962 ] final  169.19 input  175.53 | X-H torsion
[ 8008 7997 7996 7995 ] final -131.42 input   59.86 | X-H torsion
[ 10167 10162 10161 10158 ] final  100.07 input  -65.29 | X-H torsion
[ 10718 10713 10712 10709 ] final  -63.54 input   66.30 | X-H torsion
[ 10763 10752 10751 10750 ] final -167.77 input  -60.55 | X-H torsion
[ 11005 11000 10999 10996 ] final  150.35 input  -57.11 | X-H torsion

> <Gold.Protein.ActiveResidues>
 VAL166  LYS551  ARG553  GLY616  TRP617  ASP618  TYR619  PRO620  LYS621  CYS622 
 ASP623  PHE694  ASN695  SER759  ASP760  ASP761  ALA762  ILE779  LEU786  VAL792 
 PHE793  MET794  SER795  GLU796  ALA797  LYS798  CYS799  TRP800  GLU811  SER814 

> <Gold.Protein.RotatedAtoms>
  152.1856  133.4737  159.4980 H   0  0  0  0  0  0  0  0  0  0  0  0  # atno 6907 bound_to 6896
  150.6942  134.1777  159.4246 H   0  0  0  0  0  0  0  0  0  0  0  0  # atno 6908 bound_to 6896
  151.9690  135.0086  160.0602 H   0  0  0  0  0  0  0  0  0  0  0  0  # atno 6909 bound_to 6896
  144.7363  139.9018  143.6410 H   0  0  0  0  0  0  0  0  0  0  0  0  # atno 7974 bound_to 7965
  155.3120  140.0458  157.3035 H   0  0  0  0  0  0  0  0  0  0  0  0  # atno 8008 bound_to 7997
  154.5428  140.2293  155.8580 H   0  0  0  0  0  0  0  0  0  0  0  0  # atno 8009 bound_to 7997
  156.1896  140.3054  155.9313 H   0  0  0  0  0  0  0  0  0  0  0  0  # atno 8010 bound_to 7997
  139.7560  144.6969  151.0362 H   0  0  0  0  0  0  0  0  0  0  0  0  # atno 10167 bound_to 10162
  156.0784  130.4222  150.1292 H   0  0  0  0  0  0  0  0  0  0  0  0  # atno 10718 bound_to 10713
  154.6697  135.2937  154.9758 H   0  0  0  0  0  0  0  0  0  0  0  0  # atno 10763 bound_to 10752
  154.0789  135.6607  153.4839 H   0  0  0  0  0  0  0  0  0  0  0  0  # atno 10764 bound_to 10752
  153.0479  135.5192  154.7688 H   0  0  0  0  0  0  0  0  0  0  0  0  # atno 10765 bound_to 10752
  140.1124  134.8916  157.1955 H   0  0  0  0  0  0  0  0  0  0  0  0  # atno 11005 bound_to 11000
  146.1066  139.4066  143.0314 LP  0  0  0  0  0  0  0  0  0  0  0  0  # atno 17320 bound_to 7965
  145.7503  140.9975  143.1254 LP  0  0  0  0  0  0  0  0  0  0  0  0  # atno 17321 bound_to 7965
  140.7803  143.4753  151.0091 LP  0  0  0  0  0  0  0  0  0  0  0  0  # atno 17342 bound_to 10162
  139.8440  143.7526  152.3180 LP  0  0  0  0  0  0  0  0  0  0  0  0  # atno 17343 bound_to 10162
  156.9329  130.9719  151.3530 LP  0  0  0  0  0  0  0  0  0  0  0  0  # atno 17370 bound_to 10713
  157.5890  130.8430  149.8632 LP  0  0  0  0  0  0  0  0  0  0  0  0  # atno 17371 bound_to 10713
  140.3073  134.3063  155.7275 LP  0  0  0  0  0  0  0  0  0  0  0  0  # atno 17394 bound_to 11000
  141.2133  133.7629  156.9727 LP  0  0  0  0  0  0  0  0  0  0  0  0  # atno 17395 bound_to 11000

$$$$
