AV-unprocessed.smi:609|AV-procd|sdf|3045|dock5
  -GOLD-   2262023563D 1   1.00000     0.00000
 Structure written by MMmdl.
 43 45  0  0  0  0  0  0  0  0  2 V2000
  153.5575  142.0480  161.5088 C   0  0  0  0  0  0  0  0  0  0  0  0
  152.8369  141.9048  160.1797 C   0  0  0  0  0  0  0  0  0  0  0  0
  153.1346  140.7987  159.3523 C   0  0  0  0  0  0  0  0  0  0  0  0
  152.4851  140.6276  158.1103 C   0  0  0  0  0  0  0  0  0  0  0  0
  152.6195  139.6351  157.1545 N   0  0  0  0  0  0  0  0  0  0  0  0
  151.7472  140.0311  156.2323 C   0  0  0  0  0  0  0  0  0  0  0  0
  151.0718  141.1718  156.4719 N   0  0  0  0  0  0  0  0  0  0  0  0
  150.0870  141.8051  155.6132 C   0  0  0  0  0  0  0  0  0  0  0  0
  149.2891  140.7864  154.7749 C   0  0  2  0  0  0  0  0  0  0  0  0
  149.4597  141.1123  153.4108 O   0  0  0  0  0  0  0  0  0  0  0  0
  147.7853  140.7546  155.1072 C   0  0  0  0  0  0  0  0  0  0  0  0
  146.9220  142.2427  154.5297 S   0  0  0  0  0  0  0  0  0  0  0  0
  145.3388  142.1969  155.3107 C   0  0  0  0  0  0  0  0  0  0  0  0
  144.2301  141.7107  154.7465 N   0  3  0  0  0  0  0  0  0  0  0  0
  143.1781  141.8234  155.6149 C   0  0  0  0  0  0  0  0  0  0  0  0
  143.6754  142.3964  156.7583 C   0  0  0  0  0  0  0  0  0  0  0  0
  145.0138  142.6113  156.5458 N   0  0  0  0  0  0  0  0  0  0  0  0
  145.9604  143.1930  157.5011 C   0  0  0  0  0  0  0  0  0  0  0  0
  151.5228  141.6021  157.7149 C   0  0  0  0  0  0  0  0  0  0  0  0
  151.2179  142.7068  158.5290 C   0  0  0  0  0  0  0  0  0  0  0  0
  151.8765  142.8629  159.7667 C   0  0  0  0  0  0  0  0  0  0  0  0
  151.5399  144.0595  160.6387 C   0  0  0  0  0  0  0  0  0  0  0  0
  154.2168  141.2004  161.6977 H   0  0  0  0  0  0  0  0  0  0  0  0
  152.8420  142.1029  162.3295 H   0  0  0  0  0  0  0  0  0  0  0  0
  154.1649  142.9533  161.5172 H   0  0  0  0  0  0  0  0  0  0  0  0
  153.8663  140.0689  159.6668 H   0  0  0  0  0  0  0  0  0  0  0  0
  151.5978  139.4644  155.3246 H   0  0  0  0  0  0  0  0  0  0  0  0
  149.4119  142.3936  156.2366 H   0  0  0  0  0  0  0  0  0  0  0  0
  150.6057  142.5098  154.9620 H   0  0  0  0  0  0  0  0  0  0  0  0
  149.7085  139.7923  154.9339 H   0  0  0  0  0  0  0  0  0  0  0  0
  149.3249  140.3310  152.8963 H   0  0  0  0  0  0  0  0  0  0  0  0
  147.3159  139.8961  154.6312 H   0  0  0  0  0  0  0  0  0  0  0  0
  147.6309  140.6447  156.1812 H   0  0  0  0  0  0  0  0  0  0  0  0
  142.1806  141.4945  155.3623 H   0  0  0  0  0  0  0  0  0  0  0  0
  143.1873  142.6570  157.6864 H   0  0  0  0  0  0  0  0  0  0  0  0
  145.5975  143.0237  158.5152 H   0  0  0  0  0  0  0  0  0  0  0  0
  146.0369  144.2655  157.3222 H   0  0  0  0  0  0  0  0  0  0  0  0
  146.9394  142.7254  157.3937 H   0  0  0  0  0  0  0  0  0  0  0  0
  150.4823  143.4276  158.2036 H   0  0  0  0  0  0  0  0  0  0  0  0
  150.8346  144.7267  160.1427 H   0  0  0  0  0  0  0  0  0  0  0  0
  152.4380  144.6339  160.8663 H   0  0  0  0  0  0  0  0  0  0  0  0
  151.0903  143.7325  161.5764 H   0  0  0  0  0  0  0  0  0  0  0  0
  144.1797  141.3209  153.8136 H   0  0  0  0  0  0  0  0  0  0  0  0
  1  2  1  0  0  0  0
  1 23  1  0  0  0  0
  1 24  1  0  0  0  0
  1 25  1  0  0  0  0
  2 21  1  0  0  0  0
  2  3  2  0  0  0  0
  3  4  1  0  0  0  0
  3 26  1  0  0  0  0
  4 19  2  0  0  0  0
  4  5  1  0  0  0  0
  5  6  2  0  0  0  0
  6  7  1  0  0  0  0
  6 27  1  0  0  0  0
  7  8  1  0  0  0  0
  7 19  1  0  0  0  0
  8  9  1  0  0  0  0
  8 28  1  0  0  0  0
  8 29  1  0  0  0  0
  9 10  1  0  0  0  0
  9 11  1  0  0  0  0
  9 30  1  0  0  0  0
 10 31  1  0  0  0  0
 11 12  1  0  0  0  0
 11 32  1  0  0  0  0
 11 33  1  0  0  0  0
 12 13  1  0  0  0  0
 13 17  1  0  0  0  0
 13 14  2  0  0  0  0
 14 15  1  0  0  0  0
 14 43  1  0  0  0  0
 15 16  2  0  0  0  0
 15 34  1  0  0  0  0
 16 17  1  0  0  0  0
 16 35  1  0  0  0  0
 17 18  1  0  0  0  0
 18 36  1  0  0  0  0
 18 37  1  0  0  0  0
 18 38  1  0  0  0  0
 19 20  1  0  0  0  0
 20 21  2  0  0  0  0
 20 39  1  0  0  0  0
 21 22  1  0  0  0  0
 22 40  1  0  0  0  0
 22 41  1  0  0  0  0
 22 42  1  0  0  0  0
M  CHG  1  14   1
M  END
> <s_m_source_file>
AV-unprocessed.smi

> <i_m_source_file_index>
609

> <i_lp_mmshare_version>
43012

> <i_f3d_flags>
0

> <s_epik_input>
W0NIM11jKFtjSF0xKWMoW0NIM10pW2NIXWMoYzEyKW4oW2NIXW4yKVtDSDJdW0NASF0oW09IXSlbQ0gyXVNjM25bY0hdW2NIXW4zW0NIM10=

> <s_epik_cmdline>
J2VwaWtfcHl0aG9uJywgJy1waCcsICc3LjAnLCAnLXRuJywgJzgnLCAnLW1hJywgJzIwMCcsICctbWV0YWxfYmluZGluZycsICctaW1hZScsICc8aW5maWxlLm1hZT4nLCAnLW9tYWUnLCAnPG91dGZpbGUubWFlPic=

> <r_lp_tautomer_probability>
1

> <r_epik_Ionization_Penalty>
0.215713

> <r_epik_Ionization_Penalty_Charging>
0

> <r_epik_Ionization_Penalty_Neutral>
0.215713

> <r_epik_State_Penalty>
0.19579

> <r_epik_Charging_Adjusted_Penalty>
0.19579

> <i_epik_Tot_Q>
1

> <i_epik_Tot_abs_Q>
1

> <r_epik_Metal_State_Penalty>
0.429751

> <b_epik_Metal_Only>
0

> <s_lp_Force_Field>
OPLS_2005

> <r_lp_Energy>
11.8688

> <b_lp_Chiralities_Consistent>
1

> <s_lp_Variant>
AV-unprocessed.smi:609-1

> <Gold.Version>
5.8.1

> <Gold.Id.Protein>
6NUR|6NUR_protein|mol2

> <Gold.PLP.Fitness>
55.3269

> <Gold.PLP.PLP>
-44.3917

> <Gold.PLP.part.hbond>
-5.4699

> <Gold.PLP.part.metal>
0.0000

> <Gold.PLP.part.buried>
-2.8331

> <Gold.PLP.part.nonpolar>
-35.0097

> <Gold.PLP.part.repulsive>
0.0000

> <Gold.PLP.ligand.clash>
0.0000

> <Gold.PLP.ligand.torsion>
1.5482

> <Gold.PLP.Chemscore.Hbond>
4.6532

> <Gold.PLP.Chemscore.CHOScore>
0.0000

> <Gold.PLP.Chemscore.Metal>
0.0000

> <Gold.Chemscore.Hbonds>
donor molecule, donor type, donor heavy atom, donor atom, acceptor molecule, acceptor atom, score
      L1  H    10    31       P1  7957  0.59
      L1  H    14    43       P1 10175  2.00
      P1  H  7989  7998       L1    10  0.07
      P1  H  7997  8008       L1     5  1.00
      P1  H  8011  8017       L1    10  1.00

> <Gold.PLP.Chemscore.Internal.Correction>
0.0720

> <Gold.Rescore>
     Score         DG    S(hbond)    S(metal)    S(lipo)     H(rot)  DE(clash)    DE(int)     intcor
     19.63     -21.46       3.12        0.00     102.52       2.52       0.27       1.56       ----

> <Gold.Chemscore.Fitness>
19.6326

> <Gold.Chemscore.DG>
-21.4617

> <Gold.Chemscore.ZeroCoef>
-5.4800

> <Gold.Chemscore.Hbond>
3.1216

> <Gold.Chemscore.Metal>
0.0000

> <Gold.Chemscore.Lipo>
102.5188

> <Gold.Chemscore.Internal_Hbond>
0.0000

> <Gold.Chemscore.DEClash>
0.2688

> <Gold.Chemscore.DEInternal>
1.5603

> <Gold.Chemscore.Rot>
2.5153

> <Gold.Chemscore.Internal.Correction>
   9.000000E+99

> <Gold.Chemscore.Hbonds>
donor molecule, donor type, donor heavy atom, donor atom, acceptor molecule, acceptor atom, score
      L1  H    10    31       P1  7957  0.60
      L1  H    14    43       P1 10175  0.25
      P1  H  7997  8008       L1     5  0.10
      P1  H  8011  8017       L1    10  0.64

> <Gold.Chemscore.Hbond.Weighted>
-10.4262

> <Gold.Chemscore.Metal.Weighted>
-0.0000

> <Gold.Chemscore.Lipo.Weighted>
-11.9947

> <Gold.Chemscore.Internal_Hbond.Weighted>
0.0000

> <Gold.Chemscore.DEClash.Weighted>
0.2688

> <Gold.Chemscore.DEInternal.Weighted>
1.5603

> <Gold.Chemscore.Rot.Weighted>
6.4391

> <Gold.Chemscore.Internal.Correction.Weighted>
   9.000000E+99

> <Gold.Protein.RotatedTorsions>
[ 6907 6896 6895 6894 ] final  -11.85 input  -60.11 | X-H torsion
[ 7974 7965 7964 7962 ] final  126.87 input  175.53 | X-H torsion
[ 8008 7997 7996 7995 ] final  -43.42 input   59.86 | X-H torsion
[ 10167 10162 10161 10158 ] final   54.53 input  -65.29 | X-H torsion
[ 10718 10713 10712 10709 ] final -109.35 input   66.30 | X-H torsion
[ 10763 10752 10751 10750 ] final  102.94 input  -60.55 | X-H torsion
[ 11005 11000 10999 10996 ] final   31.37 input  -57.11 | X-H torsion

> <Gold.Protein.ActiveResidues>
 VAL166  LYS551  ARG553  GLY616  TRP617  ASP618  TYR619  PRO620  LYS621  CYS622 
 ASP623  PHE694  ASN695  SER759  ASP760  ASP761  ALA762  ILE779  LEU786  VAL792 
 PHE793  MET794  SER795  GLU796  ALA797  LYS798  CYS799  TRP800  GLU811  SER814 

> <Gold.Protein.RotatedAtoms>
  151.3798  135.0937  159.9491 H   0  0  0  0  0  0  0  0  0  0  0  0  # atno 6907 bound_to 6896
  152.5111  133.9083  159.7486 H   0  0  0  0  0  0  0  0  0  0  0  0  # atno 6908 bound_to 6896
  150.9514  133.6489  159.2800 H   0  0  0  0  0  0  0  0  0  0  0  0  # atno 6909 bound_to 6896
  145.0569  139.3836  143.5025 H   0  0  0  0  0  0  0  0  0  0  0  0  # atno 7974 bound_to 7965
  154.3997  140.1448  156.3515 H   0  0  0  0  0  0  0  0  0  0  0  0  # atno 8008 bound_to 7997
  155.8264  140.3467  155.5524 H   0  0  0  0  0  0  0  0  0  0  0  0  # atno 8009 bound_to 7997
  155.8234  140.0901  157.1826 H   0  0  0  0  0  0  0  0  0  0  0  0  # atno 8010 bound_to 7997
  140.2291  144.3706  150.6421 H   0  0  0  0  0  0  0  0  0  0  0  0  # atno 10167 bound_to 10162
  156.0532  130.5759  150.8087 H   0  0  0  0  0  0  0  0  0  0  0  0  # atno 10718 bound_to 10713
  153.3461  135.3993  155.1610 H   0  0  0  0  0  0  0  0  0  0  0  0  # atno 10763 bound_to 10752
  154.8653  135.3645  154.5283 H   0  0  0  0  0  0  0  0  0  0  0  0  # atno 10764 bound_to 10752
  153.5731  135.7078  153.5556 H   0  0  0  0  0  0  0  0  0  0  0  0  # atno 10765 bound_to 10752
  140.2845  134.2934  155.7791 H   0  0  0  0  0  0  0  0  0  0  0  0  # atno 11005 bound_to 11000
  146.3522  140.0248  142.8655 LP  0  0  0  0  0  0  0  0  0  0  0  0  # atno 17320 bound_to 7965
  145.1457  140.9595  143.4462 LP  0  0  0  0  0  0  0  0  0  0  0  0  # atno 17321 bound_to 7965
  140.6198  143.2175  151.6716 LP  0  0  0  0  0  0  0  0  0  0  0  0  # atno 17342 bound_to 10162
  139.5116  144.3502  152.0659 LP  0  0  0  0  0  0  0  0  0  0  0  0  # atno 17343 bound_to 10162
  157.5478  131.0943  150.9737 LP  0  0  0  0  0  0  0  0  0  0  0  0  # atno 17370 bound_to 10713
  157.0005  130.5598  149.5311 LP  0  0  0  0  0  0  0  0  0  0  0  0  # atno 17371 bound_to 10713
  141.2157  133.7546  156.9532 LP  0  0  0  0  0  0  0  0  0  0  0  0  # atno 17394 bound_to 11000
  140.1252  134.9391  157.2260 LP  0  0  0  0  0  0  0  0  0  0  0  0  # atno 17395 bound_to 11000

$$$$
