AV-unprocessed.smi:484|AV-procd|sdf|2690|dock4
  -GOLD-   2262023123D 1   1.00000     0.00000
 Structure written by MMmdl.
 47 49  0  0  0  0  0  0  0  0  2 V2000
  153.2350  142.3051  162.7177 C   0  0  0  0  0  0  0  0  0  0  0  0
  152.4005  143.4600  162.1529 C   0  0  0  0  0  0  0  0  0  0  0  0
  151.9995  143.2259  160.7089 C   0  0  0  0  0  0  0  0  0  0  0  0
  152.5862  142.1800  159.9689 C   0  0  0  0  0  0  0  0  0  0  0  0
  152.2086  141.9637  158.6299 C   0  0  0  0  0  0  0  0  0  0  0  0
  151.2441  142.7838  158.0098 C   0  0  0  0  0  0  0  0  0  0  0  0
  150.9416  142.5063  156.6943 O   0  0  0  0  0  0  0  0  0  0  0  0
  151.1336  141.1789  156.2244 C   0  0  0  0  0  0  0  0  0  0  0  0
  149.9669  140.8090  155.2938 C   0  0  1  0  0  0  0  0  0  0  0  0
  150.4552  139.9162  154.3137 O   0  0  0  0  0  0  0  0  0  0  0  0
  148.7388  140.1973  156.0104 C   0  0  0  0  0  0  0  0  0  0  0  0
  147.4331  140.6536  155.4929 N   0  0  0  0  0  0  0  0  0  0  0  0
  146.7826  140.3572  154.3269 C   0  0  0  0  0  0  0  0  0  0  0  0
  147.2474  139.4621  153.2218 C   0  0  0  0  0  0  0  0  0  0  0  0
  147.1072  140.0498  151.9464 O   0  0  0  0  0  0  0  0  0  0  0  0
  145.6048  141.0434  154.3377 N   0  3  0  0  0  0  0  0  0  0  0  0
  145.4872  141.7689  155.5217 C   0  0  0  0  0  0  0  0  0  0  0  0
  144.4709  142.6016  155.9805 C   0  0  0  0  0  0  0  0  0  0  0  0
  144.6588  143.1901  157.2479 C   0  0  0  0  0  0  0  0  0  0  0  0
  145.8204  142.9409  158.0069 C   0  0  0  0  0  0  0  0  0  0  0  0
  146.8432  142.0944  157.5301 C   0  0  0  0  0  0  0  0  0  0  0  0
  146.6534  141.5188  156.2733 C   0  0  0  0  0  0  0  0  0  0  0  0
  150.6552  143.8329  158.7600 C   0  0  0  0  0  0  0  0  0  0  0  0
  151.0323  144.0499  160.0994 C   0  0  0  0  0  0  0  0  0  0  0  0
  153.5116  142.4969  163.7546 H   0  0  0  0  0  0  0  0  0  0  0  0
  154.1542  142.1673  162.1475 H   0  0  0  0  0  0  0  0  0  0  0  0
  152.6792  141.3672  162.6899 H   0  0  0  0  0  0  0  0  0  0  0  0
  151.5021  143.5969  162.7559 H   0  0  0  0  0  0  0  0  0  0  0  0
  152.9625  144.3921  162.2248 H   0  0  0  0  0  0  0  0  0  0  0  0
  153.3264  141.5394  160.4257 H   0  0  0  0  0  0  0  0  0  0  0  0
  152.6660  141.1598  158.0719 H   0  0  0  0  0  0  0  0  0  0  0  0
  152.0722  141.1294  155.6693 H   0  0  0  0  0  0  0  0  0  0  0  0
  151.2013  140.4726  157.0530 H   0  0  0  0  0  0  0  0  0  0  0  0
  149.6470  141.7090  154.7676 H   0  0  0  0  0  0  0  0  0  0  0  0
  149.7181  139.5274  153.8683 H   0  0  0  0  0  0  0  0  0  0  0  0
  148.7658  139.1120  155.9178 H   0  0  0  0  0  0  0  0  0  0  0  0
  148.7804  140.3936  157.0820 H   0  0  0  0  0  0  0  0  0  0  0  0
  148.2979  139.2192  153.3813 H   0  0  0  0  0  0  0  0  0  0  0  0
  146.6906  138.5260  153.2329 H   0  0  0  0  0  0  0  0  0  0  0  0
  147.9600  140.3312  151.6507 H   0  0  0  0  0  0  0  0  0  0  0  0
  143.5791  142.7911  155.4013 H   0  0  0  0  0  0  0  0  0  0  0  0
  143.8966  143.8441  157.6467 H   0  0  0  0  0  0  0  0  0  0  0  0
  145.9295  143.4085  158.9747 H   0  0  0  0  0  0  0  0  0  0  0  0
  147.7278  141.9133  158.1219 H   0  0  0  0  0  0  0  0  0  0  0  0
  149.9101  144.4856  158.3314 H   0  0  0  0  0  0  0  0  0  0  0  0
  150.5740  144.8518  160.6599 H   0  0  0  0  0  0  0  0  0  0  0  0
  144.9274  141.0043  153.5869 H   0  0  0  0  0  0  0  0  0  0  0  0
  1  2  1  0  0  0  0
  1 25  1  0  0  0  0
  1 26  1  0  0  0  0
  1 27  1  0  0  0  0
  2  3  1  0  0  0  0
  2 28  1  0  0  0  0
  2 29  1  0  0  0  0
  3 24  1  0  0  0  0
  3  4  2  0  0  0  0
  4  5  1  0  0  0  0
  4 30  1  0  0  0  0
  5  6  2  0  0  0  0
  5 31  1  0  0  0  0
  6  7  1  0  0  0  0
  6 23  1  0  0  0  0
  7  8  1  0  0  0  0
  8  9  1  0  0  0  0
  8 32  1  0  0  0  0
  8 33  1  0  0  0  0
  9 10  1  0  0  0  0
  9 11  1  0  0  0  0
  9 34  1  0  0  0  0
 10 35  1  0  0  0  0
 11 12  1  0  0  0  0
 11 36  1  0  0  0  0
 11 37  1  0  0  0  0
 12 22  1  0  0  0  0
 12 13  1  0  0  0  0
 13 14  1  0  0  0  0
 13 16  2  0  0  0  0
 14 15  1  0  0  0  0
 14 38  1  0  0  0  0
 14 39  1  0  0  0  0
 15 40  1  0  0  0  0
 16 17  1  0  0  0  0
 16 47  1  0  0  0  0
 17 22  2  0  0  0  0
 17 18  1  0  0  0  0
 18 19  2  0  0  0  0
 18 41  1  0  0  0  0
 19 20  1  0  0  0  0
 19 42  1  0  0  0  0
 20 21  2  0  0  0  0
 20 43  1  0  0  0  0
 21 22  1  0  0  0  0
 21 44  1  0  0  0  0
 23 24  2  0  0  0  0
 23 45  1  0  0  0  0
 24 46  1  0  0  0  0
M  CHG  1  16   1
M  END
> <s_m_source_file>
AV-unprocessed.smi

> <i_m_source_file_index>
484

> <i_lp_mmshare_version>
43012

> <i_f3d_flags>
0

> <s_epik_input>
W0NIM11bQ0gyXWMxW2NIXVtjSF1jKFtjSF1bY0hdMSlPW0NIMl1bQ0BIXShbT0hdKVtDSDJdbihjKG4yKVtDSDJdW09IXSljKGMyMylbY0hdW2NIXVtjSF1bY0hdMw==

> <s_epik_cmdline>
J2VwaWtfcHl0aG9uJywgJy1waCcsICc3LjAnLCAnLXRuJywgJzgnLCAnLW1hJywgJzIwMCcsICctbWV0YWxfYmluZGluZycsICctaW1hZScsICc8aW5maWxlLm1hZT4nLCAnLW9tYWUnLCAnPG91dGZpbGUubWFlPic=

> <r_lp_tautomer_probability>
1

> <r_epik_Ionization_Penalty>
1.43166

> <r_epik_Ionization_Penalty_Charging>
1.43081

> <r_epik_Ionization_Penalty_Neutral>
0.000858184

> <r_epik_State_Penalty>
1.51538

> <r_epik_Charging_Adjusted_Penalty>
2.94618

> <i_epik_Tot_Q>
1

> <i_epik_Tot_abs_Q>
1

> <r_epik_Metal_State_Penalty>
5.56039

> <b_epik_Metal_Only>
0

> <s_lp_Force_Field>
OPLS_2005

> <r_lp_Energy>
17.0937

> <b_lp_Chiralities_Consistent>
1

> <s_lp_Variant>
AV-unprocessed.smi:484-4

> <Gold.Version>
5.8.1

> <Gold.Id.Protein>
6NUR|6NUR_protein|mol2

> <Gold.PLP.Fitness>
56.4473

> <Gold.PLP.PLP>
-48.1231

> <Gold.PLP.part.hbond>
-3.1861

> <Gold.PLP.part.metal>
0.0000

> <Gold.PLP.part.buried>
-7.4988

> <Gold.PLP.part.nonpolar>
-36.7901

> <Gold.PLP.part.repulsive>
0.3997

> <Gold.PLP.ligand.clash>
0.0298

> <Gold.PLP.ligand.torsion>
1.9445

> <Gold.PLP.Chemscore.Hbond>
4.0000

> <Gold.PLP.Chemscore.CHOScore>
0.0000

> <Gold.PLP.Chemscore.Metal>
0.0000

> <Gold.Chemscore.Hbonds>
donor molecule, donor type, donor heavy atom, donor atom, acceptor molecule, acceptor atom, score
      L1  H    15    40       P1  7957  1.00
      L1  H    16    47       P1 10175  2.00
      P1  H  7989  7998       L1    10  1.00

> <Gold.PLP.Chemscore.Internal.Correction>
0.2430

> <Gold.Rescore>
     Score         DG    S(hbond)    S(metal)    S(lipo)     H(rot)  DE(clash)    DE(int)     intcor
     18.31     -20.34       2.52        0.00     124.66       3.18       0.38       1.65       ----

> <Gold.Chemscore.Fitness>
18.3136

> <Gold.Chemscore.DG>
-20.3400

> <Gold.Chemscore.ZeroCoef>
-5.4800

> <Gold.Chemscore.Hbond>
2.5197

> <Gold.Chemscore.Metal>
0.0000

> <Gold.Chemscore.Lipo>
124.6604

> <Gold.Chemscore.Internal_Hbond>
0.0000

> <Gold.Chemscore.DEClash>
0.3766

> <Gold.Chemscore.DEInternal>
1.6499

> <Gold.Chemscore.Rot>
3.1801

> <Gold.Chemscore.Internal.Correction>
   9.000000E+99

> <Gold.Chemscore.Hbonds>
donor molecule, donor type, donor heavy atom, donor atom, acceptor molecule, acceptor atom, score
      L1  H    15    40       P1  7957  0.97
      L1  H    16    47       P1 10175  0.70
      P1  H  7989  7998       L1    10  0.39

> <Gold.Chemscore.Hbond.Weighted>
-8.4157

> <Gold.Chemscore.Metal.Weighted>
-0.0000

> <Gold.Chemscore.Lipo.Weighted>
-14.5853

> <Gold.Chemscore.Internal_Hbond.Weighted>
0.0000

> <Gold.Chemscore.DEClash.Weighted>
0.3766

> <Gold.Chemscore.DEInternal.Weighted>
1.6499

> <Gold.Chemscore.Rot.Weighted>
8.1410

> <Gold.Chemscore.Internal.Correction.Weighted>
   9.000000E+99

> <Gold.Protein.RotatedTorsions>
[ 6907 6896 6895 6894 ] final   37.51 input  -60.11 | X-H torsion
[ 7974 7965 7964 7962 ] final   24.33 input  175.53 | X-H torsion
[ 8008 7997 7996 7995 ] final   13.08 input   59.86 | X-H torsion
[ 10167 10162 10161 10158 ] final  -27.15 input  -65.29 | X-H torsion
[ 10718 10713 10712 10709 ] final -130.72 input   66.30 | X-H torsion
[ 10763 10752 10751 10750 ] final -167.79 input  -60.55 | X-H torsion
[ 11005 11000 10999 10996 ] final  117.09 input  -57.11 | X-H torsion

> <Gold.Protein.ActiveResidues>
 VAL166  LYS551  ARG553  GLY616  TRP617  ASP618  TYR619  PRO620  LYS621  CYS622 
 ASP623  PHE694  ASN695  SER759  ASP760  ASP761  ALA762  ILE779  LEU786  VAL792 
 PHE793  MET794  SER795  GLU796  ALA797  LYS798  CYS799  TRP800  GLU811  SER814 

> <Gold.Protein.RotatedAtoms>
  152.1441  134.9039  160.0551 H   0  0  0  0  0  0  0  0  0  0  0  0  # atno 6907 bound_to 6896
  152.0096  133.3851  159.4222 H   0  0  0  0  0  0  0  0  0  0  0  0  # atno 6908 bound_to 6896
  150.6868  134.3667  159.5018 H   0  0  0  0  0  0  0  0  0  0  0  0  # atno 6909 bound_to 6896
  146.1942  139.7619  142.8809 H   0  0  0  0  0  0  0  0  0  0  0  0  # atno 7974 bound_to 7965
  154.8295  140.2897  155.5732 H   0  0  0  0  0  0  0  0  0  0  0  0  # atno 8008 bound_to 7997
  156.3004  140.2535  156.3148 H   0  0  0  0  0  0  0  0  0  0  0  0  # atno 8009 bound_to 7997
  154.9248  140.0385  157.2006 H   0  0  0  0  0  0  0  0  0  0  0  0  # atno 8010 bound_to 7997
  140.7279  143.4118  151.1094 H   0  0  0  0  0  0  0  0  0  0  0  0  # atno 10167 bound_to 10162
  156.2173  130.6956  151.0717 H   0  0  0  0  0  0  0  0  0  0  0  0  # atno 10718 bound_to 10713
  154.6695  135.2937  154.9760 H   0  0  0  0  0  0  0  0  0  0  0  0  # atno 10763 bound_to 10752
  154.0792  135.6607  153.4839 H   0  0  0  0  0  0  0  0  0  0  0  0  # atno 10764 bound_to 10752
  153.0478  135.5193  154.7685 H   0  0  0  0  0  0  0  0  0  0  0  0  # atno 10765 bound_to 10752
  139.9063  134.9606  156.7298 H   0  0  0  0  0  0  0  0  0  0  0  0  # atno 11005 bound_to 11000
  145.3695  141.0340  143.3239 LP  0  0  0  0  0  0  0  0  0  0  0  0  # atno 17320 bound_to 7965
  144.8547  139.5267  143.6840 LP  0  0  0  0  0  0  0  0  0  0  0  0  # atno 17321 bound_to 7965
  139.7752  143.8436  152.3128 LP  0  0  0  0  0  0  0  0  0  0  0  0  # atno 17342 bound_to 10162
  139.8368  144.7228  150.9381 LP  0  0  0  0  0  0  0  0  0  0  0  0  # atno 17343 bound_to 10162
  157.7069  131.0752  150.6634 LP  0  0  0  0  0  0  0  0  0  0  0  0  # atno 17370 bound_to 10713
  156.6696  130.4535  149.5661 LP  0  0  0  0  0  0  0  0  0  0  0  0  # atno 17371 bound_to 10713
  140.6934  133.9370  155.7980 LP  0  0  0  0  0  0  0  0  0  0  0  0  # atno 17394 bound_to 11000
  141.0425  134.0601  157.3885 LP  0  0  0  0  0  0  0  0  0  0  0  0  # atno 17395 bound_to 11000

$$$$
