#       Name:                AV-unprocessed.smi:1748
#       Creating user name   scv26
#       Creation time:       Fri Mar 27 08:25:46 2020


#       File generated by GOLD software.
#

@<TRIPOS>MOLECULE
AV-unprocessed.smi:1748
    44    45     1
SMALL
NO_CHARGES


@<TRIPOS>ATOM
      1 ****        -2.4308  -2.3578   2.6244 C.3            1 S1                 0.0000
      2 ****        -2.1663  -2.1529   1.1843 N.4            1 S1                 1.0000
      3 ****        -2.6667  -3.2750   0.3512 C.3            1 S1                 0.0000
      4 ****        -2.2632  -3.0947  -1.1223 C.3            1 S1                 0.0000
      5 ****        -2.7222  -1.7304  -1.6653 C.3            1 S1                 0.0000
      6 ****        -2.2322  -0.5829  -0.7632 C.3            1 S1                 0.0000
      7 ****        -0.7808  -0.4405  -0.8821 N.am           1 S1                 0.0000
      8 ****        -0.0738   0.6358  -0.5093 C.2            1 S1                 0.0000
      9 ****        -0.5846   1.6351  -0.0043 O.2            1 S1                 0.0000
     10 ****         1.2393   0.4507  -0.7364 N.am           1 S1                 0.0000
     11 ****         2.3117   1.3248  -0.4931 C.2            1 S1                 0.0000
     12 ****         2.1946   2.6680  -0.3248 C.2            1 S1                 0.0000
     13 ****         3.3494   3.5186  -0.0868 C.2            1 S1                 0.0000
     14 ****         3.2055   5.0080   0.1848 C.3            1 S1                 0.0000
     15 ****         4.1154   5.4251   1.0661 F              1 S1                 0.0000
     16 ****         3.3788   5.6927  -0.9449 F              1 S1                 0.0000
     17 ****         1.9953   5.2959   0.6642 F              1 S1                 0.0000
     18 ****         4.5460   2.9051  -0.0359 C.2            1 S1                 0.0000
     19 ****         4.6772   1.5285  -0.2322 N.am           1 S1                 0.0000
     20 ****         3.6403   0.6915  -0.4596 C.2            1 S1                 0.0000
     21 ****         3.8364  -0.5127  -0.6204 O.2            1 S1                 0.0000
     22 ****        -2.6644  -0.8417   0.6978 C.3            1 S1                 0.0000
     23 ****         5.6116   1.1468  -0.1969 H              1 S1                 0.0000
     24 ****        -3.5025  -2.3851   2.8260 H              1 S1                 0.0000
     25 ****        -1.9915  -1.5526   3.2144 H              1 S1                 0.0000
     26 ****        -1.9934  -3.2963   2.9664 H              1 S1                 0.0000
     27 ****        -2.2644  -4.2172   0.7255 H              1 S1                 0.0000
     28 ****        -3.7528  -3.3369   0.4379 H              1 S1                 0.0000
     29 ****        -1.1805  -3.1858  -1.2181 H              1 S1                 0.0000
     30 ****        -2.6909  -3.8968  -1.7247 H              1 S1                 0.0000
     31 ****        -2.3699  -1.5912  -2.6883 H              1 S1                 0.0000
     32 ****        -3.8120  -1.7114  -1.7122 H              1 S1                 0.0000
     33 ****        -2.6923   0.3439  -1.1105 H              1 S1                 0.0000
     34 ****        -0.2801  -1.2153  -1.2928 H              1 S1                 0.0000
     35 ****         1.5118  -0.4550  -1.0903 H              1 S1                 0.0000
     36 ****         1.2331   3.1512  -0.3858 H              1 S1                 0.0000
     37 ****         5.4797   3.4111   0.1611 H              1 S1                 0.0000
     38 ****        -3.7528  -0.8191   0.7726 H              1 S1                 0.0000
     39 ****        -2.2960  -0.0460   1.3466 H              1 S1                 0.0000
     40 ****        -1.1620  -2.1366   1.0775 H              1 S1                 0.0000
     41 ****        -1.5727   1.6701   0.1454 LP             1 S1                 0.0000
     42 ****        -0.0116   2.4121   0.2563 LP             1 S1                 0.0000
     43 ****         3.0651  -1.1271  -0.7864 LP             1 S1                 0.0000
     44 ****         4.7671  -0.8768  -0.5851 LP             1 S1                 0.0000
@<TRIPOS>BOND
    1    1    2 1     
    2    1   24 1     
    3    1   25 1     
    4    1   26 1     
    5    2   22 1     
    6    2    3 1     
    7    2   40 1     
    8    3    4 1     
    9    3   27 1     
   10    3   28 1     
   11    4    5 1     
   12    4   29 1     
   13    4   30 1     
   14    5    6 1     
   15    5   31 1     
   16    5   32 1     
   17    6    7 1     
   18    6   22 1     
   19    6   33 1     
   20    7    8 am    
   21    7   34 1     
   22    8    9 2     
   23    8   10 am    
   24   10   11 1     
   25   10   35 1     
   26   11   20 1     
   27   11   12 2     
   28   12   13 1     
   29   12   36 1     
   30   13   14 1     
   31   13   18 2     
   32   14   15 1     
   33   14   16 1     
   34   14   17 1     
   35   18   19 1     
   36   18   37 1     
   37   19   23 1     
   38   19   20 am    
   39   20   21 2     
   40   22   38 1     
   41   22   39 1     
   42    9   41 1     
   43    9   42 1     
   44   21   43 1     
   45   21   44 1     
@<TRIPOS>SUBSTRUCTURE
      1 S1             1
@<TRIPOS>SET
LONE_PAIRS      STATIC     ATOMS    <user>   **** ""
4 41 42 43 44
DONOR_HYDROGENS      STATIC     ATOMS    <user>   **** ""
4 40 34 35 23
ATOM$BLUE        STATIC     ATOMS    COLORGROUP SYSTEM
4 41 42 43 44
ATOM$RED        STATIC     ATOMS    COLORGROUP SYSTEM
4 40 34 35 23
