AV-unprocessed.smi:1603|AV-procd|sdf|6445|dock10
  -GOLD-   22720 7 93D 1   1.00000     0.00000
 Structure written by MMmdl.
 44 46  0  0  0  0  0  0  0  0  1 V2000
  153.3576  139.2413  158.2896 O   0  0  0  0  0  0  0  0  0  0  0  0
  152.9602  140.3692  158.5835 C   0  0  0  0  0  0  0  0  0  0  0  0
  153.3811  141.0827  159.7990 C   0  0  0  0  0  0  0  0  0  0  0  0
  154.3804  140.3924  160.7235 C   0  0  0  0  0  0  0  0  0  0  0  0
  154.4669  141.0067  161.9044 F   0  0  0  0  0  0  0  0  0  0  0  0
  154.0159  139.1292  160.9458 F   0  0  0  0  0  0  0  0  0  0  0  0
  155.5976  140.3853  160.1781 F   0  0  0  0  0  0  0  0  0  0  0  0
  152.8931  142.3186  160.0655 C   0  0  0  0  0  0  0  0  0  0  0  0
  151.9497  142.9428  159.1606 C   0  0  0  0  0  0  0  0  0  0  0  0
  151.3533  144.2998  159.4028 C   0  0  0  0  0  0  0  0  0  0  0  0
  152.1294  145.5760  159.1697 C   0  0  0  0  0  0  0  0  0  0  0  0
  151.7747  145.1526  160.5766 C   0  0  0  0  0  0  0  0  0  0  0  0
  151.5905  142.3194  158.0895 N   0  0  0  0  0  0  0  0  0  0  0  0
  152.0890  141.0653  157.7939 N   0  0  0  0  0  0  0  0  0  0  0  0
  151.5828  140.5160  156.5277 C   0  0  0  0  0  0  0  0  0  0  0  0
  150.0397  140.5337  156.4516 C   0  0  2  0  0  0  0  0  0  0  0  0
  149.5942  139.2176  156.7131 O   0  0  0  0  0  0  0  0  0  0  0  0
  149.4881  140.9853  155.0799 C   0  0  0  0  0  0  0  0  0  0  0  0
  148.2491  141.7603  155.1331 N   0  0  0  0  0  0  0  0  0  0  0  0
  147.5892  141.7813  153.8321 C   0  0  0  0  0  0  0  0  0  0  0  0
  146.2827  142.5931  153.8632 C   0  0  0  0  0  0  0  0  0  0  0  0
  145.4153  142.0596  154.8582 O   0  0  0  0  0  0  0  0  0  0  0  0
  146.0024  142.0604  156.1555 C   0  0  0  0  0  0  0  0  0  0  0  0
  147.3121  141.2527  156.1328 C   0  0  0  0  0  0  0  0  0  0  0  0
  153.1947  142.8598  160.9498 H   0  0  0  0  0  0  0  0  0  0  0  0
  150.2981  144.3101  159.1358 H   0  0  0  0  0  0  0  0  0  0  0  0
  153.1751  145.4997  158.8772 H   0  0  0  0  0  0  0  0  0  0  0  0
  151.5892  146.4214  158.7484 H   0  0  0  0  0  0  0  0  0  0  0  0
  150.9985  145.7150  161.0916 H   0  0  0  0  0  0  0  0  0  0  0  0
  152.5838  144.7896  161.2080 H   0  0  0  0  0  0  0  0  0  0  0  0
  152.0075  141.0187  155.6573 H   0  0  0  0  0  0  0  0  0  0  0  0
  151.9348  139.4850  156.4542 H   0  0  0  0  0  0  0  0  0  0  0  0
  149.6527  141.1785  157.2422 H   0  0  0  0  0  0  0  0  0  0  0  0
  150.1829  138.8199  157.3360 H   0  0  0  0  0  0  0  0  0  0  0  0
  150.2391  141.6147  154.6056 H   0  0  0  0  0  0  0  0  0  0  0  0
  149.3757  140.1294  154.4122 H   0  0  0  0  0  0  0  0  0  0  0  0
  148.2583  142.2071  153.0836 H   0  0  0  0  0  0  0  0  0  0  0  0
  147.3708  140.7615  153.5113 H   0  0  0  0  0  0  0  0  0  0  0  0
  146.4858  143.6446  154.0720 H   0  0  0  0  0  0  0  0  0  0  0  0
  145.7848  142.5481  152.8948 H   0  0  0  0  0  0  0  0  0  0  0  0
  146.1875  143.0866  156.4769 H   0  0  0  0  0  0  0  0  0  0  0  0
  145.3000  141.6238  156.8656 H   0  0  0  0  0  0  0  0  0  0  0  0
  147.0874  140.2044  155.9305 H   0  0  0  0  0  0  0  0  0  0  0  0
  147.7623  141.2903  157.1245 H   0  0  0  0  0  0  0  0  0  0  0  0
  1  2  2  0  0  0  0
  2 14  1  0  0  0  0
  2  3  1  0  0  0  0
  3  4  1  0  0  0  0
  3  8  2  0  0  0  0
  4  5  1  0  0  0  0
  4  6  1  0  0  0  0
  4  7  1  0  0  0  0
  8  9  1  0  0  0  0
  8 25  1  0  0  0  0
  9 10  1  0  0  0  0
  9 13  2  0  0  0  0
 10 12  1  0  0  0  0
 10 11  1  0  0  0  0
 10 26  1  0  0  0  0
 11 12  1  0  0  0  0
 11 27  1  0  0  0  0
 11 28  1  0  0  0  0
 12 29  1  0  0  0  0
 12 30  1  0  0  0  0
 13 14  1  0  0  0  0
 14 15  1  0  0  0  0
 15 16  1  0  0  0  0
 15 31  1  0  0  0  0
 15 32  1  0  0  0  0
 16 17  1  0  0  0  0
 16 18  1  0  0  0  0
 16 33  1  0  0  0  0
 17 34  1  0  0  0  0
 18 19  1  0  0  0  0
 18 35  1  0  0  0  0
 18 36  1  0  0  0  0
 19 24  1  0  0  0  0
 19 20  1  0  0  0  0
 20 21  1  0  0  0  0
 20 37  1  0  0  0  0
 20 38  1  0  0  0  0
 21 22  1  0  0  0  0
 21 39  1  0  0  0  0
 21 40  1  0  0  0  0
 22 23  1  0  0  0  0
 23 24  1  0  0  0  0
 23 41  1  0  0  0  0
 23 42  1  0  0  0  0
 24 43  1  0  0  0  0
 24 44  1  0  0  0  0
M  END
> <s_m_source_file>
AV-unprocessed.smi

> <i_m_source_file_index>
1603

> <i_lp_mmshare_version>
43012

> <i_f3d_flags>
0

> <s_epik_input>
Tz1jMWMoQyhGKShGKUYpW2NIXWMoW0NIXTJbQ0gyXVtDSDJdMilubjFbQ0gyXVtDQEhdKFtPSF0pW0NIMl1OM1tDSDJdW0NIMl1PW0NIMl1bQ0gyXTM=

> <s_epik_cmdline>
J2VwaWtfcHl0aG9uJywgJy1waCcsICc3LjAnLCAnLXRuJywgJzgnLCAnLW1hJywgJzIwMCcsICctbWV0YWxfYmluZGluZycsICctaW1hZScsICc8aW5maWxlLm1hZT4nLCAnLW9tYWUnLCAnPG91dGZpbGUubWFlPic=

> <r_lp_tautomer_probability>
1

> <r_epik_Ionization_Penalty>
0.450313

> <r_epik_Ionization_Penalty_Charging>
7.22079e-10

> <r_epik_Ionization_Penalty_Neutral>
0.450313

> <r_epik_State_Penalty>
0.45306

> <r_epik_Charging_Adjusted_Penalty>
0.45306

> <i_epik_Tot_Q>
0

> <i_epik_Tot_abs_Q>
0

> <r_epik_Metal_State_Penalty>
0.45306

> <b_epik_Metal_Only>
0

> <s_lp_Force_Field>
OPLS_2005

> <r_lp_Energy>
49.46

> <b_lp_Chiralities_Consistent>
1

> <s_lp_Variant>
AV-unprocessed.smi:1603-3

> <Gold.Version>
5.8.1

> <Gold.Id.Protein>
6NUR|6NUR_protein|mol2

> <Gold.PLP.Fitness>
45.7183

> <Gold.PLP.PLP>
-47.6474

> <Gold.PLP.part.hbond>
-1.0000

> <Gold.PLP.part.metal>
0.0000

> <Gold.PLP.part.buried>
-4.3376

> <Gold.PLP.part.nonpolar>
-41.5795

> <Gold.PLP.part.repulsive>
0.8086

> <Gold.PLP.ligand.clash>
0.0000

> <Gold.PLP.ligand.torsion>
1.9796

> <Gold.PLP.Chemscore.Hbond>
0.4500

> <Gold.PLP.Chemscore.CHOScore>
0.0000

> <Gold.PLP.Chemscore.Metal>
0.0000

> <Gold.Chemscore.Hbonds>
donor molecule, donor type, donor heavy atom, donor atom, acceptor molecule, acceptor atom, score
      P1  H  7997  8008       L1     1  0.45

> <Gold.PLP.Chemscore.Internal.Correction>
0.6801

> <Gold.Rescore>
     Score         DG    S(hbond)    S(metal)    S(lipo)     H(rot)  DE(clash)    DE(int)     intcor
      9.64     -12.78       0.01        0.00     115.18       2.43       0.11       3.03       ----

> <Gold.Chemscore.Fitness>
9.6378

> <Gold.Chemscore.DG>
-12.7783

> <Gold.Chemscore.ZeroCoef>
-5.4800

> <Gold.Chemscore.Hbond>
0.0107

> <Gold.Chemscore.Metal>
0.0000

> <Gold.Chemscore.Lipo>
115.1798

> <Gold.Chemscore.Internal_Hbond>
0.0000

> <Gold.Chemscore.DEClash>
0.1120

> <Gold.Chemscore.DEInternal>
3.0285

> <Gold.Chemscore.Rot>
2.4272

> <Gold.Chemscore.Internal.Correction>
   9.000000E+99

> <Gold.Chemscore.Hbonds>
donor molecule, donor type, donor heavy atom, donor atom, acceptor molecule, acceptor atom, score
      P1  H  7997  8008       L1     1  0.02

> <Gold.Chemscore.Hbond.Weighted>
-0.0358

> <Gold.Chemscore.Metal.Weighted>
-0.0000

> <Gold.Chemscore.Lipo.Weighted>
-13.4760

> <Gold.Chemscore.Internal_Hbond.Weighted>
0.0000

> <Gold.Chemscore.DEClash.Weighted>
0.1120

> <Gold.Chemscore.DEInternal.Weighted>
3.0285

> <Gold.Chemscore.Rot.Weighted>
6.2135

> <Gold.Chemscore.Internal.Correction.Weighted>
   9.000000E+99

> <Gold.Protein.RotatedTorsions>
[ 6907 6896 6895 6894 ] final   -8.81 input  -60.11 | X-H torsion
[ 7974 7965 7964 7962 ] final -144.73 input  175.53 | X-H torsion
[ 8008 7997 7996 7995 ] final  -76.23 input   59.86 | X-H torsion
[ 10167 10162 10161 10158 ] final   23.14 input  -65.29 | X-H torsion
[ 10718 10713 10712 10709 ] final  -38.56 input   66.30 | X-H torsion
[ 10763 10752 10751 10750 ] final  -23.72 input  -60.55 | X-H torsion
[ 11005 11000 10999 10996 ] final   -3.35 input  -57.11 | X-H torsion

> <Gold.Protein.ActiveResidues>
 VAL166  LYS551  ARG553  GLY616  TRP617  ASP618  TYR619  PRO620  LYS621  CYS622 
 ASP623  PHE694  ASN695  SER759  ASP760  ASP761  ALA762  ILE779  LEU786  VAL792 
 PHE793  MET794  SER795  GLU796  ALA797  LYS798  CYS799  TRP800  GLU811  SER814 

> <Gold.Protein.RotatedAtoms>
  151.4277  135.1006  159.9632 H   0  0  0  0  0  0  0  0  0  0  0  0  # atno 6907 bound_to 6896
  152.4967  133.8647  159.7278 H   0  0  0  0  0  0  0  0  0  0  0  0  # atno 6908 bound_to 6896
  150.9177  133.6860  159.2867 H   0  0  0  0  0  0  0  0  0  0  0  0  # atno 6909 bound_to 6896
  144.8276  140.5672  143.5536 H   0  0  0  0  0  0  0  0  0  0  0  0  # atno 7974 bound_to 7965
  154.5487  140.0730  156.8632 H   0  0  0  0  0  0  0  0  0  0  0  0  # atno 8008 bound_to 7997
  155.3036  140.3386  155.4228 H   0  0  0  0  0  0  0  0  0  0  0  0  # atno 8009 bound_to 7997
  156.1941  140.1697  156.8018 H   0  0  0  0  0  0  0  0  0  0  0  0  # atno 8010 bound_to 7997
  140.5293  143.9869  150.6457 H   0  0  0  0  0  0  0  0  0  0  0  0  # atno 10167 bound_to 10162
  156.3024  130.4242  149.8130 H   0  0  0  0  0  0  0  0  0  0  0  0  # atno 10718 bound_to 10713
  153.6724  135.6971  153.5143 H   0  0  0  0  0  0  0  0  0  0  0  0  # atno 10763 bound_to 10752
  153.2548  135.4263  155.0833 H   0  0  0  0  0  0  0  0  0  0  0  0  # atno 10764 bound_to 10752
  154.8423  135.3540  154.6268 H   0  0  0  0  0  0  0  0  0  0  0  0  # atno 10765 bound_to 10752
  140.6684  133.9258  155.8479 H   0  0  0  0  0  0  0  0  0  0  0  0  # atno 11005 bound_to 11000
  145.4965  139.1485  143.3681 LP  0  0  0  0  0  0  0  0  0  0  0  0  # atno 17320 bound_to 7965
  146.2581  140.5104  142.8865 LP  0  0  0  0  0  0  0  0  0  0  0  0  # atno 17321 bound_to 7965
  140.3240  143.3119  152.0755 LP  0  0  0  0  0  0  0  0  0  0  0  0  # atno 17342 bound_to 10162
  139.4949  144.6554  151.6583 LP  0  0  0  0  0  0  0  0  0  0  0  0  # atno 17343 bound_to 10162
  156.5503  130.8339  151.3297 LP  0  0  0  0  0  0  0  0  0  0  0  0  # atno 17370 bound_to 10713
  157.7371  130.9790  150.2175 LP  0  0  0  0  0  0  0  0  0  0  0  0  # atno 17371 bound_to 10713
  141.0411  134.0620  157.3900 LP  0  0  0  0  0  0  0  0  0  0  0  0  # atno 17394 bound_to 11000
  139.8989  135.0156  156.7173 LP  0  0  0  0  0  0  0  0  0  0  0  0  # atno 17395 bound_to 11000

$$$$
