AV-unprocessed.smi:438|AV-procd|sdf|2567|dock4
  -GOLD-   2262022543D 1   1.00000     0.00000
 Structure written by MMmdl.
 48 49  0  0  0  0  0  0  0  0  1 V2000
  148.2436  133.6714  153.6948 C   0  0  0  0  0  0  0  0  0  0  0  0
  149.3614  134.1420  154.6082 C   0  0  0  0  0  0  0  0  0  0  0  0
  149.8118  135.4242  154.3511 N   0  0  0  0  0  0  0  0  0  0  0  0
  150.8233  135.9514  155.1394 C   0  0  0  0  0  0  0  0  0  0  0  0
  151.1980  137.6499  154.6157 S   0  0  0  0  0  0  0  0  0  0  0  0
  150.6153  138.6106  156.0427 C   0  0  0  0  0  0  0  0  0  0  0  0
  151.6796  139.5708  156.5655 C   0  0  0  0  0  0  0  0  0  0  0  0
  152.7730  139.6362  156.0049 O   0  0  0  0  0  0  0  0  0  0  0  0
  151.3439  140.3003  157.6437 N   0  0  0  0  0  0  0  0  0  0  0  0
  152.1850  141.2536  158.3731 C   0  0  2  0  0  0  0  0  0  0  0  0
  152.7997  140.6260  159.6437 C   0  0  0  0  0  0  0  0  0  0  0  0
  153.7523  141.6080  160.3409 C   0  0  0  0  0  0  0  0  0  0  0  0
  153.0377  142.9275  160.6670 C   0  0  0  0  0  0  0  0  0  0  0  0
  152.4329  143.5597  159.4031 C   0  0  0  0  0  0  0  0  0  0  0  0
  151.4678  142.5960  158.6825 C   0  0  1  0  0  0  0  0  0  0  0  0
  150.8814  143.2607  157.4237 C   0  0  0  0  0  0  0  0  0  0  0  0
  151.3962  135.2984  156.1070 N   0  0  0  0  0  0  0  0  0  0  0  0
  150.9928  133.9883  156.4066 C   0  0  0  0  0  0  0  0  0  0  0  0
  151.5360  133.3604  157.3145 O   0  0  0  0  0  0  0  0  0  0  0  0
  149.9054  133.3955  155.5993 C   0  0  0  0  0  0  0  0  0  0  0  0
  149.4355  131.9827  155.9345 C   0  0  0  0  0  0  0  0  0  0  0  0
  149.6607  131.0048  154.7724 C   0  0  0  0  0  0  0  0  0  0  0  0
  149.1861  129.7244  155.1273 O   0  0  0  0  0  0  0  0  0  0  0  0
  148.5216  132.7389  153.2029 H   0  0  0  0  0  0  0  0  0  0  0  0
  148.0214  134.4057  152.9193 H   0  0  0  0  0  0  0  0  0  0  0  0
  147.3313  133.5024  154.2671 H   0  0  0  0  0  0  0  0  0  0  0  0
  150.3157  137.9297  156.8404 H   0  0  0  0  0  0  0  0  0  0  0  0
  149.7300  139.1790  155.7544 H   0  0  0  0  0  0  0  0  0  0  0  0
  150.4155  140.1613  158.0158 H   0  0  0  0  0  0  0  0  0  0  0  0
  153.0096  141.4748  157.6941 H   0  0  0  0  0  0  0  0  0  0  0  0
  152.0169  140.3357  160.3449 H   0  0  0  0  0  0  0  0  0  0  0  0
  153.3389  139.7135  159.3875 H   0  0  0  0  0  0  0  0  0  0  0  0
  154.1448  141.1608  161.2545 H   0  0  0  0  0  0  0  0  0  0  0  0
  154.6114  141.8055  159.6983 H   0  0  0  0  0  0  0  0  0  0  0  0
  152.2494  142.7466  161.3988 H   0  0  0  0  0  0  0  0  0  0  0  0
  153.7370  143.6234  161.1315 H   0  0  0  0  0  0  0  0  0  0  0  0
  151.9096  144.4776  159.6725 H   0  0  0  0  0  0  0  0  0  0  0  0
  153.2366  143.8519  158.7258 H   0  0  0  0  0  0  0  0  0  0  0  0
  150.6395  142.4006  159.3646 H   0  0  0  0  0  0  0  0  0  0  0  0
  151.6568  143.4593  156.6833 H   0  0  0  0  0  0  0  0  0  0  0  0
  150.4057  144.2103  157.6694 H   0  0  0  0  0  0  0  0  0  0  0  0
  150.1231  142.6349  156.9533 H   0  0  0  0  0  0  0  0  0  0  0  0
  149.3739  135.9413  153.6022 H   0  0  0  0  0  0  0  0  0  0  0  0
  148.3786  131.9946  156.1998 H   0  0  0  0  0  0  0  0  0  0  0  0
  149.9505  131.6292  156.8292 H   0  0  0  0  0  0  0  0  0  0  0  0
  149.1367  131.3423  153.8775 H   0  0  0  0  0  0  0  0  0  0  0  0
  150.7197  130.9328  154.5235 H   0  0  0  0  0  0  0  0  0  0  0  0
  149.4181  129.1171  154.4416 H   0  0  0  0  0  0  0  0  0  0  0  0
  1 24  1  0  0  0  0
  1 25  1  0  0  0  0
  1 26  1  0  0  0  0
  1  2  1  0  0  0  0
  2 20  2  0  0  0  0
  2  3  1  0  0  0  0
  3  4  1  0  0  0  0
  3 43  1  0  0  0  0
  4  5  1  0  0  0  0
  4 17  2  0  0  0  0
  5  6  1  0  0  0  0
  6  7  1  0  0  0  0
  6 27  1  0  0  0  0
  6 28  1  0  0  0  0
  7  8  2  0  0  0  0
  7  9  1  0  0  0  0
  9 10  1  0  0  0  0
  9 29  1  0  0  0  0
 10 15  1  0  0  0  0
 10 11  1  0  0  0  0
 10 30  1  0  0  0  0
 11 12  1  0  0  0  0
 11 31  1  0  0  0  0
 11 32  1  0  0  0  0
 12 13  1  0  0  0  0
 12 33  1  0  0  0  0
 12 34  1  0  0  0  0
 13 14  1  0  0  0  0
 13 35  1  0  0  0  0
 13 36  1  0  0  0  0
 14 15  1  0  0  0  0
 14 37  1  0  0  0  0
 14 38  1  0  0  0  0
 15 16  1  0  0  0  0
 15 39  1  0  0  0  0
 16 40  1  0  0  0  0
 16 41  1  0  0  0  0
 16 42  1  0  0  0  0
 17 18  1  0  0  0  0
 18 19  2  0  0  0  0
 18 20  1  0  0  0  0
 20 21  1  0  0  0  0
 21 22  1  0  0  0  0
 21 44  1  0  0  0  0
 21 45  1  0  0  0  0
 22 23  1  0  0  0  0
 22 46  1  0  0  0  0
 22 47  1  0  0  0  0
 23 48  1  0  0  0  0
M  END
> <s_m_source_file>
AV-unprocessed.smi

> <i_m_source_file_index>
438

> <i_lp_mmshare_version>
43012

> <i_f3d_flags>
0

> <s_epik_input>
W09IXVtDSDJdW0NIMl1jMWMoW09IXSluYyhuYzFbQ0gzXSlTW0NIMl1DKD1PKVtOSF1bQ0BASF0yW0NIMl1bQ0gyXVtDSDJdW0NIMl1bQ0BIXTJbQ0gzXQ==

> <s_epik_cmdline>
J2VwaWtfcHl0aG9uJywgJy1waCcsICc3LjAnLCAnLXRuJywgJzgnLCAnLW1hJywgJzIwMCcsICctbWV0YWxfYmluZGluZycsICctaW1hZScsICc8aW5maWxlLm1hZT4nLCAnLW9tYWUnLCAnPG91dGZpbGUubWFlPic=

> <r_lp_tautomer_probability>
0.273662

> <r_epik_Ionization_Penalty>
0.0875285

> <r_epik_Ionization_Penalty_Charging>
0.0875254

> <r_epik_Ionization_Penalty_Neutral>
3.01536e-06

> <r_epik_State_Penalty>
0.985796

> <r_epik_Charging_Adjusted_Penalty>
1.07332

> <i_epik_Tot_Q>
0

> <i_epik_Tot_abs_Q>
0

> <r_epik_Metal_State_Penalty>
1.58101

> <b_epik_Metal_Only>
0

> <s_lp_Force_Field>
OPLS_2005

> <r_lp_Energy>
18.1285

> <b_lp_Chiralities_Consistent>
1

> <s_lp_Variant>
AV-unprocessed.smi:438-5

> <Gold.Version>
5.8.1

> <Gold.Id.Protein>
6NUR|6NUR_protein|mol2

> <Gold.PLP.Fitness>
50.5410

> <Gold.PLP.PLP>
-41.7876

> <Gold.PLP.part.hbond>
-4.5872

> <Gold.PLP.part.metal>
0.0000

> <Gold.PLP.part.buried>
-1.4657

> <Gold.PLP.part.nonpolar>
-35.2915

> <Gold.PLP.part.repulsive>
0.1376

> <Gold.PLP.ligand.clash>
0.0000

> <Gold.PLP.ligand.torsion>
0.6576

> <Gold.PLP.Chemscore.Hbond>
3.3317

> <Gold.PLP.Chemscore.CHOScore>
0.0000

> <Gold.PLP.Chemscore.Metal>
0.0000

> <Gold.Chemscore.Hbonds>
donor molecule, donor type, donor heavy atom, donor atom, acceptor molecule, acceptor atom, score
      L1  H     3    43       P1  7948  1.00
      P1  H  6896  6907       L1    19  0.64
      P1  H  7997  8010       L1     8  1.00
      P1  H 10752 10763       L1    17  0.44

> <Gold.PLP.Chemscore.Internal.Correction>
0.0735

> <Gold.Rescore>
     Score         DG    S(hbond)    S(metal)    S(lipo)     H(rot)  DE(clash)    DE(int)     intcor
     18.34     -19.15       2.57        0.00     106.08       2.86       0.09       0.72       ----

> <Gold.Chemscore.Fitness>
18.3408

> <Gold.Chemscore.DG>
-19.1486

> <Gold.Chemscore.ZeroCoef>
-5.4800

> <Gold.Chemscore.Hbond>
2.5720

> <Gold.Chemscore.Metal>
0.0000

> <Gold.Chemscore.Lipo>
106.0786

> <Gold.Chemscore.Internal_Hbond>
0.0000

> <Gold.Chemscore.DEClash>
0.0877

> <Gold.Chemscore.DEInternal>
0.7201

> <Gold.Chemscore.Rot>
2.8645

> <Gold.Chemscore.Internal.Correction>
   9.000000E+99

> <Gold.Chemscore.Hbonds>
donor molecule, donor type, donor heavy atom, donor atom, acceptor molecule, acceptor atom, score
      L1  H     3    43       P1  7948  0.58
      P1  H  6896  6907       L1    19  0.64
      P1  H  7997  8010       L1     8  1.00
      P1  H 10752 10763       L1    17  0.04

> <Gold.Chemscore.Hbond.Weighted>
-8.5905

> <Gold.Chemscore.Metal.Weighted>
-0.0000

> <Gold.Chemscore.Lipo.Weighted>
-12.4112

> <Gold.Chemscore.Internal_Hbond.Weighted>
0.0000

> <Gold.Chemscore.DEClash.Weighted>
0.0877

> <Gold.Chemscore.DEInternal.Weighted>
0.7201

> <Gold.Chemscore.Rot.Weighted>
7.3331

> <Gold.Chemscore.Internal.Correction.Weighted>
   9.000000E+99

> <Gold.Protein.RotatedTorsions>
[ 6907 6896 6895 6894 ] final -169.04 input  -60.11 | X-H torsion
[ 7974 7965 7964 7962 ] final  -20.39 input  175.53 | X-H torsion
[ 8008 7997 7996 7995 ] final   92.87 input   59.86 | X-H torsion
[ 10167 10162 10161 10158 ] final  124.78 input  -65.29 | X-H torsion
[ 10718 10713 10712 10709 ] final   32.06 input   66.30 | X-H torsion
[ 10763 10752 10751 10750 ] final  106.67 input  -60.55 | X-H torsion
[ 11005 11000 10999 10996 ] final  -34.11 input  -57.11 | X-H torsion

> <Gold.Protein.ActiveResidues>
 VAL166  LYS551  ARG553  GLY616  TRP617  ASP618  TYR619  PRO620  LYS621  CYS622 
 ASP623  PHE694  ASN695  SER759  ASP760  ASP761  ALA762  ILE779  LEU786  VAL792 
 PHE793  MET794  SER795  GLU796  ALA797  LYS798  CYS799  TRP800  GLU811  SER814 

> <Gold.Protein.RotatedAtoms>
  151.4852  133.3537  159.2844 H   0  0  0  0  0  0  0  0  0  0  0  0  # atno 6907 bound_to 6896
  150.8871  134.8272  159.7277 H   0  0  0  0  0  0  0  0  0  0  0  0  # atno 6908 bound_to 6896
  152.4799  134.4757  159.9701 H   0  0  0  0  0  0  0  0  0  0  0  0  # atno 6909 bound_to 6896
  146.1791  140.4195  142.8502 H   0  0  0  0  0  0  0  0  0  0  0  0  # atno 7974 bound_to 7965
  156.0403  140.3320  155.7236 H   0  0  0  0  0  0  0  0  0  0  0  0  # atno 8008 bound_to 7997
  155.5754  140.0632  157.2814 H   0  0  0  0  0  0  0  0  0  0  0  0  # atno 8009 bound_to 7997
  154.4390  140.1853  156.0910 H   0  0  0  0  0  0  0  0  0  0  0  0  # atno 8010 bound_to 7997
  139.5722  144.6945  151.3748 H   0  0  0  0  0  0  0  0  0  0  0  0  # atno 10167 bound_to 10162
  157.2804  130.7252  149.6553 H   0  0  0  0  0  0  0  0  0  0  0  0  # atno 10718 bound_to 10713
  153.3962  135.3869  155.1956 H   0  0  0  0  0  0  0  0  0  0  0  0  # atno 10763 bound_to 10752
  154.8724  135.3760  154.4676 H   0  0  0  0  0  0  0  0  0  0  0  0  # atno 10764 bound_to 10752
  153.5168  135.7087  153.5814 H   0  0  0  0  0  0  0  0  0  0  0  0  # atno 10765 bound_to 10752
  140.9689  133.7121  156.1491 H   0  0  0  0  0  0  0  0  0  0  0  0  # atno 11005 bound_to 11000
  144.8284  140.6667  143.6307 LP  0  0  0  0  0  0  0  0  0  0  0  0  # atno 17320 bound_to 7965
  145.4128  139.1577  143.4116 LP  0  0  0  0  0  0  0  0  0  0  0  0  # atno 17321 bound_to 7965
  140.7006  143.7640  150.7397 LP  0  0  0  0  0  0  0  0  0  0  0  0  # atno 17342 bound_to 10162
  140.1150  143.4664  152.2347 LP  0  0  0  0  0  0  0  0  0  0  0  0  # atno 17343 bound_to 10162
  155.9664  130.4340  150.5029 LP  0  0  0  0  0  0  0  0  0  0  0  0  # atno 17370 bound_to 10713
  157.2972  131.0638  151.2093 LP  0  0  0  0  0  0  0  0  0  0  0  0  # atno 17371 bound_to 10713
  140.7358  134.4204  157.5561 LP  0  0  0  0  0  0  0  0  0  0  0  0  # atno 17394 bound_to 11000
  139.8905  134.8804  156.2368 LP  0  0  0  0  0  0  0  0  0  0  0  0  # atno 17395 bound_to 11000

$$$$
