AV-unprocessed.smi:544|AV-procd|sdf|2877|dock7
  -GOLD-   2262023373D 1   1.00000     0.00000
 Structure written by MMmdl.
 49 51  0  0  0  0  0  0  0  0  1 V2000
  153.9260  138.7508  160.4313 C   0  0  0  0  0  0  0  0  0  0  0  0
  153.3471  137.9657  159.2525 C   0  0  0  0  0  0  0  0  0  0  0  0
  153.3743  138.7913  158.1023 O   0  0  0  0  0  0  0  0  0  0  0  0
  152.0828  139.1587  157.6509 C   0  0  0  0  0  0  0  0  0  0  0  0
  152.1998  139.9767  156.3559 C   0  0  0  0  0  0  0  0  0  0  0  0
  150.9392  140.6094  155.9773 N   0  0  0  0  0  0  0  0  0  0  0  0
  150.3819  141.7441  156.4741 C   0  0  0  0  0  0  0  0  0  0  0  0
  151.0100  142.4753  157.4761 N   0  0  0  0  0  0  0  0  0  0  0  0
  151.1170  143.9309  157.4921 C   0  0  0  0  0  0  0  0  0  0  0  0
  152.5554  144.3844  157.7900 C   0  0  0  0  0  0  0  0  0  0  0  0
  153.0347  143.8040  159.1279 C   0  0  0  0  0  0  0  0  0  0  0  0
  152.8387  142.2773  159.1498 C   0  0  1  0  0  0  0  0  0  0  0  0
  153.2267  141.6775  160.5080 C   0  0  0  0  0  0  0  0  0  0  0  0
  151.3849  141.9236  158.7748 C   0  0  0  0  0  0  0  0  0  0  0  0
  149.2021  142.0733  155.9428 N   0  0  0  0  0  0  0  0  0  0  0  0
  148.9896  141.0601  155.0188 C   0  0  0  0  0  0  0  0  0  0  0  0
  150.0150  140.1703  155.0304 C   0  0  0  0  0  0  0  0  0  0  0  0
  150.0415  138.9844  154.1660 C   0  0  0  0  0  0  0  0  0  0  0  0
  150.9591  138.1666  154.1661 O   0  0  0  0  0  0  0  0  0  0  0  0
  148.9468  138.8811  153.3737 N   0  0  0  0  0  0  0  0  0  0  0  0
  147.8801  139.7360  153.3136 C   0  0  0  0  0  0  0  0  0  0  0  0
  146.9456  139.4988  152.5485 O   0  0  0  0  0  0  0  0  0  0  0  0
  147.9005  140.8398  154.1281 N   0  0  0  0  0  0  0  0  0  0  0  0
  146.7890  141.7926  154.1075 C   0  0  0  0  0  0  0  0  0  0  0  0
  148.9116  138.0790  152.7617 H   0  0  0  0  0  0  0  0  0  0  0  0
  153.9238  138.1485  161.3396 H   0  0  0  0  0  0  0  0  0  0  0  0
  153.3436  139.6521  160.6244 H   0  0  0  0  0  0  0  0  0  0  0  0
  154.9545  139.0528  160.2318 H   0  0  0  0  0  0  0  0  0  0  0  0
  153.9332  137.0616  159.0823 H   0  0  0  0  0  0  0  0  0  0  0  0
  152.3232  137.6618  159.4738 H   0  0  0  0  0  0  0  0  0  0  0  0
  151.4845  138.2627  157.4822 H   0  0  0  0  0  0  0  0  0  0  0  0
  151.5739  139.7500  158.4134 H   0  0  0  0  0  0  0  0  0  0  0  0
  152.9619  140.7484  156.4625 H   0  0  0  0  0  0  0  0  0  0  0  0
  152.5424  139.3350  155.5453 H   0  0  0  0  0  0  0  0  0  0  0  0
  150.7854  144.3329  156.5350 H   0  0  0  0  0  0  0  0  0  0  0  0
  150.4347  144.3292  158.2441 H   0  0  0  0  0  0  0  0  0  0  0  0
  153.2189  144.0589  156.9880 H   0  0  0  0  0  0  0  0  0  0  0  0
  152.6075  145.4732  157.8126 H   0  0  0  0  0  0  0  0  0  0  0  0
  154.0826  144.0570  159.2921 H   0  0  0  0  0  0  0  0  0  0  0  0
  152.4709  144.2606  159.9429 H   0  0  0  0  0  0  0  0  0  0  0  0
  153.4974  141.8412  158.3976 H   0  0  0  0  0  0  0  0  0  0  0  0
  152.5996  142.0713  161.3084 H   0  0  0  0  0  0  0  0  0  0  0  0
  154.2646  141.9029  160.7549 H   0  0  0  0  0  0  0  0  0  0  0  0
  153.1168  140.5929  160.5026 H   0  0  0  0  0  0  0  0  0  0  0  0
  150.6942  142.2953  159.5327 H   0  0  0  0  0  0  0  0  0  0  0  0
  151.2633  140.8400  158.7482 H   0  0  0  0  0  0  0  0  0  0  0  0
  146.5014  142.0438  153.0856 H   0  0  0  0  0  0  0  0  0  0  0  0
  147.0391  142.7297  154.6042 H   0  0  0  0  0  0  0  0  0  0  0  0
  145.9203  141.3691  154.6124 H   0  0  0  0  0  0  0  0  0  0  0  0
  1  2  1  0  0  0  0
  1 26  1  0  0  0  0
  1 27  1  0  0  0  0
  1 28  1  0  0  0  0
  2  3  1  0  0  0  0
  2 29  1  0  0  0  0
  2 30  1  0  0  0  0
  3  4  1  0  0  0  0
  4  5  1  0  0  0  0
  4 31  1  0  0  0  0
  4 32  1  0  0  0  0
  5  6  1  0  0  0  0
  5 33  1  0  0  0  0
  5 34  1  0  0  0  0
  6 17  1  0  0  0  0
  6  7  1  0  0  0  0
  7  8  1  0  0  0  0
  7 15  2  0  0  0  0
  8 14  1  0  0  0  0
  8  9  1  0  0  0  0
  9 10  1  0  0  0  0
  9 35  1  0  0  0  0
  9 36  1  0  0  0  0
 10 11  1  0  0  0  0
 10 37  1  0  0  0  0
 10 38  1  0  0  0  0
 11 12  1  0  0  0  0
 11 39  1  0  0  0  0
 11 40  1  0  0  0  0
 12 13  1  0  0  0  0
 12 14  1  0  0  0  0
 12 41  1  0  0  0  0
 13 42  1  0  0  0  0
 13 43  1  0  0  0  0
 13 44  1  0  0  0  0
 14 45  1  0  0  0  0
 14 46  1  0  0  0  0
 15 16  1  0  0  0  0
 16 23  1  0  0  0  0
 16 17  2  0  0  0  0
 17 18  1  0  0  0  0
 18 19  2  0  0  0  0
 18 20  1  0  0  0  0
 20 25  1  0  0  0  0
 20 21  1  0  0  0  0
 21 22  2  0  0  0  0
 21 23  1  0  0  0  0
 23 24  1  0  0  0  0
 24 47  1  0  0  0  0
 24 48  1  0  0  0  0
 24 49  1  0  0  0  0
M  END
> <s_m_source_file>
AV-unprocessed.smi

> <i_m_source_file_index>
544

> <i_lp_mmshare_version>
43012

> <i_f3d_flags>
0

> <s_epik_input>
W0NIM11uMWMoPU8pW25IXWMoPU8pYyhjMTIpbihbQ0gyXVtDSDJdT1tDSDJdW0NIM10pYyhuMilOM1tDSDJdW0NIMl1bQ0gyXVtDQEBIXShbQ0gzXSlbQ0gyXTM=

> <s_epik_cmdline>
J2VwaWtfcHl0aG9uJywgJy1waCcsICc3LjAnLCAnLXRuJywgJzgnLCAnLW1hJywgJzIwMCcsICctbWV0YWxfYmluZGluZycsICctaW1hZScsICc8aW5maWxlLm1hZT4nLCAnLW9tYWUnLCAnPG91dGZpbGUubWFlPic=

> <r_lp_tautomer_probability>
1

> <r_epik_Ionization_Penalty>
0.000382477

> <r_epik_Ionization_Penalty_Charging>
0.000119472

> <r_epik_Ionization_Penalty_Neutral>
0.000263005

> <r_epik_State_Penalty>
-0

> <r_epik_Charging_Adjusted_Penalty>
0.000119472

> <i_epik_Tot_Q>
0

> <i_epik_Tot_abs_Q>
0

> <r_epik_Metal_State_Penalty>
0.0919313

> <b_epik_Metal_Only>
0

> <s_lp_Force_Field>
OPLS_2005

> <r_lp_Energy>
37.8306

> <b_lp_Chiralities_Consistent>
1

> <s_lp_Variant>
AV-unprocessed.smi:544-1

> <Gold.Version>
5.8.1

> <Gold.Id.Protein>
6NUR|6NUR_protein|mol2

> <Gold.PLP.Fitness>
50.5317

> <Gold.PLP.PLP>
-46.7065

> <Gold.PLP.part.hbond>
-3.0000

> <Gold.PLP.part.metal>
0.0000

> <Gold.PLP.part.buried>
-0.9615

> <Gold.PLP.part.nonpolar>
-46.3900

> <Gold.PLP.part.repulsive>
4.1874

> <Gold.PLP.ligand.clash>
0.0000

> <Gold.PLP.ligand.torsion>
1.5708

> <Gold.PLP.Chemscore.Hbond>
2.0000

> <Gold.PLP.Chemscore.CHOScore>
0.0000

> <Gold.PLP.Chemscore.Metal>
0.0000

> <Gold.Chemscore.Hbonds>
donor molecule, donor type, donor heavy atom, donor atom, acceptor molecule, acceptor atom, score
      L1  H    20    25       P1  7948  1.00
      P1  H  7997  8009       L1     3  0.96

> <Gold.PLP.Chemscore.Internal.Correction>
0.9668

> <Gold.Rescore>
     Score         DG    S(hbond)    S(metal)    S(lipo)     H(rot)  DE(clash)    DE(int)     intcor
     16.37     -19.86       1.97        0.00     101.41       1.58       1.82       1.67       ----

> <Gold.Chemscore.Fitness>
16.3725

> <Gold.Chemscore.DG>
-19.8638

> <Gold.Chemscore.ZeroCoef>
-5.4800

> <Gold.Chemscore.Hbond>
1.9655

> <Gold.Chemscore.Metal>
0.0000

> <Gold.Chemscore.Lipo>
101.4139

> <Gold.Chemscore.Internal_Hbond>
0.0000

> <Gold.Chemscore.DEClash>
1.8198

> <Gold.Chemscore.DEInternal>
1.6716

> <Gold.Chemscore.Rot>
1.5806

> <Gold.Chemscore.Internal.Correction>
   9.000000E+99

> <Gold.Chemscore.Hbonds>
donor molecule, donor type, donor heavy atom, donor atom, acceptor molecule, acceptor atom, score
      L1  H    20    25       P1  7948  0.93
      P1  H  7997  8009       L1     3  0.50

> <Gold.Chemscore.Hbond.Weighted>
-6.5647

> <Gold.Chemscore.Metal.Weighted>
-0.0000

> <Gold.Chemscore.Lipo.Weighted>
-11.8654

> <Gold.Chemscore.Internal_Hbond.Weighted>
0.0000

> <Gold.Chemscore.DEClash.Weighted>
1.8198

> <Gold.Chemscore.DEInternal.Weighted>
1.6716

> <Gold.Chemscore.Rot.Weighted>
4.0463

> <Gold.Chemscore.Internal.Correction.Weighted>
   9.000000E+99

> <Gold.Protein.RotatedTorsions>
[ 6907 6896 6895 6894 ] final   56.28 input  -60.11 | X-H torsion
[ 7974 7965 7964 7962 ] final   99.29 input  175.53 | X-H torsion
[ 8008 7997 7996 7995 ] final  146.35 input   59.86 | X-H torsion
[ 10167 10162 10161 10158 ] final -136.40 input  -65.29 | X-H torsion
[ 10718 10713 10712 10709 ] final -116.32 input   66.30 | X-H torsion
[ 10763 10752 10751 10750 ] final   21.63 input  -60.55 | X-H torsion
[ 11005 11000 10999 10996 ] final  -35.29 input  -57.11 | X-H torsion

> <Gold.Protein.ActiveResidues>
 VAL166  LYS551  ARG553  GLY616  TRP617  ASP618  TYR619  PRO620  LYS621  CYS622 
 ASP623  PHE694  ASN695  SER759  ASP760  ASP761  ALA762  ILE779  LEU786  VAL792 
 PHE793  MET794  SER795  GLU796  ALA797  LYS798  CYS799  TRP800  GLU811  SER814 

> <Gold.Protein.RotatedAtoms>
  152.3621  134.6857  160.0203 H   0  0  0  0  0  0  0  0  0  0  0  0  # atno 6907 bound_to 6896
  151.7177  133.3308  159.3315 H   0  0  0  0  0  0  0  0  0  0  0  0  # atno 6908 bound_to 6896
  150.7612  134.6410  159.6281 H   0  0  0  0  0  0  0  0  0  0  0  0  # atno 6909 bound_to 6896
  145.4008  139.2348  143.3301 H   0  0  0  0  0  0  0  0  0  0  0  0  # atno 7974 bound_to 7965
  156.2858  140.2184  156.5363 H   0  0  0  0  0  0  0  0  0  0  0  0  # atno 8008 bound_to 7997
  154.7407  140.0488  157.0830 H   0  0  0  0  0  0  0  0  0  0  0  0  # atno 8009 bound_to 7997
  155.0234  140.3127  155.4788 H   0  0  0  0  0  0  0  0  0  0  0  0  # atno 8010 bound_to 7997
  139.8681  143.6991  152.2643 H   0  0  0  0  0  0  0  0  0  0  0  0  # atno 10167 bound_to 10162
  156.0956  130.6129  150.9021 H   0  0  0  0  0  0  0  0  0  0  0  0  # atno 10718 bound_to 10713
  153.0979  135.6665  153.9727 H   0  0  0  0  0  0  0  0  0  0  0  0  # atno 10763 bound_to 10752
  153.9306  135.3004  155.3447 H   0  0  0  0  0  0  0  0  0  0  0  0  # atno 10764 bound_to 10752
  154.7399  135.5084  153.9179 H   0  0  0  0  0  0  0  0  0  0  0  0  # atno 10765 bound_to 10752
  140.9784  133.7070  156.1642 H   0  0  0  0  0  0  0  0  0  0  0  0  # atno 11005 bound_to 11000
  146.2753  140.4705  142.8798 LP  0  0  0  0  0  0  0  0  0  0  0  0  # atno 17320 bound_to 7965
  144.8375  140.6806  143.6250 LP  0  0  0  0  0  0  0  0  0  0  0  0  # atno 17321 bound_to 7965
  139.7309  144.7582  151.0803 LP  0  0  0  0  0  0  0  0  0  0  0  0  # atno 17342 bound_to 10162
  140.7765  143.5089  150.9677 LP  0  0  0  0  0  0  0  0  0  0  0  0  # atno 17343 bound_to 10162
  157.6116  131.0936  150.8785 LP  0  0  0  0  0  0  0  0  0  0  0  0  # atno 17370 bound_to 10713
  156.8924  130.5217  149.5285 LP  0  0  0  0  0  0  0  0  0  0  0  0  # atno 17371 bound_to 10713
  140.7223  134.4345  157.5573 LP  0  0  0  0  0  0  0  0  0  0  0  0  # atno 17394 bound_to 11000
  139.8940  134.8717  156.2197 LP  0  0  0  0  0  0  0  0  0  0  0  0  # atno 17395 bound_to 11000

$$$$
