AV-unprocessed.smi:614|AV-procd|sdf|3068|dock10
  -GOLD-   2262023593D 1   1.00000     0.00000
 Structure written by MMmdl.
 44 45  0  0  0  0  0  0  0  0  1 V2000
  150.4125  130.0435  155.3887 C   0  0  0  0  0  0  0  0  0  0  0  0
  149.8120  131.1531  154.6798 N   0  0  0  0  0  0  0  0  0  0  0  0
  148.7907  131.1305  153.7515 C   0  0  0  0  0  0  0  0  0  0  0  0
  148.5623  132.4204  153.3629 C   0  0  0  0  0  0  0  0  0  0  0  0
  149.5079  133.1634  154.1225 C   0  0  0  0  0  0  0  0  0  0  0  0
  149.5830  134.5749  154.0037 N   0  0  0  0  0  0  0  0  0  0  0  0
  150.1873  135.4373  154.8389 C   0  0  0  0  0  0  0  0  0  0  0  0
  150.8218  135.1176  155.8442 O   0  0  0  0  0  0  0  0  0  0  0  0
  150.0091  136.7050  154.4303 N   0  0  0  0  0  0  0  0  0  0  0  0
  150.4825  137.9524  155.0505 C   0  0  1  0  0  0  0  0  0  0  0  0
  150.2455  137.9016  156.5819 C   0  0  0  0  0  0  0  0  0  0  0  0
  152.0102  138.1063  154.7914 C   0  0  0  0  0  0  0  0  0  0  0  0
  152.4857  137.1900  153.8257 O   0  0  0  0  0  0  0  0  0  0  0  0
  149.6637  139.1313  154.4139 C   0  0  0  0  0  0  0  0  0  0  0  0
  149.8852  140.4947  155.1249 C   0  0  0  0  0  0  0  0  0  0  0  0
  149.1168  141.6387  154.4444 C   0  0  0  0  0  0  0  0  0  0  0  0
  147.6163  141.3327  154.3662 C   0  0  0  0  0  0  0  0  0  0  0  0
  147.3730  139.9990  153.6495 C   0  0  0  0  0  0  0  0  0  0  0  0
  148.1389  138.8513  154.3271 C   0  0  0  0  0  0  0  0  0  0  0  0
  150.2572  132.4058  154.9117 N   0  0  0  0  0  0  0  0  0  0  0  0
  150.0616  129.0990  154.9720 H   0  0  0  0  0  0  0  0  0  0  0  0
  150.1391  130.0907  156.4431 H   0  0  0  0  0  0  0  0  0  0  0  0
  151.4984  130.0884  155.2976 H   0  0  0  0  0  0  0  0  0  0  0  0
  148.3158  130.2089  153.4486 H   0  0  0  0  0  0  0  0  0  0  0  0
  147.8323  132.7737  152.6496 H   0  0  0  0  0  0  0  0  0  0  0  0
  149.1099  134.9726  153.2059 H   0  0  0  0  0  0  0  0  0  0  0  0
  149.4702  136.8303  153.5863 H   0  0  0  0  0  0  0  0  0  0  0  0
  150.3881  138.8824  157.0364 H   0  0  0  0  0  0  0  0  0  0  0  0
  150.9362  137.2204  157.0790 H   0  0  0  0  0  0  0  0  0  0  0  0
  149.2402  137.5639  156.8321 H   0  0  0  0  0  0  0  0  0  0  0  0
  152.2498  139.1081  154.4352 H   0  0  0  0  0  0  0  0  0  0  0  0
  152.5840  137.9724  155.7084 H   0  0  0  0  0  0  0  0  0  0  0  0
  151.7929  137.0225  153.2053 H   0  0  0  0  0  0  0  0  0  0  0  0
  150.0192  139.2601  153.3904 H   0  0  0  0  0  0  0  0  0  0  0  0
  149.5766  140.4325  156.1690 H   0  0  0  0  0  0  0  0  0  0  0  0
  150.9411  140.7611  155.1321 H   0  0  0  0  0  0  0  0  0  0  0  0
  149.2766  142.5691  154.9899 H   0  0  0  0  0  0  0  0  0  0  0  0
  149.5118  141.7978  153.4401 H   0  0  0  0  0  0  0  0  0  0  0  0
  147.1961  141.2918  155.3719 H   0  0  0  0  0  0  0  0  0  0  0  0
  147.0974  142.1374  153.8448 H   0  0  0  0  0  0  0  0  0  0  0  0
  146.3058  139.7757  153.6356 H   0  0  0  0  0  0  0  0  0  0  0  0
  147.6848  140.0809  152.6075 H   0  0  0  0  0  0  0  0  0  0  0  0
  147.9441  137.9417  153.7605 H   0  0  0  0  0  0  0  0  0  0  0  0
  147.7277  138.6875  155.3236 H   0  0  0  0  0  0  0  0  0  0  0  0
  1  2  1  0  0  0  0
  1 21  1  0  0  0  0
  1 22  1  0  0  0  0
  1 23  1  0  0  0  0
  2 20  1  0  0  0  0
  2  3  1  0  0  0  0
  3  4  2  0  0  0  0
  3 24  1  0  0  0  0
  4  5  1  0  0  0  0
  4 25  1  0  0  0  0
  5  6  1  0  0  0  0
  5 20  2  0  0  0  0
  6  7  1  0  0  0  0
  6 26  1  0  0  0  0
  7  8  2  0  0  0  0
  7  9  1  0  0  0  0
  9 10  1  0  0  0  0
  9 27  1  0  0  0  0
 10 11  1  0  0  0  0
 10 12  1  0  0  0  0
 10 14  1  0  0  0  0
 11 28  1  0  0  0  0
 11 29  1  0  0  0  0
 11 30  1  0  0  0  0
 12 13  1  0  0  0  0
 12 31  1  0  0  0  0
 12 32  1  0  0  0  0
 13 33  1  0  0  0  0
 14 19  1  0  0  0  0
 14 15  1  0  0  0  0
 14 34  1  0  0  0  0
 15 16  1  0  0  0  0
 15 35  1  0  0  0  0
 15 36  1  0  0  0  0
 16 17  1  0  0  0  0
 16 37  1  0  0  0  0
 16 38  1  0  0  0  0
 17 18  1  0  0  0  0
 17 39  1  0  0  0  0
 17 40  1  0  0  0  0
 18 19  1  0  0  0  0
 18 41  1  0  0  0  0
 18 42  1  0  0  0  0
 19 43  1  0  0  0  0
 19 44  1  0  0  0  0
M  END
> <s_m_source_file>
AV-unprocessed.smi

> <i_m_source_file_index>
614

> <i_lp_mmshare_version>
43012

> <i_f3d_flags>
0

> <s_epik_input>
W0NIM11uMVtjSF1bY0hdYyhuMSlbTkhdQyg9TylbTkhdW0NAQF0oW0NIM10pKFtDSDJdW09IXSlbQ0hdMltDSDJdW0NIMl1bQ0gyXVtDSDJdW0NIMl0y

> <s_epik_cmdline>
J2VwaWtfcHl0aG9uJywgJy1waCcsICc3LjAnLCAnLXRuJywgJzgnLCAnLW1hJywgJzIwMCcsICctbWV0YWxfYmluZGluZycsICctaW1hZScsICc8aW5maWxlLm1hZT4nLCAnLW9tYWUnLCAnPG91dGZpbGUubWFlPic=

> <r_lp_tautomer_probability>
1

> <r_epik_Ionization_Penalty>
3.66621e-05

> <r_epik_Ionization_Penalty_Charging>
0

> <r_epik_Ionization_Penalty_Neutral>
3.66621e-05

> <r_epik_State_Penalty>
-0

> <r_epik_Charging_Adjusted_Penalty>
0

> <i_epik_Tot_Q>
0

> <i_epik_Tot_abs_Q>
0

> <r_epik_Metal_State_Penalty>
-0

> <b_epik_Metal_Only>
0

> <s_lp_Force_Field>
OPLS_2005

> <r_lp_Energy>
18.5246

> <b_lp_Chiralities_Consistent>
1

> <s_lp_Variant>
AV-unprocessed.smi:614-1

> <Gold.Version>
5.8.1

> <Gold.Id.Protein>
6NUR|6NUR_protein|mol2

> <Gold.PLP.Fitness>
44.0490

> <Gold.PLP.PLP>
-36.2899

> <Gold.PLP.part.hbond>
-4.4494

> <Gold.PLP.part.metal>
0.0000

> <Gold.PLP.part.buried>
-1.2243

> <Gold.PLP.part.nonpolar>
-30.6357

> <Gold.PLP.part.repulsive>
0.1325

> <Gold.PLP.ligand.clash>
0.0000

> <Gold.PLP.ligand.torsion>
1.5780

> <Gold.PLP.Chemscore.Hbond>
3.6304

> <Gold.PLP.Chemscore.CHOScore>
0.0000

> <Gold.PLP.Chemscore.Metal>
0.0000

> <Gold.Chemscore.Hbonds>
donor molecule, donor type, donor heavy atom, donor atom, acceptor molecule, acceptor atom, score
      L1  H     6    26       P1  7948  0.80
      L1  H     9    27       P1  7948  0.98
      L1  H    13    33       P1  7949  0.80
      P1  H 10752 10765       L1    13  0.85

> <Gold.PLP.Chemscore.Internal.Correction>
0.0240

> <Gold.Rescore>
     Score         DG    S(hbond)    S(metal)    S(lipo)     H(rot)  DE(clash)    DE(int)     intcor
     13.40     -17.71       2.81        0.00      69.57       2.07       0.03       4.28       ----

> <Gold.Chemscore.Fitness>
13.4023

> <Gold.Chemscore.DG>
-17.7135

> <Gold.Chemscore.ZeroCoef>
-5.4800

> <Gold.Chemscore.Hbond>
2.8129

> <Gold.Chemscore.Metal>
0.0000

> <Gold.Chemscore.Lipo>
69.5737

> <Gold.Chemscore.Internal_Hbond>
0.0000

> <Gold.Chemscore.DEClash>
0.0323

> <Gold.Chemscore.DEInternal>
4.2789

> <Gold.Chemscore.Rot>
2.0710

> <Gold.Chemscore.Internal.Correction>
   9.000000E+99

> <Gold.Chemscore.Hbonds>
donor molecule, donor type, donor heavy atom, donor atom, acceptor molecule, acceptor atom, score
      L1  H     6    26       P1  7948  0.11
      L1  H     9    27       P1  7948  0.82
      L1  H    13    33       P1  7949  0.74
      P1  H 10752 10765       L1    13  0.21

> <Gold.Chemscore.Hbond.Weighted>
-9.3951

> <Gold.Chemscore.Metal.Weighted>
-0.0000

> <Gold.Chemscore.Lipo.Weighted>
-8.1401

> <Gold.Chemscore.Internal_Hbond.Weighted>
0.0000

> <Gold.Chemscore.DEClash.Weighted>
0.0323

> <Gold.Chemscore.DEInternal.Weighted>
4.2789

> <Gold.Chemscore.Rot.Weighted>
5.3017

> <Gold.Chemscore.Internal.Correction.Weighted>
   9.000000E+99

> <Gold.Protein.RotatedTorsions>
[ 6907 6896 6895 6894 ] final -146.50 input  -60.11 | X-H torsion
[ 7974 7965 7964 7962 ] final  100.16 input  175.53 | X-H torsion
[ 8008 7997 7996 7995 ] final  164.14 input   59.86 | X-H torsion
[ 10167 10162 10161 10158 ] final   71.64 input  -65.29 | X-H torsion
[ 10718 10713 10712 10709 ] final  -97.07 input   66.30 | X-H torsion
[ 10763 10752 10751 10750 ] final  138.96 input  -60.55 | X-H torsion
[ 11005 11000 10999 10996 ] final   30.43 input  -57.11 | X-H torsion

> <Gold.Protein.ActiveResidues>
 VAL166  LYS551  ARG553  GLY616  TRP617  ASP618  TYR619  PRO620  LYS621  CYS622 
 ASP623  PHE694  ASN695  SER759  ASP760  ASP761  ALA762  ILE779  LEU786  VAL792 
 PHE793  MET794  SER795  GLU796  ALA797  LYS798  CYS799  TRP800  GLU811  SER814 

> <Gold.Protein.RotatedAtoms>
  151.1425  133.4962  159.2596 H   0  0  0  0  0  0  0  0  0  0  0  0  # atno 6907 bound_to 6896
  151.1640  135.0286  159.8733 H   0  0  0  0  0  0  0  0  0  0  0  0  # atno 6908 bound_to 6896
  152.5462  134.1295  159.8486 H   0  0  0  0  0  0  0  0  0  0  0  0  # atno 6909 bound_to 6896
  145.3893  139.2366  143.3360 H   0  0  0  0  0  0  0  0  0  0  0  0  # atno 7974 bound_to 7965
  156.1903  140.1705  156.8105 H   0  0  0  0  0  0  0  0  0  0  0  0  # atno 8008 bound_to 7997
  154.5463  140.0726  156.8627 H   0  0  0  0  0  0  0  0  0  0  0  0  # atno 8009 bound_to 7997
  155.3115  140.3368  155.4246 H   0  0  0  0  0  0  0  0  0  0  0  0  # atno 8010 bound_to 7997
  140.0439  144.5367  150.7413 H   0  0  0  0  0  0  0  0  0  0  0  0  # atno 10167 bound_to 10162
  156.0075  130.5178  150.6319 H   0  0  0  0  0  0  0  0  0  0  0  0  # atno 10718 bound_to 10713
  153.8982  135.3025  155.3448 H   0  0  0  0  0  0  0  0  0  0  0  0  # atno 10763 bound_to 10752
  154.7683  135.4899  153.9602 H   0  0  0  0  0  0  0  0  0  0  0  0  # atno 10764 bound_to 10752
  153.1260  135.6793  153.9356 H   0  0  0  0  0  0  0  0  0  0  0  0  # atno 10765 bound_to 10752
  140.2945  134.2827  155.7768 H   0  0  0  0  0  0  0  0  0  0  0  0  # atno 11005 bound_to 11000
  146.2805  140.4573  142.8778 LP  0  0  0  0  0  0  0  0  0  0  0  0  # atno 17320 bound_to 7965
  144.8452  140.6917  143.6204 LP  0  0  0  0  0  0  0  0  0  0  0  0  # atno 17321 bound_to 7965
  140.7248  143.2624  151.4159 LP  0  0  0  0  0  0  0  0  0  0  0  0  # atno 17342 bound_to 10162
  139.5996  144.1324  152.2183 LP  0  0  0  0  0  0  0  0  0  0  0  0  # atno 17343 bound_to 10162
  157.4116  131.0824  151.1216 LP  0  0  0  0  0  0  0  0  0  0  0  0  # atno 17370 bound_to 10713
  157.1846  130.6324  149.5683 LP  0  0  0  0  0  0  0  0  0  0  0  0  # atno 17371 bound_to 10713
  141.2140  133.7606  156.9674 LP  0  0  0  0  0  0  0  0  0  0  0  0  # atno 17394 bound_to 11000
  140.1165  134.9444  157.2142 LP  0  0  0  0  0  0  0  0  0  0  0  0  # atno 17395 bound_to 11000

$$$$
