#       Name:                AV-unprocessed.smi:1809
#       Creating user name   scv26
#       Creation time:       Fri Mar 27 08:58:45 2020


#       File generated by GOLD software.
#

@<TRIPOS>MOLECULE
AV-unprocessed.smi:1809
    46    48     1
SMALL
NO_CHARGES


@<TRIPOS>ATOM
      1 ****        -8.2347   2.1067   0.1937 C.3            1 S1                 0.0000
      2 ****        -6.8685   1.8824  -0.3580 C.2            1 S1                 0.0000
      3 ****        -6.6440   1.6276  -1.6494 N.2            1 S1                 0.0000
      4 ****        -5.2942   1.4545  -1.9210 N.2            1 S1                 0.0000
      5 ****        -4.5200   1.5683  -0.8324 C.2            1 S1                 0.0000
      6 ****        -3.1838   1.4387  -0.8805 N.pl3          1 S1                -1.0000
      7 ****        -2.6064   0.2609  -0.5506 C.2            1 S1                 0.0000
      8 ****        -3.1907  -0.7685  -0.2042 O.2            1 S1                 0.0000
      9 ****        -1.2692   0.2754  -0.6237 N.am           1 S1                 0.0000
     10 ****        -0.4004  -0.8537  -0.3176 C.3            1 S1                 0.0000
     11 ****         1.0769  -0.4483  -0.4152 C.3            1 S1                 0.0000
     12 ****         2.0184  -1.6595  -0.2217 C.3            1 S1                 0.0000
     13 ****         3.3987  -1.2142  -0.1925 N.3            1 S1                 0.0000
     14 ****         4.4048  -2.2182   0.0637 C.3            1 S1                 0.0000
     15 ****         5.6589  -1.4102   0.4417 C.3            1 S1                 0.0000
     16 ****         5.1136  -0.0288   0.8676 C.3            1 S1                 0.0000
     17 ****         3.5993  -0.2437   0.8494 C.3            1 S1                 0.0000
     18 ****         2.7062   0.9849   0.6262 C.3            1 S1                 0.0000
     19 ****         1.3488   0.5384   0.5893 O.3            1 S1                 0.0000
     20 ****        -5.4241   1.9278   0.6386 S.3            1 S1                 0.0000
     21 ****        -8.7617   1.1564   0.2807 H              1 S1                 0.0000
     22 ****        -8.8033   2.7662  -0.4624 H              1 S1                 0.0000
     23 ****        -8.1740   2.5655   1.1806 H              1 S1                 0.0000
     24 ****        -0.8233   1.1362  -0.9051 H              1 S1                 0.0000
     25 ****        -0.6214  -1.2309   0.6822 H              1 S1                 0.0000
     26 ****        -0.6121  -1.6599  -1.0215 H              1 S1                 0.0000
     27 ****         1.2632  -0.0069  -1.3962 H              1 S1                 0.0000
     28 ****         1.7731  -2.1736   0.7089 H              1 S1                 0.0000
     29 ****         1.8771  -2.3794  -1.0284 H              1 S1                 0.0000
     30 ****         4.1031  -2.8479   0.9024 H              1 S1                 0.0000
     31 ****         4.5630  -2.8608  -0.8027 H              1 S1                 0.0000
     32 ****         6.2119  -1.8972   1.2453 H              1 S1                 0.0000
     33 ****         6.3295  -1.3065  -0.4122 H              1 S1                 0.0000
     34 ****         5.4737   0.2819   1.8488 H              1 S1                 0.0000
     35 ****         5.4052   0.7314   0.1415 H              1 S1                 0.0000
     36 ****         3.3190  -0.6913   1.8056 H              1 S1                 0.0000
     37 ****         2.8282   1.7045   1.4358 H              1 S1                 0.0000
     38 ****         2.9577   1.4936  -0.3058 H              1 S1                 0.0000
     39 ****        -7.3645   1.5684  -2.3403 LP             1 S1                 0.0000
     40 ****        -4.9357   1.2643  -2.8350 LP             1 S1                 0.0000
     41 ****        -2.6160   2.2129  -1.1602 LP             1 S1                 0.0000
     42 ****        -4.1889  -0.7817  -0.1470 LP             1 S1                 0.0000
     43 ****        -2.6662  -1.5901   0.0194 LP             1 S1                 0.0000
     44 ****         3.5205  -0.8690  -1.1231 LP             1 S1                 0.0000
     45 ****         1.1241   0.1466   1.4815 LP             1 S1                 0.0000
     46 ****         0.7636   1.3305   0.4161 LP             1 S1                 0.0000
@<TRIPOS>BOND
    1    1    2 1     
    2    1   21 1     
    3    1   22 1     
    4    1   23 1     
    5    2   20 1     
    6    2    3 2     
    7    3    4 1     
    8    4    5 2     
    9    5    6 1     
   10    5   20 1     
   11    6    7 1     
   12    7    8 2     
   13    7    9 am    
   14    9   10 1     
   15    9   24 1     
   16   10   11 1     
   17   10   25 1     
   18   10   26 1     
   19   11   19 1     
   20   11   12 1     
   21   11   27 1     
   22   12   13 1     
   23   12   28 1     
   24   12   29 1     
   25   13   17 1     
   26   13   14 1     
   27   14   15 1     
   28   14   30 1     
   29   14   31 1     
   30   15   16 1     
   31   15   32 1     
   32   15   33 1     
   33   16   17 1     
   34   16   34 1     
   35   16   35 1     
   36   17   18 1     
   37   17   36 1     
   38   18   19 1     
   39   18   37 1     
   40   18   38 1     
   41    3   39 1     
   42    4   40 1     
   43    6   41 1     
   44    8   42 1     
   45    8   43 1     
   46   13   44 1     
   47   19   45 1     
   48   19   46 1     
@<TRIPOS>SUBSTRUCTURE
      1 S1             1
@<TRIPOS>SET
LONE_PAIRS      STATIC     ATOMS    <user>   **** ""
8 39 40 41 42 43 44 45 46
DONOR_HYDROGENS      STATIC     ATOMS    <user>   **** ""
1 24
ATOM$BLUE        STATIC     ATOMS    COLORGROUP SYSTEM
8 39 40 41 42 43 44 45 46
ATOM$RED        STATIC     ATOMS    COLORGROUP SYSTEM
1 24
