AV-unprocessed.smi:1554|AV-procd|sdf|6255|dock10
  -GOLD-   22720 6443D 1   1.00000     0.00000
 Structure written by MMmdl.
 48 50  0  0  0  0  0  0  0  0  2 V2000
  152.6801  138.3797  156.0530 C   0  0  0  0  0  0  0  0  0  0  0  0
  151.4590  139.0756  155.4760 C   0  0  0  0  0  0  0  0  0  0  0  0
  150.7094  138.4080  154.4812 C   0  0  0  0  0  0  0  0  0  0  0  0
  149.5974  139.0697  153.9740 C   0  0  0  0  0  0  0  0  0  0  0  0
  148.6680  138.6847  153.0056 N   0  3  0  0  0  0  0  0  0  0  0  0
  147.7464  139.6735  152.8418 C   0  0  0  0  0  0  0  0  0  0  0  0
  148.0738  140.6853  153.6905 N   0  0  0  0  0  0  0  0  0  0  0  0
  147.4093  141.9791  153.9068 C   0  0  0  0  0  0  0  0  0  0  0  0
  146.5582  142.0102  155.1915 C   0  0  1  0  0  0  0  0  0  0  0  0
  147.3574  142.4347  156.2778 O   0  0  0  0  0  0  0  0  0  0  0  0
  145.3672  142.9795  155.0558 C   0  0  0  0  0  0  0  0  0  0  0  0
  144.5028  143.0875  156.2326 N   0  0  0  0  0  0  0  0  0  0  0  0
  143.6854  141.8951  156.4493 C   0  0  0  0  0  0  0  0  0  0  0  0
  142.7648  142.0456  157.6726 C   0  0  0  0  0  0  0  0  0  0  0  0
  141.9507  143.2038  157.5208 O   0  0  0  0  0  0  0  0  0  0  0  0
  142.7089  144.3989  157.3564 C   0  0  2  0  0  0  0  0  0  0  0  0
  141.7342  145.5727  157.2131 C   0  0  0  0  0  0  0  0  0  0  0  0
  143.6235  144.2473  156.1255 C   0  0  0  0  0  0  0  0  0  0  0  0
  149.2221  140.3522  154.4193 C   0  0  0  0  0  0  0  0  0  0  0  0
  149.9495  141.0231  155.3996 C   0  0  0  0  0  0  0  0  0  0  0  0
  151.0824  140.3660  155.9306 C   0  0  0  0  0  0  0  0  0  0  0  0
  151.8934  141.0736  157.0029 C   0  0  0  0  0  0  0  0  0  0  0  0
  152.8526  137.4149  155.5750 H   0  0  0  0  0  0  0  0  0  0  0  0
  152.5513  138.2039  157.1212 H   0  0  0  0  0  0  0  0  0  0  0  0
  153.5732  138.9873  155.9066 H   0  0  0  0  0  0  0  0  0  0  0  0
  150.9886  137.4247  154.1315 H   0  0  0  0  0  0  0  0  0  0  0  0
  146.9077  139.6582  152.1608 H   0  0  0  0  0  0  0  0  0  0  0  0
  148.1564  142.7734  153.9037 H   0  0  0  0  0  0  0  0  0  0  0  0
  146.7728  142.1578  153.0393 H   0  0  0  0  0  0  0  0  0  0  0  0
  146.2113  140.9977  155.3943 H   0  0  0  0  0  0  0  0  0  0  0  0
  147.8671  143.1800  155.9965 H   0  0  0  0  0  0  0  0  0  0  0  0
  145.7644  143.9660  154.8109 H   0  0  0  0  0  0  0  0  0  0  0  0
  144.7619  142.6851  154.1970 H   0  0  0  0  0  0  0  0  0  0  0  0
  143.0791  141.6956  155.5643 H   0  0  0  0  0  0  0  0  0  0  0  0
  144.3163  141.0206  156.6004 H   0  0  0  0  0  0  0  0  0  0  0  0
  142.1230  141.1704  157.7744 H   0  0  0  0  0  0  0  0  0  0  0  0
  143.3506  142.1218  158.5900 H   0  0  0  0  0  0  0  0  0  0  0  0
  143.3190  144.5566  158.2476 H   0  0  0  0  0  0  0  0  0  0  0  0
  142.2690  146.5151  157.0919 H   0  0  0  0  0  0  0  0  0  0  0  0
  141.0997  145.6617  158.0952 H   0  0  0  0  0  0  0  0  0  0  0  0
  141.0849  145.4422  156.3469 H   0  0  0  0  0  0  0  0  0  0  0  0
  144.2211  145.1523  156.0099 H   0  0  0  0  0  0  0  0  0  0  0  0
  143.0106  144.1627  155.2265 H   0  0  0  0  0  0  0  0  0  0  0  0
  149.6606  142.0028  155.7501 H   0  0  0  0  0  0  0  0  0  0  0  0
  151.4388  142.0241  157.2847 H   0  0  0  0  0  0  0  0  0  0  0  0
  152.9020  141.2792  156.6438 H   0  0  0  0  0  0  0  0  0  0  0  0
  151.9627  140.4602  157.9014 H   0  0  0  0  0  0  0  0  0  0  0  0
  148.6600  137.8117  152.4936 H   0  0  0  0  0  0  0  0  0  0  0  0
  1  2  1  0  0  0  0
  1 23  1  0  0  0  0
  1 24  1  0  0  0  0
  1 25  1  0  0  0  0
  2 21  1  0  0  0  0
  2  3  2  0  0  0  0
  3  4  1  0  0  0  0
  3 26  1  0  0  0  0
  4 19  2  0  0  0  0
  4  5  1  0  0  0  0
  5  6  2  0  0  0  0
  5 48  1  0  0  0  0
  6  7  1  0  0  0  0
  6 27  1  0  0  0  0
  7  8  1  0  0  0  0
  7 19  1  0  0  0  0
  8  9  1  0  0  0  0
  8 28  1  0  0  0  0
  8 29  1  0  0  0  0
  9 10  1  0  0  0  0
  9 11  1  0  0  0  0
  9 30  1  0  0  0  0
 10 31  1  0  0  0  0
 11 12  1  0  0  0  0
 11 32  1  0  0  0  0
 11 33  1  0  0  0  0
 12 18  1  0  0  0  0
 12 13  1  0  0  0  0
 13 14  1  0  0  0  0
 13 34  1  0  0  0  0
 13 35  1  0  0  0  0
 14 15  1  0  0  0  0
 14 36  1  0  0  0  0
 14 37  1  0  0  0  0
 15 16  1  0  0  0  0
 16 17  1  0  0  0  0
 16 18  1  0  0  0  0
 16 38  1  0  0  0  0
 17 39  1  0  0  0  0
 17 40  1  0  0  0  0
 17 41  1  0  0  0  0
 18 42  1  0  0  0  0
 18 43  1  0  0  0  0
 19 20  1  0  0  0  0
 20 21  2  0  0  0  0
 20 44  1  0  0  0  0
 21 22  1  0  0  0  0
 22 45  1  0  0  0  0
 22 46  1  0  0  0  0
 22 47  1  0  0  0  0
M  CHG  1   5   1
M  END
> <s_m_source_file>
AV-unprocessed.smi

> <i_m_source_file_index>
1554

> <i_lp_mmshare_version>
43012

> <i_f3d_flags>
0

> <s_epik_input>
W0NIM11jKFtjSF0xKWMoW0NIM10pW2NIXWMoYzEyKW4oW2NIXW4yKVtDSDJdW0NASF0oW09IXSlbQ0gyXU4zW0NIMl1bQ0gyXU9bQ0BASF0oW0NIM10pW0NIMl0z

> <s_epik_cmdline>
J2VwaWtfcHl0aG9uJywgJy1waCcsICc3LjAnLCAnLXRuJywgJzgnLCAnLW1hJywgJzIwMCcsICctbWV0YWxfYmluZGluZycsICctaW1hZScsICc8aW5maWxlLm1hZT4nLCAnLW9tYWUnLCAnPG91dGZpbGUubWFlPic=

> <r_epik_Ionization_Penalty>
1.42504

> <r_epik_Ionization_Penalty_Charging>
1.21068

> <r_epik_Ionization_Penalty_Neutral>
0.214359

> <r_epik_State_Penalty>
1.46962

> <r_epik_Charging_Adjusted_Penalty>
2.6803

> <i_epik_Tot_Q>
1

> <i_epik_Tot_abs_Q>
1

> <r_epik_Metal_State_Penalty>
5.48754

> <b_epik_Metal_Only>
0

> <s_lp_Force_Field>
OPLS_2005

> <r_lp_Energy>
34.6572

> <b_lp_Chiralities_Consistent>
1

> <s_lp_Variant>
AV-unprocessed.smi:1554-16

> <Gold.Version>
5.8.1

> <Gold.Id.Protein>
6NUR|6NUR_protein|mol2

> <Gold.PLP.Fitness>
40.8598

> <Gold.PLP.PLP>
-33.1990

> <Gold.PLP.part.hbond>
-2.8210

> <Gold.PLP.part.metal>
0.0000

> <Gold.PLP.part.buried>
1.8579

> <Gold.PLP.part.nonpolar>
-31.8183

> <Gold.PLP.part.repulsive>
0.1519

> <Gold.PLP.ligand.clash>
0.0000

> <Gold.PLP.ligand.torsion>
0.6805

> <Gold.PLP.Chemscore.Hbond>
3.0000

> <Gold.PLP.Chemscore.CHOScore>
0.0000

> <Gold.PLP.Chemscore.Metal>
0.0000

> <Gold.Chemscore.Hbonds>
donor molecule, donor type, donor heavy atom, donor atom, acceptor molecule, acceptor atom, score
      L1  H     5    48       P1  7948  2.00
      L1  H    10    31       P1  8028  1.00

> <Gold.PLP.Chemscore.Internal.Correction>
0.0218

> <Gold.Rescore>
     Score         DG    S(hbond)    S(metal)    S(lipo)     H(rot)  DE(clash)    DE(int)     intcor
     13.35     -15.48       1.75        0.00      80.17       2.04       1.37       0.76       ----

> <Gold.Chemscore.Fitness>
13.3535

> <Gold.Chemscore.DG>
-15.4820

> <Gold.Chemscore.ZeroCoef>
-5.4800

> <Gold.Chemscore.Hbond>
1.7521

> <Gold.Chemscore.Metal>
0.0000

> <Gold.Chemscore.Lipo>
80.1673

> <Gold.Chemscore.Internal_Hbond>
0.0000

> <Gold.Chemscore.DEClash>
1.3726

> <Gold.Chemscore.DEInternal>
0.7558

> <Gold.Chemscore.Rot>
2.0427

> <Gold.Chemscore.Internal.Correction>
   9.000000E+99

> <Gold.Chemscore.Hbonds>
donor molecule, donor type, donor heavy atom, donor atom, acceptor molecule, acceptor atom, score
      L1  H     5    48       P1  7948  1.00
      L1  H    10    31       P1  8028  0.30

> <Gold.Chemscore.Hbond.Weighted>
-5.8518

> <Gold.Chemscore.Metal.Weighted>
-0.0000

> <Gold.Chemscore.Lipo.Weighted>
-9.3796

> <Gold.Chemscore.Internal_Hbond.Weighted>
0.0000

> <Gold.Chemscore.DEClash.Weighted>
1.3726

> <Gold.Chemscore.DEInternal.Weighted>
0.7558

> <Gold.Chemscore.Rot.Weighted>
5.2294

> <Gold.Chemscore.Internal.Correction.Weighted>
   9.000000E+99

> <Gold.Protein.RotatedTorsions>
[ 6907 6896 6895 6894 ] final  -79.85 input  -60.11 | X-H torsion
[ 7974 7965 7964 7962 ] final  162.01 input  175.53 | X-H torsion
[ 8008 7997 7996 7995 ] final   -0.07 input   59.86 | X-H torsion
[ 10167 10162 10161 10158 ] final   61.83 input  -65.29 | X-H torsion
[ 10718 10713 10712 10709 ] final   74.86 input   66.30 | X-H torsion
[ 10763 10752 10751 10750 ] final  -30.22 input  -60.55 | X-H torsion
[ 11005 11000 10999 10996 ] final -123.79 input  -57.11 | X-H torsion

> <Gold.Protein.ActiveResidues>
 VAL166  LYS551  ARG553  GLY616  TRP617  ASP618  TYR619  PRO620  LYS621  CYS622 
 ASP623  PHE694  ASN695  SER759  ASP760  ASP761  ALA762  ILE779  LEU786  VAL792 
 PHE793  MET794  SER795  GLU796  ALA797  LYS798  CYS799  TRP800  GLU811  SER814 

> <Gold.Protein.RotatedAtoms>
  150.6941  134.4058  159.5139 H   0  0  0  0  0  0  0  0  0  0  0  0  # atno 6907 bound_to 6896
  152.1824  134.8740  160.0534 H   0  0  0  0  0  0  0  0  0  0  0  0  # atno 6908 bound_to 6896
  151.9725  133.3696  159.4113 H   0  0  0  0  0  0  0  0  0  0  0  0  # atno 6909 bound_to 6896
  144.7657  139.7979  143.6316 H   0  0  0  0  0  0  0  0  0  0  0  0  # atno 7974 bound_to 7965
  154.6623  140.2593  155.7096 H   0  0  0  0  0  0  0  0  0  0  0  0  # atno 8008 bound_to 7997
  156.2623  140.2846  156.1021 H   0  0  0  0  0  0  0  0  0  0  0  0  # atno 8009 bound_to 7997
  155.1290  140.0378  157.2760 H   0  0  0  0  0  0  0  0  0  0  0  0  # atno 8010 bound_to 7997
  140.1505  144.4467  150.6762 H   0  0  0  0  0  0  0  0  0  0  0  0  # atno 10167 bound_to 10162
  157.6610  130.9698  150.1271 H   0  0  0  0  0  0  0  0  0  0  0  0  # atno 10718 bound_to 10713
  153.7773  135.6908  153.4895 H   0  0  0  0  0  0  0  0  0  0  0  0  # atno 10763 bound_to 10752
  153.1834  135.4498  155.0056 H   0  0  0  0  0  0  0  0  0  0  0  0  # atno 10764 bound_to 10752
  154.8095  135.3371  154.7279 H   0  0  0  0  0  0  0  0  0  0  0  0  # atno 10765 bound_to 10752
  140.9891  134.0564  157.3675 H   0  0  0  0  0  0  0  0  0  0  0  0  # atno 11005 bound_to 11000
  146.1763  139.4935  142.9895 LP  0  0  0  0  0  0  0  0  0  0  0  0  # atno 17320 bound_to 7965
  145.6477  141.0270  143.1777 LP  0  0  0  0  0  0  0  0  0  0  0  0  # atno 17321 bound_to 7965
  140.6705  143.2284  151.5636 LP  0  0  0  0  0  0  0  0  0  0  0  0  # atno 17342 bound_to 10162
  139.5428  144.2601  152.1384 LP  0  0  0  0  0  0  0  0  0  0  0  0  # atno 17343 bound_to 10162
  156.2127  130.3668  149.8650 LP  0  0  0  0  0  0  0  0  0  0  0  0  # atno 17370 bound_to 10713
  156.6524  130.8749  151.3533 LP  0  0  0  0  0  0  0  0  0  0  0  0  # atno 17371 bound_to 10713
  139.8984  135.0154  156.7147 LP  0  0  0  0  0  0  0  0  0  0  0  0  # atno 17394 bound_to 11000
  140.7067  133.9259  155.8058 LP  0  0  0  0  0  0  0  0  0  0  0  0  # atno 17395 bound_to 11000

$$$$
