AV-unprocessed.smi:2106|AV-procd|sdf|8597|dock7
  -GOLD-   2272011333D 1   1.00000     0.00000
 Structure written by MMmdl.
 48 49  0  0  0  0  0  0  0  0  2 V2000
  138.7022  137.3172  157.5837 C   0  0  0  0  0  0  0  0  0  0  0  0
  139.1002  137.5834  156.1620 C   0  0  0  0  0  0  0  0  0  0  0  0
  138.2815  137.5589  154.9986 C   0  0  0  0  0  0  0  0  0  0  0  0
  139.1341  137.8744  153.9784 C   0  0  0  0  0  0  0  0  0  0  0  0
  138.8724  138.0112  152.5142 C   0  0  0  0  0  0  0  0  0  0  0  0
  140.3824  138.0669  154.5442 N   0  0  0  0  0  0  0  0  0  0  0  0
  141.6361  138.4311  153.9033 C   0  0  0  0  0  0  0  0  0  0  0  0
  142.3211  137.2037  153.3009 C   0  0  0  0  0  0  0  0  0  0  0  0
  141.8919  136.0759  153.5438 O   0  0  0  0  0  0  0  0  0  0  0  0
  143.3826  137.4352  152.5130 N   0  0  0  0  0  0  0  0  0  0  0  0
  144.1449  136.4083  151.8131 C   0  0  0  0  0  0  0  0  0  0  0  0
  145.6304  136.4170  152.2252 C   0  0  0  0  0  0  0  0  0  0  0  0
  146.2808  135.0955  152.0420 N   0  3  1  0  0  0  0  0  0  0  0  0
  146.3374  134.3192  153.3036 C   0  0  0  0  0  0  0  0  0  0  0  0
  147.0723  132.9792  153.1042 C   0  0  2  0  0  0  0  0  0  0  0  0
  148.5972  133.1291  152.9595 C   0  0  0  0  0  0  0  0  0  0  0  0
  146.4938  132.2567  152.0173 O   0  0  0  0  0  0  0  0  0  0  0  0
  146.4560  132.9643  150.7810 C   0  0  1  0  0  0  0  0  0  0  0  0
  145.8113  132.0512  149.7324 C   0  0  0  0  0  0  0  0  0  0  0  0
  145.6730  134.2769  150.9650 C   0  0  0  0  0  0  0  0  0  0  0  0
  140.3571  137.8875  155.8833 N   0  0  0  0  0  0  0  0  0  0  0  0
  137.6495  137.0423  157.6532 H   0  0  0  0  0  0  0  0  0  0  0  0
  138.8558  138.1992  158.2059 H   0  0  0  0  0  0  0  0  0  0  0  0
  139.2863  136.5010  158.0099 H   0  0  0  0  0  0  0  0  0  0  0  0
  137.2259  137.3438  154.9247 H   0  0  0  0  0  0  0  0  0  0  0  0
  137.8176  137.8508  152.2907 H   0  0  0  0  0  0  0  0  0  0  0  0
  139.4495  137.2812  151.9463 H   0  0  0  0  0  0  0  0  0  0  0  0
  139.1402  139.0068  152.1608 H   0  0  0  0  0  0  0  0  0  0  0  0
  141.4445  139.1759  153.1289 H   0  0  0  0  0  0  0  0  0  0  0  0
  142.2917  138.9015  154.6369 H   0  0  0  0  0  0  0  0  0  0  0  0
  143.6593  138.3952  152.3636 H   0  0  0  0  0  0  0  0  0  0  0  0
  143.6803  135.4401  152.0011 H   0  0  0  0  0  0  0  0  0  0  0  0
  144.0559  136.5928  150.7423 H   0  0  0  0  0  0  0  0  0  0  0  0
  146.1466  137.1552  151.6094 H   0  0  0  0  0  0  0  0  0  0  0  0
  145.7528  136.7401  153.2600 H   0  0  0  0  0  0  0  0  0  0  0  0
  146.8311  134.9004  154.0837 H   0  0  0  0  0  0  0  0  0  0  0  0
  145.3193  134.1305  153.6483 H   0  0  0  0  0  0  0  0  0  0  0  0
  146.9002  132.3725  153.9938 H   0  0  0  0  0  0  0  0  0  0  0  0
  149.0300  133.5627  153.8613 H   0  0  0  0  0  0  0  0  0  0  0  0
  148.8739  133.7746  152.1264 H   0  0  0  0  0  0  0  0  0  0  0  0
  149.0693  132.1588  152.8033 H   0  0  0  0  0  0  0  0  0  0  0  0
  147.4714  133.1869  150.4527 H   0  0  0  0  0  0  0  0  0  0  0  0
  145.7642  132.5411  148.7592 H   0  0  0  0  0  0  0  0  0  0  0  0
  144.7958  131.7756  150.0178 H   0  0  0  0  0  0  0  0  0  0  0  0
  146.3842  131.1314  149.6120 H   0  0  0  0  0  0  0  0  0  0  0  0
  144.6309  134.0656  151.2110 H   0  0  0  0  0  0  0  0  0  0  0  0
  145.6719  134.8242  150.0233 H   0  0  0  0  0  0  0  0  0  0  0  0
  147.2378  135.2776  151.7752 H   0  0  0  0  0  0  0  0  0  0  0  0
  1  2  1  0  0  0  0
  1 22  1  0  0  0  0
  1 23  1  0  0  0  0
  1 24  1  0  0  0  0
  2 21  2  0  0  0  0
  2  3  1  0  0  0  0
  3  4  2  0  0  0  0
  3 25  1  0  0  0  0
  4  5  1  0  0  0  0
  4  6  1  0  0  0  0
  5 26  1  0  0  0  0
  5 27  1  0  0  0  0
  5 28  1  0  0  0  0
  6  7  1  0  0  0  0
  6 21  1  0  0  0  0
  7  8  1  0  0  0  0
  7 29  1  0  0  0  0
  7 30  1  0  0  0  0
  8  9  2  0  0  0  0
  8 10  1  0  0  0  0
 10 11  1  0  0  0  0
 10 31  1  0  0  0  0
 11 12  1  0  0  0  0
 11 32  1  0  0  0  0
 11 33  1  0  0  0  0
 12 13  1  0  0  0  0
 12 34  1  0  0  0  0
 12 35  1  0  0  0  0
 13 20  1  0  0  0  0
 13 14  1  0  0  0  0
 13 48  1  0  0  0  0
 14 15  1  0  0  0  0
 14 36  1  0  0  0  0
 14 37  1  0  0  0  0
 15 16  1  0  0  0  0
 15 17  1  0  0  0  0
 15 38  1  0  0  0  0
 16 39  1  0  0  0  0
 16 40  1  0  0  0  0
 16 41  1  0  0  0  0
 17 18  1  0  0  0  0
 18 19  1  0  0  0  0
 18 20  1  0  0  0  0
 18 42  1  0  0  0  0
 19 43  1  0  0  0  0
 19 44  1  0  0  0  0
 19 45  1  0  0  0  0
 20 46  1  0  0  0  0
 20 47  1  0  0  0  0
M  CHG  1  13   1
M  END
> <s_m_source_file>
AV-unprocessed.smi

> <i_m_source_file_index>
2106

> <i_lp_mmshare_version>
43012

> <i_f3d_flags>
0

> <s_epik_input>
W0NIM11jMVtjSF1jKFtDSDNdKW4objEpW0NIMl1DKD1PKVtOSF1bQ0gyXVtDSDJdTjJbQ0gyXVtDQEBIXShbQ0gzXSlPW0NAQEhdKFtDSDNdKVtDSDJdMg==

> <s_epik_cmdline>
J2VwaWtfcHl0aG9uJywgJy1waCcsICc3LjAnLCAnLXRuJywgJzgnLCAnLW1hJywgJzIwMCcsICctbWV0YWxfYmluZGluZycsICctaW1hZScsICc8aW5maWxlLm1hZT4nLCAnLW9tYWUnLCAnPG91dGZpbGUubWFlPic=

> <r_lp_tautomer_probability>
1

> <r_epik_Ionization_Penalty>
0.748586

> <r_epik_Ionization_Penalty_Charging>
0.748396

> <r_epik_Ionization_Penalty_Neutral>
0.000189656

> <r_epik_State_Penalty>
0.775162

> <r_epik_Charging_Adjusted_Penalty>
1.52356

> <i_epik_Tot_Q>
1

> <i_epik_Tot_abs_Q>
1

> <r_epik_Metal_State_Penalty>
0.775295

> <b_epik_Metal_Only>
0

> <s_lp_Force_Field>
OPLS_2005

> <r_lp_Energy>
15.7435

> <b_lp_Chiralities_Consistent>
1

> <s_lp_Variant>
AV-unprocessed.smi:2106-5

> <Gold.Version>
5.8.1

> <Gold.Id.Protein>
6NUR|6NUR_protein|mol2

> <Gold.PLP.Fitness>
40.5797

> <Gold.PLP.PLP>
-33.5726

> <Gold.PLP.part.hbond>
-2.9762

> <Gold.PLP.part.metal>
0.0000

> <Gold.PLP.part.buried>
-3.5781

> <Gold.PLP.part.nonpolar>
-27.3570

> <Gold.PLP.part.repulsive>
0.2908

> <Gold.PLP.ligand.clash>
0.0000

> <Gold.PLP.ligand.torsion>
1.0137

> <Gold.PLP.Chemscore.Hbond>
2.9913

> <Gold.PLP.Chemscore.CHOScore>
0.0000

> <Gold.PLP.Chemscore.Metal>
0.0000

> <Gold.Chemscore.Hbonds>
donor molecule, donor type, donor heavy atom, donor atom, acceptor molecule, acceptor atom, score
      L1  H    10    31       P1 10175  0.98
      L1  H    13    48       P1  7948  2.00

> <Gold.PLP.Chemscore.Internal.Correction>
0.0608

> <Gold.Rescore>
     Score         DG    S(hbond)    S(metal)    S(lipo)     H(rot)  DE(clash)    DE(int)     intcor
     15.86     -17.12       1.95        0.00      81.77       1.73       0.08       1.19       ----

> <Gold.Chemscore.Fitness>
15.8611

> <Gold.Chemscore.DG>
-17.1233

> <Gold.Chemscore.ZeroCoef>
-5.4800

> <Gold.Chemscore.Hbond>
1.9490

> <Gold.Chemscore.Metal>
0.0000

> <Gold.Chemscore.Lipo>
81.7662

> <Gold.Chemscore.Internal_Hbond>
0.0000

> <Gold.Chemscore.DEClash>
0.0770

> <Gold.Chemscore.DEInternal>
1.1852

> <Gold.Chemscore.Rot>
1.7316

> <Gold.Chemscore.Internal.Correction>
   9.000000E+99

> <Gold.Chemscore.Hbonds>
donor molecule, donor type, donor heavy atom, donor atom, acceptor molecule, acceptor atom, score
      L1  H    10    31       P1 10175  0.92
      L1  H    13    48       P1  7948  0.96

> <Gold.Chemscore.Hbond.Weighted>
-6.5096

> <Gold.Chemscore.Metal.Weighted>
-0.0000

> <Gold.Chemscore.Lipo.Weighted>
-9.5666

> <Gold.Chemscore.Internal_Hbond.Weighted>
0.0000

> <Gold.Chemscore.DEClash.Weighted>
0.0770

> <Gold.Chemscore.DEInternal.Weighted>
1.1852

> <Gold.Chemscore.Rot.Weighted>
4.4330

> <Gold.Chemscore.Internal.Correction.Weighted>
   9.000000E+99

> <Gold.Protein.RotatedTorsions>
[ 6907 6896 6895 6894 ] final   47.71 input  -60.11 | X-H torsion
[ 7974 7965 7964 7962 ] final    0.32 input  175.53 | X-H torsion
[ 8008 7997 7996 7995 ] final -167.02 input   59.86 | X-H torsion
[ 10167 10162 10161 10158 ] final  -98.64 input  -65.29 | X-H torsion
[ 10718 10713 10712 10709 ] final   39.43 input   66.30 | X-H torsion
[ 10763 10752 10751 10750 ] final  139.19 input  -60.55 | X-H torsion
[ 11005 11000 10999 10996 ] final  179.84 input  -57.11 | X-H torsion

> <Gold.Protein.ActiveResidues>
 VAL166  LYS551  ARG553  GLY616  TRP617  ASP618  TYR619  PRO620  LYS621  CYS622 
 ASP623  PHE694  ASN695  SER759  ASP760  ASP761  ALA762  ILE779  LEU786  VAL792 
 PHE793  MET794  SER795  GLU796  ALA797  LYS798  CYS799  TRP800  GLU811  SER814 

> <Gold.Protein.RotatedAtoms>
  152.2712  134.7930  160.0413 H   0  0  0  0  0  0  0  0  0  0  0  0  # atno 6907 bound_to 6896
  151.8542  133.3440  159.3691 H   0  0  0  0  0  0  0  0  0  0  0  0  # atno 6908 bound_to 6896
  150.7153  134.5197  159.5692 H   0  0  0  0  0  0  0  0  0  0  0  0  # atno 6909 bound_to 6896
  146.2433  140.1155  142.8342 H   0  0  0  0  0  0  0  0  0  0  0  0  # atno 7974 bound_to 7965
  155.8720  140.0995  157.1544 H   0  0  0  0  0  0  0  0  0  0  0  0  # atno 8008 bound_to 7997
  154.3998  140.1345  156.4152 H   0  0  0  0  0  0  0  0  0  0  0  0  # atno 8009 bound_to 7997
  155.7740  140.3460  155.5264 H   0  0  0  0  0  0  0  0  0  0  0  0  # atno 8010 bound_to 7997
  140.2709  143.3345  152.0535 H   0  0  0  0  0  0  0  0  0  0  0  0  # atno 10167 bound_to 10162
  157.3705  130.7699  149.7115 H   0  0  0  0  0  0  0  0  0  0  0  0  # atno 10718 bound_to 10713
  153.9020  135.3021  155.3448 H   0  0  0  0  0  0  0  0  0  0  0  0  # atno 10763 bound_to 10752
  154.7666  135.4907  153.9569 H   0  0  0  0  0  0  0  0  0  0  0  0  # atno 10764 bound_to 10752
  153.1240  135.6788  153.9389 H   0  0  0  0  0  0  0  0  0  0  0  0  # atno 10765 bound_to 10752
  140.4107  134.6695  157.4612 H   0  0  0  0  0  0  0  0  0  0  0  0  # atno 11005 bound_to 11000
  145.0451  140.8975  143.5029 LP  0  0  0  0  0  0  0  0  0  0  0  0  # atno 17320 bound_to 7965
  145.1243  139.2673  143.5572 LP  0  0  0  0  0  0  0  0  0  0  0  0  # atno 17321 bound_to 7965
  139.4989  144.6657  151.6362 LP  0  0  0  0  0  0  0  0  0  0  0  0  # atno 17342 bound_to 10162
  140.5890  143.9812  150.6313 LP  0  0  0  0  0  0  0  0  0  0  0  0  # atno 17343 bound_to 10162
  155.9754  130.4088  150.3848 LP  0  0  0  0  0  0  0  0  0  0  0  0  # atno 17370 bound_to 10713
  157.1938  131.0421  151.2686 LP  0  0  0  0  0  0  0  0  0  0  0  0  # atno 17371 bound_to 10713
  140.0270  134.6463  155.9159 LP  0  0  0  0  0  0  0  0  0  0  0  0  # atno 17394 bound_to 11000
  141.1822  133.6548  156.5068 LP  0  0  0  0  0  0  0  0  0  0  0  0  # atno 17395 bound_to 11000

$$$$
