AV-unprocessed.smi:575|AV-procd|sdf|2977|dock6
  -GOLD-   2262023483D 1   1.00000     0.00000
 Structure written by MMmdl.
 33 34  0  0  0  0  0  0  0  0  1 V2000
  146.8521  139.1574  152.2854 C   0  0  0  0  0  0  0  0  0  0  0  0
  147.7722  139.7579  153.2920 C   0  0  0  0  0  0  0  0  0  0  0  0
  147.8255  140.9870  153.8873 C   0  0  0  0  0  0  0  0  0  0  0  0
  148.9553  140.8799  154.7414 C   0  0  0  0  0  0  0  0  0  0  0  0
  149.3614  141.9705  155.5525 N   0  0  0  0  0  0  0  0  0  0  0  0
  150.3786  142.0033  156.4304 C   0  0  0  0  0  0  0  0  0  0  0  0
  151.1255  141.0580  156.6856 O   0  0  0  0  0  0  0  0  0  0  0  0
  150.4843  143.2084  157.0097 N   0  0  0  0  0  0  0  0  0  0  0  0
  151.4858  143.5779  158.0060 C   0  0  0  0  0  0  0  0  0  0  0  0
  151.6680  142.4499  159.0427 C   0  0  0  0  0  0  0  0  0  0  0  0
  152.6704  142.8508  160.1370 C   0  0  0  0  0  0  0  0  0  0  0  0
  152.2575  144.1645  160.8197 C   0  0  0  0  0  0  0  0  0  0  0  0
  152.0752  145.2912  159.7904 C   0  0  0  0  0  0  0  0  0  0  0  0
  151.0716  144.8911  158.6966 C   0  0  0  0  0  0  0  0  0  0  0  0
  149.5391  139.6931  154.6728 N   0  0  0  0  0  0  0  0  0  0  0  0
  148.7840  138.9681  153.7434 O   0  0  0  0  0  0  0  0  0  0  0  0
  145.9624  139.7735  152.1541 H   0  0  0  0  0  0  0  0  0  0  0  0
  146.5313  138.1633  152.5970 H   0  0  0  0  0  0  0  0  0  0  0  0
  147.3466  139.0665  151.3183 H   0  0  0  0  0  0  0  0  0  0  0  0
  147.1618  141.8250  153.7338 H   0  0  0  0  0  0  0  0  0  0  0  0
  148.8224  142.8175  155.4495 H   0  0  0  0  0  0  0  0  0  0  0  0
  149.8280  143.9258  156.7391 H   0  0  0  0  0  0  0  0  0  0  0  0
  152.4393  143.7494  157.5023 H   0  0  0  0  0  0  0  0  0  0  0  0
  150.7078  142.2106  159.5022 H   0  0  0  0  0  0  0  0  0  0  0  0
  152.0110  141.5379  158.5525 H   0  0  0  0  0  0  0  0  0  0  0  0
  152.7491  142.0553  160.8784 H   0  0  0  0  0  0  0  0  0  0  0  0
  153.6623  142.9634  159.6975 H   0  0  0  0  0  0  0  0  0  0  0  0
  151.3260  144.0150  161.3672 H   0  0  0  0  0  0  0  0  0  0  0  0
  153.0071  144.4523  161.5575 H   0  0  0  0  0  0  0  0  0  0  0  0
  151.7381  146.2001  160.2896 H   0  0  0  0  0  0  0  0  0  0  0  0
  153.0370  145.5283  159.3338 H   0  0  0  0  0  0  0  0  0  0  0  0
  150.9941  145.6923  157.9604 H   0  0  0  0  0  0  0  0  0  0  0  0
  150.0806  144.7810  159.1395 H   0  0  0  0  0  0  0  0  0  0  0  0
  1  2  1  0  0  0  0
  1 17  1  0  0  0  0
  1 18  1  0  0  0  0
  1 19  1  0  0  0  0
  2 16  1  0  0  0  0
  2  3  2  0  0  0  0
  3  4  1  0  0  0  0
  3 20  1  0  0  0  0
  4  5  1  0  0  0  0
  4 15  2  0  0  0  0
  5  6  1  0  0  0  0
  5 21  1  0  0  0  0
  6  7  2  0  0  0  0
  6  8  1  0  0  0  0
  8  9  1  0  0  0  0
  8 22  1  0  0  0  0
  9 14  1  0  0  0  0
  9 10  1  0  0  0  0
  9 23  1  0  0  0  0
 10 11  1  0  0  0  0
 10 24  1  0  0  0  0
 10 25  1  0  0  0  0
 11 12  1  0  0  0  0
 11 26  1  0  0  0  0
 11 27  1  0  0  0  0
 12 13  1  0  0  0  0
 12 28  1  0  0  0  0
 12 29  1  0  0  0  0
 13 14  1  0  0  0  0
 13 30  1  0  0  0  0
 13 31  1  0  0  0  0
 14 32  1  0  0  0  0
 14 33  1  0  0  0  0
 15 16  1  0  0  0  0
M  END
> <s_m_source_file>
AV-unprocessed.smi

> <i_m_source_file_index>
575

> <i_lp_mmshare_version>
43012

> <i_f3d_flags>
0

> <s_epik_input>
W0NIM11jMVtjSF1jKG5vMSlbTkhdQyg9TylbTkhdW0NIXTJbQ0gyXVtDSDJdW0NIMl1bQ0gyXVtDSDJdMg==

> <s_epik_cmdline>
J2VwaWtfcHl0aG9uJywgJy1waCcsICc3LjAnLCAnLXRuJywgJzgnLCAnLW1hJywgJzIwMCcsICctbWV0YWxfYmluZGluZycsICctaW1hZScsICc8aW5maWxlLm1hZT4nLCAnLW9tYWUnLCAnPG91dGZpbGUubWFlPic=

> <r_lp_tautomer_probability>
1

> <r_epik_Ionization_Penalty>
2.357e-05

> <r_epik_Ionization_Penalty_Charging>
0

> <r_epik_Ionization_Penalty_Neutral>
2.357e-05

> <r_epik_State_Penalty>
-0

> <r_epik_Charging_Adjusted_Penalty>
0

> <i_epik_Tot_Q>
0

> <i_epik_Tot_abs_Q>
0

> <r_epik_Metal_State_Penalty>
-0

> <b_epik_Metal_Only>
0

> <s_lp_Force_Field>
OPLS_2005

> <r_lp_Energy>
6.74104

> <b_lp_Chiralities_Consistent>
1

> <s_lp_Variant>
AV-unprocessed.smi:575-1

> <Gold.Version>
5.8.1

> <Gold.Id.Protein>
6NUR|6NUR_protein|mol2

> <Gold.PLP.Fitness>
40.6463

> <Gold.PLP.PLP>
-35.3696

> <Gold.PLP.part.hbond>
-2.0000

> <Gold.PLP.part.metal>
0.0000

> <Gold.PLP.part.buried>
-3.2740

> <Gold.PLP.part.nonpolar>
-31.1137

> <Gold.PLP.part.repulsive>
1.3539

> <Gold.PLP.ligand.clash>
0.0000

> <Gold.PLP.ligand.torsion>
0.2074

> <Gold.PLP.Chemscore.Hbond>
1.8960

> <Gold.PLP.Chemscore.CHOScore>
0.0000

> <Gold.PLP.Chemscore.Metal>
0.0000

> <Gold.Chemscore.Hbonds>
donor molecule, donor type, donor heavy atom, donor atom, acceptor molecule, acceptor atom, score
      L1  H     5    21       P1  8028  0.90
      L1  H     8    22       P1  8028  1.00

> <Gold.PLP.Chemscore.Internal.Correction>
0.0036

> <Gold.Rescore>
     Score         DG    S(hbond)    S(metal)    S(lipo)     H(rot)  DE(clash)    DE(int)     intcor
     17.25     -20.17       1.90        0.00      93.13       1.00       0.05       2.87       ----

> <Gold.Chemscore.Fitness>
17.2526

> <Gold.Chemscore.DG>
-20.1700

> <Gold.Chemscore.ZeroCoef>
-5.4800

> <Gold.Chemscore.Hbond>
1.9025

> <Gold.Chemscore.Metal>
0.0000

> <Gold.Chemscore.Lipo>
93.1262

> <Gold.Chemscore.Internal_Hbond>
0.0000

> <Gold.Chemscore.DEClash>
0.0452

> <Gold.Chemscore.DEInternal>
2.8721

> <Gold.Chemscore.Rot>
1.0000

> <Gold.Chemscore.Internal.Correction>
   9.000000E+99

> <Gold.Chemscore.Hbonds>
donor molecule, donor type, donor heavy atom, donor atom, acceptor molecule, acceptor atom, score
      L1  H     5    21       P1  8028  0.86
      L1  H     8    22       P1  8028  0.96

> <Gold.Chemscore.Hbond.Weighted>
-6.3542

> <Gold.Chemscore.Metal.Weighted>
-0.0000

> <Gold.Chemscore.Lipo.Weighted>
-10.8958

> <Gold.Chemscore.Internal_Hbond.Weighted>
0.0000

> <Gold.Chemscore.DEClash.Weighted>
0.0452

> <Gold.Chemscore.DEInternal.Weighted>
2.8721

> <Gold.Chemscore.Rot.Weighted>
2.5600

> <Gold.Chemscore.Internal.Correction.Weighted>
   9.000000E+99

> <Gold.Protein.RotatedTorsions>
[ 6907 6896 6895 6894 ] final  -58.20 input  -60.11 | X-H torsion
[ 7974 7965 7964 7962 ] final   79.31 input  175.53 | X-H torsion
[ 8008 7997 7996 7995 ] final  155.80 input   59.86 | X-H torsion
[ 10167 10162 10161 10158 ] final  163.59 input  -65.29 | X-H torsion
[ 10718 10713 10712 10709 ] final -148.35 input   66.30 | X-H torsion
[ 10763 10752 10751 10750 ] final  -19.52 input  -60.55 | X-H torsion
[ 11005 11000 10999 10996 ] final   81.21 input  -57.11 | X-H torsion

> <Gold.Protein.ActiveResidues>
 VAL166  LYS551  ARG553  GLY616  TRP617  ASP618  TYR619  PRO620  LYS621  CYS622 
 ASP623  PHE694  ASN695  SER759  ASP760  ASP761  ALA762  ILE779  LEU786  VAL792 
 PHE793  MET794  SER795  GLU796  ALA797  LYS798  CYS799  TRP800  GLU811  SER814 

> <Gold.Protein.RotatedAtoms>
  150.8025  134.7129  159.6613 H   0  0  0  0  0  0  0  0  0  0  0  0  # atno 6907 bound_to 6896
  152.4143  134.6066  160.0024 H   0  0  0  0  0  0  0  0  0  0  0  0  # atno 6908 bound_to 6896
  151.6300  133.3296  159.3143 H   0  0  0  0  0  0  0  0  0  0  0  0  # atno 6909 bound_to 6896
  145.6659  139.2483  143.1896 H   0  0  0  0  0  0  0  0  0  0  0  0  # atno 7974 bound_to 7965
  156.2458  140.1930  156.6857 H   0  0  0  0  0  0  0  0  0  0  0  0  # atno 8008 bound_to 7997
  154.6289  140.0598  156.9734 H   0  0  0  0  0  0  0  0  0  0  0  0  # atno 8009 bound_to 7997
  155.1742  140.3271  155.4389 H   0  0  0  0  0  0  0  0  0  0  0  0  # atno 8010 bound_to 7997
  139.4876  144.4322  151.9057 H   0  0  0  0  0  0  0  0  0  0  0  0  # atno 10167 bound_to 10162
  156.4191  130.8020  151.2242 H   0  0  0  0  0  0  0  0  0  0  0  0  # atno 10718 bound_to 10713
  153.6060  135.6998  153.5365 H   0  0  0  0  0  0  0  0  0  0  0  0  # atno 10763 bound_to 10752
  153.3056  135.4116  155.1291 H   0  0  0  0  0  0  0  0  0  0  0  0  # atno 10764 bound_to 10752
  154.8573  135.3659  154.5597 H   0  0  0  0  0  0  0  0  0  0  0  0  # atno 10765 bound_to 10752
  139.9106  134.7979  156.2012 H   0  0  0  0  0  0  0  0  0  0  0  0  # atno 11005 bound_to 11000
  146.1086  140.7456  142.9514 LP  0  0  0  0  0  0  0  0  0  0  0  0  # atno 17320 bound_to 7965
  144.7073  140.3903  143.7108 LP  0  0  0  0  0  0  0  0  0  0  0  0  # atno 17321 bound_to 7965
  140.3770  144.2784  150.5913 LP  0  0  0  0  0  0  0  0  0  0  0  0  # atno 17342 bound_to 10162
  140.5268  143.2252  151.8302 LP  0  0  0  0  0  0  0  0  0  0  0  0  # atno 17343 bound_to 10162
  157.7508  131.0234  150.3831 LP  0  0  0  0  0  0  0  0  0  0  0  0  # atno 17370 bound_to 10713
  156.4145  130.3940  149.6868 LP  0  0  0  0  0  0  0  0  0  0  0  0  # atno 17371 bound_to 10713
  141.0524  133.6882  156.1796 LP  0  0  0  0  0  0  0  0  0  0  0  0  # atno 17394 bound_to 11000
  140.6790  134.4787  157.5588 LP  0  0  0  0  0  0  0  0  0  0  0  0  # atno 17395 bound_to 11000

$$$$
