#       Name:                AV-unprocessed.smi:2944
#       Creating user name   scv26
#       Creation time:       Fri Mar 27 16:16:17 2020


#       File generated by GOLD software.
#

@<TRIPOS>MOLECULE
AV-unprocessed.smi:2944
    51    53     1
SMALL
NO_CHARGES


@<TRIPOS>ATOM
      1 ****        -1.7069   4.1732  -1.7290 C.3            1 S1                 0.0000
      2 ****        -1.3442   2.9201  -1.1784 O.3            1 S1                 0.0000
      3 ****        -1.7366   2.7868   0.1777 C.3            1 S1                 0.0000
      4 ****        -1.2953   1.4172   0.7117 C.3            1 S1                 0.0000
      5 ****         0.1458   1.2352   0.6181 N.pl3          1 S1                 0.0000
      6 ****         0.8558   0.6196  -0.3600 C.2            1 S1                 0.0000
      7 ****         0.0692  -0.0913  -1.7724 S.3            1 S1                 0.0000
      8 ****         0.8639  -1.7291  -1.7710 C.3            1 S1                 0.0000
      9 ****         2.0921  -1.7353  -2.7010 C.3            1 S1                 0.0000
     10 ****        -0.1562  -2.8267  -2.1373 C.2            1 S1                 0.0000
     11 ****        -0.1876  -3.2167  -3.3077 O.2            1 S1                 0.0000
     12 ****        -0.9848  -3.3031  -1.1652 N.am           1 S1                 0.0000
     13 ****        -0.9471  -2.8685   0.2340 C.3            1 S1                 0.0000
     14 ****        -2.0780  -3.6386   0.9045 C.3            1 S1                 0.0000
     15 ****        -2.5832  -4.4361  -0.1838 N.am           1 S1                 0.0000
     16 ****        -1.9555  -4.2323  -1.3442 C.2            1 S1                 0.0000
     17 ****        -2.2543  -4.8183  -2.3855 O.2            1 S1                 0.0000
     18 ****         2.1781   0.6017  -0.1853 N.2            1 S1                 0.0000
     19 ****         2.3398   1.2686   1.0126 C.ar           1 S1                 0.0000
     20 ****         3.5101   1.5812   1.7407 C.ar           1 S1                 0.0000
     21 ****         3.4248   2.2846   2.9603 C.ar           1 S1                 0.0000
     22 ****         2.1716   2.6851   3.4674 C.ar           1 S1                 0.0000
     23 ****         0.9938   2.3838   2.7574 C.ar           1 S1                 0.0000
     24 ****         1.0849   1.6801   1.5417 C.ar           1 S1                 0.0000
     25 ****        -1.3899   4.2199  -2.7706 H              1 S1                 0.0000
     26 ****        -1.2260   4.9929  -1.1936 H              1 S1                 0.0000
     27 ****        -2.7874   4.3196  -1.6983 H              1 S1                 0.0000
     28 ****        -1.2872   3.5813   0.7756 H              1 S1                 0.0000
     29 ****        -2.8194   2.8858   0.2646 H              1 S1                 0.0000
     30 ****        -1.5882   1.3138   1.7568 H              1 S1                 0.0000
     31 ****        -1.8038   0.6166   0.1751 H              1 S1                 0.0000
     32 ****         1.2403  -1.9330  -0.7699 H              1 S1                 0.0000
     33 ****         2.5580  -2.7207  -2.7368 H              1 S1                 0.0000
     34 ****         2.8506  -1.0325  -2.3572 H              1 S1                 0.0000
     35 ****         1.8254  -1.4534  -3.7203 H              1 S1                 0.0000
     36 ****         0.0085  -3.1214   0.6958 H              1 S1                 0.0000
     37 ****        -1.1055  -1.7939   0.3262 H              1 S1                 0.0000
     38 ****        -1.7209  -4.2731   1.7163 H              1 S1                 0.0000
     39 ****        -2.8558  -2.9756   1.2850 H              1 S1                 0.0000
     40 ****        -3.3489  -5.0842  -0.0682 H              1 S1                 0.0000
     41 ****         4.4750   1.2804   1.3601 H              1 S1                 0.0000
     42 ****         4.3253   2.5191   3.5091 H              1 S1                 0.0000
     43 ****         2.1150   3.2243   4.4017 H              1 S1                 0.0000
     44 ****         0.0326   2.6912   3.1420 H              1 S1                 0.0000
     45 ****        -0.3508   2.8204  -1.2357 LP             1 S1                 0.0000
     46 ****        -1.7831   2.1968  -1.7115 LP             1 S1                 0.0000
     47 ****         0.4357  -2.8223  -3.9830 LP             1 S1                 0.0000
     48 ****        -0.8363  -3.9270  -3.5808 LP             1 S1                 0.0000
     49 ****        -1.7542  -4.6244  -3.2295 LP             1 S1                 0.0000
     50 ****        -2.9969  -5.4879  -2.3869 LP             1 S1                 0.0000
     51 ****         2.8795   0.2034  -0.7764 LP             1 S1                 0.0000
@<TRIPOS>BOND
    1    1    2 1     
    2    1   25 1     
    3    1   26 1     
    4    1   27 1     
    5    2    3 1     
    6    3    4 1     
    7    3   28 1     
    8    3   29 1     
    9    4    5 1     
   10    4   30 1     
   11    4   31 1     
   12    5   24 1     
   13    5    6 1     
   14    6    7 1     
   15    6   18 2     
   16    7    8 1     
   17    8    9 1     
   18    8   10 1     
   19    8   32 1     
   20    9   33 1     
   21    9   34 1     
   22    9   35 1     
   23   10   11 2     
   24   10   12 am    
   25   12   16 am    
   26   12   13 1     
   27   13   14 1     
   28   13   36 1     
   29   13   37 1     
   30   14   15 1     
   31   14   38 1     
   32   14   39 1     
   33   15   16 am    
   34   15   40 1     
   35   16   17 2     
   36   18   19 1     
   37   19   24 ar    
   38   19   20 ar    
   39   20   21 ar    
   40   20   41 1     
   41   21   22 ar    
   42   21   42 1     
   43   22   23 ar    
   44   22   43 1     
   45   23   24 ar    
   46   23   44 1     
   47    2   45 1     
   48    2   46 1     
   49   11   47 1     
   50   11   48 1     
   51   17   49 1     
   52   17   50 1     
   53   18   51 1     
@<TRIPOS>SUBSTRUCTURE
      1 S1             1
@<TRIPOS>SET
LONE_PAIRS      STATIC     ATOMS    <user>   **** ""
7 45 46 47 48 49 50 51
DONOR_HYDROGENS      STATIC     ATOMS    <user>   **** ""
1 40
ATOM$BLUE        STATIC     ATOMS    COLORGROUP SYSTEM
7 45 46 47 48 49 50 51
ATOM$RED        STATIC     ATOMS    COLORGROUP SYSTEM
1 40
