AV-unprocessed.smi:99|AV-procd|sdf|893|dock2
  -GOLD-   2262017383D 1   1.00000     0.00000
 Structure written by MMmdl.
 52 55  0  0  0  0  0  0  0  0  2 V2000
  150.5647  129.4071  154.7910 O   0  0  0  0  0  0  0  0  0  0  0  0
  149.5053  129.7686  154.2742 C   0  0  0  0  0  0  0  0  0  0  0  0
  148.8953  130.9352  154.5625 O   0  0  0  0  0  0  0  0  0  0  0  0
  149.4494  131.8003  155.5400 C   0  0  0  0  0  0  0  0  0  0  0  0
  150.0309  133.0448  154.8468 C   0  0  2  0  0  0  0  0  0  0  0  0
  150.7038  133.8310  155.8310 O   0  0  0  0  0  0  0  0  0  0  0  0
  149.9449  134.9496  156.2056 C   0  0  1  0  0  0  0  0  0  0  0  0
  150.6943  136.2096  155.8291 N   0  0  0  0  0  0  0  0  0  0  0  0
  150.2407  137.0342  154.8128 C   0  0  0  0  0  0  0  0  0  0  0  0
  150.8951  138.1662  154.4818 C   0  0  0  0  0  0  0  0  0  0  0  0
  152.1058  138.5332  155.2101 C   0  0  0  0  0  0  0  0  0  0  0  0
  152.7024  139.5605  154.8938 O   0  0  0  0  0  0  0  0  0  0  0  0
  152.5221  137.7139  156.2182 N   0  5  0  0  0  0  0  0  0  0  0  0
  151.8580  136.5720  156.5609 C   0  0  0  0  0  0  0  0  0  0  0  0
  152.2135  135.8379  157.4831 O   0  0  0  0  0  0  0  0  0  0  0  0
  148.6084  134.8907  155.4542 C   0  0  2  0  0  0  0  0  0  0  0  0
  147.6011  134.3313  156.2760 O   0  0  0  0  0  0  0  0  0  0  0  0
  148.9819  134.0016  154.2771 C   0  0  2  0  0  0  0  0  0  0  0  0
  147.8714  133.3696  153.6503 O   0  0  0  0  0  0  0  0  0  0  0  0
  146.8028  134.0866  153.2428 C   0  0  0  0  0  0  0  0  0  0  0  0
  146.5463  135.2230  153.6450 O   0  0  0  0  0  0  0  0  0  0  0  0
  145.9631  133.3551  152.2512 C   0  0  0  0  0  0  0  0  0  0  0  0
  146.1599  131.9669  152.0653 C   0  0  0  0  0  0  0  0  0  0  0  0
  145.3796  131.2497  151.1378 C   0  0  0  0  0  0  0  0  0  0  0  0
  144.3929  131.9125  150.3847 C   0  0  0  0  0  0  0  0  0  0  0  0
  144.1884  133.2935  150.5592 C   0  0  0  0  0  0  0  0  0  0  0  0
  144.9679  134.0124  151.4861 C   0  0  0  0  0  0  0  0  0  0  0  0
  148.7671  128.9598  153.2612 C   0  0  0  0  0  0  0  0  0  0  0  0
  147.4738  129.3674  152.8580 C   0  0  0  0  0  0  0  0  0  0  0  0
  146.7511  128.6232  151.9053 C   0  0  0  0  0  0  0  0  0  0  0  0
  147.3137  127.4632  151.3422 C   0  0  0  0  0  0  0  0  0  0  0  0
  148.5998  127.0478  151.7336 C   0  0  0  0  0  0  0  0  0  0  0  0
  149.3235  127.7900  152.6876 C   0  0  0  0  0  0  0  0  0  0  0  0
  148.6568  132.0885  156.2316 H   0  0  0  0  0  0  0  0  0  0  0  0
  150.2166  131.2819  156.1159 H   0  0  0  0  0  0  0  0  0  0  0  0
  150.7238  132.7390  154.0624 H   0  0  0  0  0  0  0  0  0  0  0  0
  149.8511  134.9718  157.2927 H   0  0  0  0  0  0  0  0  0  0  0  0
  149.3428  136.7820  154.2692 H   0  0  0  0  0  0  0  0  0  0  0  0
  150.5257  138.7986  153.6881 H   0  0  0  0  0  0  0  0  0  0  0  0
  148.2849  135.8824  155.1352 H   0  0  0  0  0  0  0  0  0  0  0  0
  147.4330  134.9253  156.9911 H   0  0  0  0  0  0  0  0  0  0  0  0
  149.4973  134.6210  153.5410 H   0  0  0  0  0  0  0  0  0  0  0  0
  146.9114  131.4368  152.6326 H   0  0  0  0  0  0  0  0  0  0  0  0
  145.5387  130.1896  151.0050 H   0  0  0  0  0  0  0  0  0  0  0  0
  143.7938  131.3629  149.6738 H   0  0  0  0  0  0  0  0  0  0  0  0
  143.4321  133.8039  149.9815 H   0  0  0  0  0  0  0  0  0  0  0  0
  144.7851  135.0714  151.5947 H   0  0  0  0  0  0  0  0  0  0  0  0
  147.0207  130.2548  153.2765 H   0  0  0  0  0  0  0  0  0  0  0  0
  145.7637  128.9430  151.6066 H   0  0  0  0  0  0  0  0  0  0  0  0
  146.7597  126.8930  150.6111 H   0  0  0  0  0  0  0  0  0  0  0  0
  149.0330  126.1578  151.3016 H   0  0  0  0  0  0  0  0  0  0  0  0
  150.3082  127.4433  152.9656 H   0  0  0  0  0  0  0  0  0  0  0  0
  1  2  2  0  0  0  0
  2  3  1  0  0  0  0
  2 28  1  0  0  0  0
  3  4  1  0  0  0  0
  4  5  1  0  0  0  0
  4 34  1  0  0  0  0
  4 35  1  0  0  0  0
  5 18  1  0  0  0  0
  5  6  1  0  0  0  0
  5 36  1  0  0  0  0
  6  7  1  0  0  0  0
  7  8  1  0  0  0  0
  7 16  1  0  0  0  0
  7 37  1  0  0  0  0
  8 14  1  0  0  0  0
  8  9  1  0  0  0  0
  9 10  2  0  0  0  0
  9 38  1  0  0  0  0
 10 11  1  0  0  0  0
 10 39  1  0  0  0  0
 11 12  2  0  0  0  0
 11 13  1  0  0  0  0
 13 14  1  0  0  0  0
 14 15  2  0  0  0  0
 16 17  1  0  0  0  0
 16 18  1  0  0  0  0
 16 40  1  0  0  0  0
 17 41  1  0  0  0  0
 18 19  1  0  0  0  0
 18 42  1  0  0  0  0
 19 20  1  0  0  0  0
 20 21  2  0  0  0  0
 20 22  1  0  0  0  0
 22 27  1  0  0  0  0
 22 23  2  0  0  0  0
 23 24  1  0  0  0  0
 23 43  1  0  0  0  0
 24 25  2  0  0  0  0
 24 44  1  0  0  0  0
 25 26  1  0  0  0  0
 25 45  1  0  0  0  0
 26 27  2  0  0  0  0
 26 46  1  0  0  0  0
 27 47  1  0  0  0  0
 28 33  1  0  0  0  0
 28 29  2  0  0  0  0
 29 30  1  0  0  0  0
 29 48  1  0  0  0  0
 30 31  2  0  0  0  0
 30 49  1  0  0  0  0
 31 32  1  0  0  0  0
 31 50  1  0  0  0  0
 32 33  2  0  0  0  0
 32 51  1  0  0  0  0
 33 52  1  0  0  0  0
M  CHG  1  13  -1
M  END
> <s_m_source_file>
AV-unprocessed.smi

> <i_m_source_file_index>
99

> <i_lp_mmshare_version>
43012

> <i_f3d_flags>
0

> <s_epik_input>
W2NIXTFbY0hdW2NIXVtjSF1bY0hdYzFDKD1PKU9bQ0gyXVtDQEBIXTJPW0NAQEhdKG4zW2NIXVtjSF1jKD1PKVtuSF1jMz1PKVtDQEBIXShbT0hdKVtDQEhdMk9DKD1PKWM0W2NIXVtjSF1bY0hdW2NIXVtjSF00

> <s_epik_cmdline>
J2VwaWtfcHl0aG9uJywgJy1waCcsICc3LjAnLCAnLXRuJywgJzgnLCAnLW1hJywgJzIwMCcsICctbWV0YWxfYmluZGluZycsICctaW1hZScsICc8aW5maWxlLm1hZT4nLCAnLW9tYWUnLCAnPG91dGZpbGUubWFlPic=

> <r_lp_tautomer_probability>
1

> <r_epik_Ionization_Penalty>
2.89159

> <r_epik_Ionization_Penalty_Charging>
2.1077e-08

> <r_epik_Ionization_Penalty_Neutral>
2.89159

> <r_epik_State_Penalty>
2.88671

> <r_epik_Charging_Adjusted_Penalty>
2.88671

> <i_epik_Tot_Q>
-1

> <i_epik_Tot_abs_Q>
1

> <r_epik_Metal_State_Penalty>
0.0727308

> <b_epik_Metal_Only>
1

> <s_epik_Chemistry_Notes>
This compound has an ester and may undergo hydrolysis at high or low pH. This compound contains an acetal/aminal-like group ( X-CH(R)-Y where X, Y are N, S, or O) that may be acid/base labile, releasing an aldehyde.

> <s_lp_Force_Field>
OPLS_2005

> <r_lp_Energy>
46.9153

> <b_lp_Chiralities_Consistent>
1

> <s_lp_Variant>
AV-unprocessed.smi:99-29

> <Gold.Version>
5.8.1

> <Gold.Id.Protein>
6NUR|6NUR_protein|mol2

> <Gold.PLP.Fitness>
59.4554

> <Gold.PLP.PLP>
-54.2746

> <Gold.PLP.part.hbond>
-2.8085

> <Gold.PLP.part.metal>
0.0000

> <Gold.PLP.part.buried>
-4.8578

> <Gold.PLP.part.nonpolar>
-46.2363

> <Gold.PLP.part.repulsive>
0.8916

> <Gold.PLP.ligand.clash>
0.0000

> <Gold.PLP.ligand.torsion>
0.9631

> <Gold.PLP.Chemscore.Hbond>
1.3001

> <Gold.PLP.Chemscore.CHOScore>
1.0000

> <Gold.PLP.Chemscore.Metal>
0.0000

> <Gold.Chemscore.Hbonds>
donor molecule, donor type, donor heavy atom, donor atom, acceptor molecule, acceptor atom, score
      P1  H  7989  7998       L1    12  0.37
      P1  H  7997  8009       L1    12  0.81
      L1  C     9    38       P1  7948  1.00

> <Gold.PLP.Chemscore.Internal.Correction>
0.2066

> <Gold.Rescore>
     Score         DG    S(hbond)    S(metal)    S(lipo)     H(rot)  DE(clash)    DE(int)     intcor
      9.41     -14.12       0.96        0.00     115.16       3.13       0.27       4.44       ----

> <Gold.Chemscore.Fitness>
9.4063

> <Gold.Chemscore.DG>
-14.1199

> <Gold.Chemscore.ZeroCoef>
-5.4800

> <Gold.Chemscore.Hbond>
0.9552

> <Gold.Chemscore.Metal>
0.0000

> <Gold.Chemscore.Lipo>
115.1647

> <Gold.Chemscore.Internal_Hbond>
0.0000

> <Gold.Chemscore.DEClash>
0.2725

> <Gold.Chemscore.DEInternal>
4.4412

> <Gold.Chemscore.Rot>
3.1346

> <Gold.Chemscore.Internal.Correction>
   9.000000E+99

> <Gold.Chemscore.Hbonds>
donor molecule, donor type, donor heavy atom, donor atom, acceptor molecule, acceptor atom, score
      P1  H  7989  7998       L1    12  0.35
      P1  H  7997  8009       L1    12  0.80

> <Gold.Chemscore.Hbond.Weighted>
-3.1902

> <Gold.Chemscore.Metal.Weighted>
-0.0000

> <Gold.Chemscore.Lipo.Weighted>
-13.4743

> <Gold.Chemscore.Internal_Hbond.Weighted>
0.0000

> <Gold.Chemscore.DEClash.Weighted>
0.2725

> <Gold.Chemscore.DEInternal.Weighted>
4.4412

> <Gold.Chemscore.Rot.Weighted>
8.0246

> <Gold.Chemscore.Internal.Correction.Weighted>
   9.000000E+99

> <Gold.Protein.RotatedTorsions>
[ 6907 6896 6895 6894 ] final  133.92 input  -60.11 | X-H torsion
[ 7974 7965 7964 7962 ] final   65.63 input  175.53 | X-H torsion
[ 8008 7997 7996 7995 ] final -136.17 input   59.86 | X-H torsion
[ 10167 10162 10161 10158 ] final   20.54 input  -65.29 | X-H torsion
[ 10718 10713 10712 10709 ] final -141.70 input   66.30 | X-H torsion
[ 10763 10752 10751 10750 ] final  -69.52 input  -60.55 | X-H torsion
[ 11005 11000 10999 10996 ] final  156.94 input  -57.11 | X-H torsion

> <Gold.Protein.ActiveResidues>
 VAL166  LYS551  ARG553  GLY616  TRP617  ASP618  TYR619  PRO620  LYS621  CYS622 
 ASP623  PHE694  ASN695  SER759  ASP760  ASP761  ALA762  ILE779  LEU786  VAL792 
 PHE793  MET794  SER795  GLU796  ALA797  LYS798  CYS799  TRP800  GLU811  SER814 

> <Gold.Protein.RotatedAtoms>
  152.3168  133.5811  159.5717 H   0  0  0  0  0  0  0  0  0  0  0  0  # atno 6907 bound_to 6896
  150.7351  134.0070  159.3666 H   0  0  0  0  0  0  0  0  0  0  0  0  # atno 6908 bound_to 6896
  151.7958  135.0723  160.0444 H   0  0  0  0  0  0  0  0  0  0  0  0  # atno 6909 bound_to 6896
  145.8362  139.3168  143.0958 H   0  0  0  0  0  0  0  0  0  0  0  0  # atno 7974 bound_to 7965
  155.3907  140.0500  157.3041 H   0  0  0  0  0  0  0  0  0  0  0  0  # atno 8008 bound_to 7997
  154.5037  140.2166  155.9255 H   0  0  0  0  0  0  0  0  0  0  0  0  # atno 8009 bound_to 7997
  156.1499  140.3138  155.8637 H   0  0  0  0  0  0  0  0  0  0  0  0  # atno 8010 bound_to 7997
  140.5495  143.9534  150.6569 H   0  0  0  0  0  0  0  0  0  0  0  0  # atno 10167 bound_to 10162
  156.3372  130.7618  151.1747 H   0  0  0  0  0  0  0  0  0  0  0  0  # atno 10718 bound_to 10713
  154.4046  135.6023  153.5917 H   0  0  0  0  0  0  0  0  0  0  0  0  # atno 10763 bound_to 10752
  152.9789  135.5915  154.4142 H   0  0  0  0  0  0  0  0  0  0  0  0  # atno 10764 bound_to 10752
  154.3946  135.2842  155.2112 H   0  0  0  0  0  0  0  0  0  0  0  0  # atno 10765 bound_to 10752
  140.1722  134.8535  157.2704 H   0  0  0  0  0  0  0  0  0  0  0  0  # atno 11005 bound_to 11000
  145.9516  140.8904  143.0256 LP  0  0  0  0  0  0  0  0  0  0  0  0  # atno 17320 bound_to 7965
  144.6736  140.1688  143.7416 LP  0  0  0  0  0  0  0  0  0  0  0  0  # atno 17321 bound_to 7965
  140.2956  143.3295  152.1021 LP  0  0  0  0  0  0  0  0  0  0  0  0  # atno 17342 bound_to 10162
  139.5021  144.6728  151.6201 LP  0  0  0  0  0  0  0  0  0  0  0  0  # atno 17343 bound_to 10162
  157.7440  131.0465  150.4895 LP  0  0  0  0  0  0  0  0  0  0  0  0  # atno 17370 bound_to 10713
  156.5070  130.4130  149.6322 LP  0  0  0  0  0  0  0  0  0  0  0  0  # atno 17371 bound_to 10713
  140.2364  134.3847  155.7499 LP  0  0  0  0  0  0  0  0  0  0  0  0  # atno 17394 bound_to 11000
  141.2218  133.7242  156.8721 LP  0  0  0  0  0  0  0  0  0  0  0  0  # atno 17395 bound_to 11000

$$$$
