AV-unprocessed.smi:2679|AV-procd|sdf|10370|dock2
  -GOLD-   2272014393D 1   1.00000     0.00000
 Structure written by MMmdl.
 39 40  0  0  0  0  0  0  0  0  1 V2000
  147.0769  140.8276  153.2499 C   0  0  0  0  0  0  0  0  0  0  0  0
  148.2013  141.0933  154.1982 C   0  0  0  0  0  0  0  0  0  0  0  0
  149.4870  141.0761  153.8396 N   0  0  0  0  0  0  0  0  0  0  0  0
  150.1907  141.3613  154.9888 N   0  0  0  0  0  0  0  0  0  0  0  0
  149.2690  141.5261  155.9402 C   0  0  0  0  0  0  0  0  0  0  0  0
  149.6568  141.9073  157.6146 S   0  0  0  0  0  0  0  0  0  0  0  0
  151.4491  142.1270  157.4093 C   0  0  2  0  0  0  0  0  0  0  0  0
  152.0600  140.7974  157.2416 C   0  0  0  0  0  0  0  0  0  0  0  0
  152.5403  139.7529  157.1102 N   0  0  0  0  0  0  0  0  0  0  0  0
  152.0622  142.9335  158.5766 C   0  0  0  0  0  0  0  0  0  0  0  0
  152.1662  142.0829  159.8640 C   0  0  0  0  0  0  0  0  0  0  0  0
  152.7720  142.8771  161.0323 C   0  0  0  0  0  0  0  0  0  0  0  0
  151.9752  144.1601  161.3064 C   0  0  0  0  0  0  0  0  0  0  0  0
  151.8716  145.0211  160.0400 C   0  0  0  0  0  0  0  0  0  0  0  0
  151.2673  144.2264  158.8708 C   0  0  0  0  0  0  0  0  0  0  0  0
  148.0021  141.3747  155.5026 N   0  0  0  0  0  0  0  0  0  0  0  0
  146.7529  141.4824  156.2452 C   0  0  0  0  0  0  0  0  0  0  0  0
  145.8082  142.4950  155.5948 C   0  0  0  0  0  0  0  0  0  0  0  0
  144.6280  142.6959  156.1867 N   0  0  0  0  0  0  0  0  0  0  0  0
  146.1377  143.0855  154.5686 O   0  0  0  0  0  0  0  0  0  0  0  0
  147.4633  140.5738  152.2622 H   0  0  0  0  0  0  0  0  0  0  0  0
  146.4452  141.7111  153.1569 H   0  0  0  0  0  0  0  0  0  0  0  0
  146.4704  139.9950  153.6062 H   0  0  0  0  0  0  0  0  0  0  0  0
  151.6260  142.6681  156.4792 H   0  0  0  0  0  0  0  0  0  0  0  0
  153.0702  143.2301  158.2825 H   0  0  0  0  0  0  0  0  0  0  0  0
  151.1757  141.7223  160.1449 H   0  0  0  0  0  0  0  0  0  0  0  0
  152.7752  141.1959  159.6914 H   0  0  0  0  0  0  0  0  0  0  0  0
  152.7972  142.2573  161.9291 H   0  0  0  0  0  0  0  0  0  0  0  0
  153.8077  143.1311  160.8029 H   0  0  0  0  0  0  0  0  0  0  0  0
  150.9749  143.9032  161.6575 H   0  0  0  0  0  0  0  0  0  0  0  0
  152.4485  144.7296  162.1068 H   0  0  0  0  0  0  0  0  0  0  0  0
  151.2653  145.9047  160.2407 H   0  0  0  0  0  0  0  0  0  0  0  0
  152.8622  145.3831  159.7617 H   0  0  0  0  0  0  0  0  0  0  0  0
  151.2419  144.8687  157.9906 H   0  0  0  0  0  0  0  0  0  0  0  0
  150.2305  143.9747  159.0978 H   0  0  0  0  0  0  0  0  0  0  0  0
  146.2868  140.4980  156.3076 H   0  0  0  0  0  0  0  0  0  0  0  0
  146.9630  141.7895  157.2698 H   0  0  0  0  0  0  0  0  0  0  0  0
  143.9720  143.3574  155.7978 H   0  0  0  0  0  0  0  0  0  0  0  0
  144.3970  142.1861  157.0273 H   0  0  0  0  0  0  0  0  0  0  0  0
  1  2  1  0  0  0  0
  1 21  1  0  0  0  0
  1 22  1  0  0  0  0
  1 23  1  0  0  0  0
  2 16  1  0  0  0  0
  2  3  2  0  0  0  0
  3  4  1  0  0  0  0
  4  5  2  0  0  0  0
  5  6  1  0  0  0  0
  5 16  1  0  0  0  0
  6  7  1  0  0  0  0
  7  8  1  0  0  0  0
  7 10  1  0  0  0  0
  7 24  1  0  0  0  0
  8  9  3  0  0  0  0
 10 15  1  0  0  0  0
 10 11  1  0  0  0  0
 10 25  1  0  0  0  0
 11 12  1  0  0  0  0
 11 26  1  0  0  0  0
 11 27  1  0  0  0  0
 12 13  1  0  0  0  0
 12 28  1  0  0  0  0
 12 29  1  0  0  0  0
 13 14  1  0  0  0  0
 13 30  1  0  0  0  0
 13 31  1  0  0  0  0
 14 15  1  0  0  0  0
 14 32  1  0  0  0  0
 14 33  1  0  0  0  0
 15 34  1  0  0  0  0
 15 35  1  0  0  0  0
 16 17  1  0  0  0  0
 17 18  1  0  0  0  0
 17 36  1  0  0  0  0
 17 37  1  0  0  0  0
 18 19  1  0  0  0  0
 18 20  2  0  0  0  0
 19 38  1  0  0  0  0
 19 39  1  0  0  0  0
M  END
> <s_m_source_file>
AV-unprocessed.smi

> <i_m_source_file_index>
2679

> <i_lp_mmshare_version>
43012

> <i_f3d_flags>
0

> <s_epik_input>
W0NIM11jMW5uYyhuMVtDSDJdQyg9TylbTkgyXSlTW0NASF0oQyNOKVtDSF0yW0NIMl1bQ0gyXVtDSDJdW0NIMl1bQ0gyXTI=

> <s_epik_cmdline>
J2VwaWtfcHl0aG9uJywgJy1waCcsICc3LjAnLCAnLXRuJywgJzgnLCAnLW1hJywgJzIwMCcsICctbWV0YWxfYmluZGluZycsICctaW1hZScsICc8aW5maWxlLm1hZT4nLCAnLW9tYWUnLCAnPG91dGZpbGUubWFlPic=

> <r_lp_tautomer_probability>
1

> <r_epik_Ionization_Penalty>
1.94949e-07

> <r_epik_Ionization_Penalty_Charging>
0

> <r_epik_Ionization_Penalty_Neutral>
1.94949e-07

> <r_epik_State_Penalty>
-0

> <r_epik_Charging_Adjusted_Penalty>
0

> <i_epik_Tot_Q>
0

> <i_epik_Tot_abs_Q>
0

> <r_epik_Metal_State_Penalty>
-0

> <b_epik_Metal_Only>
0

> <s_lp_Force_Field>
OPLS_2005

> <r_lp_Energy>
7.74931

> <b_lp_Chiralities_Consistent>
1

> <s_lp_Variant>
AV-unprocessed.smi:2679-1

> <Gold.Version>
5.8.1

> <Gold.Id.Protein>
6NUR|6NUR_protein|mol2

> <Gold.PLP.Fitness>
44.7735

> <Gold.PLP.PLP>
-39.6553

> <Gold.PLP.part.hbond>
-4.0000

> <Gold.PLP.part.metal>
0.0000

> <Gold.PLP.part.buried>
-5.4169

> <Gold.PLP.part.nonpolar>
-31.4176

> <Gold.PLP.part.repulsive>
2.0370

> <Gold.PLP.ligand.clash>
0.0000

> <Gold.PLP.ligand.torsion>
0.3354

> <Gold.PLP.Chemscore.Hbond>
1.9040

> <Gold.PLP.Chemscore.CHOScore>
0.0000

> <Gold.PLP.Chemscore.Metal>
0.0000

> <Gold.Chemscore.Hbonds>
donor molecule, donor type, donor heavy atom, donor atom, acceptor molecule, acceptor atom, score
      P1  H  7997  8009       L1     9  1.00
      P1  H  8011  8017       L1     3  0.89

> <Gold.PLP.Chemscore.Internal.Correction>
0.0770

> <Gold.Rescore>
     Score         DG    S(hbond)    S(metal)    S(lipo)     H(rot)  DE(clash)    DE(int)     intcor
     12.52     -14.65       1.52        0.00      91.21       2.57       0.29       1.84       ----

> <Gold.Chemscore.Fitness>
12.5245

> <Gold.Chemscore.DG>
-14.6549

> <Gold.Chemscore.ZeroCoef>
-5.4800

> <Gold.Chemscore.Hbond>
1.5238

> <Gold.Chemscore.Metal>
0.0000

> <Gold.Chemscore.Lipo>
91.2141

> <Gold.Chemscore.Internal_Hbond>
0.0000

> <Gold.Chemscore.DEClash>
0.2907

> <Gold.Chemscore.DEInternal>
1.8397

> <Gold.Chemscore.Rot>
2.5728

> <Gold.Chemscore.Internal.Correction>
   9.000000E+99

> <Gold.Chemscore.Hbonds>
donor molecule, donor type, donor heavy atom, donor atom, acceptor molecule, acceptor atom, score
      P1  H  7997  8009       L1     9  0.49
      P1  H  8011  8017       L1     3  0.54

> <Gold.Chemscore.Hbond.Weighted>
-5.0893

> <Gold.Chemscore.Metal.Weighted>
-0.0000

> <Gold.Chemscore.Lipo.Weighted>
-10.6720

> <Gold.Chemscore.Internal_Hbond.Weighted>
0.0000

> <Gold.Chemscore.DEClash.Weighted>
0.2907

> <Gold.Chemscore.DEInternal.Weighted>
1.8397

> <Gold.Chemscore.Rot.Weighted>
6.5865

> <Gold.Chemscore.Internal.Correction.Weighted>
   9.000000E+99

> <Gold.Protein.RotatedTorsions>
[ 6907 6896 6895 6894 ] final -110.37 input  -60.11 | X-H torsion
[ 7974 7965 7964 7962 ] final -175.92 input  175.53 | X-H torsion
[ 8008 7997 7996 7995 ] final -169.68 input   59.86 | X-H torsion
[ 10167 10162 10161 10158 ] final  -50.93 input  -65.29 | X-H torsion
[ 10718 10713 10712 10709 ] final  -62.23 input   66.30 | X-H torsion
[ 10763 10752 10751 10750 ] final  111.42 input  -60.55 | X-H torsion
[ 11005 11000 10999 10996 ] final  163.91 input  -57.11 | X-H torsion

> <Gold.Protein.ActiveResidues>
 VAL166  LYS551  ARG553  GLY616  TRP617  ASP618  TYR619  PRO620  LYS621  CYS622 
 ASP623  PHE694  ASN695  SER759  ASP760  ASP761  ALA762  ILE779  LEU786  VAL792 
 PHE793  MET794  SER795  GLU796  ALA797  LYS798  CYS799  TRP800  GLU811  SER814 

> <Gold.Protein.RotatedAtoms>
  150.7621  133.9391  159.3450 H   0  0  0  0  0  0  0  0  0  0  0  0  # atno 6907 bound_to 6896
  151.7298  135.0875  160.0307 H   0  0  0  0  0  0  0  0  0  0  0  0  # atno 6908 bound_to 6896
  152.3597  133.6244  159.6042 H   0  0  0  0  0  0  0  0  0  0  0  0  # atno 6909 bound_to 6896
  144.7127  140.1248  143.6403 H   0  0  0  0  0  0  0  0  0  0  0  0  # atno 7974 bound_to 7965
  155.9082  140.1053  157.1299 H   0  0  0  0  0  0  0  0  0  0  0  0  # atno 8008 bound_to 7997
  154.4035  140.1279  156.4588 H   0  0  0  0  0  0  0  0  0  0  0  0  # atno 8009 bound_to 7997
  155.7342  140.3468  155.5076 H   0  0  0  0  0  0  0  0  0  0  0  0  # atno 8010 bound_to 7997
  140.6613  143.2638  151.4431 H   0  0  0  0  0  0  0  0  0  0  0  0  # atno 10167 bound_to 10162
  156.0869  130.4207  150.1106 H   0  0  0  0  0  0  0  0  0  0  0  0  # atno 10718 bound_to 10713
  153.4631  135.3717  155.2349 H   0  0  0  0  0  0  0  0  0  0  0  0  # atno 10763 bound_to 10752
  154.8757  135.3913  154.3901 H   0  0  0  0  0  0  0  0  0  0  0  0  # atno 10764 bound_to 10752
  153.4477  135.7085  153.6193 H   0  0  0  0  0  0  0  0  0  0  0  0  # atno 10765 bound_to 10752
  140.2406  134.8054  157.3407 H   0  0  0  0  0  0  0  0  0  0  0  0  # atno 11005 bound_to 11000
  145.9339  139.2624  143.1309 LP  0  0  0  0  0  0  0  0  0  0  0  0  # atno 17320 bound_to 7965
  145.9494  140.8920  143.0267 LP  0  0  0  0  0  0  0  0  0  0  0  0  # atno 17321 bound_to 7965
  139.5848  144.1629  152.2015 LP  0  0  0  0  0  0  0  0  0  0  0  0  # atno 17342 bound_to 10162
  140.0965  144.5576  150.7018 LP  0  0  0  0  0  0  0  0  0  0  0  0  # atno 17343 bound_to 10162
  156.9125  130.9656  151.3561 LP  0  0  0  0  0  0  0  0  0  0  0  0  # atno 17370 bound_to 10713
  157.6006  130.8509  149.8796 LP  0  0  0  0  0  0  0  0  0  0  0  0  # atno 17371 bound_to 10713
  140.1657  134.4672  155.7864 LP  0  0  0  0  0  0  0  0  0  0  0  0  # atno 17394 bound_to 11000
  141.2211  133.6920  156.7622 LP  0  0  0  0  0  0  0  0  0  0  0  0  # atno 17395 bound_to 11000

$$$$
