#       Name:                AV-unprocessed.smi:1596
#       Creating user name   scv26
#       Creation time:       Fri Mar 27 07:05:14 2020


#       File generated by GOLD software.
#

@<TRIPOS>MOLECULE
AV-unprocessed.smi:1596
    53    54     1
SMALL
NO_CHARGES


@<TRIPOS>ATOM
      1 ****        -5.6095  -2.0076  -1.3813 C.3            1 S1                 0.0000
      2 ****        -5.7026  -0.7144  -0.5573 C.3            1 S1                 0.0000
      3 ****        -4.9538   0.3997  -1.1440 N.pl3          1 S1                 0.0000
      4 ****        -5.6407   1.3378  -2.0320 C.3            1 S1                 0.0000
      5 ****        -5.5920   0.9217  -3.5096 C.3            1 S1                 0.0000
      6 ****        -3.5462   0.4588  -0.9970 C.ar           1 S1                 0.0000
      7 ****        -2.7255   1.3998  -1.6686 C.ar           1 S1                 0.0000
      8 ****        -1.3301   1.3908  -1.4659 C.ar           1 S1                 0.0000
      9 ****        -0.7536   0.4520  -0.5860 C.ar           1 S1                 0.0000
     10 ****         0.6587   0.4698  -0.4254 N.am           1 S1                 0.0000
     11 ****         1.3950  -0.0712   0.5607 C.2            1 S1                 0.0000
     12 ****         0.9435  -0.6528   1.5469 O.2            1 S1                 0.0000
     13 ****         2.7053   0.1199   0.3496 N.am           1 S1                 0.0000
     14 ****         3.7758  -0.3315   1.2341 C.3            1 S1                 0.0000
     15 ****         4.0176   0.6943   2.3611 C.3            1 S1                 0.0000
     16 ****         5.1908   0.2741   3.2615 C.3            1 S1                 0.0000
     17 ****         6.4696   0.0473   2.4371 C.3            1 S1                 0.0000
     18 ****         7.5037  -0.4053   3.2850 O.3            1 S1                 0.0000
     19 ****         6.2322  -0.9830   1.3195 C.3            1 S1                 0.0000
     20 ****         5.0615  -0.5604   0.4170 C.3            1 S1                 0.0000
     21 ****        -1.6101  -0.4735   0.0550 C.ar           1 S1                 0.0000
     22 ****        -2.9406  -0.4298  -0.1710 N.pl3          1 S1                 1.0000
     23 ****        -6.1601  -2.8114  -0.8927 H              1 S1                 0.0000
     24 ****        -4.5772  -2.3392  -1.4948 H              1 S1                 0.0000
     25 ****        -6.0329  -1.8836  -2.3769 H              1 S1                 0.0000
     26 ****        -6.7506  -0.4272  -0.4681 H              1 S1                 0.0000
     27 ****        -5.3663  -0.8949   0.4640 H              1 S1                 0.0000
     28 ****        -6.6834   1.4132  -1.7223 H              1 S1                 0.0000
     29 ****        -5.2352   2.3411  -1.9038 H              1 S1                 0.0000
     30 ****        -6.0757   1.6739  -4.1330 H              1 S1                 0.0000
     31 ****        -6.1112  -0.0205  -3.6791 H              1 S1                 0.0000
     32 ****        -4.5679   0.8090  -3.8651 H              1 S1                 0.0000
     33 ****        -3.1374   2.1314  -2.3465 H              1 S1                 0.0000
     34 ****        -0.7093   2.1073  -1.9837 H              1 S1                 0.0000
     35 ****         1.1689   0.9883  -1.1255 H              1 S1                 0.0000
     36 ****         2.9865   0.6135  -0.4849 H              1 S1                 0.0000
     37 ****         3.4894  -1.2852   1.6821 H              1 S1                 0.0000
     38 ****         4.2271   1.6747   1.9305 H              1 S1                 0.0000
     39 ****         3.1176   0.8092   2.9664 H              1 S1                 0.0000
     40 ****         5.3642   1.0372   4.0211 H              1 S1                 0.0000
     41 ****         4.9254  -0.6398   3.7952 H              1 S1                 0.0000
     42 ****         6.7881   0.9927   1.9958 H              1 S1                 0.0000
     43 ****         7.2348  -1.2216   3.6780 H              1 S1                 0.0000
     44 ****         7.1356  -1.1021   0.7201 H              1 S1                 0.0000
     45 ****         6.0174  -1.9603   1.7545 H              1 S1                 0.0000
     46 ****         4.8908  -1.3245  -0.3425 H              1 S1                 0.0000
     47 ****         5.3294   0.3524  -0.1173 H              1 S1                 0.0000
     48 ****        -1.2919  -1.2550   0.7282 H              1 S1                 0.0000
     49 ****        -3.5266  -1.1130   0.3091 H              1 S1                 0.0000
     50 ****        -0.0451  -0.7515   1.6601 LP             1 S1                 0.0000
     51 ****         1.5653  -1.0267   2.2351 LP             1 S1                 0.0000
     52 ****         7.6746   0.2728   3.9999 LP             1 S1                 0.0000
     53 ****         8.3386  -0.5463   2.7529 LP             1 S1                 0.0000
@<TRIPOS>BOND
    1    1    2 1     
    2    1   23 1     
    3    1   24 1     
    4    1   25 1     
    5    2    3 1     
    6    2   26 1     
    7    2   27 1     
    8    3    4 1     
    9    3    6 1     
   10    4    5 1     
   11    4   28 1     
   12    4   29 1     
   13    5   30 1     
   14    5   31 1     
   15    5   32 1     
   16    6   22 ar    
   17    6    7 ar    
   18    7    8 ar    
   19    7   33 1     
   20    8    9 ar    
   21    8   34 1     
   22    9   10 1     
   23    9   21 ar    
   24   10   11 am    
   25   10   35 1     
   26   11   12 2     
   27   11   13 am    
   28   13   14 1     
   29   13   36 1     
   30   14   20 1     
   31   14   15 1     
   32   14   37 1     
   33   15   16 1     
   34   15   38 1     
   35   15   39 1     
   36   16   17 1     
   37   16   40 1     
   38   16   41 1     
   39   17   18 1     
   40   17   19 1     
   41   17   42 1     
   42   18   43 1     
   43   19   20 1     
   44   19   44 1     
   45   19   45 1     
   46   20   46 1     
   47   20   47 1     
   48   21   22 ar    
   49   21   48 1     
   50   22   49 1     
   51   12   50 1     
   52   12   51 1     
   53   18   52 1     
   54   18   53 1     
@<TRIPOS>SUBSTRUCTURE
      1 S1             1
@<TRIPOS>SET
LONE_PAIRS      STATIC     ATOMS    <user>   **** ""
4 50 51 52 53
DONOR_HYDROGENS      STATIC     ATOMS    <user>   **** ""
4 35 36 43 49
ATOM$BLUE        STATIC     ATOMS    COLORGROUP SYSTEM
4 50 51 52 53
ATOM$RED        STATIC     ATOMS    COLORGROUP SYSTEM
4 35 36 43 49
