AV-unprocessed.smi:1005|AV-procd|sdf|4372|dock2
  -GOLD-   22720 2283D 1   1.00000     0.00000
 Structure written by MMmdl.
 57 59  0  0  0  0  0  0  0  0  3 V2000
  152.8133  143.1145  161.0047 C   0  0  0  0  0  0  0  0  0  0  0  0
  152.2857  142.5085  159.7161 C   0  0  0  0  0  0  0  0  0  0  0  0
  152.8902  141.3355  159.2104 C   0  0  0  0  0  0  0  0  0  0  0  0
  152.4318  140.7429  158.0135 C   0  0  0  0  0  0  0  0  0  0  0  0
  152.8735  139.6162  157.3410 N   0  0  0  0  0  0  0  0  0  0  0  0
  152.0507  139.5867  156.2969 C   0  0  0  0  0  0  0  0  0  0  0  0
  151.1278  140.5639  156.2109 N   0  0  0  0  0  0  0  0  0  0  0  0
  150.1341  140.7366  155.1658 C   0  0  0  0  0  0  0  0  0  0  0  0
  149.5332  139.3976  154.6957 C   0  0  2  0  0  0  0  0  0  0  0  0
  148.6310  139.6334  153.6313 O   0  0  0  0  0  0  0  0  0  0  0  0
  148.7765  138.6829  155.8335 C   0  0  0  0  0  0  0  0  0  0  0  0
  148.8741  137.2028  155.7512 N   0  3  2  0  0  0  0  0  0  0  0  0
  150.2203  136.7462  155.3330 C   0  0  0  0  0  0  0  0  0  0  0  0
  150.2897  135.2105  155.3346 C   0  0  0  0  0  0  0  0  0  0  0  0
  149.2707  134.6862  154.4912 O   0  0  0  0  0  0  0  0  0  0  0  0
  147.9640  135.0375  154.9353 C   0  0  2  0  0  0  0  0  0  0  0  0
  146.9418  134.3578  154.0046 C   0  0  0  0  0  0  0  0  0  0  0  0
  147.4731  134.1167  152.6381 N   0  3  0  0  0  0  0  0  0  0  0  0
  148.3480  132.9244  152.5469 C   0  0  0  0  0  0  0  0  0  0  0  0
  146.3970  134.0748  151.6232 C   0  0  0  0  0  0  0  0  0  0  0  0
  147.8315  136.5736  154.9029 C   0  0  0  0  0  0  0  0  0  0  0  0
  151.3404  141.3580  157.3332 C   0  0  0  0  0  0  0  0  0  0  0  0
  150.7287  142.5234  157.8280 C   0  0  0  0  0  0  0  0  0  0  0  0
  151.2030  143.1061  159.0218 C   0  0  0  0  0  0  0  0  0  0  0  0
  150.5429  144.3710  159.5412 C   0  0  0  0  0  0  0  0  0  0  0  0
  153.6204  142.5145  161.4257 H   0  0  0  0  0  0  0  0  0  0  0  0
  152.0209  143.1785  161.7506 H   0  0  0  0  0  0  0  0  0  0  0  0
  153.2012  144.1172  160.8239 H   0  0  0  0  0  0  0  0  0  0  0  0
  153.7159  140.8811  159.7381 H   0  0  0  0  0  0  0  0  0  0  0  0
  152.1246  138.8106  155.5488 H   0  0  0  0  0  0  0  0  0  0  0  0
  149.3466  141.3868  155.5496 H   0  0  0  0  0  0  0  0  0  0  0  0
  150.5948  141.2675  154.3317 H   0  0  0  0  0  0  0  0  0  0  0  0
  150.3425  138.7697  154.3242 H   0  0  0  0  0  0  0  0  0  0  0  0
  149.1016  139.5515  152.8148 H   0  0  0  0  0  0  0  0  0  0  0  0
  149.1415  139.0170  156.8058 H   0  0  0  0  0  0  0  0  0  0  0  0
  147.7265  138.9764  155.7844 H   0  0  0  0  0  0  0  0  0  0  0  0
  150.4442  137.1306  154.3365 H   0  0  0  0  0  0  0  0  0  0  0  0
  150.9763  137.1466  156.0095 H   0  0  0  0  0  0  0  0  0  0  0  0
  151.2603  134.8789  154.9655 H   0  0  0  0  0  0  0  0  0  0  0  0
  150.1813  134.8156  156.3462 H   0  0  0  0  0  0  0  0  0  0  0  0
  147.8219  134.6956  155.9610 H   0  0  0  0  0  0  0  0  0  0  0  0
  146.6059  133.4111  154.4303 H   0  0  0  0  0  0  0  0  0  0  0  0
  146.0583  134.9958  153.9437 H   0  0  0  0  0  0  0  0  0  0  0  0
  147.8056  132.0189  152.8223 H   0  0  0  0  0  0  0  0  0  0  0  0
  149.2182  133.0123  153.1958 H   0  0  0  0  0  0  0  0  0  0  0  0
  148.7190  132.7985  151.5291 H   0  0  0  0  0  0  0  0  0  0  0  0
  145.7178  133.2412  151.8068 H   0  0  0  0  0  0  0  0  0  0  0  0
  146.8143  133.9618  150.6220 H   0  0  0  0  0  0  0  0  0  0  0  0
  145.8170  134.9983  151.6335 H   0  0  0  0  0  0  0  0  0  0  0  0
  146.8387  136.8535  155.2531 H   0  0  0  0  0  0  0  0  0  0  0  0
  147.9244  136.9405  153.8792 H   0  0  0  0  0  0  0  0  0  0  0  0
  149.9044  142.9681  157.2901 H   0  0  0  0  0  0  0  0  0  0  0  0
  149.7661  144.7225  158.8613 H   0  0  0  0  0  0  0  0  0  0  0  0
  151.2771  145.1697  159.6484 H   0  0  0  0  0  0  0  0  0  0  0  0
  150.0825  144.1902  160.5127 H   0  0  0  0  0  0  0  0  0  0  0  0
  148.0415  134.9187  152.4039 H   0  0  0  0  0  0  0  0  0  0  0  0
  148.7394  136.8627  156.6932 H   0  0  0  0  0  0  0  0  0  0  0  0
  1  2  1  0  0  0  0
  1 26  1  0  0  0  0
  1 27  1  0  0  0  0
  1 28  1  0  0  0  0
  2 24  1  0  0  0  0
  2  3  2  0  0  0  0
  3  4  1  0  0  0  0
  3 29  1  0  0  0  0
  4 22  2  0  0  0  0
  4  5  1  0  0  0  0
  5  6  2  0  0  0  0
  6  7  1  0  0  0  0
  6 30  1  0  0  0  0
  7  8  1  0  0  0  0
  7 22  1  0  0  0  0
  8  9  1  0  0  0  0
  8 31  1  0  0  0  0
  8 32  1  0  0  0  0
  9 10  1  0  0  0  0
  9 11  1  0  0  0  0
  9 33  1  0  0  0  0
 10 34  1  0  0  0  0
 11 12  1  0  0  0  0
 11 35  1  0  0  0  0
 11 36  1  0  0  0  0
 12 21  1  0  0  0  0
 12 13  1  0  0  0  0
 12 57  1  0  0  0  0
 13 14  1  0  0  0  0
 13 37  1  0  0  0  0
 13 38  1  0  0  0  0
 14 15  1  0  0  0  0
 14 39  1  0  0  0  0
 14 40  1  0  0  0  0
 15 16  1  0  0  0  0
 16 17  1  0  0  0  0
 16 21  1  0  0  0  0
 16 41  1  0  0  0  0
 17 18  1  0  0  0  0
 17 42  1  0  0  0  0
 17 43  1  0  0  0  0
 18 19  1  0  0  0  0
 18 20  1  0  0  0  0
 18 56  1  0  0  0  0
 19 44  1  0  0  0  0
 19 45  1  0  0  0  0
 19 46  1  0  0  0  0
 20 47  1  0  0  0  0
 20 48  1  0  0  0  0
 20 49  1  0  0  0  0
 21 50  1  0  0  0  0
 21 51  1  0  0  0  0
 22 23  1  0  0  0  0
 23 24  2  0  0  0  0
 23 52  1  0  0  0  0
 24 25  1  0  0  0  0
 25 53  1  0  0  0  0
 25 54  1  0  0  0  0
 25 55  1  0  0  0  0
M  CHG  1  12   1
M  CHG  1  18   1
M  END
> <s_m_source_file>
AV-unprocessed.smi

> <i_m_source_file_index>
1005

> <i_lp_mmshare_version>
43012

> <i_f3d_flags>
0

> <s_epik_input>
W0NIM11jKFtjSF0xKWMoW0NIM10pW2NIXWMoYzEyKW4oW2NIXW4yKVtDSDJdW0NASF0oW09IXSlbQ0gyXU4zW0NIMl1bQ0gyXU9bQ0BIXShbQ0gyXTMpW0NIMl1OKFtDSDNdKVtDSDNd

> <s_epik_cmdline>
J2VwaWtfcHl0aG9uJywgJy1waCcsICc3LjAnLCAnLXRuJywgJzgnLCAnLW1hJywgJzIwMCcsICctbWV0YWxfYmluZGluZycsICctaW1hZScsICc8aW5maWxlLm1hZT4nLCAnLW9tYWUnLCAnPG91dGZpbGUubWFlPic=

> <r_epik_Ionization_Penalty>
1.0968

> <r_epik_Ionization_Penalty_Charging>
1.0096

> <r_epik_Ionization_Penalty_Neutral>
0.0871956

> <r_epik_State_Penalty>
1.31185

> <r_epik_Charging_Adjusted_Penalty>
2.32145

> <i_epik_Tot_Q>
2

> <i_epik_Tot_abs_Q>
2

> <r_epik_Metal_State_Penalty>
1.22442

> <b_epik_Metal_Only>
0

> <s_lp_Force_Field>
OPLS_2005

> <r_lp_Energy>
33.8105

> <b_lp_Chiralities_Consistent>
1

> <s_lp_Variant>
AV-unprocessed.smi:1005-11

> <Gold.Version>
5.8.1

> <Gold.Id.Protein>
6NUR|6NUR_protein|mol2

> <Gold.PLP.Fitness>
51.6810

> <Gold.PLP.PLP>
-42.4756

> <Gold.PLP.part.hbond>
-3.0000

> <Gold.PLP.part.metal>
0.0000

> <Gold.PLP.part.buried>
-5.6326

> <Gold.PLP.part.nonpolar>
-34.8627

> <Gold.PLP.part.repulsive>
0.6245

> <Gold.PLP.ligand.clash>
0.0000

> <Gold.PLP.ligand.torsion>
1.6639

> <Gold.PLP.Chemscore.Hbond>
4.0000

> <Gold.PLP.Chemscore.CHOScore>
0.0000

> <Gold.PLP.Chemscore.Metal>
0.0000

> <Gold.Chemscore.Hbonds>
donor molecule, donor type, donor heavy atom, donor atom, acceptor molecule, acceptor atom, score
      L1  H    10    34       P1  7957  1.00
      L1  H    18    56       P1  7948  2.00
      P1  H  7997  8010       L1     5  1.00

> <Gold.PLP.Chemscore.Internal.Correction>
0.5331

> <Gold.Rescore>
     Score         DG    S(hbond)    S(metal)    S(lipo)     H(rot)  DE(clash)    DE(int)     intcor
     18.02     -21.54       2.84        0.00     110.45       2.48       0.60       2.92       ----

> <Gold.Chemscore.Fitness>
18.0179

> <Gold.Chemscore.DG>
-21.5386

> <Gold.Chemscore.ZeroCoef>
-5.4800

> <Gold.Chemscore.Hbond>
2.8406

> <Gold.Chemscore.Metal>
0.0000

> <Gold.Chemscore.Lipo>
110.4548

> <Gold.Chemscore.Internal_Hbond>
0.0000

> <Gold.Chemscore.DEClash>
0.6020

> <Gold.Chemscore.DEInternal>
2.9187

> <Gold.Chemscore.Rot>
2.4814

> <Gold.Chemscore.Internal.Correction>
   9.000000E+99

> <Gold.Chemscore.Hbonds>
donor molecule, donor type, donor heavy atom, donor atom, acceptor molecule, acceptor atom, score
      L1  H    10    34       P1  7957  0.99
      L1  H    18    56       P1  7948  0.74
      P1  H  7997  8010       L1     5  0.17

> <Gold.Chemscore.Hbond.Weighted>
-9.4878

> <Gold.Chemscore.Metal.Weighted>
-0.0000

> <Gold.Chemscore.Lipo.Weighted>
-12.9232

> <Gold.Chemscore.Internal_Hbond.Weighted>
0.0000

> <Gold.Chemscore.DEClash.Weighted>
0.6020

> <Gold.Chemscore.DEInternal.Weighted>
2.9187

> <Gold.Chemscore.Rot.Weighted>
6.3524

> <Gold.Chemscore.Internal.Correction.Weighted>
   9.000000E+99

> <Gold.Protein.RotatedTorsions>
[ 6907 6896 6895 6894 ] final  -11.80 input  -60.11 | X-H torsion
[ 7974 7965 7964 7962 ] final   91.60 input  175.53 | X-H torsion
[ 8008 7997 7996 7995 ] final   62.01 input   59.86 | X-H torsion
[ 10167 10162 10161 10158 ] final   -8.22 input  -65.29 | X-H torsion
[ 10718 10713 10712 10709 ] final  126.92 input   66.30 | X-H torsion
[ 10763 10752 10751 10750 ] final  -74.76 input  -60.55 | X-H torsion
[ 11005 11000 10999 10996 ] final  -48.41 input  -57.11 | X-H torsion

> <Gold.Protein.ActiveResidues>
 VAL166  LYS551  ARG553  GLY616  TRP617  ASP618  TYR619  PRO620  LYS621  CYS622 
 ASP623  PHE694  ASN695  SER759  ASP760  ASP761  ALA762  ILE779  LEU786  VAL792 
 PHE793  MET794  SER795  GLU796  ALA797  LYS798  CYS799  TRP800  GLU811  SER814 

> <Gold.Protein.RotatedAtoms>
  151.3805  135.0939  159.9494 H   0  0  0  0  0  0  0  0  0  0  0  0  # atno 6907 bound_to 6896
  152.5109  133.9076  159.7482 H   0  0  0  0  0  0  0  0  0  0  0  0  # atno 6908 bound_to 6896
  150.9509  133.6495  159.2801 H   0  0  0  0  0  0  0  0  0  0  0  0  # atno 6909 bound_to 6896
  145.5034  139.2276  143.2764 H   0  0  0  0  0  0  0  0  0  0  0  0  # atno 7974 bound_to 7965
  155.6075  140.3494  155.4612 H   0  0  0  0  0  0  0  0  0  0  0  0  # atno 8008 bound_to 7997
  156.0180  140.1247  157.0411 H   0  0  0  0  0  0  0  0  0  0  0  0  # atno 8009 bound_to 7997
  154.4304  140.1068  156.5909 H   0  0  0  0  0  0  0  0  0  0  0  0  # atno 8010 bound_to 7997
  140.7052  143.5993  150.8814 H   0  0  0  0  0  0  0  0  0  0  0  0  # atno 10167 bound_to 10162
  157.5377  131.1097  150.8908 H   0  0  0  0  0  0  0  0  0  0  0  0  # atno 10718 bound_to 10713
  154.4775  135.5853  153.6365 H   0  0  0  0  0  0  0  0  0  0  0  0  # atno 10763 bound_to 10752
  152.9843  135.6081  154.3289 H   0  0  0  0  0  0  0  0  0  0  0  0  # atno 10764 bound_to 10752
  154.3177  135.2844  155.2514 H   0  0  0  0  0  0  0  0  0  0  0  0  # atno 10765 bound_to 10752
  141.0699  133.6682  156.3437 H   0  0  0  0  0  0  0  0  0  0  0  0  # atno 11005 bound_to 11000
  146.2212  140.5836  142.9016 LP  0  0  0  0  0  0  0  0  0  0  0  0  # atno 17320 bound_to 7965
  144.7767  140.5754  143.6633 LP  0  0  0  0  0  0  0  0  0  0  0  0  # atno 17321 bound_to 7965
  139.9718  143.6048  152.2971 LP  0  0  0  0  0  0  0  0  0  0  0  0  # atno 17342 bound_to 10162
  139.6638  144.7662  151.1912 LP  0  0  0  0  0  0  0  0  0  0  0  0  # atno 17343 bound_to 10162
  156.9470  130.5405  149.5281 LP  0  0  0  0  0  0  0  0  0  0  0  0  # atno 17370 bound_to 10713
  156.0472  130.5547  150.8908 LP  0  0  0  0  0  0  0  0  0  0  0  0  # atno 17371 bound_to 10713
  140.5695  134.5854  157.5454 LP  0  0  0  0  0  0  0  0  0  0  0  0  # atno 17394 bound_to 11000
  139.9513  134.7612  156.0442 LP  0  0  0  0  0  0  0  0  0  0  0  0  # atno 17395 bound_to 11000

$$$$
