#       Name:                AV-unprocessed.smi:3113
#       Creating user name   scv26
#       Creation time:       Fri Mar 27 17:23:55 2020


#       File generated by GOLD software.
#

@<TRIPOS>MOLECULE
AV-unprocessed.smi:3113
    38    39     1
SMALL
NO_CHARGES


@<TRIPOS>ATOM
      1 ****        -1.7732   3.0921  -2.1997 C.2            1 S1                 0.0000
      2 ****        -2.8913   2.3824  -2.7207 C.2            1 S1                 0.0000
      3 ****        -3.4571   1.5911  -1.8236 N.2            1 S1                 0.0000
      4 ****        -2.7211   1.7679  -0.7050 N.pl3          1 S1                 0.0000
      5 ****        -3.0558   1.0340   0.5023 C.3            1 S1                 0.0000
      6 ****        -2.5017  -0.3995   0.4838 C.3            1 S1                 0.0000
      7 ****        -1.0421  -0.4085   0.5208 N.3            1 S1                 0.0000
      8 ****        -0.4628  -1.7483   0.5104 C.3            1 S1                 0.0000
      9 ****         1.0740  -1.7073   0.5574 C.3            1 S1                 0.0000
     10 ****         1.7140  -0.9461  -0.6232 C.3            1 S1                 0.0000
     11 ****         3.2394  -0.9218  -0.4785 C.3            1 S1                 0.0000
     12 ****         3.6173  -0.3873   0.9073 C.3            1 S1                 0.0000
     13 ****         2.8932  -1.1837   2.0053 C.3            1 S1                 0.0000
     14 ****         1.4842  -1.1374   1.7992 O.3            1 S1                 0.0000
     15 ****        -1.6970   2.6700  -0.9034 C.2            1 S1                 0.0000
     16 ****        -1.1278   3.7984  -2.7002 H              1 S1                 0.0000
     17 ****        -3.3055   2.4182  -3.7176 H              1 S1                 0.0000
     18 ****        -2.6768   1.5827   1.3655 H              1 S1                 0.0000
     19 ****        -4.1421   1.0103   0.6009 H              1 S1                 0.0000
     20 ****        -2.8926  -0.9418   1.3452 H              1 S1                 0.0000
     21 ****        -2.8608  -0.9240  -0.4025 H              1 S1                 0.0000
     22 ****        -0.7143   0.0962   1.3384 H              1 S1                 0.0000
     23 ****        -0.8338  -2.3214   1.3610 H              1 S1                 0.0000
     24 ****        -0.7823  -2.2814  -0.3859 H              1 S1                 0.0000
     25 ****         1.4241  -2.7409   0.5330 H              1 S1                 0.0000
     26 ****         1.4346  -1.4098  -1.5695 H              1 S1                 0.0000
     27 ****         1.3441   0.0792  -0.6567 H              1 S1                 0.0000
     28 ****         3.6375  -1.9294  -0.6051 H              1 S1                 0.0000
     29 ****         3.6862  -0.3063  -1.2597 H              1 S1                 0.0000
     30 ****         4.6967  -0.4424   1.0505 H              1 S1                 0.0000
     31 ****         3.3445   0.6660   0.9815 H              1 S1                 0.0000
     32 ****         3.2339  -2.2200   2.0213 H              1 S1                 0.0000
     33 ****         3.1184  -0.7614   2.9846 H              1 S1                 0.0000
     34 ****        -1.0050   2.9294  -0.1157 H              1 S1                 0.0000
     35 ****        -4.2512   0.9959  -1.9463 LP             1 S1                 0.0000
     36 ****        -0.7380   0.0418  -0.3188 LP             1 S1                 0.0000
     37 ****         1.0388  -1.6391   2.5407 LP             1 S1                 0.0000
     38 ****         1.1920  -0.1813   1.8210 LP             1 S1                 0.0000
@<TRIPOS>BOND
    1    1   15 2     
    2    1    2 1     
    3    1   16 1     
    4    2    3 2     
    5    2   17 1     
    6    3    4 1     
    7    4    5 1     
    8    4   15 1     
    9    5    6 1     
   10    5   18 1     
   11    5   19 1     
   12    6    7 1     
   13    6   20 1     
   14    6   21 1     
   15    7    8 1     
   16    7   22 1     
   17    8    9 1     
   18    8   23 1     
   19    8   24 1     
   20    9   14 1     
   21    9   10 1     
   22    9   25 1     
   23   10   11 1     
   24   10   26 1     
   25   10   27 1     
   26   11   12 1     
   27   11   28 1     
   28   11   29 1     
   29   12   13 1     
   30   12   30 1     
   31   12   31 1     
   32   13   14 1     
   33   13   32 1     
   34   13   33 1     
   35   15   34 1     
   36    3   35 1     
   37    7   36 1     
   38   14   37 1     
   39   14   38 1     
@<TRIPOS>SUBSTRUCTURE
      1 S1             1
@<TRIPOS>SET
LONE_PAIRS      STATIC     ATOMS    <user>   **** ""
4 35 36 37 38
DONOR_HYDROGENS      STATIC     ATOMS    <user>   **** ""
1 22
ATOM$BLUE        STATIC     ATOMS    COLORGROUP SYSTEM
4 35 36 37 38
ATOM$RED        STATIC     ATOMS    COLORGROUP SYSTEM
1 22
