AV-unprocessed.smi:266|AV-procd|sdf|2035|dock7
  -GOLD-   2262021243D 1   1.00000     0.00000
 Structure written by MMmdl.
 52 55  0  0  0  0  0  0  0  0  1 V2000
  144.5039  134.3824  152.6241 C   0  0  0  0  0  0  0  0  0  0  0  0
  144.9581  133.8211  151.2676 C   0  0  2  0  0  0  0  0  0  0  0  0
  143.7903  133.4750  150.5277 O   0  0  0  0  0  0  0  0  0  0  0  0
  144.1006  132.3955  149.6648 C   0  0  0  0  0  0  0  0  0  0  0  0
  144.9818  131.5204  150.5427 C   0  0  0  0  0  0  0  0  0  0  0  0
  145.8353  132.5370  151.2969 C   0  0  1  0  0  0  0  0  0  0  0  0
  146.9937  132.7922  150.5192 O   0  0  0  0  0  0  0  0  0  0  0  0
  146.2954  132.0472  152.6954 C   0  0  0  0  0  0  0  0  0  0  0  0
  147.3763  132.8404  153.2613 N   0  0  0  0  0  0  0  0  0  0  0  0
  148.7158  132.7397  152.9620 C   0  0  0  0  0  0  0  0  0  0  0  0
  149.4930  133.5656  153.6067 N   0  0  0  0  0  0  0  0  0  0  0  0
  148.6248  134.3020  154.4046 C   0  0  0  0  0  0  0  0  0  0  0  0
  148.7853  135.3597  155.3471 C   0  0  0  0  0  0  0  0  0  0  0  0
  149.9625  135.9360  155.6892 N   0  0  0  0  0  0  0  0  0  0  0  0
  150.7834  135.0629  156.5168 C   0  0  0  0  0  0  0  0  0  0  0  0
  150.6578  136.7614  154.7016 C   0  0  0  0  0  0  0  0  0  0  0  0
  151.2791  138.0482  155.2866 C   0  0  1  0  0  0  0  0  0  0  0  0
  150.5590  139.3310  154.8229 C   0  0  0  0  0  0  0  0  0  0  0  0
  151.0508  140.5030  155.6774 C   0  0  0  0  0  0  0  0  0  0  0  0
  151.3707  139.8012  157.3381 S   0  0  0  0  0  0  0  0  0  0  0  0
  152.7488  140.1249  157.7370 O   0  0  0  0  0  0  0  0  0  0  0  0
  150.2357  140.0997  158.2246 O   0  0  0  0  0  0  0  0  0  0  0  0
  151.2773  138.0444  156.8225 C   0  0  0  0  0  0  0  0  0  0  0  0
  147.6721  135.8263  155.9669 N   0  0  0  0  0  0  0  0  0  0  0  0
  146.4739  135.3136  155.6732 C   0  0  0  0  0  0  0  0  0  0  0  0
  146.1711  134.3415  154.8111 N   0  0  0  0  0  0  0  0  0  0  0  0
  147.2883  133.8555  154.1983 C   0  0  0  0  0  0  0  0  0  0  0  0
  145.3545  134.6738  153.2405 H   0  0  0  0  0  0  0  0  0  0  0  0
  143.9104  133.6559  153.1795 H   0  0  0  0  0  0  0  0  0  0  0  0
  143.8853  135.2689  152.4838 H   0  0  0  0  0  0  0  0  0  0  0  0
  145.4681  134.6168  150.7211 H   0  0  0  0  0  0  0  0  0  0  0  0
  143.2021  131.8823  149.3216 H   0  0  0  0  0  0  0  0  0  0  0  0
  144.6482  132.7610  148.7947 H   0  0  0  0  0  0  0  0  0  0  0  0
  144.3433  130.9757  151.2390 H   0  0  0  0  0  0  0  0  0  0  0  0
  145.5601  130.7869  149.9791 H   0  0  0  0  0  0  0  0  0  0  0  0
  147.4871  131.9898  150.4448 H   0  0  0  0  0  0  0  0  0  0  0  0
  145.4611  132.0634  153.3981 H   0  0  0  0  0  0  0  0  0  0  0  0
  146.6360  131.0129  152.6450 H   0  0  0  0  0  0  0  0  0  0  0  0
  149.1019  132.0246  152.2501 H   0  0  0  0  0  0  0  0  0  0  0  0
  150.2780  134.8261  157.4536 H   0  0  0  0  0  0  0  0  0  0  0  0
  151.7314  135.5416  156.7632 H   0  0  0  0  0  0  0  0  0  0  0  0
  151.0001  134.1293  155.9960 H   0  0  0  0  0  0  0  0  0  0  0  0
  151.4495  136.1615  154.2513 H   0  0  0  0  0  0  0  0  0  0  0  0
  149.9753  137.0052  153.8878 H   0  0  0  0  0  0  0  0  0  0  0  0
  152.3219  138.1307  154.9792 H   0  0  0  0  0  0  0  0  0  0  0  0
  150.7158  139.5238  153.7610 H   0  0  0  0  0  0  0  0  0  0  0  0
  149.4846  139.2129  154.9694 H   0  0  0  0  0  0  0  0  0  0  0  0
  151.9910  140.8959  155.2897 H   0  0  0  0  0  0  0  0  0  0  0  0
  150.3302  141.3183  155.7419 H   0  0  0  0  0  0  0  0  0  0  0  0
  150.3470  137.6325  157.2145 H   0  0  0  0  0  0  0  0  0  0  0  0
  152.1104  137.4831  157.2458 H   0  0  0  0  0  0  0  0  0  0  0  0
  145.6379  135.7441  156.2045 H   0  0  0  0  0  0  0  0  0  0  0  0
  1  2  1  0  0  0  0
  1 28  1  0  0  0  0
  1 29  1  0  0  0  0
  1 30  1  0  0  0  0
  2  6  1  0  0  0  0
  2  3  1  0  0  0  0
  2 31  1  0  0  0  0
  3  4  1  0  0  0  0
  4  5  1  0  0  0  0
  4 32  1  0  0  0  0
  4 33  1  0  0  0  0
  5  6  1  0  0  0  0
  5 34  1  0  0  0  0
  5 35  1  0  0  0  0
  6  7  1  0  0  0  0
  6  8  1  0  0  0  0
  7 36  1  0  0  0  0
  8  9  1  0  0  0  0
  8 37  1  0  0  0  0
  8 38  1  0  0  0  0
  9 27  1  0  0  0  0
  9 10  1  0  0  0  0
 10 11  2  0  0  0  0
 10 39  1  0  0  0  0
 11 12  1  0  0  0  0
 12 27  2  0  0  0  0
 12 13  1  0  0  0  0
 13 14  1  0  0  0  0
 13 24  2  0  0  0  0
 14 15  1  0  0  0  0
 14 16  1  0  0  0  0
 15 40  1  0  0  0  0
 15 41  1  0  0  0  0
 15 42  1  0  0  0  0
 16 17  1  0  0  0  0
 16 43  1  0  0  0  0
 16 44  1  0  0  0  0
 17 23  1  0  0  0  0
 17 18  1  0  0  0  0
 17 45  1  0  0  0  0
 18 19  1  0  0  0  0
 18 46  1  0  0  0  0
 18 47  1  0  0  0  0
 19 20  1  0  0  0  0
 19 48  1  0  0  0  0
 19 49  1  0  0  0  0
 20 21  2  0  0  0  0
 20 22  2  0  0  0  0
 20 23  1  0  0  0  0
 23 50  1  0  0  0  0
 23 51  1  0  0  0  0
 24 25  1  0  0  0  0
 25 26  2  0  0  0  0
 25 52  1  0  0  0  0
 26 27  1  0  0  0  0
M  END
> <s_m_source_file>
AV-unprocessed.smi

> <i_m_source_file_index>
266

> <i_lp_mmshare_version>
43012

> <i_f3d_flags>
0

> <s_epik_input>
W0NIMl0xW0NIMl1PW0NAQEhdKFtDSDNdKVtDQEBdMShbT0hdKVtDSDJdbihbY0hdbjIpYyhjMjMpbltjSF1uYzNOKFtDSDNdKVtDSDJdW0NAQEhdKFtDSDJdNClbQ0gyXVtDSDJdUzQoPU8pPU8=

> <s_epik_cmdline>
J2VwaWtfcHl0aG9uJywgJy1waCcsICc3LjAnLCAnLXRuJywgJzgnLCAnLW1hJywgJzIwMCcsICctbWV0YWxfYmluZGluZycsICctaW1hZScsICc8aW5maWxlLm1hZT4nLCAnLW9tYWUnLCAnPG91dGZpbGUubWFlPic=

> <r_lp_tautomer_probability>
1

> <r_epik_Ionization_Penalty>
0.00155497

> <r_epik_Ionization_Penalty_Charging>
0

> <r_epik_Ionization_Penalty_Neutral>
0.00155497

> <r_epik_State_Penalty>
-0

> <r_epik_Charging_Adjusted_Penalty>
0

> <i_epik_Tot_Q>
0

> <i_epik_Tot_abs_Q>
0

> <r_epik_Metal_State_Penalty>
-0

> <b_epik_Metal_Only>
0

> <s_lp_Force_Field>
OPLS_2005

> <r_lp_Energy>
31.7586

> <b_lp_Chiralities_Consistent>
1

> <s_lp_Variant>
AV-unprocessed.smi:266-5

> <Gold.Version>
5.8.1

> <Gold.Id.Protein>
6NUR|6NUR_protein|mol2

> <Gold.PLP.Fitness>
42.5789

> <Gold.PLP.PLP>
-36.8760

> <Gold.PLP.part.hbond>
-2.0000

> <Gold.PLP.part.metal>
0.0000

> <Gold.PLP.part.buried>
-4.5594

> <Gold.PLP.part.nonpolar>
-30.4768

> <Gold.PLP.part.repulsive>
0.7684

> <Gold.PLP.ligand.clash>
0.3586

> <Gold.PLP.ligand.torsion>
1.7679

> <Gold.PLP.Chemscore.Hbond>
2.0000

> <Gold.PLP.Chemscore.CHOScore>
1.0000

> <Gold.PLP.Chemscore.Metal>
0.0000

> <Gold.Chemscore.Hbonds>
donor molecule, donor type, donor heavy atom, donor atom, acceptor molecule, acceptor atom, score
      L1  H     7    36       P1 10747  1.00
      P1  H  7997  8009       L1    21  1.00
      L1  C    10    39       P1 10747  1.00

> <Gold.PLP.Chemscore.Internal.Correction>
0.5972

> <Gold.Rescore>
     Score         DG    S(hbond)    S(metal)    S(lipo)     H(rot)  DE(clash)    DE(int)     intcor
      9.44     -14.67       1.95        0.00      83.46       2.76       0.20       5.03       ----

> <Gold.Chemscore.Fitness>
9.4432

> <Gold.Chemscore.DG>
-14.6720

> <Gold.Chemscore.ZeroCoef>
-5.4800

> <Gold.Chemscore.Hbond>
1.9467

> <Gold.Chemscore.Metal>
0.0000

> <Gold.Chemscore.Lipo>
83.4637

> <Gold.Chemscore.Internal_Hbond>
0.0000

> <Gold.Chemscore.DEClash>
0.1957

> <Gold.Chemscore.DEInternal>
5.0331

> <Gold.Chemscore.Rot>
2.7637

> <Gold.Chemscore.Internal.Correction>
   9.000000E+99

> <Gold.Chemscore.Hbonds>
donor molecule, donor type, donor heavy atom, donor atom, acceptor molecule, acceptor atom, score
      L1  H     7    36       P1 10747  0.99
      P1  H  7997  8009       L1    21  0.94

> <Gold.Chemscore.Hbond.Weighted>
-6.5018

> <Gold.Chemscore.Metal.Weighted>
-0.0000

> <Gold.Chemscore.Lipo.Weighted>
-9.7653

> <Gold.Chemscore.Internal_Hbond.Weighted>
0.0000

> <Gold.Chemscore.DEClash.Weighted>
0.1957

> <Gold.Chemscore.DEInternal.Weighted>
5.0331

> <Gold.Chemscore.Rot.Weighted>
7.0750

> <Gold.Chemscore.Internal.Correction.Weighted>
   9.000000E+99

> <Gold.Protein.RotatedTorsions>
[ 6907 6896 6895 6894 ] final   33.85 input  -60.11 | X-H torsion
[ 7974 7965 7964 7962 ] final  -56.29 input  175.53 | X-H torsion
[ 8008 7997 7996 7995 ] final  176.60 input   59.86 | X-H torsion
[ 10167 10162 10161 10158 ] final  -33.87 input  -65.29 | X-H torsion
[ 10718 10713 10712 10709 ] final -131.44 input   66.30 | X-H torsion
[ 10763 10752 10751 10750 ] final   72.69 input  -60.55 | X-H torsion
[ 11005 11000 10999 10996 ] final   75.85 input  -57.11 | X-H torsion

> <Gold.Protein.ActiveResidues>
 VAL166  LYS551  ARG553  GLY616  TRP617  ASP618  TYR619  PRO620  LYS621  CYS622 
 ASP623  PHE694  ASN695  SER759  ASP760  ASP761  ALA762  ILE779  LEU786  VAL792 
 PHE793  MET794  SER795  GLU796  ALA797  LYS798  CYS799  TRP800  GLU811  SER814 

> <Gold.Protein.RotatedAtoms>
  152.0942  134.9386  160.0570 H   0  0  0  0  0  0  0  0  0  0  0  0  # atno 6907 bound_to 6896
  152.0625  133.4064  159.4432 H   0  0  0  0  0  0  0  0  0  0  0  0  # atno 6908 bound_to 6896
  150.6837  134.3104  159.4787 H   0  0  0  0  0  0  0  0  0  0  0  0  # atno 6909 bound_to 6896
  145.8644  140.8262  142.9920 H   0  0  0  0  0  0  0  0  0  0  0  0  # atno 7974 bound_to 7965
  156.0748  140.1379  156.9785 H   0  0  0  0  0  0  0  0  0  0  0  0  # atno 8008 bound_to 7997
  154.4551  140.0964  156.6785 H   0  0  0  0  0  0  0  0  0  0  0  0  # atno 8009 bound_to 7997
  155.5171  140.3455  155.4402 H   0  0  0  0  0  0  0  0  0  0  0  0  # atno 8010 bound_to 7997
  140.7196  143.3589  151.2004 H   0  0  0  0  0  0  0  0  0  0  0  0  # atno 10167 bound_to 10162
  156.2245  130.6999  151.0791 H   0  0  0  0  0  0  0  0  0  0  0  0  # atno 10718 bound_to 10713
  153.0474  135.5090  154.7782 H   0  0  0  0  0  0  0  0  0  0  0  0  # atno 10763 bound_to 10752
  154.6671  135.2947  154.9794 H   0  0  0  0  0  0  0  0  0  0  0  0  # atno 10764 bound_to 10752
  154.0625  135.6689  153.4866 H   0  0  0  0  0  0  0  0  0  0  0  0  # atno 10765 bound_to 10752
  139.9325  134.7552  156.1322 H   0  0  0  0  0  0  0  0  0  0  0  0  # atno 11005 bound_to 11000
  144.6726  140.1144  143.7453 LP  0  0  0  0  0  0  0  0  0  0  0  0  # atno 17320 bound_to 7965
  145.9210  139.2546  143.1381 LP  0  0  0  0  0  0  0  0  0  0  0  0  # atno 17321 bound_to 7965
  139.7136  143.9336  152.2957 LP  0  0  0  0  0  0  0  0  0  0  0  0  # atno 17342 bound_to 10162
  139.9070  144.6879  150.8603 LP  0  0  0  0  0  0  0  0  0  0  0  0  # atno 17343 bound_to 10162
  157.7103  131.0737  150.6522 LP  0  0  0  0  0  0  0  0  0  0  0  0  # atno 17370 bound_to 10713
  156.6587  130.4506  149.5695 LP  0  0  0  0  0  0  0  0  0  0  0  0  # atno 17371 bound_to 10713
  141.0921  133.6710  156.2564 LP  0  0  0  0  0  0  0  0  0  0  0  0  # atno 17394 bound_to 11000
  140.6164  134.5406  157.5541 LP  0  0  0  0  0  0  0  0  0  0  0  0  # atno 17395 bound_to 11000

$$$$
