AV-unprocessed.smi:2310|AV-procd|sdf|9259|dock7
  -GOLD-   2272012483D 1   1.00000     0.00000
 Structure written by MMmdl.
 45 46  0  0  0  0  0  0  0  0  3 V2000
  149.7698  132.7296  154.2168 C   0  0  0  0  0  0  0  0  0  0  0  0
  149.3531  134.2032  154.3939 C   0  0  0  0  0  0  0  0  0  0  0  0
  150.2848  135.0470  155.2933 C   0  0  2  0  0  0  0  0  0  0  0  0
  150.2920  134.5064  156.7346 C   0  0  0  0  0  0  0  0  0  0  0  0
  148.9857  134.5770  157.4137 C   0  0  0  0  0  0  0  0  0  0  0  0
  147.9590  134.6277  157.9483 N   0  0  0  0  0  0  0  0  0  0  0  0
  149.8220  136.4402  155.3103 N   0  5  0  0  0  0  0  0  0  0  0  0
  150.2634  137.4007  156.1659 C   0  0  0  0  0  0  0  0  0  0  0  0
  150.9718  137.2528  157.1684 O   0  0  0  0  0  0  0  0  0  0  0  0
  149.8210  138.6233  155.8251 N   0  0  0  0  0  0  0  0  0  0  0  0
  150.0856  139.8694  156.4553 C   0  0  0  0  0  0  0  0  0  0  0  0
  150.6901  139.9656  157.7327 C   0  0  0  0  0  0  0  0  0  0  0  0
  150.9501  141.2348  158.2864 C   0  0  0  0  0  0  0  0  0  0  0  0
  150.6137  142.3943  157.5511 C   0  0  0  0  0  0  0  0  0  0  0  0
  150.8360  143.7007  158.0090 N   0  0  0  0  0  0  0  0  0  0  0  0
  152.2287  144.0219  158.2719 C   0  0  0  0  0  0  0  0  0  0  0  0
  152.2039  145.2841  159.1373 C   0  0  0  0  0  0  0  0  0  0  0  0
  150.8058  145.3033  159.7666 C   0  0  0  0  0  0  0  0  0  0  0  0
  150.1062  144.0584  159.2142 C   0  0  0  0  0  0  0  0  0  0  0  0
  150.0551  142.2591  156.3292 N   0  3  0  0  0  0  0  0  0  0  0  0
  149.7870  141.0636  155.7577 C   0  0  0  0  0  0  0  0  0  0  0  0
  149.1594  141.0719  154.3761 C   0  0  0  0  0  0  0  0  0  0  0  0
  149.0379  132.2024  153.6048 H   0  0  0  0  0  0  0  0  0  0  0  0
  149.8309  132.2025  155.1705 H   0  0  0  0  0  0  0  0  0  0  0  0
  150.7337  132.6308  153.7148 H   0  0  0  0  0  0  0  0  0  0  0  0
  149.2592  134.6735  153.4140 H   0  0  0  0  0  0  0  0  0  0  0  0
  148.3510  134.2153  154.8238 H   0  0  0  0  0  0  0  0  0  0  0  0
  151.3004  134.9484  154.9065 H   0  0  0  0  0  0  0  0  0  0  0  0
  150.6282  133.4692  156.7564 H   0  0  0  0  0  0  0  0  0  0  0  0
  150.9923  135.0784  157.3435 H   0  0  0  0  0  0  0  0  0  0  0  0
  149.1537  138.6469  155.0680 H   0  0  0  0  0  0  0  0  0  0  0  0
  150.9713  139.0840  158.2888 H   0  0  0  0  0  0  0  0  0  0  0  0
  151.4094  141.3090  159.2610 H   0  0  0  0  0  0  0  0  0  0  0  0
  152.7168  143.2083  158.8099 H   0  0  0  0  0  0  0  0  0  0  0  0
  152.7750  144.1849  157.3423 H   0  0  0  0  0  0  0  0  0  0  0  0
  152.9965  145.2727  159.8860 H   0  0  0  0  0  0  0  0  0  0  0  0
  152.3445  146.1711  158.5184 H   0  0  0  0  0  0  0  0  0  0  0  0
  150.8415  145.2912  160.8565 H   0  0  0  0  0  0  0  0  0  0  0  0
  150.2744  146.2059  159.4623 H   0  0  0  0  0  0  0  0  0  0  0  0
  149.0572  144.2560  158.9910 H   0  0  0  0  0  0  0  0  0  0  0  0
  150.1470  143.2500  159.9452 H   0  0  0  0  0  0  0  0  0  0  0  0
  149.8089  140.5643  153.6620 H   0  0  0  0  0  0  0  0  0  0  0  0
  148.9925  142.0891  154.0200 H   0  0  0  0  0  0  0  0  0  0  0  0
  148.1982  140.5572  154.3939 H   0  0  0  0  0  0  0  0  0  0  0  0
  149.8232  143.1046  155.8078 H   0  0  0  0  0  0  0  0  0  0  0  0
  1  2  1  0  0  0  0
  1 23  1  0  0  0  0
  1 24  1  0  0  0  0
  1 25  1  0  0  0  0
  2  3  1  0  0  0  0
  2 26  1  0  0  0  0
  2 27  1  0  0  0  0
  3  4  1  0  0  0  0
  3  7  1  0  0  0  0
  3 28  1  0  0  0  0
  4  5  1  0  0  0  0
  4 29  1  0  0  0  0
  4 30  1  0  0  0  0
  5  6  3  0  0  0  0
  7  8  1  0  0  0  0
  8  9  2  0  0  0  0
  8 10  1  0  0  0  0
 10 11  1  0  0  0  0
 10 31  1  0  0  0  0
 11 21  1  0  0  0  0
 11 12  2  0  0  0  0
 12 13  1  0  0  0  0
 12 32  1  0  0  0  0
 13 14  2  0  0  0  0
 13 33  1  0  0  0  0
 14 15  1  0  0  0  0
 14 20  1  0  0  0  0
 15 19  1  0  0  0  0
 15 16  1  0  0  0  0
 16 17  1  0  0  0  0
 16 34  1  0  0  0  0
 16 35  1  0  0  0  0
 17 18  1  0  0  0  0
 17 36  1  0  0  0  0
 17 37  1  0  0  0  0
 18 19  1  0  0  0  0
 18 38  1  0  0  0  0
 18 39  1  0  0  0  0
 19 40  1  0  0  0  0
 19 41  1  0  0  0  0
 20 21  2  0  0  0  0
 20 45  1  0  0  0  0
 21 22  1  0  0  0  0
 22 42  1  0  0  0  0
 22 43  1  0  0  0  0
 22 44  1  0  0  0  0
M  CHG  1   7  -1
M  CHG  1  20   1
M  END
> <s_m_source_file>
AV-unprocessed.smi

> <i_m_source_file_index>
2310

> <i_lp_mmshare_version>
43012

> <i_f3d_flags>
0

> <s_epik_input>
TiNDW0NIMl1bQ0BASF0oW0NIMl1bQ0gzXSlbTkhdQyg9TylbTkhdYzFbY0hdW2NIXWMobmMxW0NIM10pTjJbQ0gyXVtDSDJdW0NIMl1bQ0gyXTI=

> <s_epik_cmdline>
J2VwaWtfcHl0aG9uJywgJy1waCcsICc3LjAnLCAnLXRuJywgJzgnLCAnLW1hJywgJzIwMCcsICctbWV0YWxfYmluZGluZycsICctaW1hZScsICc8aW5maWxlLm1hZT4nLCAnLW9tYWUnLCAnPG91dGZpbGUubWFlPic=

> <r_lp_tautomer_probability>
0.999994

> <r_epik_Ionization_Penalty>
7.34515

> <r_epik_Ionization_Penalty_Charging>
7.34514

> <r_epik_Ionization_Penalty_Neutral>
2.56118e-06

> <r_epik_State_Penalty>
6.99243

> <r_epik_Charging_Adjusted_Penalty>
14.3376

> <i_epik_Tot_Q>
0

> <i_epik_Tot_abs_Q>
2

> <r_epik_Metal_State_Penalty>
3.10684

> <b_epik_Metal_Only>
1

> <s_lp_Force_Field>
OPLS_2005

> <r_lp_Energy>
38.8935

> <b_lp_Chiralities_Consistent>
1

> <s_lp_Variant>
AV-unprocessed.smi:2310-5

> <Gold.Version>
5.8.1

> <Gold.Id.Protein>
6NUR|6NUR_protein|mol2

> <Gold.PLP.Fitness>
42.6343

> <Gold.PLP.PLP>
-36.9680

> <Gold.PLP.part.hbond>
-1.0000

> <Gold.PLP.part.metal>
0.0000

> <Gold.PLP.part.buried>
-6.1983

> <Gold.PLP.part.nonpolar>
-30.3954

> <Gold.PLP.part.repulsive>
0.3802

> <Gold.PLP.ligand.clash>
0.0000

> <Gold.PLP.ligand.torsion>
0.2174

> <Gold.PLP.Chemscore.Hbond>
2.0000

> <Gold.PLP.Chemscore.CHOScore>
0.0000

> <Gold.PLP.Chemscore.Metal>
0.0000

> <Gold.Chemscore.Hbonds>
donor molecule, donor type, donor heavy atom, donor atom, acceptor molecule, acceptor atom, score
      L1  H    20    45       P1  8028  2.00

> <Gold.PLP.Chemscore.Internal.Correction>
0.1012

> <Gold.Rescore>
     Score         DG    S(hbond)    S(metal)    S(lipo)     H(rot)  DE(clash)    DE(int)     intcor
     12.55     -15.58       1.00        0.00      93.97       1.65       0.07       2.96       ----

> <Gold.Chemscore.Fitness>
12.5504

> <Gold.Chemscore.DG>
-15.5818

> <Gold.Chemscore.ZeroCoef>
-5.4800

> <Gold.Chemscore.Hbond>
0.9986

> <Gold.Chemscore.Metal>
0.0000

> <Gold.Chemscore.Lipo>
93.9662

> <Gold.Chemscore.Internal_Hbond>
0.0000

> <Gold.Chemscore.DEClash>
0.0672

> <Gold.Chemscore.DEInternal>
2.9642

> <Gold.Chemscore.Rot>
1.6514

> <Gold.Chemscore.Internal.Correction>
   9.000000E+99

> <Gold.Chemscore.Hbonds>
donor molecule, donor type, donor heavy atom, donor atom, acceptor molecule, acceptor atom, score
      L1  H    20    45       P1  8028  0.95

> <Gold.Chemscore.Hbond.Weighted>
-3.3353

> <Gold.Chemscore.Metal.Weighted>
-0.0000

> <Gold.Chemscore.Lipo.Weighted>
-10.9940

> <Gold.Chemscore.Internal_Hbond.Weighted>
0.0000

> <Gold.Chemscore.DEClash.Weighted>
0.0672

> <Gold.Chemscore.DEInternal.Weighted>
2.9642

> <Gold.Chemscore.Rot.Weighted>
4.2276

> <Gold.Chemscore.Internal.Correction.Weighted>
   9.000000E+99

> <Gold.Protein.RotatedTorsions>
[ 6907 6896 6895 6894 ] final   25.56 input  -60.11 | X-H torsion
[ 7974 7965 7964 7962 ] final   17.35 input  175.53 | X-H torsion
[ 8008 7997 7996 7995 ] final  -51.22 input   59.86 | X-H torsion
[ 10167 10162 10161 10158 ] final  167.80 input  -65.29 | X-H torsion
[ 10718 10713 10712 10709 ] final -135.01 input   66.30 | X-H torsion
[ 10763 10752 10751 10750 ] final -142.87 input  -60.55 | X-H torsion
[ 11005 11000 10999 10996 ] final  118.42 input  -57.11 | X-H torsion

> <Gold.Protein.ActiveResidues>
 VAL166  LYS551  ARG553  GLY616  TRP617  ASP618  TYR619  PRO620  LYS621  CYS622 
 ASP623  PHE694  ASN695  SER759  ASP760  ASP761  ALA762  ILE779  LEU786  VAL792 
 PHE793  MET794  SER795  GLU796  ALA797  LYS798  CYS799  TRP800  GLU811  SER814 

> <Gold.Protein.RotatedAtoms>
  151.9743  135.0061  160.0554 H   0  0  0  0  0  0  0  0  0  0  0  0  # atno 6907 bound_to 6896
  152.1754  133.4667  159.4939 H   0  0  0  0  0  0  0  0  0  0  0  0  # atno 6908 bound_to 6896
  150.6908  134.1818  159.4294 H   0  0  0  0  0  0  0  0  0  0  0  0  # atno 6909 bound_to 6896
  146.2221  139.8615  142.8604 H   0  0  0  0  0  0  0  0  0  0  0  0  # atno 7974 bound_to 7965
  154.4078  140.1253  156.4793 H   0  0  0  0  0  0  0  0  0  0  0  0  # atno 8008 bound_to 7997
  155.7101  140.3494  155.4950 H   0  0  0  0  0  0  0  0  0  0  0  0  # atno 8009 bound_to 7997
  155.9308  140.1069  157.1124 H   0  0  0  0  0  0  0  0  0  0  0  0  # atno 8010 bound_to 7997
  139.4953  144.3883  151.9546 H   0  0  0  0  0  0  0  0  0  0  0  0  # atno 10167 bound_to 10162
  156.2616  130.7213  151.1149 H   0  0  0  0  0  0  0  0  0  0  0  0  # atno 10718 bound_to 10713
  154.8492  135.3484  154.6097 H   0  0  0  0  0  0  0  0  0  0  0  0  # atno 10763 bound_to 10752
  153.6705  135.6985  153.5153 H   0  0  0  0  0  0  0  0  0  0  0  0  # atno 10764 bound_to 10752
  153.2746  135.4282  155.0977 H   0  0  0  0  0  0  0  0  0  0  0  0  # atno 10765 bound_to 10752
  139.9109  134.9620  156.7500 H   0  0  0  0  0  0  0  0  0  0  0  0  # atno 11005 bound_to 11000
  145.2700  141.0105  143.3777 LP  0  0  0  0  0  0  0  0  0  0  0  0  # atno 17320 bound_to 7965
  144.9231  139.4388  143.6531 LP  0  0  0  0  0  0  0  0  0  0  0  0  # atno 17321 bound_to 7965
  140.3320  144.3305  150.5985 LP  0  0  0  0  0  0  0  0  0  0  0  0  # atno 17342 bound_to 10162
  140.5637  143.2189  151.7720 LP  0  0  0  0  0  0  0  0  0  0  0  0  # atno 17343 bound_to 10162
  157.7252  131.0654  150.5962 LP  0  0  0  0  0  0  0  0  0  0  0  0  # atno 17370 bound_to 10713
  156.6050  130.4364  149.5882 LP  0  0  0  0  0  0  0  0  0  0  0  0  # atno 17371 bound_to 10713
  140.6781  133.9499  155.7894 LP  0  0  0  0  0  0  0  0  0  0  0  0  # atno 17394 bound_to 11000
  141.0530  134.0458  157.3759 LP  0  0  0  0  0  0  0  0  0  0  0  0  # atno 17395 bound_to 11000

$$$$
