#       Name:                AV-unprocessed.smi:1523
#       Creating user name   scv26
#       Creation time:       Fri Mar 27 06:28:19 2020


#       File generated by GOLD software.
#

@<TRIPOS>MOLECULE
AV-unprocessed.smi:1523
    42    43     1
SMALL
NO_CHARGES


@<TRIPOS>ATOM
      1 ****        -2.4825   5.9399  -2.5347 C.3            1 S1                 0.0000
      2 ****        -2.0043   5.2138  -1.3244 C.2            1 S1                 0.0000
      3 ****        -1.9721   3.8822  -1.2290 N.2            1 S1                 0.0000
      4 ****        -1.4834   3.4421   0.0054 C.2            1 S1                 0.0000
      5 ****        -1.3703   1.9741   0.2845 C.3            1 S1                 0.0000
      6 ****        -0.1277   1.3525  -0.3738 C.3            1 S1                 0.0000
      7 ****        -0.0529  -0.0830  -0.1286 N.am           1 S1                 0.0000
      8 ****         0.4343  -0.6588   0.9838 C.2            1 S1                 0.0000
      9 ****         0.8763   0.0053   1.9224 O.2            1 S1                 0.0000
     10 ****         0.3999  -2.0162   0.9838 N.am           1 S1                 0.0000
     11 ****        -0.0527  -2.8799  -0.1217 C.3            1 S1                 0.0000
     12 ****         1.1739  -3.5679  -0.7480 C.3            1 S1                 0.0000
     13 ****         1.9547  -4.3628   0.3180 C.3            1 S1                 0.0000
     14 ****         3.1574  -4.8533  -0.2350 O.3            1 S1                 0.0000
     15 ****         2.2621  -3.4981   1.5570 C.3            1 S1                 0.0000
     16 ****         0.9843  -2.8102   2.0736 C.3            1 S1                 0.0000
     17 ****        -1.1442   4.4696   0.8501 C.2            1 S1                 0.0000
     18 ****        -1.4293   6.0280   0.1255 S.3            1 S1                 0.0000
     19 ****        -2.2697   5.3614  -3.4342 H              1 S1                 0.0000
     20 ****        -1.9832   6.9056  -2.6161 H              1 S1                 0.0000
     21 ****        -3.5579   6.1055  -2.4690 H              1 S1                 0.0000
     22 ****        -1.3372   1.8057   1.3617 H              1 S1                 0.0000
     23 ****        -2.2651   1.4606  -0.0699 H              1 S1                 0.0000
     24 ****        -0.1619   1.5062  -1.4527 H              1 S1                 0.0000
     25 ****         0.7801   1.8440  -0.0193 H              1 S1                 0.0000
     26 ****        -0.3959  -0.6875  -0.8606 H              1 S1                 0.0000
     27 ****        -0.7380  -3.6320   0.2721 H              1 S1                 0.0000
     28 ****        -0.6179  -2.3557  -0.8923 H              1 S1                 0.0000
     29 ****         0.8598  -4.2296  -1.5559 H              1 S1                 0.0000
     30 ****         1.8196  -2.8117  -1.1976 H              1 S1                 0.0000
     31 ****         1.3556  -5.2200   0.6282 H              1 S1                 0.0000
     32 ****         2.9463  -5.4135  -0.9664 H              1 S1                 0.0000
     33 ****         2.7025  -4.1109   2.3443 H              1 S1                 0.0000
     34 ****         3.0025  -2.7369   1.3053 H              1 S1                 0.0000
     35 ****         1.2166  -2.2132   2.9566 H              1 S1                 0.0000
     36 ****         0.2626  -3.5580   2.4050 H              1 S1                 0.0000
     37 ****        -0.7439   4.4042   1.8510 H              1 S1                 0.0000
     38 ****        -2.2654   3.2667  -1.9605 LP             1 S1                 0.0000
     39 ****         0.8797   1.0039   1.8705 LP             1 S1                 0.0000
     40 ****         1.2318  -0.4543   2.7364 LP             1 S1                 0.0000
     41 ****         3.6577  -5.3753   0.4559 LP             1 S1                 0.0000
     42 ****         3.7209  -4.0887  -0.5478 LP             1 S1                 0.0000
@<TRIPOS>BOND
    1    1    2 1     
    2    1   19 1     
    3    1   20 1     
    4    1   21 1     
    5    2   18 1     
    6    2    3 2     
    7    3    4 1     
    8    4    5 1     
    9    4   17 2     
   10    5    6 1     
   11    5   22 1     
   12    5   23 1     
   13    6    7 1     
   14    6   24 1     
   15    6   25 1     
   16    7    8 am    
   17    7   26 1     
   18    8    9 2     
   19    8   10 am    
   20   10   16 1     
   21   10   11 1     
   22   11   12 1     
   23   11   27 1     
   24   11   28 1     
   25   12   13 1     
   26   12   29 1     
   27   12   30 1     
   28   13   14 1     
   29   13   15 1     
   30   13   31 1     
   31   14   32 1     
   32   15   16 1     
   33   15   33 1     
   34   15   34 1     
   35   16   35 1     
   36   16   36 1     
   37   17   18 1     
   38   17   37 1     
   39    3   38 1     
   40    9   39 1     
   41    9   40 1     
   42   14   41 1     
   43   14   42 1     
@<TRIPOS>SUBSTRUCTURE
      1 S1             1
@<TRIPOS>SET
LONE_PAIRS      STATIC     ATOMS    <user>   **** ""
5 38 39 40 41 42
DONOR_HYDROGENS      STATIC     ATOMS    <user>   **** ""
2 26 32
ATOM$BLUE        STATIC     ATOMS    COLORGROUP SYSTEM
5 38 39 40 41 42
ATOM$RED        STATIC     ATOMS    COLORGROUP SYSTEM
2 26 32
