AV-unprocessed.smi:1974|AV-procd|sdf|7980|dock5
  -GOLD-   2272010163D 1   1.00000     0.00000
 Structure written by MMmdl.
 34 35  0  0  0  0  0  0  0  0  1 V2000
  154.3244  140.4520  160.6913 C   0  0  0  0  0  0  0  0  0  0  0  0
  153.4467  141.3996  159.8587 C   0  0  2  0  0  0  0  0  0  0  0  0
  152.9350  142.5813  160.7053 C   0  0  0  0  0  0  0  0  0  0  0  0
  152.2619  143.5886  159.9048 N   0  0  0  0  0  0  0  0  0  0  0  0
  151.9003  144.8699  160.2650 C   0  0  0  0  0  0  0  0  0  0  0  0
  151.2931  145.4399  159.1829 C   0  0  0  0  0  0  0  0  0  0  0  0
  151.3331  144.4164  158.1951 C   0  0  0  0  0  0  0  0  0  0  0  0
  151.9143  143.3100  158.6298 N   0  0  0  0  0  0  0  0  0  0  0  0
  152.3182  140.6625  159.2931 N   0  0  0  0  0  0  0  0  0  0  0  0
  152.3913  139.7817  158.2840 C   0  0  0  0  0  0  0  0  0  0  0  0
  153.4403  139.5065  157.7003 O   0  0  0  0  0  0  0  0  0  0  0  0
  151.0688  139.1307  157.8617 C   0  0  0  0  0  0  0  0  0  0  0  0
  150.3026  139.9643  156.9350 N   0  0  0  0  0  0  0  0  0  0  0  0
  148.9704  140.4139  157.3168 C   0  0  0  0  0  0  0  0  0  0  0  0
  148.5765  141.5569  156.3792 C   0  0  0  0  0  0  0  0  0  0  0  0
  149.5396  141.3769  154.8646 S   0  0  0  0  0  0  0  0  0  0  0  0
  150.7459  140.3161  155.6668 C   0  0  0  0  0  0  0  0  0  0  0  0
  151.7968  139.9847  155.1206 O   0  0  0  0  0  0  0  0  0  0  0  0
  155.1808  140.9800  161.1113 H   0  0  0  0  0  0  0  0  0  0  0  0
  154.7120  139.6338  160.0834 H   0  0  0  0  0  0  0  0  0  0  0  0
  153.7637  140.0157  161.5187 H   0  0  0  0  0  0  0  0  0  0  0  0
  154.0582  141.8014  159.0482 H   0  0  0  0  0  0  0  0  0  0  0  0
  152.2493  142.2317  161.4785 H   0  0  0  0  0  0  0  0  0  0  0  0
  153.7667  143.0618  161.2228 H   0  0  0  0  0  0  0  0  0  0  0  0
  152.1012  145.2636  161.2505 H   0  0  0  0  0  0  0  0  0  0  0  0
  150.8833  146.4363  159.1075 H   0  0  0  0  0  0  0  0  0  0  0  0
  150.9600  144.4445  157.1819 H   0  0  0  0  0  0  0  0  0  0  0  0
  151.4129  140.8309  159.7074 H   0  0  0  0  0  0  0  0  0  0  0  0
  151.2622  138.1608  157.3995 H   0  0  0  0  0  0  0  0  0  0  0  0
  150.4787  138.9326  158.7573 H   0  0  0  0  0  0  0  0  0  0  0  0
  148.2795  139.5771  157.2056 H   0  0  0  0  0  0  0  0  0  0  0  0
  148.9416  140.7320  158.3597 H   0  0  0  0  0  0  0  0  0  0  0  0
  147.5070  141.5683  156.1681 H   0  0  0  0  0  0  0  0  0  0  0  0
  148.8373  142.5147  156.8307 H   0  0  0  0  0  0  0  0  0  0  0  0
  1  2  1  0  0  0  0
  1 19  1  0  0  0  0
  1 20  1  0  0  0  0
  1 21  1  0  0  0  0
  2  3  1  0  0  0  0
  2  9  1  0  0  0  0
  2 22  1  0  0  0  0
  3  4  1  0  0  0  0
  3 23  1  0  0  0  0
  3 24  1  0  0  0  0
  4  8  1  0  0  0  0
  4  5  1  0  0  0  0
  5  6  2  0  0  0  0
  5 25  1  0  0  0  0
  6  7  1  0  0  0  0
  6 26  1  0  0  0  0
  7  8  2  0  0  0  0
  7 27  1  0  0  0  0
  9 10  1  0  0  0  0
  9 28  1  0  0  0  0
 10 11  2  0  0  0  0
 10 12  1  0  0  0  0
 12 13  1  0  0  0  0
 12 29  1  0  0  0  0
 12 30  1  0  0  0  0
 13 17  1  0  0  0  0
 13 14  1  0  0  0  0
 14 15  1  0  0  0  0
 14 31  1  0  0  0  0
 14 32  1  0  0  0  0
 15 16  1  0  0  0  0
 15 33  1  0  0  0  0
 15 34  1  0  0  0  0
 16 17  1  0  0  0  0
 17 18  2  0  0  0  0
M  END
> <s_m_source_file>
AV-unprocessed.smi

> <i_m_source_file_index>
1974

> <i_lp_mmshare_version>
43012

> <i_f3d_flags>
0

> <s_epik_input>
bjFbY0hdW2NIXVtjSF1uMVtDSDJdW0NAQEhdKFtDSDNdKVtOSF1DKD1PKVtDSDJdTjJbQ0gyXVtDSDJdU0MyPU8=

> <s_epik_cmdline>
J2VwaWtfcHl0aG9uJywgJy1waCcsICc3LjAnLCAnLXRuJywgJzgnLCAnLW1hJywgJzIwMCcsICctbWV0YWxfYmluZGluZycsICctaW1hZScsICc8aW5maWxlLm1hZT4nLCAnLW9tYWUnLCAnPG91dGZpbGUubWFlPic=

> <r_lp_tautomer_probability>
1

> <r_epik_Ionization_Penalty>
0.000283364

> <r_epik_Ionization_Penalty_Charging>
0

> <r_epik_Ionization_Penalty_Neutral>
0.000283364

> <r_epik_State_Penalty>
-0

> <r_epik_Charging_Adjusted_Penalty>
0

> <i_epik_Tot_Q>
0

> <i_epik_Tot_abs_Q>
0

> <r_epik_Metal_State_Penalty>
-0

> <b_epik_Metal_Only>
0

> <s_lp_Force_Field>
OPLS_2005

> <r_lp_Energy>
2.8686

> <b_lp_Chiralities_Consistent>
1

> <s_lp_Variant>
AV-unprocessed.smi:1974-1

> <Gold.Version>
5.8.1

> <Gold.Id.Protein>
6NUR|6NUR_protein|mol2

> <Gold.PLP.Fitness>
47.7954

> <Gold.PLP.PLP>
-40.1593

> <Gold.PLP.part.hbond>
-1.8649

> <Gold.PLP.part.metal>
0.0000

> <Gold.PLP.part.buried>
-4.9793

> <Gold.PLP.part.nonpolar>
-33.9626

> <Gold.PLP.part.repulsive>
0.1906

> <Gold.PLP.ligand.clash>
0.0000

> <Gold.PLP.ligand.torsion>
0.6914

> <Gold.PLP.Chemscore.Hbond>
1.9920

> <Gold.PLP.Chemscore.CHOScore>
0.9997

> <Gold.PLP.Chemscore.Metal>
0.0000

> <Gold.Chemscore.Hbonds>
donor molecule, donor type, donor heavy atom, donor atom, acceptor molecule, acceptor atom, score
      P1  H  7989  7998       L1    18  0.94
      P1  H  7997  8008       L1    11  0.94
      L1  C     7    27       P1  8028  0.94

> <Gold.PLP.Chemscore.Internal.Correction>
0.0439

> <Gold.Rescore>
     Score         DG    S(hbond)    S(metal)    S(lipo)     H(rot)  DE(clash)    DE(int)     intcor
     15.65     -16.43       1.91        0.00      83.65       2.04       0.07       0.71       ----

> <Gold.Chemscore.Fitness>
15.6465

> <Gold.Chemscore.DG>
-16.4266

> <Gold.Chemscore.ZeroCoef>
-5.4800

> <Gold.Chemscore.Hbond>
1.9113

> <Gold.Chemscore.Metal>
0.0000

> <Gold.Chemscore.Lipo>
83.6471

> <Gold.Chemscore.Internal_Hbond>
0.0000

> <Gold.Chemscore.DEClash>
0.0673

> <Gold.Chemscore.DEInternal>
0.7129

> <Gold.Chemscore.Rot>
2.0405

> <Gold.Chemscore.Internal.Correction>
   9.000000E+99

> <Gold.Chemscore.Hbonds>
donor molecule, donor type, donor heavy atom, donor atom, acceptor molecule, acceptor atom, score
      P1  H  7989  7998       L1    18  0.32
      P1  H  7997  8008       L1    11  0.85

> <Gold.Chemscore.Hbond.Weighted>
-6.3837

> <Gold.Chemscore.Metal.Weighted>
-0.0000

> <Gold.Chemscore.Lipo.Weighted>
-9.7867

> <Gold.Chemscore.Internal_Hbond.Weighted>
0.0000

> <Gold.Chemscore.DEClash.Weighted>
0.0673

> <Gold.Chemscore.DEInternal.Weighted>
0.7129

> <Gold.Chemscore.Rot.Weighted>
5.2237

> <Gold.Chemscore.Internal.Correction.Weighted>
   9.000000E+99

> <Gold.Protein.RotatedTorsions>
[ 6907 6896 6895 6894 ] final -150.56 input  -60.11 | X-H torsion
[ 7974 7965 7964 7962 ] final  -31.70 input  175.53 | X-H torsion
[ 8008 7997 7996 7995 ] final  -99.81 input   59.86 | X-H torsion
[ 10167 10162 10161 10158 ] final   -7.15 input  -65.29 | X-H torsion
[ 10718 10713 10712 10709 ] final -177.88 input   66.30 | X-H torsion
[ 10763 10752 10751 10750 ] final  143.80 input  -60.55 | X-H torsion
[ 11005 11000 10999 10996 ] final -114.14 input  -57.11 | X-H torsion

> <Gold.Protein.ActiveResidues>
 VAL166  LYS551  ARG553  GLY616  TRP617  ASP618  TYR619  PRO620  LYS621  CYS622 
 ASP623  PHE694  ASN695  SER759  ASP760  ASP761  ALA762  ILE779  LEU786  VAL792 
 PHE793  MET794  SER795  GLU796  ALA797  LYS798  CYS799  TRP800  GLU811  SER814 

> <Gold.Protein.RotatedAtoms>
  151.2003  133.4615  159.2595 H   0  0  0  0  0  0  0  0  0  0  0  0  # atno 6907 bound_to 6896
  151.1076  135.0008  159.8488 H   0  0  0  0  0  0  0  0  0  0  0  0  # atno 6908 bound_to 6896
  152.5448  134.1925  159.8732 H   0  0  0  0  0  0  0  0  0  0  0  0  # atno 6909 bound_to 6896
  146.1047  140.5699  142.8805 H   0  0  0  0  0  0  0  0  0  0  0  0  # atno 7974 bound_to 7965
  154.8199  140.0445  157.1403 H   0  0  0  0  0  0  0  0  0  0  0  0  # atno 8008 bound_to 7997
  154.9272  140.3035  155.5166 H   0  0  0  0  0  0  0  0  0  0  0  0  # atno 8009 bound_to 7997
  156.2979  140.2330  156.4328 H   0  0  0  0  0  0  0  0  0  0  0  0  # atno 8010 bound_to 7997
  140.7020  143.6114  150.8701 H   0  0  0  0  0  0  0  0  0  0  0  0  # atno 10167 bound_to 10162
  156.8360  130.9669  151.3103 H   0  0  0  0  0  0  0  0  0  0  0  0  # atno 10718 bound_to 10713
  153.9783  135.2944  155.3422 H   0  0  0  0  0  0  0  0  0  0  0  0  # atno 10763 bound_to 10752
  154.7283  135.5079  153.8925 H   0  0  0  0  0  0  0  0  0  0  0  0  # atno 10764 bound_to 10752
  153.0866  135.6695  154.0050 H   0  0  0  0  0  0  0  0  0  0  0  0  # atno 10765 bound_to 10752
  141.0570  133.9596  157.2735 H   0  0  0  0  0  0  0  0  0  0  0  0  # atno 11005 bound_to 11000
  144.7461  140.5072  143.6834 LP  0  0  0  0  0  0  0  0  0  0  0  0  # atno 17320 bound_to 7965
  145.5784  139.1487  143.3249 LP  0  0  0  0  0  0  0  0  0  0  0  0  # atno 17321 bound_to 7965
  139.9836  143.5924  152.2934 LP  0  0  0  0  0  0  0  0  0  0  0  0  # atno 17342 bound_to 10162
  139.6554  144.7662  151.2067 LP  0  0  0  0  0  0  0  0  0  0  0  0  # atno 17343 bound_to 10162
  157.6381  130.8783  149.9397 LP  0  0  0  0  0  0  0  0  0  0  0  0  # atno 17370 bound_to 10713
  156.0907  130.3663  150.0400 LP  0  0  0  0  0  0  0  0  0  0  0  0  # atno 17371 bound_to 10713
  139.9399  135.0192  156.8675 LP  0  0  0  0  0  0  0  0  0  0  0  0  # atno 17394 bound_to 11000
  140.5943  134.0232  155.7512 LP  0  0  0  0  0  0  0  0  0  0  0  0  # atno 17395 bound_to 11000

$$$$
