AV-unprocessed.smi:671|AV-procd|sdf|3278|dock10
  -GOLD-   22720 0233D 1   1.00000     0.00000
 Structure written by MMmdl.
 49 50  0  0  0  0  0  0  0  0  1 V2000
  152.7514  138.3834  154.6816 C   0  0  0  0  0  0  0  0  0  0  0  0
  151.9388  139.3327  155.5152 C   0  0  0  0  0  0  0  0  0  0  0  0
  152.5100  139.9119  156.5578 N   0  0  0  0  0  0  0  0  0  0  0  0
  151.5467  140.6865  157.0938 N   0  0  0  0  0  0  0  0  0  0  0  0
  151.8441  141.4750  158.2738 C   0  0  0  0  0  0  0  0  0  0  0  0
  150.3624  140.5962  156.3894 C   0  0  0  0  0  0  0  0  0  0  0  0
  149.1415  141.3614  156.7884 C   0  0  0  0  0  0  0  0  0  0  0  0
  150.5747  139.7226  155.3566 C   0  0  0  0  0  0  0  0  0  0  0  0
  149.5954  139.2781  154.2981 C   0  0  0  0  0  0  0  0  0  0  0  0
  148.3734  138.5478  154.8896 C   0  0  1  0  0  0  0  0  0  0  0  0
  147.1762  139.4945  155.0513 C   0  0  0  0  0  0  0  0  0  0  0  0
  147.9804  137.4269  154.0289 N   0  0  0  0  0  0  0  0  0  0  0  0
  146.9362  136.5854  154.1383 C   0  0  0  0  0  0  0  0  0  0  0  0
  146.1235  136.6855  155.0554 O   0  0  0  0  0  0  0  0  0  0  0  0
  146.8513  135.6518  153.1768 N   0  0  0  0  0  0  0  0  0  0  0  0
  145.8230  134.6138  153.1013 C   0  0  2  0  0  0  0  0  0  0  0  0
  146.4037  133.2344  153.4837 C   0  0  0  0  0  0  0  0  0  0  0  0
  146.2462  132.3318  152.2543 C   0  0  0  0  0  0  0  0  0  0  0  0
  146.0635  133.2868  151.0776 C   0  0  0  0  0  0  0  0  0  0  0  0
  145.2643  134.4472  151.6715 C   0  0  2  0  0  0  0  0  0  0  0  0
  145.2453  135.7068  150.7917 C   0  0  0  0  0  0  0  0  0  0  0  0
  152.8820  137.4301  155.1941 H   0  0  0  0  0  0  0  0  0  0  0  0
  153.7424  138.7884  154.4742 H   0  0  0  0  0  0  0  0  0  0  0  0
  152.2738  138.1799  153.7235 H   0  0  0  0  0  0  0  0  0  0  0  0
  151.0560  141.3420  159.0153 H   0  0  0  0  0  0  0  0  0  0  0  0
  151.9049  142.5291  158.0024 H   0  0  0  0  0  0  0  0  0  0  0  0
  152.7928  141.1651  158.7142 H   0  0  0  0  0  0  0  0  0  0  0  0
  148.3130  141.1732  156.1059 H   0  0  0  0  0  0  0  0  0  0  0  0
  149.3391  142.4334  156.7869 H   0  0  0  0  0  0  0  0  0  0  0  0
  148.8161  141.0796  157.7897 H   0  0  0  0  0  0  0  0  0  0  0  0
  149.2498  140.1415  153.7292 H   0  0  0  0  0  0  0  0  0  0  0  0
  150.0811  138.6375  153.5614 H   0  0  0  0  0  0  0  0  0  0  0  0
  148.6368  138.2101  155.8927 H   0  0  0  0  0  0  0  0  0  0  0  0
  147.4215  140.3297  155.7081 H   0  0  0  0  0  0  0  0  0  0  0  0
  146.3218  138.9755  155.4873 H   0  0  0  0  0  0  0  0  0  0  0  0
  146.8618  139.9068  154.0917 H   0  0  0  0  0  0  0  0  0  0  0  0
  148.5632  137.2915  153.2156 H   0  0  0  0  0  0  0  0  0  0  0  0
  147.5544  135.6502  152.4526 H   0  0  0  0  0  0  0  0  0  0  0  0
  145.0028  134.8811  153.7706 H   0  0  0  0  0  0  0  0  0  0  0  0
  147.4583  133.3092  153.7536 H   0  0  0  0  0  0  0  0  0  0  0  0
  145.8873  132.8107  154.3456 H   0  0  0  0  0  0  0  0  0  0  0  0
  147.0936  131.6593  152.1181 H   0  0  0  0  0  0  0  0  0  0  0  0
  145.3520  131.7169  152.3657 H   0  0  0  0  0  0  0  0  0  0  0  0
  147.0370  133.6379  150.7321 H   0  0  0  0  0  0  0  0  0  0  0  0
  145.5578  132.8169  150.2335 H   0  0  0  0  0  0  0  0  0  0  0  0
  144.2326  134.1055  151.7714 H   0  0  0  0  0  0  0  0  0  0  0  0
  146.2520  136.0691  150.5851 H   0  0  0  0  0  0  0  0  0  0  0  0
  144.6891  136.5089  151.2767 H   0  0  0  0  0  0  0  0  0  0  0  0
  144.7670  135.5057  149.8330 H   0  0  0  0  0  0  0  0  0  0  0  0
  1  2  1  0  0  0  0
  1 22  1  0  0  0  0
  1 23  1  0  0  0  0
  1 24  1  0  0  0  0
  2  8  1  0  0  0  0
  2  3  2  0  0  0  0
  3  4  1  0  0  0  0
  4  5  1  0  0  0  0
  4  6  1  0  0  0  0
  5 25  1  0  0  0  0
  5 26  1  0  0  0  0
  5 27  1  0  0  0  0
  6  7  1  0  0  0  0
  6  8  2  0  0  0  0
  7 28  1  0  0  0  0
  7 29  1  0  0  0  0
  7 30  1  0  0  0  0
  8  9  1  0  0  0  0
  9 10  1  0  0  0  0
  9 31  1  0  0  0  0
  9 32  1  0  0  0  0
 10 11  1  0  0  0  0
 10 12  1  0  0  0  0
 10 33  1  0  0  0  0
 11 34  1  0  0  0  0
 11 35  1  0  0  0  0
 11 36  1  0  0  0  0
 12 13  1  0  0  0  0
 12 37  1  0  0  0  0
 13 14  2  0  0  0  0
 13 15  1  0  0  0  0
 15 16  1  0  0  0  0
 15 38  1  0  0  0  0
 16 20  1  0  0  0  0
 16 17  1  0  0  0  0
 16 39  1  0  0  0  0
 17 18  1  0  0  0  0
 17 40  1  0  0  0  0
 17 41  1  0  0  0  0
 18 19  1  0  0  0  0
 18 42  1  0  0  0  0
 18 43  1  0  0  0  0
 19 20  1  0  0  0  0
 19 44  1  0  0  0  0
 19 45  1  0  0  0  0
 20 21  1  0  0  0  0
 20 46  1  0  0  0  0
 21 47  1  0  0  0  0
 21 48  1  0  0  0  0
 21 49  1  0  0  0  0
M  END
> <s_m_source_file>
AV-unprocessed.smi

> <i_m_source_file_index>
671

> <i_lp_mmshare_version>
43012

> <i_f3d_flags>
0

> <s_epik_input>
W0NIM11jMW5uKFtDSDNdKWMoW0NIM10pYzFbQ0gyXVtDQEhdKFtDSDNdKVtOSF1DKD1PKVtOSF1bQ0BASF0yW0NIMl1bQ0gyXVtDSDJdW0NASF0yW0NIM10=

> <s_epik_cmdline>
J2VwaWtfcHl0aG9uJywgJy1waCcsICc3LjAnLCAnLXRuJywgJzgnLCAnLW1hJywgJzIwMCcsICctbWV0YWxfYmluZGluZycsICctaW1hZScsICc8aW5maWxlLm1hZT4nLCAnLW9tYWUnLCAnPG91dGZpbGUubWFlPic=

> <r_lp_tautomer_probability>
1

> <r_epik_Ionization_Penalty>
0.0126855

> <r_epik_Ionization_Penalty_Charging>
0

> <r_epik_Ionization_Penalty_Neutral>
0.0126855

> <r_epik_State_Penalty>
0.00977547

> <r_epik_Charging_Adjusted_Penalty>
0.00977547

> <i_epik_Tot_Q>
0

> <i_epik_Tot_abs_Q>
0

> <r_epik_Metal_State_Penalty>
0.00957132

> <b_epik_Metal_Only>
0

> <s_lp_Force_Field>
OPLS_2005

> <r_lp_Energy>
22.0359

> <b_lp_Chiralities_Consistent>
1

> <s_lp_Variant>
AV-unprocessed.smi:671-6

> <Gold.Version>
5.8.1

> <Gold.Id.Protein>
6NUR|6NUR_protein|mol2

> <Gold.PLP.Fitness>
40.0465

> <Gold.PLP.PLP>
-32.6772

> <Gold.PLP.part.hbond>
-3.0000

> <Gold.PLP.part.metal>
0.0000

> <Gold.PLP.part.buried>
-3.4084

> <Gold.PLP.part.nonpolar>
-27.1665

> <Gold.PLP.part.repulsive>
0.0356

> <Gold.PLP.ligand.clash>
0.0000

> <Gold.PLP.ligand.torsion>
0.7411

> <Gold.PLP.Chemscore.Hbond>
2.9440

> <Gold.PLP.Chemscore.CHOScore>
0.0000

> <Gold.PLP.Chemscore.Metal>
0.0000

> <Gold.Chemscore.Hbonds>
donor molecule, donor type, donor heavy atom, donor atom, acceptor molecule, acceptor atom, score
      L1  H    12    37       P1  7948  0.94
      L1  H    15    38       P1  7948  1.00
      P1  H  7997  8010       L1     3  1.00

> <Gold.PLP.Chemscore.Internal.Correction>
0.0196

> <Gold.Rescore>
     Score         DG    S(hbond)    S(metal)    S(lipo)     H(rot)  DE(clash)    DE(int)     intcor
     20.05     -20.76       2.87        0.00      80.51       1.45       0.04       0.67       ----

> <Gold.Chemscore.Fitness>
20.0487

> <Gold.Chemscore.DG>
-20.7648

> <Gold.Chemscore.ZeroCoef>
-5.4800

> <Gold.Chemscore.Hbond>
2.8675

> <Gold.Chemscore.Metal>
0.0000

> <Gold.Chemscore.Lipo>
80.5052

> <Gold.Chemscore.Internal_Hbond>
0.0000

> <Gold.Chemscore.DEClash>
0.0411

> <Gold.Chemscore.DEInternal>
0.6749

> <Gold.Chemscore.Rot>
1.4499

> <Gold.Chemscore.Internal.Correction>
   9.000000E+99

> <Gold.Chemscore.Hbonds>
donor molecule, donor type, donor heavy atom, donor atom, acceptor molecule, acceptor atom, score
      L1  H    12    37       P1  7948  0.91
      L1  H    15    38       P1  7948  0.94
      P1  H  7997  8010       L1     3  0.93

> <Gold.Chemscore.Hbond.Weighted>
-9.5775

> <Gold.Chemscore.Metal.Weighted>
-0.0000

> <Gold.Chemscore.Lipo.Weighted>
-9.4191

> <Gold.Chemscore.Internal_Hbond.Weighted>
0.0000

> <Gold.Chemscore.DEClash.Weighted>
0.0411

> <Gold.Chemscore.DEInternal.Weighted>
0.6749

> <Gold.Chemscore.Rot.Weighted>
3.7118

> <Gold.Chemscore.Internal.Correction.Weighted>
   9.000000E+99

> <Gold.Protein.RotatedTorsions>
[ 6907 6896 6895 6894 ] final  112.74 input  -60.11 | X-H torsion
[ 7974 7965 7964 7962 ] final -170.72 input  175.53 | X-H torsion
[ 8008 7997 7996 7995 ] final   70.76 input   59.86 | X-H torsion
[ 10167 10162 10161 10158 ] final  -50.95 input  -65.29 | X-H torsion
[ 10718 10713 10712 10709 ] final  177.38 input   66.30 | X-H torsion
[ 10763 10752 10751 10750 ] final  162.56 input  -60.55 | X-H torsion
[ 11005 11000 10999 10996 ] final  -70.92 input  -57.11 | X-H torsion

> <Gold.Protein.ActiveResidues>
 VAL166  LYS551  ARG553  GLY616  TRP617  ASP618  TYR619  PRO620  LYS621  CYS622 
 ASP623  PHE694  ASN695  SER759  ASP760  ASP761  ALA762  ILE779  LEU786  VAL792 
 PHE793  MET794  SER795  GLU796  ALA797  LYS798  CYS799  TRP800  GLU811  SER814 

> <Gold.Protein.RotatedAtoms>
  152.4900  133.8473  159.7183 H   0  0  0  0  0  0  0  0  0  0  0  0  # atno 6907 bound_to 6896
  150.9020  133.7097  159.2883 H   0  0  0  0  0  0  0  0  0  0  0  0  # atno 6908 bound_to 6896
  151.4535  135.1036  159.9757 H   0  0  0  0  0  0  0  0  0  0  0  0  # atno 6909 bound_to 6896
  144.7166  140.2030  143.6336 H   0  0  0  0  0  0  0  0  0  0  0  0  # atno 7974 bound_to 7965
  155.7437  140.3490  155.5116 H   0  0  0  0  0  0  0  0  0  0  0  0  # atno 8008 bound_to 7997
  155.9070  140.1044  157.1329 H   0  0  0  0  0  0  0  0  0  0  0  0  # atno 8009 bound_to 7997
  154.4051  140.1275  156.4496 H   0  0  0  0  0  0  0  0  0  0  0  0  # atno 8010 bound_to 7997
  140.6612  143.2638  151.4434 H   0  0  0  0  0  0  0  0  0  0  0  0  # atno 10167 bound_to 10162
  156.9062  130.9895  151.3028 H   0  0  0  0  0  0  0  0  0  0  0  0  # atno 10718 bound_to 10713
  154.2802  135.2763  155.2700 H   0  0  0  0  0  0  0  0  0  0  0  0  # atno 10763 bound_to 10752
  154.5225  135.5752  153.6695 H   0  0  0  0  0  0  0  0  0  0  0  0  # atno 10764 bound_to 10752
  152.9930  135.6208  154.2961 H   0  0  0  0  0  0  0  0  0  0  0  0  # atno 10765 bound_to 10752
  141.1583  133.6803  156.6827 H   0  0  0  0  0  0  0  0  0  0  0  0  # atno 11005 bound_to 11000
  145.8662  139.2248  143.1687 LP  0  0  0  0  0  0  0  0  0  0  0  0  # atno 17320 bound_to 7965
  146.0127  140.8420  142.9963 LP  0  0  0  0  0  0  0  0  0  0  0  0  # atno 17321 bound_to 7965
  139.5847  144.1632  152.2013 LP  0  0  0  0  0  0  0  0  0  0  0  0  # atno 17342 bound_to 10162
  140.0967  144.5574  150.7017 LP  0  0  0  0  0  0  0  0  0  0  0  0  # atno 17343 bound_to 10162
  157.5996  130.8503  149.8781 LP  0  0  0  0  0  0  0  0  0  0  0  0  # atno 17370 bound_to 10713
  156.0558  130.3709  150.1095 LP  0  0  0  0  0  0  0  0  0  0  0  0  # atno 17371 bound_to 10713
  140.3090  134.8101  157.4161 LP  0  0  0  0  0  0  0  0  0  0  0  0  # atno 17394 bound_to 11000
  140.1195  134.5239  155.8196 LP  0  0  0  0  0  0  0  0  0  0  0  0  # atno 17395 bound_to 11000

$$$$
