AV-unprocessed.smi:2843|AV-procd|sdf|10937|dock10
  -GOLD-   2272015383D 1   1.00000     0.00000
 Structure written by MMmdl.
 29 29  0  0  0  0  0  0  0  0  1 V2000
  153.4111  141.6674  159.8145 C   0  0  0  0  0  0  0  0  0  0  0  0
  152.6192  140.8431  158.8585 C   0  0  0  0  0  0  0  0  0  0  0  0
  151.3646  140.9711  158.3343 C   0  0  0  0  0  0  0  0  0  0  0  0
  151.2387  139.8386  157.4830 C   0  0  0  0  0  0  0  0  0  0  0  0
  150.0705  139.4389  156.6282 C   0  0  0  0  0  0  0  0  0  0  0  0
  150.6397  139.1732  154.8965 S   0  0  0  0  0  0  0  0  0  0  0  0
  151.9771  139.7631  154.7321 O   0  0  0  0  0  0  0  0  0  0  0  0
  150.4089  137.7654  154.5370 O   0  0  0  0  0  0  0  0  0  0  0  0
  149.5353  140.1346  153.9866 N   0  0  0  0  0  0  0  0  0  0  0  0
  148.1162  139.7921  154.0541 C   0  0  0  0  0  0  0  0  0  0  0  0
  147.2769  140.8537  153.3314 C   0  0  0  0  0  0  0  0  0  0  0  0
  147.3194  142.2133  154.0410 C   0  0  0  0  0  0  0  0  0  0  0  0
  148.6594  142.6139  154.2284 O   0  0  0  0  0  0  0  0  0  0  0  0
  152.3279  139.0879  157.5020 N   0  0  0  0  0  0  0  0  0  0  0  0
  153.2164  139.7227  158.3768 O   0  0  0  0  0  0  0  0  0  0  0  0
  152.8657  142.5679  160.0978 H   0  0  0  0  0  0  0  0  0  0  0  0
  154.3582  141.9725  159.3691 H   0  0  0  0  0  0  0  0  0  0  0  0
  153.6290  141.1040  160.7218 H   0  0  0  0  0  0  0  0  0  0  0  0
  150.6487  141.7569  158.5251 H   0  0  0  0  0  0  0  0  0  0  0  0
  149.6101  138.5165  156.9842 H   0  0  0  0  0  0  0  0  0  0  0  0
  149.3048  140.2143  156.6256 H   0  0  0  0  0  0  0  0  0  0  0  0
  149.8413  140.2159  153.0172 H   0  0  0  0  0  0  0  0  0  0  0  0
  147.9645  138.8131  153.5978 H   0  0  0  0  0  0  0  0  0  0  0  0
  147.8151  139.7150  155.0994 H   0  0  0  0  0  0  0  0  0  0  0  0
  147.6372  140.9668  152.3076 H   0  0  0  0  0  0  0  0  0  0  0  0
  146.2425  140.5137  153.2604 H   0  0  0  0  0  0  0  0  0  0  0  0
  146.8009  142.9712  153.4526 H   0  0  0  0  0  0  0  0  0  0  0  0
  146.8257  142.1574  155.0117 H   0  0  0  0  0  0  0  0  0  0  0  0
  148.7007  143.1852  154.9802 H   0  0  0  0  0  0  0  0  0  0  0  0
  1  2  1  0  0  0  0
  1 16  1  0  0  0  0
  1 17  1  0  0  0  0
  1 18  1  0  0  0  0
  2 15  1  0  0  0  0
  2  3  2  0  0  0  0
  3  4  1  0  0  0  0
  3 19  1  0  0  0  0
  4  5  1  0  0  0  0
  4 14  2  0  0  0  0
  5  6  1  0  0  0  0
  5 20  1  0  0  0  0
  5 21  1  0  0  0  0
  6  7  2  0  0  0  0
  6  8  2  0  0  0  0
  6  9  1  0  0  0  0
  9 10  1  0  0  0  0
  9 22  1  0  0  0  0
 10 11  1  0  0  0  0
 10 23  1  0  0  0  0
 10 24  1  0  0  0  0
 11 12  1  0  0  0  0
 11 25  1  0  0  0  0
 11 26  1  0  0  0  0
 12 13  1  0  0  0  0
 12 27  1  0  0  0  0
 12 28  1  0  0  0  0
 13 29  1  0  0  0  0
 14 15  1  0  0  0  0
M  END
> <s_m_source_file>
AV-unprocessed.smi

> <i_m_source_file_index>
2843

> <i_lp_mmshare_version>
43012

> <i_f3d_flags>
0

> <s_epik_input>
W0NIM11jMVtjSF1jKG5vMSlbQ0gyXVMoPU8pKD1PKVtOSF1bQ0gyXVtDSDJdW0NIMl1bT0hd

> <s_epik_cmdline>
J2VwaWtfcHl0aG9uJywgJy1waCcsICc3LjAnLCAnLXRuJywgJzgnLCAnLW1hJywgJzIwMCcsICctbWV0YWxfYmluZGluZycsICctaW1hZScsICc8aW5maWxlLm1hZT4nLCAnLW9tYWUnLCAnPG91dGZpbGUubWFlPic=

> <r_lp_tautomer_probability>
1

> <r_epik_Ionization_Penalty>
0.000153409

> <r_epik_Ionization_Penalty_Charging>
0

> <r_epik_Ionization_Penalty_Neutral>
0.000153409

> <r_epik_State_Penalty>
-0

> <r_epik_Charging_Adjusted_Penalty>
0

> <i_epik_Tot_Q>
0

> <i_epik_Tot_abs_Q>
0

> <r_epik_Metal_State_Penalty>
0.110712

> <b_epik_Metal_Only>
0

> <s_lp_Force_Field>
OPLS_2005

> <r_lp_Energy>
-3.16936

> <b_lp_Chiralities_Consistent>
1

> <s_lp_Variant>
AV-unprocessed.smi:2843-1

> <Gold.Version>
5.8.1

> <Gold.Id.Protein>
6NUR|6NUR_protein|mol2

> <Gold.PLP.Fitness>
39.6980

> <Gold.PLP.PLP>
-28.1494

> <Gold.PLP.part.hbond>
-6.3036

> <Gold.PLP.part.metal>
0.0000

> <Gold.PLP.part.buried>
-4.1750

> <Gold.PLP.part.nonpolar>
-17.6522

> <Gold.PLP.part.repulsive>
0.2644

> <Gold.PLP.ligand.clash>
0.0000

> <Gold.PLP.ligand.torsion>
0.2468

> <Gold.PLP.Chemscore.Hbond>
3.9584

> <Gold.PLP.Chemscore.CHOScore>
0.0000

> <Gold.PLP.Chemscore.Metal>
0.0000

> <Gold.Chemscore.Hbonds>
donor molecule, donor type, donor heavy atom, donor atom, acceptor molecule, acceptor atom, score
      L1  H     9    22       P1  7957  1.00
      L1  H    13    29       P1  8028  0.99
      P1  H  7989  7998       L1     7  0.91
      P1  H  7997  8008       L1    15  1.00
      P1  H  8011  8017       L1    13  0.05

> <Gold.PLP.Chemscore.Internal.Correction>
0.1670

> <Gold.Rescore>
     Score         DG    S(hbond)    S(metal)    S(lipo)     H(rot)  DE(clash)    DE(int)     intcor
     13.80     -15.71       3.63        0.00      51.45       3.09       0.04       1.88       ----

> <Gold.Chemscore.Fitness>
13.8031

> <Gold.Chemscore.DG>
-15.7142

> <Gold.Chemscore.ZeroCoef>
-5.4800

> <Gold.Chemscore.Hbond>
3.6328

> <Gold.Chemscore.Metal>
0.0000

> <Gold.Chemscore.Lipo>
51.4542

> <Gold.Chemscore.Internal_Hbond>
0.0000

> <Gold.Chemscore.DEClash>
0.0355

> <Gold.Chemscore.DEInternal>
1.8756

> <Gold.Chemscore.Rot>
3.0935

> <Gold.Chemscore.Internal.Correction>
   9.000000E+99

> <Gold.Chemscore.Hbonds>
donor molecule, donor type, donor heavy atom, donor atom, acceptor molecule, acceptor atom, score
      L1  H     9    22       P1  7957  0.98
      L1  H    13    29       P1  8028  0.94
      P1  H  7989  7998       L1     7  0.23
      P1  H  7997  8008       L1    15  0.26
      P1  H  8011  8017       L1    13  0.05

> <Gold.Chemscore.Hbond.Weighted>
-12.1335

> <Gold.Chemscore.Metal.Weighted>
-0.0000

> <Gold.Chemscore.Lipo.Weighted>
-6.0201

> <Gold.Chemscore.Internal_Hbond.Weighted>
0.0000

> <Gold.Chemscore.DEClash.Weighted>
0.0355

> <Gold.Chemscore.DEInternal.Weighted>
1.8756

> <Gold.Chemscore.Rot.Weighted>
7.9195

> <Gold.Chemscore.Internal.Correction.Weighted>
   9.000000E+99

> <Gold.Protein.RotatedTorsions>
[ 6907 6896 6895 6894 ] final  127.02 input  -60.11 | X-H torsion
[ 7974 7965 7964 7962 ] final   53.72 input  175.53 | X-H torsion
[ 8008 7997 7996 7995 ] final -100.35 input   59.86 | X-H torsion
[ 10167 10162 10161 10158 ] final  -15.97 input  -65.29 | X-H torsion
[ 10718 10713 10712 10709 ] final  158.07 input   66.30 | X-H torsion
[ 10763 10752 10751 10750 ] final  -82.22 input  -60.55 | X-H torsion
[ 11005 11000 10999 10996 ] final  -74.21 input  -57.11 | X-H torsion

> <Gold.Protein.ActiveResidues>
 VAL166  LYS551  ARG553  GLY616  TRP617  ASP618  TYR619  PRO620  LYS621  CYS622 
 ASP623  PHE694  ASN695  SER759  ASP760  ASP761  ALA762  ILE779  LEU786  VAL792 
 PHE793  MET794  SER795  GLU796  ALA797  LYS798  CYS799  TRP800  GLU811  SER814 

> <Gold.Protein.RotatedAtoms>
  152.3851  133.6599  159.6191 H   0  0  0  0  0  0  0  0  0  0  0  0  # atno 6907 bound_to 6896
  150.7772  133.9049  159.3361 H   0  0  0  0  0  0  0  0  0  0  0  0  # atno 6908 bound_to 6896
  151.6847  135.0957  160.0274 H   0  0  0  0  0  0  0  0  0  0  0  0  # atno 6909 bound_to 6896
  145.9682  139.4124  143.0206 H   0  0  0  0  0  0  0  0  0  0  0  0  # atno 7974 bound_to 7965
  154.8274  140.0441  157.1453 H   0  0  0  0  0  0  0  0  0  0  0  0  # atno 8008 bound_to 7997
  154.9191  140.3024  155.5205 H   0  0  0  0  0  0  0  0  0  0  0  0  # atno 8009 bound_to 7997
  156.2984  140.2344  156.4239 H   0  0  0  0  0  0  0  0  0  0  0  0  # atno 8010 bound_to 7997
  140.7227  143.5164  150.9687 H   0  0  0  0  0  0  0  0  0  0  0  0  # atno 10167 bound_to 10162
  157.1828  131.0636  151.2122 H   0  0  0  0  0  0  0  0  0  0  0  0  # atno 10718 bound_to 10713
  154.5731  135.5599  153.7114 H   0  0  0  0  0  0  0  0  0  0  0  0  # atno 10763 bound_to 10752
  153.0055  135.6302  154.2086 H   0  0  0  0  0  0  0  0  0  0  0  0  # atno 10764 bound_to 10752
  154.2026  135.2877  155.2965 H   0  0  0  0  0  0  0  0  0  0  0  0  # atno 10765 bound_to 10752
  141.1632  133.6904  156.7330 H   0  0  0  0  0  0  0  0  0  0  0  0  # atno 11005 bound_to 11000
  145.7943  140.9800  143.1032 LP  0  0  0  0  0  0  0  0  0  0  0  0  # atno 17320 bound_to 7965
  144.6830  139.9722  143.7482 LP  0  0  0  0  0  0  0  0  0  0  0  0  # atno 17321 bound_to 7965
  139.8879  143.6990  152.3149 LP  0  0  0  0  0  0  0  0  0  0  0  0  # atno 17342 bound_to 10162
  139.7295  144.7585  151.0825 LP  0  0  0  0  0  0  0  0  0  0  0  0  # atno 17343 bound_to 10162
  157.3936  130.7295  149.6715 LP  0  0  0  0  0  0  0  0  0  0  0  0  # atno 17370 bound_to 10713
  155.9722  130.4140  150.4109 LP  0  0  0  0  0  0  0  0  0  0  0  0  # atno 17371 bound_to 10713
  140.2731  134.8376  157.3865 LP  0  0  0  0  0  0  0  0  0  0  0  0  # atno 17394 bound_to 11000
  140.1503  134.4859  155.7966 LP  0  0  0  0  0  0  0  0  0  0  0  0  # atno 17395 bound_to 11000

$$$$
