AV-unprocessed.smi:2567|AV-procd|sdf|10080|dock1
  -GOLD-   2272014103D 1   1.00000     0.00000
 Structure written by MMmdl.
 33 34  0  0  0  0  0  0  0  0  1 V2000
  152.2085  144.6430  157.9553 C   0  0  0  0  0  0  0  0  0  0  0  0
  151.5179  143.3737  158.4913 C   0  0  0  0  0  0  0  0  0  0  0  0
  152.4317  142.6788  159.5188 C   0  0  0  0  0  0  0  0  0  0  0  0
  150.2211  143.8053  159.2121 C   0  0  0  0  0  0  0  0  0  0  0  0
  151.2330  142.4290  157.3479 C   0  0  0  0  0  0  0  0  0  0  0  0
  150.3559  142.6919  156.3726 N   0  0  0  0  0  0  0  0  0  0  0  0
  150.3020  141.6517  155.5154 N   0  0  0  0  0  0  0  0  0  0  0  0
  151.1880  140.8103  156.0447 C   0  0  0  0  0  0  0  0  0  0  0  0
  151.4309  139.4658  155.4325 C   0  0  2  0  0  0  0  0  0  0  0  0
  150.4332  139.1561  154.2993 C   0  0  0  0  0  0  0  0  0  0  0  0
  150.6402  137.7977  153.7991 N   0  0  0  0  0  0  0  0  0  0  0  0
  150.5662  136.8191  154.8831 C   0  0  0  0  0  0  0  0  0  0  0  0
  151.5541  137.1855  156.0056 C   0  0  0  0  0  0  0  0  0  0  0  0
  151.2806  138.5022  156.4726 O   0  0  0  0  0  0  0  0  0  0  0  0
  151.7879  141.2280  157.2014 N   0  0  0  0  0  0  0  0  0  0  0  0
  152.4194  145.3505  158.7579 H   0  0  0  0  0  0  0  0  0  0  0  0
  151.5833  145.1536  157.2218 H   0  0  0  0  0  0  0  0  0  0  0  0
  153.1575  144.4094  157.4715 H   0  0  0  0  0  0  0  0  0  0  0  0
  153.3845  142.3878  159.0748 H   0  0  0  0  0  0  0  0  0  0  0  0
  151.9657  141.7761  159.9157 H   0  0  0  0  0  0  0  0  0  0  0  0
  152.6526  143.3336  160.3624 H   0  0  0  0  0  0  0  0  0  0  0  0
  150.4332  144.4945  160.0303 H   0  0  0  0  0  0  0  0  0  0  0  0
  149.6954  142.9505  159.6396 H   0  0  0  0  0  0  0  0  0  0  0  0
  149.5351  144.3122  158.5325 H   0  0  0  0  0  0  0  0  0  0  0  0
  152.4546  139.4323  155.0536 H   0  0  0  0  0  0  0  0  0  0  0  0
  149.4119  139.2612  154.6682 H   0  0  0  0  0  0  0  0  0  0  0  0
  150.5490  139.8754  153.4882 H   0  0  0  0  0  0  0  0  0  0  0  0
  149.5528  136.7867  155.2854 H   0  0  0  0  0  0  0  0  0  0  0  0
  150.7846  135.8214  154.5021 H   0  0  0  0  0  0  0  0  0  0  0  0
  151.4510  136.4889  156.8376 H   0  0  0  0  0  0  0  0  0  0  0  0
  152.5857  137.1143  155.6573 H   0  0  0  0  0  0  0  0  0  0  0  0
  149.9376  137.5829  153.0986 H   0  0  0  0  0  0  0  0  0  0  0  0
  149.7957  143.5250  156.2630 H   0  0  0  0  0  0  0  0  0  0  0  0
  1  2  1  0  0  0  0
  1 16  1  0  0  0  0
  1 17  1  0  0  0  0
  1 18  1  0  0  0  0
  2  3  1  0  0  0  0
  2  4  1  0  0  0  0
  2  5  1  0  0  0  0
  3 19  1  0  0  0  0
  3 20  1  0  0  0  0
  3 21  1  0  0  0  0
  4 22  1  0  0  0  0
  4 23  1  0  0  0  0
  4 24  1  0  0  0  0
  5 15  2  0  0  0  0
  5  6  1  0  0  0  0
  6  7  1  0  0  0  0
  6 33  1  0  0  0  0
  7  8  2  0  0  0  0
  8  9  1  0  0  0  0
  8 15  1  0  0  0  0
  9 14  1  0  0  0  0
  9 10  1  0  0  0  0
  9 25  1  0  0  0  0
 10 11  1  0  0  0  0
 10 26  1  0  0  0  0
 10 27  1  0  0  0  0
 11 12  1  0  0  0  0
 11 32  1  0  0  0  0
 12 13  1  0  0  0  0
 12 28  1  0  0  0  0
 12 29  1  0  0  0  0
 13 14  1  0  0  0  0
 13 30  1  0  0  0  0
 13 31  1  0  0  0  0
M  END
> <s_m_source_file>
AV-unprocessed.smi

> <i_m_source_file_index>
2567

> <i_lp_mmshare_version>
43012

> <i_f3d_flags>
0

> <s_epik_input>
W0NIM11DKFtDSDNdKShbQ0gzXSljMW5bbkhdYyhuMSlbQ0BASF0yW0NIMl1bTkhdW0NIMl1bQ0gyXU8y

> <s_epik_cmdline>
J2VwaWtfcHl0aG9uJywgJy1waCcsICc3LjAnLCAnLXRuJywgJzgnLCAnLW1hJywgJzIwMCcsICctbWV0YWxfYmluZGluZycsICctaW1hZScsICc8aW5maWxlLm1hZT4nLCAnLW9tYWUnLCAnPG91dGZpbGUubWFlPic=

> <r_lp_tautomer_probability>
0.948284

> <r_epik_Ionization_Penalty>
1.10045

> <r_epik_Ionization_Penalty_Charging>
0

> <r_epik_Ionization_Penalty_Neutral>
1.10045

> <r_epik_State_Penalty>
1.2625

> <r_epik_Charging_Adjusted_Penalty>
1.2625

> <i_epik_Tot_Q>
0

> <i_epik_Tot_abs_Q>
0

> <r_epik_Metal_State_Penalty>
1.57133

> <b_epik_Metal_Only>
0

> <s_lp_Force_Field>
OPLS_2005

> <r_lp_Energy>
14.8987

> <b_lp_Chiralities_Consistent>
1

> <s_lp_Variant>
AV-unprocessed.smi:2567-5

> <Gold.Version>
5.8.1

> <Gold.Id.Protein>
6NUR|6NUR_protein|mol2

> <Gold.PLP.Fitness>
36.0680

> <Gold.PLP.PLP>
-30.6084

> <Gold.PLP.part.hbond>
-3.5282

> <Gold.PLP.part.metal>
0.0000

> <Gold.PLP.part.buried>
-2.4256

> <Gold.PLP.part.nonpolar>
-24.3492

> <Gold.PLP.part.repulsive>
0.2043

> <Gold.PLP.ligand.clash>
0.0000

> <Gold.PLP.ligand.torsion>
0.2807

> <Gold.PLP.Chemscore.Hbond>
2.0000

> <Gold.PLP.Chemscore.CHOScore>
0.0000

> <Gold.PLP.Chemscore.Metal>
0.0000

> <Gold.Chemscore.Hbonds>
donor molecule, donor type, donor heavy atom, donor atom, acceptor molecule, acceptor atom, score
      L1  H     6    33       P1  8028  1.00
      L1  H    11    32       P1  7948  0.99

> <Gold.PLP.Chemscore.Internal.Correction>
0.0212

> <Gold.Rescore>
     Score         DG    S(hbond)    S(metal)    S(lipo)     H(rot)  DE(clash)    DE(int)     intcor
     15.61     -16.26       1.72        0.00      70.37       1.25       0.26       0.40       ----

> <Gold.Chemscore.Fitness>
15.6085

> <Gold.Chemscore.DG>
-16.2629

> <Gold.Chemscore.ZeroCoef>
-5.4800

> <Gold.Chemscore.Hbond>
1.7175

> <Gold.Chemscore.Metal>
0.0000

> <Gold.Chemscore.Lipo>
70.3748

> <Gold.Chemscore.Internal_Hbond>
0.0000

> <Gold.Chemscore.DEClash>
0.2550

> <Gold.Chemscore.DEInternal>
0.3994

> <Gold.Chemscore.Rot>
1.2450

> <Gold.Chemscore.Internal.Correction>
   9.000000E+99

> <Gold.Chemscore.Hbonds>
donor molecule, donor type, donor heavy atom, donor atom, acceptor molecule, acceptor atom, score
      L1  H     6    33       P1  8028  0.99
      L1  H    11    32       P1  7948  0.31

> <Gold.Chemscore.Hbond.Weighted>
-5.7363

> <Gold.Chemscore.Metal.Weighted>
-0.0000

> <Gold.Chemscore.Lipo.Weighted>
-8.2339

> <Gold.Chemscore.Internal_Hbond.Weighted>
0.0000

> <Gold.Chemscore.DEClash.Weighted>
0.2550

> <Gold.Chemscore.DEInternal.Weighted>
0.3994

> <Gold.Chemscore.Rot.Weighted>
3.1872

> <Gold.Chemscore.Internal.Correction.Weighted>
   9.000000E+99

> <Gold.Protein.RotatedTorsions>
[ 6907 6896 6895 6894 ] final -158.52 input  -60.11 | X-H torsion
[ 7974 7965 7964 7962 ] final   40.69 input  175.53 | X-H torsion
[ 8008 7997 7996 7995 ] final -153.59 input   59.86 | X-H torsion
[ 10167 10162 10161 10158 ] final  -92.24 input  -65.29 | X-H torsion
[ 10718 10713 10712 10709 ] final  178.34 input   66.30 | X-H torsion
[ 10763 10752 10751 10750 ] final   59.73 input  -60.55 | X-H torsion
[ 11005 11000 10999 10996 ] final   96.34 input  -57.11 | X-H torsion

> <Gold.Protein.ActiveResidues>
 VAL166  LYS551  ARG553  GLY616  TRP617  ASP618  TYR619  PRO620  LYS621  CYS622 
 ASP623  PHE694  ASN695  SER759  ASP760  ASP761  ALA762  ILE779  LEU786  VAL792 
 PHE793  MET794  SER795  GLU796  ALA797  LYS798  CYS799  TRP800  GLU811  SER814 

> <Gold.Protein.RotatedAtoms>
  151.3194  133.4046  159.2652 H   0  0  0  0  0  0  0  0  0  0  0  0  # atno 6907 bound_to 6896
  151.0047  134.9351  159.7984 H   0  0  0  0  0  0  0  0  0  0  0  0  # atno 6908 bound_to 6896
  152.5285  134.3159  159.9183 H   0  0  0  0  0  0  0  0  0  0  0  0  # atno 6909 bound_to 6896
  146.0884  139.5503  142.9492 H   0  0  0  0  0  0  0  0  0  0  0  0  # atno 7974 bound_to 7965
  155.6732  140.0736  157.2512 H   0  0  0  0  0  0  0  0  0  0  0  0  # atno 8008 bound_to 7997
  154.4119  140.1695  156.1953 H   0  0  0  0  0  0  0  0  0  0  0  0  # atno 8009 bound_to 7997
  155.9598  140.3370  155.6484 H   0  0  0  0  0  0  0  0  0  0  0  0  # atno 8010 bound_to 7997
  140.3368  143.2964  151.9880 H   0  0  0  0  0  0  0  0  0  0  0  0  # atno 10167 bound_to 10162
  156.8920  130.9850  151.3048 H   0  0  0  0  0  0  0  0  0  0  0  0  # atno 10718 bound_to 10713
  152.9902  135.5561  154.5760 H   0  0  0  0  0  0  0  0  0  0  0  0  # atno 10763 bound_to 10752
  154.5151  135.2804  155.1312 H   0  0  0  0  0  0  0  0  0  0  0  0  # atno 10764 bound_to 10752
  154.2688  135.6367  153.5355 H   0  0  0  0  0  0  0  0  0  0  0  0  # atno 10765 bound_to 10752
  139.8782  134.8945  156.4144 H   0  0  0  0  0  0  0  0  0  0  0  0  # atno 11005 bound_to 11000
  145.6086  141.0343  143.1979 LP  0  0  0  0  0  0  0  0  0  0  0  0  # atno 17320 bound_to 7965
  144.7342  139.7634  143.7335 LP  0  0  0  0  0  0  0  0  0  0  0  0  # atno 17321 bound_to 7965
  139.4847  144.6189  151.7292 LP  0  0  0  0  0  0  0  0  0  0  0  0  # atno 17342 bound_to 10162
  140.5346  144.0677  150.6065 LP  0  0  0  0  0  0  0  0  0  0  0  0  # atno 17343 bound_to 10162
  157.6078  130.8560  149.8902 LP  0  0  0  0  0  0  0  0  0  0  0  0  # atno 17370 bound_to 10713
  156.0624  130.3697  150.0953 LP  0  0  0  0  0  0  0  0  0  0  0  0  # atno 17371 bound_to 10713
  140.9178  133.7666  155.9869 LP  0  0  0  0  0  0  0  0  0  0  0  0  # atno 17394 bound_to 11000
  140.8474  134.2994  157.5289 LP  0  0  0  0  0  0  0  0  0  0  0  0  # atno 17395 bound_to 11000

$$$$
