AV-unprocessed.smi:1230|AV-procd|sdf|5155|dock5
  -GOLD-   22720 4223D 1   1.00000     0.00000
 Structure written by MMmdl.
 38 39  0  0  0  0  0  0  0  0  2 V2000
  153.2302  140.7524  159.8849 C   0  0  0  0  0  0  0  0  0  0  0  0
  152.4383  142.0376  160.1765 C   0  0  1  0  0  0  0  0  0  0  0  0
  152.9451  142.7054  161.4706 C   0  0  0  0  0  0  0  0  0  0  0  0
  152.1771  143.9980  161.7843 C   0  0  0  0  0  0  0  0  0  0  0  0
  152.2498  144.9799  160.6071 C   0  0  0  0  0  0  0  0  0  0  0  0
  151.7338  144.3295  159.3153 C   0  0  0  0  0  0  0  0  0  0  0  0
  152.4954  143.0266  158.9899 C   0  0  2  0  0  0  0  0  0  0  0  0
  151.8942  142.3933  157.8671 O   0  0  0  0  0  0  0  0  0  0  0  0
  150.5017  142.1531  158.0021 C   0  0  0  0  0  0  0  0  0  0  0  0
  150.0196  141.3814  156.7656 C   0  0  0  0  0  0  0  0  0  0  0  0
  150.6531  140.0595  156.6764 N   0  0  0  0  0  0  0  0  0  0  0  0
  151.0013  139.4234  157.8800 C   0  0  0  0  0  0  0  0  0  0  0  0
  151.5858  138.2105  157.8944 C   0  0  0  0  0  0  0  0  0  0  0  0
  151.9492  137.5435  159.1011 C   0  0  0  0  0  0  0  0  0  0  0  0
  152.2312  136.9757  160.0701 N   0  0  0  0  0  0  0  0  0  0  0  0
  151.8616  137.5512  156.6202 C   0  0  0  0  0  0  0  0  0  0  0  0
  152.3877  136.4390  156.6037 O   0  0  0  0  0  0  0  0  0  0  0  0
  151.5131  138.2202  155.4816 N   0  5  0  0  0  0  0  0  0  0  0  0
  150.9212  139.4556  155.4799 C   0  0  0  0  0  0  0  0  0  0  0  0
  150.6235  140.0409  154.4384 O   0  0  0  0  0  0  0  0  0  0  0  0
  154.2843  140.9680  159.7075 H   0  0  0  0  0  0  0  0  0  0  0  0
  152.8434  140.2379  159.0050 H   0  0  0  0  0  0  0  0  0  0  0  0
  153.1695  140.0562  160.7218 H   0  0  0  0  0  0  0  0  0  0  0  0
  151.3957  141.7560  160.3326 H   0  0  0  0  0  0  0  0  0  0  0  0
  152.8493  142.0141  162.3085 H   0  0  0  0  0  0  0  0  0  0  0  0
  154.0086  142.9301  161.3775 H   0  0  0  0  0  0  0  0  0  0  0  0
  151.1345  143.7621  162.0018 H   0  0  0  0  0  0  0  0  0  0  0  0
  152.5832  144.4635  162.6828 H   0  0  0  0  0  0  0  0  0  0  0  0
  151.6671  145.8737  160.8316 H   0  0  0  0  0  0  0  0  0  0  0  0
  153.2802  145.3085  160.4658 H   0  0  0  0  0  0  0  0  0  0  0  0
  150.6697  144.1134  159.4194 H   0  0  0  0  0  0  0  0  0  0  0  0
  151.8236  145.0423  158.4961 H   0  0  0  0  0  0  0  0  0  0  0  0
  153.5424  143.2553  158.7804 H   0  0  0  0  0  0  0  0  0  0  0  0
  150.2942  141.5813  158.9065 H   0  0  0  0  0  0  0  0  0  0  0  0
  149.9683  143.1016  158.0819 H   0  0  0  0  0  0  0  0  0  0  0  0
  148.9348  141.2745  156.8042 H   0  0  0  0  0  0  0  0  0  0  0  0
  150.2162  141.9621  155.8629 H   0  0  0  0  0  0  0  0  0  0  0  0
  150.7695  139.9774  158.7779 H   0  0  0  0  0  0  0  0  0  0  0  0
  1  2  1  0  0  0  0
  1 21  1  0  0  0  0
  1 22  1  0  0  0  0
  1 23  1  0  0  0  0
  2  7  1  0  0  0  0
  2  3  1  0  0  0  0
  2 24  1  0  0  0  0
  3  4  1  0  0  0  0
  3 25  1  0  0  0  0
  3 26  1  0  0  0  0
  4  5  1  0  0  0  0
  4 27  1  0  0  0  0
  4 28  1  0  0  0  0
  5  6  1  0  0  0  0
  5 29  1  0  0  0  0
  5 30  1  0  0  0  0
  6  7  1  0  0  0  0
  6 31  1  0  0  0  0
  6 32  1  0  0  0  0
  7  8  1  0  0  0  0
  7 33  1  0  0  0  0
  8  9  1  0  0  0  0
  9 10  1  0  0  0  0
  9 34  1  0  0  0  0
  9 35  1  0  0  0  0
 10 11  1  0  0  0  0
 10 36  1  0  0  0  0
 10 37  1  0  0  0  0
 11 19  1  0  0  0  0
 11 12  1  0  0  0  0
 12 13  2  0  0  0  0
 12 38  1  0  0  0  0
 13 14  1  0  0  0  0
 13 16  1  0  0  0  0
 14 15  3  0  0  0  0
 16 17  2  0  0  0  0
 16 18  1  0  0  0  0
 18 19  1  0  0  0  0
 19 20  2  0  0  0  0
M  CHG  1  18  -1
M  END
> <s_m_source_file>
AV-unprocessed.smi

> <i_m_source_file_index>
1230

> <i_lp_mmshare_version>
43012

> <i_f3d_flags>
0

> <s_epik_input>
W0NIM11bQ0BASF0xW0NIMl1bQ0gyXVtDSDJdW0NIMl1bQ0BIXTFPW0NIMl1bQ0gyXW4yW2NIXWMoQyNOKWMoPU8pW25IXWMyPU8=

> <s_epik_cmdline>
J2VwaWtfcHl0aG9uJywgJy1waCcsICc3LjAnLCAnLXRuJywgJzgnLCAnLW1hJywgJzIwMCcsICctbWV0YWxfYmluZGluZycsICctaW1hZScsICc8aW5maWxlLm1hZT4nLCAnLW9tYWUnLCAnPG91dGZpbGUubWFlPic=

> <r_epik_Ionization_Penalty>
0.400014

> <r_epik_Ionization_Penalty_Charging>
4.81474e-10

> <r_epik_Ionization_Penalty_Neutral>
0.400014

> <r_epik_State_Penalty>
0.399305

> <r_epik_Charging_Adjusted_Penalty>
0.399305

> <i_epik_Tot_Q>
-1

> <i_epik_Tot_abs_Q>
1

> <r_epik_Metal_State_Penalty>
0.00056968

> <b_epik_Metal_Only>
0

> <s_lp_Force_Field>
OPLS_2005

> <r_lp_Energy>
22.5171

> <b_lp_Chiralities_Consistent>
1

> <s_lp_Variant>
AV-unprocessed.smi:1230-4

> <Gold.Version>
5.8.1

> <Gold.Id.Protein>
6NUR|6NUR_protein|mol2

> <Gold.PLP.Fitness>
48.4670

> <Gold.PLP.PLP>
-40.2594

> <Gold.PLP.part.hbond>
-2.9623

> <Gold.PLP.part.metal>
0.0000

> <Gold.PLP.part.buried>
-5.8778

> <Gold.PLP.part.nonpolar>
-32.7121

> <Gold.PLP.part.repulsive>
0.1643

> <Gold.PLP.ligand.clash>
0.0000

> <Gold.PLP.ligand.torsion>
0.4004

> <Gold.PLP.Chemscore.Hbond>
3.0000

> <Gold.PLP.Chemscore.CHOScore>
0.0000

> <Gold.PLP.Chemscore.Metal>
0.0000

> <Gold.Chemscore.Hbonds>
donor molecule, donor type, donor heavy atom, donor atom, acceptor molecule, acceptor atom, score
      P1  H  6896  6909       L1    15  1.00
      P1  H  7989  7998       L1    20  1.00
      P1  H 10752 10765       L1    17  1.00

> <Gold.PLP.Chemscore.Internal.Correction>
0.0083

> <Gold.Rescore>
     Score         DG    S(hbond)    S(metal)    S(lipo)     H(rot)  DE(clash)    DE(int)     intcor
     21.01     -21.66       2.95        0.00      95.66       1.90       0.26       0.39       ----

> <Gold.Chemscore.Fitness>
21.0150

> <Gold.Chemscore.DG>
-21.6636

> <Gold.Chemscore.ZeroCoef>
-5.4800

> <Gold.Chemscore.Hbond>
2.9495

> <Gold.Chemscore.Metal>
0.0000

> <Gold.Chemscore.Lipo>
95.6582

> <Gold.Chemscore.Internal_Hbond>
0.0000

> <Gold.Chemscore.DEClash>
0.2593

> <Gold.Chemscore.DEInternal>
0.3894

> <Gold.Chemscore.Rot>
1.8984

> <Gold.Chemscore.Internal.Correction>
   9.000000E+99

> <Gold.Chemscore.Hbonds>
donor molecule, donor type, donor heavy atom, donor atom, acceptor molecule, acceptor atom, score
      P1  H  6896  6909       L1    15  0.91
      P1  H  7989  7998       L1    20  0.99
      P1  H 10752 10765       L1    17  0.99

> <Gold.Chemscore.Hbond.Weighted>
-9.8514

> <Gold.Chemscore.Metal.Weighted>
-0.0000

> <Gold.Chemscore.Lipo.Weighted>
-11.1920

> <Gold.Chemscore.Internal_Hbond.Weighted>
0.0000

> <Gold.Chemscore.DEClash.Weighted>
0.2593

> <Gold.Chemscore.DEInternal.Weighted>
0.3894

> <Gold.Chemscore.Rot.Weighted>
4.8598

> <Gold.Chemscore.Internal.Correction.Weighted>
   9.000000E+99

> <Gold.Protein.RotatedTorsions>
[ 6907 6896 6895 6894 ] final  136.38 input  -60.11 | X-H torsion
[ 7974 7965 7964 7962 ] final  -93.37 input  175.53 | X-H torsion
[ 8008 7997 7996 7995 ] final   74.48 input   59.86 | X-H torsion
[ 10167 10162 10161 10158 ] final -127.87 input  -65.29 | X-H torsion
[ 10718 10713 10712 10709 ] final   93.73 input   66.30 | X-H torsion
[ 10763 10752 10751 10750 ] final -137.48 input  -60.55 | X-H torsion
[ 11005 11000 10999 10996 ] final  -90.62 input  -57.11 | X-H torsion

> <Gold.Protein.ActiveResidues>
 VAL166  LYS551  ARG553  GLY616  TRP617  ASP618  TYR619  PRO620  LYS621  CYS622 
 ASP623  PHE694  ASN695  SER759  ASP760  ASP761  ALA762  ILE779  LEU786  VAL792 
 PHE793  MET794  SER795  GLU796  ALA797  LYS798  CYS799  TRP800  GLU811  SER814 

> <Gold.Protein.RotatedAtoms>
  152.2900  133.5552  159.5551 H   0  0  0  0  0  0  0  0  0  0  0  0  # atno 6907 bound_to 6896
  150.7231  134.0442  159.3785 H   0  0  0  0  0  0  0  0  0  0  0  0  # atno 6908 bound_to 6896
  151.8349  135.0610  160.0492 H   0  0  0  0  0  0  0  0  0  0  0  0  # atno 6909 bound_to 6896
  145.3875  140.9524  143.2359 H   0  0  0  0  0  0  0  0  0  0  0  0  # atno 7974 bound_to 7965
  155.7989  140.3477  155.5391 H   0  0  0  0  0  0  0  0  0  0  0  0  # atno 8008 bound_to 7997
  155.8558  140.0963  157.1666 H   0  0  0  0  0  0  0  0  0  0  0  0  # atno 8009 bound_to 7997
  154.4009  140.1368  156.3887 H   0  0  0  0  0  0  0  0  0  0  0  0  # atno 8010 bound_to 7997
  139.9563  143.5999  152.2459 H   0  0  0  0  0  0  0  0  0  0  0  0  # atno 10167 bound_to 10162
  157.6953  131.0488  150.4079 H   0  0  0  0  0  0  0  0  0  0  0  0  # atno 10718 bound_to 10713
  154.8661  135.3641  154.5229 H   0  0  0  0  0  0  0  0  0  0  0  0  # atno 10763 bound_to 10752
  153.5859  135.7017  153.5448 H   0  0  0  0  0  0  0  0  0  0  0  0  # atno 10764 bound_to 10752
  153.3416  135.4096  155.1538 H   0  0  0  0  0  0  0  0  0  0  0  0  # atno 10765 bound_to 10752
  141.1562  133.7703  156.9763 H   0  0  0  0  0  0  0  0  0  0  0  0  # atno 11005 bound_to 11000
  144.8464  139.5391  143.6877 LP  0  0  0  0  0  0  0  0  0  0  0  0  # atno 17320 bound_to 7965
  146.2813  139.6885  142.9227 LP  0  0  0  0  0  0  0  0  0  0  0  0  # atno 17321 bound_to 7965
  139.6589  144.7662  151.2002 LP  0  0  0  0  0  0  0  0  0  0  0  0  # atno 17342 bound_to 10162
  140.7567  143.6042  150.8669 LP  0  0  0  0  0  0  0  0  0  0  0  0  # atno 17343 bound_to 10162
  156.4466  130.4003  149.6663 LP  0  0  0  0  0  0  0  0  0  0  0  0  # atno 17370 bound_to 10713
  156.3827  130.7587  151.2581 LP  0  0  0  0  0  0  0  0  0  0  0  0  # atno 17371 bound_to 10713
  140.1095  134.9485  157.2045 LP  0  0  0  0  0  0  0  0  0  0  0  0  # atno 17394 bound_to 11000
  140.3212  134.2914  155.7246 LP  0  0  0  0  0  0  0  0  0  0  0  0  # atno 17395 bound_to 11000

$$$$
