AV-unprocessed.smi:1633|AV-procd|sdf|6533|dock4
  -GOLD-   22720 7213D 1   1.00000     0.00000
 Structure written by MMmdl.
 51 53  0  0  0  0  0  0  0  0  2 V2000
  144.6433  141.4346  159.4445 C   0  0  0  0  0  0  0  0  0  0  0  0
  144.3964  142.2253  158.1579 C   0  0  0  0  0  0  0  0  0  0  0  0
  143.2353  142.3530  157.7704 O   0  0  0  0  0  0  0  0  0  0  0  0
  145.4503  142.7564  157.4932 N   0  0  0  0  0  0  0  0  0  0  0  0
  145.3830  143.4483  156.2033 C   0  0  0  0  0  0  0  0  0  0  0  0
  146.0497  142.5674  155.1307 C   0  0  0  0  0  0  0  0  0  0  0  0
  147.4456  142.2043  155.5083 N   0  3  0  0  0  0  0  0  0  0  0  0
  148.1155  141.3283  154.5137 C   0  0  0  0  0  0  0  0  0  0  0  0
  149.4597  140.7495  155.0129 C   0  0  1  0  0  0  0  0  0  0  0  0
  150.1174  140.1091  153.9380 O   0  0  0  0  0  0  0  0  0  0  0  0
  150.4162  141.8250  155.5651 C   0  0  0  0  0  0  0  0  0  0  0  0
  151.2786  141.3122  156.6138 N   0  0  0  0  0  0  0  0  0  0  0  0
  151.9589  140.1499  156.6053 C   0  0  0  0  0  0  0  0  0  0  0  0
  152.6798  139.8591  157.6839 N   0  0  0  0  0  0  0  0  0  0  0  0
  152.4481  140.9660  158.4822 C   0  0  0  0  0  0  0  0  0  0  0  0
  152.9226  141.2805  159.7743 C   0  0  0  0  0  0  0  0  0  0  0  0
  152.5449  142.4836  160.4122 C   0  0  0  0  0  0  0  0  0  0  0  0
  153.0782  142.7809  161.8027 C   0  0  0  0  0  0  0  0  0  0  0  0
  151.6796  143.3952  159.7555 C   0  0  0  0  0  0  0  0  0  0  0  0
  151.2609  144.6939  160.4217 C   0  0  0  0  0  0  0  0  0  0  0  0
  151.1971  143.0970  158.4640 C   0  0  0  0  0  0  0  0  0  0  0  0
  151.5791  141.8960  157.8402 C   0  0  0  0  0  0  0  0  0  0  0  0
  147.5437  141.6505  156.8863 C   0  0  0  0  0  0  0  0  0  0  0  0
  146.8389  142.5542  157.9141 C   0  0  0  0  0  0  0  0  0  0  0  0
  145.1283  142.0578  160.1963 H   0  0  0  0  0  0  0  0  0  0  0  0
  145.2675  140.5625  159.2489 H   0  0  0  0  0  0  0  0  0  0  0  0
  143.7008  141.0813  159.8638 H   0  0  0  0  0  0  0  0  0  0  0  0
  144.3699  143.7025  155.8948 H   0  0  0  0  0  0  0  0  0  0  0  0
  145.9098  144.4004  156.2828 H   0  0  0  0  0  0  0  0  0  0  0  0
  145.4637  141.6574  154.9901 H   0  0  0  0  0  0  0  0  0  0  0  0
  146.0389  143.0991  154.1803 H   0  0  0  0  0  0  0  0  0  0  0  0
  147.4588  140.4963  154.2535 H   0  0  0  0  0  0  0  0  0  0  0  0
  148.2503  141.9023  153.5966 H   0  0  0  0  0  0  0  0  0  0  0  0
  149.2958  140.0107  155.7967 H   0  0  0  0  0  0  0  0  0  0  0  0
  149.6062  140.2224  153.1518 H   0  0  0  0  0  0  0  0  0  0  0  0
  151.0483  142.2161  154.7664 H   0  0  0  0  0  0  0  0  0  0  0  0
  149.8543  142.6729  155.9591 H   0  0  0  0  0  0  0  0  0  0  0  0
  151.9150  139.4749  155.7629 H   0  0  0  0  0  0  0  0  0  0  0  0
  153.5817  140.5863  160.2745 H   0  0  0  0  0  0  0  0  0  0  0  0
  153.6488  143.7096  161.8032 H   0  0  0  0  0  0  0  0  0  0  0  0
  153.7353  141.9856  162.1557 H   0  0  0  0  0  0  0  0  0  0  0  0
  152.2576  142.8776  162.5136 H   0  0  0  0  0  0  0  0  0  0  0  0
  150.6011  145.2769  159.7786 H   0  0  0  0  0  0  0  0  0  0  0  0
  152.1339  145.3065  160.6471 H   0  0  0  0  0  0  0  0  0  0  0  0
  150.7294  144.4924  161.3520 H   0  0  0  0  0  0  0  0  0  0  0  0
  150.5371  143.7830  157.9540 H   0  0  0  0  0  0  0  0  0  0  0  0
  147.0992  140.6538  156.9064 H   0  0  0  0  0  0  0  0  0  0  0  0
  148.5928  141.5354  157.1613 H   0  0  0  0  0  0  0  0  0  0  0  0
  147.3415  143.5207  157.9724 H   0  0  0  0  0  0  0  0  0  0  0  0
  146.9216  142.1164  158.9098 H   0  0  0  0  0  0  0  0  0  0  0  0
  147.9703  143.0667  155.5283 H   0  0  0  0  0  0  0  0  0  0  0  0
  1  2  1  0  0  0  0
  1 25  1  0  0  0  0
  1 26  1  0  0  0  0
  1 27  1  0  0  0  0
  2  3  2  0  0  0  0
  2  4  1  0  0  0  0
  4 24  1  0  0  0  0
  4  5  1  0  0  0  0
  5  6  1  0  0  0  0
  5 28  1  0  0  0  0
  5 29  1  0  0  0  0
  6  7  1  0  0  0  0
  6 30  1  0  0  0  0
  6 31  1  0  0  0  0
  7  8  1  0  0  0  0
  7 23  1  0  0  0  0
  7 51  1  0  0  0  0
  8  9  1  0  0  0  0
  8 32  1  0  0  0  0
  8 33  1  0  0  0  0
  9 10  1  0  0  0  0
  9 11  1  0  0  0  0
  9 34  1  0  0  0  0
 10 35  1  0  0  0  0
 11 12  1  0  0  0  0
 11 36  1  0  0  0  0
 11 37  1  0  0  0  0
 12 22  1  0  0  0  0
 12 13  1  0  0  0  0
 13 14  2  0  0  0  0
 13 38  1  0  0  0  0
 14 15  1  0  0  0  0
 15 22  2  0  0  0  0
 15 16  1  0  0  0  0
 16 17  2  0  0  0  0
 16 39  1  0  0  0  0
 17 18  1  0  0  0  0
 17 19  1  0  0  0  0
 18 40  1  0  0  0  0
 18 41  1  0  0  0  0
 18 42  1  0  0  0  0
 19 20  1  0  0  0  0
 19 21  2  0  0  0  0
 20 43  1  0  0  0  0
 20 44  1  0  0  0  0
 20 45  1  0  0  0  0
 21 22  1  0  0  0  0
 21 46  1  0  0  0  0
 23 24  1  0  0  0  0
 23 47  1  0  0  0  0
 23 48  1  0  0  0  0
 24 49  1  0  0  0  0
 24 50  1  0  0  0  0
M  CHG  1   7   1
M  END
> <s_m_source_file>
AV-unprocessed.smi

> <i_m_source_file_index>
1633

> <i_lp_mmshare_version>
43012

> <i_f3d_flags>
0

> <s_epik_input>
W0NIM11DKD1PKU4xW0NIMl1bQ0gyXU4oW0NIMl1bQ0gyXTEpW0NIMl1bQ0BIXShbT0hdKVtDSDJdbihbY0hdbjIpYyhjMjMpW2NIXWMoW0NIM10pYyhbY0hdMylbQ0gzXQ==

> <s_epik_cmdline>
J2VwaWtfcHl0aG9uJywgJy1waCcsICc3LjAnLCAnLXRuJywgJzgnLCAnLW1hJywgJzIwMCcsICctbWV0YWxfYmluZGluZycsICctaW1hZScsICc8aW5maWxlLm1hZT4nLCAnLW9tYWUnLCAnPG91dGZpbGUubWFlPic=

> <r_epik_Ionization_Penalty>
0.0939669

> <r_epik_Ionization_Penalty_Charging>
0.00645254

> <r_epik_Ionization_Penalty_Neutral>
0.0875144

> <r_epik_State_Penalty>
0.0777239

> <r_epik_Charging_Adjusted_Penalty>
0.0841764

> <i_epik_Tot_Q>
1

> <i_epik_Tot_abs_Q>
1

> <r_epik_Metal_State_Penalty>
7.71307e-05

> <b_epik_Metal_Only>
0

> <s_lp_Force_Field>
OPLS_2005

> <r_lp_Energy>
45.1144

> <b_lp_Chiralities_Consistent>
1

> <s_lp_Variant>
AV-unprocessed.smi:1633-2

> <Gold.Version>
5.8.1

> <Gold.Id.Protein>
6NUR|6NUR_protein|mol2

> <Gold.PLP.Fitness>
59.2521

> <Gold.PLP.PLP>
-46.1965

> <Gold.PLP.part.hbond>
-4.0000

> <Gold.PLP.part.metal>
0.0000

> <Gold.PLP.part.buried>
-7.3005

> <Gold.PLP.part.nonpolar>
-34.7004

> <Gold.PLP.part.repulsive>
0.0665

> <Gold.PLP.ligand.clash>
0.0000

> <Gold.PLP.ligand.torsion>
0.7159

> <Gold.PLP.Chemscore.Hbond>
4.7920

> <Gold.PLP.Chemscore.CHOScore>
0.0000

> <Gold.PLP.Chemscore.Metal>
0.0000

> <Gold.Chemscore.Hbonds>
donor molecule, donor type, donor heavy atom, donor atom, acceptor molecule, acceptor atom, score
      L1  H     7    51       P1  8028  2.00
      L1  H    10    35       P1  7957  0.90
      P1  H  7989  7998       L1    10  0.88
      P1  H  7997  8008       L1    14  1.00

> <Gold.PLP.Chemscore.Internal.Correction>
0.1114

> <Gold.Rescore>
     Score         DG    S(hbond)    S(metal)    S(lipo)     H(rot)  DE(clash)    DE(int)     intcor
     19.90     -20.99       2.36        0.00     112.59       2.16       0.49       0.60       ----

> <Gold.Chemscore.Fitness>
19.9009

> <Gold.Chemscore.DG>
-20.9881

> <Gold.Chemscore.ZeroCoef>
-5.4800

> <Gold.Chemscore.Hbond>
2.3555

> <Gold.Chemscore.Metal>
0.0000

> <Gold.Chemscore.Lipo>
112.5863

> <Gold.Chemscore.Internal_Hbond>
0.0000

> <Gold.Chemscore.DEClash>
0.4917

> <Gold.Chemscore.DEInternal>
0.5955

> <Gold.Chemscore.Rot>
2.1608

> <Gold.Chemscore.Internal.Correction>
   9.000000E+99

> <Gold.Chemscore.Hbonds>
donor molecule, donor type, donor heavy atom, donor atom, acceptor molecule, acceptor atom, score
      L1  H     7    51       P1  8028  0.74
      L1  H    10    35       P1  7957  0.85
      P1  H  7989  7998       L1    10  0.23
      P1  H  7997  8008       L1    14  0.15

> <Gold.Chemscore.Hbond.Weighted>
-7.8672

> <Gold.Chemscore.Metal.Weighted>
-0.0000

> <Gold.Chemscore.Lipo.Weighted>
-13.1726

> <Gold.Chemscore.Internal_Hbond.Weighted>
0.0000

> <Gold.Chemscore.DEClash.Weighted>
0.4917

> <Gold.Chemscore.DEInternal.Weighted>
0.5955

> <Gold.Chemscore.Rot.Weighted>
5.5317

> <Gold.Chemscore.Internal.Correction.Weighted>
   9.000000E+99

> <Gold.Protein.RotatedTorsions>
[ 6907 6896 6895 6894 ] final  -56.81 input  -60.11 | X-H torsion
[ 7974 7965 7964 7962 ] final  101.91 input  175.53 | X-H torsion
[ 8008 7997 7996 7995 ] final  -82.66 input   59.86 | X-H torsion
[ 10167 10162 10161 10158 ] final  -94.11 input  -65.29 | X-H torsion
[ 10718 10713 10712 10709 ] final -106.16 input   66.30 | X-H torsion
[ 10763 10752 10751 10750 ] final  140.92 input  -60.55 | X-H torsion
[ 11005 11000 10999 10996 ] final -130.16 input  -57.11 | X-H torsion

> <Gold.Protein.ActiveResidues>
 VAL166  LYS551  ARG553  GLY616  TRP617  ASP618  TYR619  PRO620  LYS621  CYS622 
 ASP623  PHE694  ASN695  SER759  ASP760  ASP761  ALA762  ILE779  LEU786  VAL792 
 PHE793  MET794  SER795  GLU796  ALA797  LYS798  CYS799  TRP800  GLU811  SER814 

> <Gold.Protein.RotatedAtoms>
  150.8137  134.7306  159.6710 H   0  0  0  0  0  0  0  0  0  0  0  0  # atno 6907 bound_to 6896
  152.4256  134.5871  159.9974 H   0  0  0  0  0  0  0  0  0  0  0  0  # atno 6908 bound_to 6896
  151.6074  133.3313  159.3096 H   0  0  0  0  0  0  0  0  0  0  0  0  # atno 6909 bound_to 6896
  145.3660  139.2408  143.3481 H   0  0  0  0  0  0  0  0  0  0  0  0  # atno 7974 bound_to 7965
  154.6109  140.0630  156.9493 H   0  0  0  0  0  0  0  0  0  0  0  0  # atno 8008 bound_to 7997
  155.1974  140.3312  155.4330 H   0  0  0  0  0  0  0  0  0  0  0  0  # atno 8009 bound_to 7997
  156.2376  140.1870  156.7060 H   0  0  0  0  0  0  0  0  0  0  0  0  # atno 8010 bound_to 7997
  140.3178  143.3067  152.0079 H   0  0  0  0  0  0  0  0  0  0  0  0  # atno 10167 bound_to 10162
  156.0378  130.5599  150.7642 H   0  0  0  0  0  0  0  0  0  0  0  0  # atno 10718 bound_to 10713
  153.9307  135.2990  155.3446 H   0  0  0  0  0  0  0  0  0  0  0  0  # atno 10763 bound_to 10752
  154.7528  135.4972  153.9323 H   0  0  0  0  0  0  0  0  0  0  0  0  # atno 10764 bound_to 10752
  153.1093  135.6755  153.9634 H   0  0  0  0  0  0  0  0  0  0  0  0  # atno 10765 bound_to 10752
  140.9370  134.1244  157.4185 H   0  0  0  0  0  0  0  0  0  0  0  0  # atno 11005 bound_to 11000
  146.2906  140.4303  142.8741 LP  0  0  0  0  0  0  0  0  0  0  0  0  # atno 17320 bound_to 7965
  144.8611  140.7140  143.6107 LP  0  0  0  0  0  0  0  0  0  0  0  0  # atno 17321 bound_to 7965
  139.4880  144.6335  151.7023 LP  0  0  0  0  0  0  0  0  0  0  0  0  # atno 17342 bound_to 10162
  140.5511  144.0424  150.6127 LP  0  0  0  0  0  0  0  0  0  0  0  0  # atno 17343 bound_to 10162
  157.5153  131.0928  151.0147 LP  0  0  0  0  0  0  0  0  0  0  0  0  # atno 17370 bound_to 10713
  157.0492  130.5780  149.5367 LP  0  0  0  0  0  0  0  0  0  0  0  0  # atno 17371 bound_to 10713
  139.8810  135.0024  156.6125 LP  0  0  0  0  0  0  0  0  0  0  0  0  # atno 17394 bound_to 11000
  140.7786  133.8679  155.8549 LP  0  0  0  0  0  0  0  0  0  0  0  0  # atno 17395 bound_to 11000

$$$$
