AV-unprocessed.smi:1869|AV-procd|sdf|7592|dock8
  -GOLD-   22720 9303D 1   1.00000     0.00000
 Structure written by MMmdl.
 39 40  0  0  0  0  0  0  0  0  1 V2000
  145.8615  137.1800  152.2013 C   0  0  0  0  0  0  0  0  0  0  0  0
  146.7677  137.9967  151.4810 O   0  0  0  0  0  0  0  0  0  0  0  0
  146.6743  139.3640  151.8452 C   0  0  0  0  0  0  0  0  0  0  0  0
  146.9245  139.5013  153.3501 C   0  0  0  0  0  0  0  0  0  0  0  0
  148.2189  138.9871  153.6491 O   0  0  0  0  0  0  0  0  0  0  0  0
  149.0212  139.6891  154.5249 C   0  0  0  0  0  0  0  0  0  0  0  0
  150.3021  139.1809  154.8187 C   0  0  0  0  0  0  0  0  0  0  0  0
  151.1297  139.8920  155.7085 C   0  0  0  0  0  0  0  0  0  0  0  0
  150.6504  141.0985  156.2713 C   0  0  0  0  0  0  0  0  0  0  0  0
  151.3810  141.8943  157.1941 N   0  0  0  0  0  0  0  0  0  0  0  0
  152.1564  141.4941  158.2216 C   0  0  0  0  0  0  0  0  0  0  0  0
  152.3474  140.3101  158.5017 O   0  0  0  0  0  0  0  0  0  0  0  0
  152.7297  142.5107  158.9169 N   0  0  0  0  0  0  0  0  0  0  0  0
  153.7616  142.3775  159.9593 C   0  0  0  0  0  0  0  0  0  0  0  0
  153.0879  142.4178  161.3408 C   0  0  0  0  0  0  0  0  0  0  0  0
  152.2656  144.0182  161.6165 S   0  0  0  0  0  0  0  0  0  0  0  0
  151.3164  144.1469  160.0684 C   0  0  0  0  0  0  0  0  0  0  0  0
  152.2121  143.8828  158.8460 C   0  0  0  0  0  0  0  0  0  0  0  0
  149.3468  141.5115  155.9274 C   0  0  0  0  0  0  0  0  0  0  0  0
  148.5488  140.8353  155.0746 N   0  0  0  0  0  0  0  0  0  0  0  0
  145.9700  136.1434  151.8820 H   0  0  0  0  0  0  0  0  0  0  0  0
  144.8286  137.4812  152.0214 H   0  0  0  0  0  0  0  0  0  0  0  0
  146.0579  137.2239  153.2734 H   0  0  0  0  0  0  0  0  0  0  0  0
  147.4287  139.9317  151.2985 H   0  0  0  0  0  0  0  0  0  0  0  0
  145.6987  139.7749  151.5812 H   0  0  0  0  0  0  0  0  0  0  0  0
  146.8306  140.5457  153.6527 H   0  0  0  0  0  0  0  0  0  0  0  0
  146.1727  138.9255  153.8920 H   0  0  0  0  0  0  0  0  0  0  0  0
  150.6433  138.2588  154.3716 H   0  0  0  0  0  0  0  0  0  0  0  0
  152.1028  139.4933  155.9502 H   0  0  0  0  0  0  0  0  0  0  0  0
  151.3736  142.8870  157.0104 H   0  0  0  0  0  0  0  0  0  0  0  0
  154.3578  141.4704  159.8600 H   0  0  0  0  0  0  0  0  0  0  0  0
  154.4818  143.1928  159.8750 H   0  0  0  0  0  0  0  0  0  0  0  0
  152.3524  141.6175  161.4305 H   0  0  0  0  0  0  0  0  0  0  0  0
  153.8256  142.2642  162.1285 H   0  0  0  0  0  0  0  0  0  0  0  0
  150.4915  143.4339  160.0967 H   0  0  0  0  0  0  0  0  0  0  0  0
  150.8757  145.1422  160.0098 H   0  0  0  0  0  0  0  0  0  0  0  0
  153.0368  144.5965  158.8215 H   0  0  0  0  0  0  0  0  0  0  0  0
  151.6497  144.0631  157.9288 H   0  0  0  0  0  0  0  0  0  0  0  0
  148.9310  142.4172  156.3447 H   0  0  0  0  0  0  0  0  0  0  0  0
  1  2  1  0  0  0  0
  1 21  1  0  0  0  0
  1 22  1  0  0  0  0
  1 23  1  0  0  0  0
  2  3  1  0  0  0  0
  3  4  1  0  0  0  0
  3 24  1  0  0  0  0
  3 25  1  0  0  0  0
  4  5  1  0  0  0  0
  4 26  1  0  0  0  0
  4 27  1  0  0  0  0
  5  6  1  0  0  0  0
  6 20  1  0  0  0  0
  6  7  2  0  0  0  0
  7  8  1  0  0  0  0
  7 28  1  0  0  0  0
  8  9  2  0  0  0  0
  8 29  1  0  0  0  0
  9 10  1  0  0  0  0
  9 19  1  0  0  0  0
 10 11  1  0  0  0  0
 10 30  1  0  0  0  0
 11 12  2  0  0  0  0
 11 13  1  0  0  0  0
 13 18  1  0  0  0  0
 13 14  1  0  0  0  0
 14 15  1  0  0  0  0
 14 31  1  0  0  0  0
 14 32  1  0  0  0  0
 15 16  1  0  0  0  0
 15 33  1  0  0  0  0
 15 34  1  0  0  0  0
 16 17  1  0  0  0  0
 17 18  1  0  0  0  0
 17 35  1  0  0  0  0
 17 36  1  0  0  0  0
 18 37  1  0  0  0  0
 18 38  1  0  0  0  0
 19 20  2  0  0  0  0
 19 39  1  0  0  0  0
M  END
> <s_m_source_file>
AV-unprocessed.smi

> <i_m_source_file_index>
1869

> <i_lp_mmshare_version>
43012

> <i_f3d_flags>
0

> <s_epik_input>
W0NIM11PW0NIMl1bQ0gyXU9jMVtjSF1bY0hdYyhbY0hdbjEpW05IXUMoPU8pTjJbQ0gyXVtDSDJdU1tDSDJdW0NIMl0y

> <s_epik_cmdline>
J2VwaWtfcHl0aG9uJywgJy1waCcsICc3LjAnLCAnLXRuJywgJzgnLCAnLW1hJywgJzIwMCcsICctbWV0YWxfYmluZGluZycsICctaW1hZScsICc8aW5maWxlLm1hZT4nLCAnLW9tYWUnLCAnPG91dGZpbGUubWFlPic=

> <r_lp_tautomer_probability>
1

> <r_epik_Ionization_Penalty>
6.51674e-05

> <r_epik_Ionization_Penalty_Charging>
0

> <r_epik_Ionization_Penalty_Neutral>
6.51674e-05

> <r_epik_State_Penalty>
-0

> <r_epik_Charging_Adjusted_Penalty>
0

> <i_epik_Tot_Q>
0

> <i_epik_Tot_abs_Q>
0

> <r_epik_Metal_State_Penalty>
-0

> <b_epik_Metal_Only>
0

> <s_lp_Force_Field>
OPLS_2005

> <r_lp_Energy>
28.6984

> <b_lp_Chiralities_Consistent>
1

> <s_lp_Variant>
AV-unprocessed.smi:1869-1

> <Gold.Version>
5.8.1

> <Gold.Id.Protein>
6NUR|6NUR_protein|mol2

> <Gold.PLP.Fitness>
46.0166

> <Gold.PLP.PLP>
-42.6520

> <Gold.PLP.part.hbond>
-1.0000

> <Gold.PLP.part.metal>
0.0000

> <Gold.PLP.part.buried>
-1.4745

> <Gold.PLP.part.nonpolar>
-43.3815

> <Gold.PLP.part.repulsive>
4.0743

> <Gold.PLP.ligand.clash>
1.2466

> <Gold.PLP.ligand.torsion>
0.7217

> <Gold.PLP.Chemscore.Hbond>
1.0000

> <Gold.PLP.Chemscore.CHOScore>
1.0000

> <Gold.PLP.Chemscore.Metal>
0.0000

> <Gold.Chemscore.Hbonds>
donor molecule, donor type, donor heavy atom, donor atom, acceptor molecule, acceptor atom, score
      P1  H  7954  7966       L1     2  0.78
      L1  C    19    39       P1  8028  1.00

> <Gold.PLP.Chemscore.Internal.Correction>
0.0545

> <Gold.Rescore>
     Score         DG    S(hbond)    S(metal)    S(lipo)     H(rot)  DE(clash)    DE(int)     intcor
     13.61     -17.44       0.96        0.00     110.13       1.61       2.18       1.65       ----

> <Gold.Chemscore.Fitness>
13.6096

> <Gold.Chemscore.DG>
-17.4445

> <Gold.Chemscore.ZeroCoef>
-5.4800

> <Gold.Chemscore.Hbond>
0.9566

> <Gold.Chemscore.Metal>
0.0000

> <Gold.Chemscore.Lipo>
110.1329

> <Gold.Chemscore.Internal_Hbond>
0.0000

> <Gold.Chemscore.DEClash>
2.1827

> <Gold.Chemscore.DEInternal>
1.6522

> <Gold.Chemscore.Rot>
1.6078

> <Gold.Chemscore.Internal.Correction>
   9.000000E+99

> <Gold.Chemscore.Hbonds>
donor molecule, donor type, donor heavy atom, donor atom, acceptor molecule, acceptor atom, score
      P1  H  7954  7966       L1     2  0.46

> <Gold.Chemscore.Hbond.Weighted>
-3.1950

> <Gold.Chemscore.Metal.Weighted>
-0.0000

> <Gold.Chemscore.Lipo.Weighted>
-12.8855

> <Gold.Chemscore.Internal_Hbond.Weighted>
0.0000

> <Gold.Chemscore.DEClash.Weighted>
2.1827

> <Gold.Chemscore.DEInternal.Weighted>
1.6522

> <Gold.Chemscore.Rot.Weighted>
4.1161

> <Gold.Chemscore.Internal.Correction.Weighted>
   9.000000E+99

> <Gold.Protein.RotatedTorsions>
[ 6907 6896 6895 6894 ] final -178.32 input  -60.11 | X-H torsion
[ 7974 7965 7964 7962 ] final  -74.94 input  175.53 | X-H torsion
[ 8008 7997 7996 7995 ] final   47.41 input   59.86 | X-H torsion
[ 10167 10162 10161 10158 ] final -178.13 input  -65.29 | X-H torsion
[ 10718 10713 10712 10709 ] final   36.03 input   66.30 | X-H torsion
[ 10763 10752 10751 10750 ] final  -46.90 input  -60.55 | X-H torsion
[ 11005 11000 10999 10996 ] final  -13.39 input  -57.11 | X-H torsion

> <Gold.Protein.ActiveResidues>
 VAL166  LYS551  ARG553  GLY616  TRP617  ASP618  TYR619  PRO620  LYS621  CYS622 
 ASP623  PHE694  ASN695  SER759  ASP760  ASP761  ALA762  ILE779  LEU786  VAL792 
 PHE793  MET794  SER795  GLU796  ALA797  LYS798  CYS799  TRP800  GLU811  SER814 

> <Gold.Protein.RotatedAtoms>
  151.6352  133.3329  159.3117 H   0  0  0  0  0  0  0  0  0  0  0  0  # atno 6907 bound_to 6896
  150.8036  134.7150  159.6635 H   0  0  0  0  0  0  0  0  0  0  0  0  # atno 6908 bound_to 6896
  152.4130  134.6096  160.0073 H   0  0  0  0  0  0  0  0  0  0  0  0  # atno 6909 bound_to 6896
  145.6325  140.9334  143.1079 H   0  0  0  0  0  0  0  0  0  0  0  0  # atno 7974 bound_to 7965
  155.3687  140.3422  155.4242 H   0  0  0  0  0  0  0  0  0  0  0  0  # atno 8008 bound_to 7997
  156.1674  140.1620  156.8541 H   0  0  0  0  0  0  0  0  0  0  0  0  # atno 8009 bound_to 7997
  154.5199  140.0769  156.8134 H   0  0  0  0  0  0  0  0  0  0  0  0  # atno 8010 bound_to 7997
  139.5447  144.2268  152.0964 H   0  0  0  0  0  0  0  0  0  0  0  0  # atno 10167 bound_to 10162
  157.3299  130.7492  149.6841 H   0  0  0  0  0  0  0  0  0  0  0  0  # atno 10718 bound_to 10713
  154.0525  135.6629  153.4802 H   0  0  0  0  0  0  0  0  0  0  0  0  # atno 10763 bound_to 10752
  153.0458  135.5115  154.7737 H   0  0  0  0  0  0  0  0  0  0  0  0  # atno 10764 bound_to 10752
  154.6748  135.3035  154.9660 H   0  0  0  0  0  0  0  0  0  0  0  0  # atno 10765 bound_to 10752
  140.7756  133.8404  155.9245 H   0  0  0  0  0  0  0  0  0  0  0  0  # atno 11005 bound_to 11000
  144.7188  139.8102  143.7389 LP  0  0  0  0  0  0  0  0  0  0  0  0  # atno 17320 bound_to 7965
  146.1345  139.4387  143.0148 LP  0  0  0  0  0  0  0  0  0  0  0  0  # atno 17321 bound_to 7965
  140.1753  144.4897  150.6557 LP  0  0  0  0  0  0  0  0  0  0  0  0  # atno 17342 bound_to 10162
  140.6690  143.2278  151.5671 LP  0  0  0  0  0  0  0  0  0  0  0  0  # atno 17343 bound_to 10162
  155.9694  130.4198  150.4393 LP  0  0  0  0  0  0  0  0  0  0  0  0  # atno 17370 bound_to 10713
  157.2423  131.0528  151.2429 LP  0  0  0  0  0  0  0  0  0  0  0  0  # atno 17371 bound_to 10713
  140.9532  134.1751  157.4711 LP  0  0  0  0  0  0  0  0  0  0  0  0  # atno 17394 bound_to 11000
  139.8749  134.9917  156.5562 LP  0  0  0  0  0  0  0  0  0  0  0  0  # atno 17395 bound_to 11000

$$$$
