#       Name:                AV-unprocessed.smi:946
#       Creating user name   scv26
#       Creation time:       Fri Mar 27 02:14:42 2020


#       File generated by GOLD software.
#

@<TRIPOS>MOLECULE
AV-unprocessed.smi:946
    49    50     1
SMALL
NO_CHARGES


@<TRIPOS>ATOM
      1 ****        -1.5006  -2.5826   2.3034 C.3            1 S1                 0.0000
      2 ****        -1.0622  -1.8664   1.0180 C.3            1 S1                 0.0000
      3 ****         0.3616  -1.8901   0.9838 O.3            1 S1                 0.0000
      4 ****         0.9491  -1.5611  -0.2694 C.3            1 S1                 0.0000
      5 ****         2.4738  -1.6667  -0.1352 C.3            1 S1                 0.0000
      6 ****         3.1779  -1.6559  -1.5061 C.3            1 S1                 0.0000
      7 ****         4.7007  -1.6756  -1.3284 C.3            1 S1                 0.0000
      8 ****         5.1277  -0.5363  -0.3971 C.3            1 S1                 0.0000
      9 ****         4.3214  -0.5846   0.9106 C.3            1 S1                 0.0000
     10 ****         2.9273  -0.5467   0.6225 O.3            1 S1                 0.0000
     11 ****        -1.5708  -0.4164   0.9906 C.2            1 S1                 0.0000
     12 ****        -1.2603   0.3545   1.8994 O.2            1 S1                 0.0000
     13 ****        -2.3334  -0.0839  -0.0681 N.am           1 S1                 0.0000
     14 ****        -2.9461   1.1648  -0.3534 C.ar           1 S1                 0.0000
     15 ****        -3.7313   1.1932  -1.5269 C.ar           1 S1                 0.0000
     16 ****        -4.3845   2.3851  -1.8937 C.ar           1 S1                 0.0000
     17 ****        -4.2355   3.5205  -1.0779 C.ar           1 S1                 0.0000
     18 ****        -3.4322   3.4132   0.0774 C.ar           1 S1                 0.0000
     19 ****        -3.2164   4.5943   1.0132 C.3            1 S1                 0.0000
     20 ****        -3.8693   5.6800   0.5964 F              1 S1                 0.0000
     21 ****        -3.6501   4.2849   2.2352 F              1 S1                 0.0000
     22 ****        -1.9166   4.8836   1.0787 F              1 S1                 0.0000
     23 ****        -2.8073   2.2656   0.4254 N.ar           1 S1                 0.0000
     24 ****        -2.5872  -2.6019   2.3953 H              1 S1                 0.0000
     25 ****        -1.0968  -2.0964   3.1925 H              1 S1                 0.0000
     26 ****        -1.1517  -3.6155   2.3079 H              1 S1                 0.0000
     27 ****        -1.4566  -2.4198   0.1636 H              1 S1                 0.0000
     28 ****         0.5942  -2.2693  -1.0195 H              1 S1                 0.0000
     29 ****         0.6688  -0.5616  -0.6042 H              1 S1                 0.0000
     30 ****         2.7205  -2.5916   0.3897 H              1 S1                 0.0000
     31 ****         2.8625  -2.5134  -2.1015 H              1 S1                 0.0000
     32 ****         2.8867  -0.7641  -2.0628 H              1 S1                 0.0000
     33 ****         5.0084  -2.6319  -0.9035 H              1 S1                 0.0000
     34 ****         5.1994  -1.5859  -2.2938 H              1 S1                 0.0000
     35 ****         6.1953  -0.6010  -0.1857 H              1 S1                 0.0000
     36 ****         4.9634   0.4224  -0.8906 H              1 S1                 0.0000
     37 ****         4.5607  -1.4816   1.4837 H              1 S1                 0.0000
     38 ****         4.5741   0.2703   1.5379 H              1 S1                 0.0000
     39 ****        -2.5052  -0.8163  -0.7410 H              1 S1                 0.0000
     40 ****        -3.8378   0.3114  -2.1420 H              1 S1                 0.0000
     41 ****        -4.9912   2.4265  -2.7864 H              1 S1                 0.0000
     42 ****        -4.7286   4.4450  -1.3392 H              1 S1                 0.0000
     43 ****         0.6605  -2.8115   1.2319 LP             1 S1                 0.0000
     44 ****         0.6971  -1.2367   1.6625 LP             1 S1                 0.0000
     45 ****         2.4255  -0.5251   1.4873 LP             1 S1                 0.0000
     46 ****         2.7335   0.2861   0.1039 LP             1 S1                 0.0000
     47 ****        -0.6806   0.0358   2.6493 LP             1 S1                 0.0000
     48 ****        -1.5880   1.2993   1.8875 LP             1 S1                 0.0000
     49 ****        -2.2462   2.2293   1.2523 LP             1 S1                 0.0000
@<TRIPOS>BOND
    1    1    2 1     
    2    1   24 1     
    3    1   25 1     
    4    1   26 1     
    5    2    3 1     
    6    2   11 1     
    7    2   27 1     
    8    3    4 1     
    9    4    5 1     
   10    4   28 1     
   11    4   29 1     
   12    5   10 1     
   13    5    6 1     
   14    5   30 1     
   15    6    7 1     
   16    6   31 1     
   17    6   32 1     
   18    7    8 1     
   19    7   33 1     
   20    7   34 1     
   21    8    9 1     
   22    8   35 1     
   23    8   36 1     
   24    9   10 1     
   25    9   37 1     
   26    9   38 1     
   27   11   12 2     
   28   11   13 am    
   29   13   14 1     
   30   13   39 1     
   31   14   23 ar    
   32   14   15 ar    
   33   15   16 ar    
   34   15   40 1     
   35   16   17 ar    
   36   16   41 1     
   37   17   18 ar    
   38   17   42 1     
   39   18   19 1     
   40   18   23 ar    
   41   19   20 1     
   42   19   21 1     
   43   19   22 1     
   44    3   43 1     
   45    3   44 1     
   46   10   45 1     
   47   10   46 1     
   48   12   47 1     
   49   12   48 1     
   50   23   49 1     
@<TRIPOS>SUBSTRUCTURE
      1 S1             1
@<TRIPOS>SET
LONE_PAIRS      STATIC     ATOMS    <user>   **** ""
7 43 44 45 46 47 48 49
DONOR_HYDROGENS      STATIC     ATOMS    <user>   **** ""
1 39
ATOM$BLUE        STATIC     ATOMS    COLORGROUP SYSTEM
7 43 44 45 46 47 48 49
ATOM$RED        STATIC     ATOMS    COLORGROUP SYSTEM
1 39
