#       Name:                AV-unprocessed.smi:750
#       Creating user name   scv26
#       Creation time:       Fri Mar 27 00:58:29 2020


#       File generated by GOLD software.
#

@<TRIPOS>MOLECULE
AV-unprocessed.smi:750
    28    29     1
SMALL
NO_CHARGES


@<TRIPOS>ATOM
      1 ****        -1.9813  -0.5861  -0.6347 C.3            1 S1                 0.0000
      2 ****        -0.4417  -0.5206  -0.5786 C.3            1 S1                 0.0000
      3 ****         0.0666   0.3271   0.5981 C.ar           1 S1                 0.0000
      4 ****        -0.3654   1.6643   0.7607 C.ar           1 S1                 0.0000
      5 ****         0.1132   2.4198   1.8475 C.ar           1 S1                 0.0000
      6 ****         1.0120   1.8100   2.7423 C.ar           1 S1                 0.0000
      7 ****         1.4367   0.5367   2.6080 N.ar           1 S1                 0.0000
      8 ****         0.9729  -0.1802   1.5618 C.ar           1 S1                 0.0000
      9 ****         0.1114  -1.8690  -0.6180 N.am           1 S1                 0.0000
     10 ****         0.8964  -2.0843  -1.6823 C.2            1 S1                 0.0000
     11 ****         1.4971  -3.1247  -1.9395 O.2            1 S1                 0.0000
     12 ****         0.9019  -0.9697  -2.4182 N.am           1 S1                 0.0000
     13 ****         0.1463  -0.0081  -1.8910 C.2            1 S1                 0.0000
     14 ****        -0.0582   1.1067  -2.3693 O.2            1 S1                 0.0000
     15 ****        -2.4290   0.4025  -0.7390 H              1 S1                 0.0000
     16 ****        -2.3857  -1.0359   0.2725 H              1 S1                 0.0000
     17 ****        -2.3264  -1.1857  -1.4784 H              1 S1                 0.0000
     18 ****        -1.0526   2.1137   0.0595 H              1 S1                 0.0000
     19 ****        -0.2006   3.4431   1.9904 H              1 S1                 0.0000
     20 ****         1.4006   2.3592   3.5871 H              1 S1                 0.0000
     21 ****         1.3475  -1.1912   1.5064 H              1 S1                 0.0000
     22 ****        -0.0711  -2.5551   0.1000 H              1 S1                 0.0000
     23 ****         1.4084  -0.8728  -3.2861 H              1 S1                 0.0000
     24 ****         2.0762   0.1355   3.2639 LP             1 S1                 0.0000
     25 ****         1.4223  -3.9102  -1.3251 LP             1 S1                 0.0000
     26 ****         2.0609  -3.1860  -2.7631 LP             1 S1                 0.0000
     27 ****        -0.6498   1.7554  -1.8905 LP             1 S1                 0.0000
     28 ****         0.3672   1.3643  -3.2369 LP             1 S1                 0.0000
@<TRIPOS>BOND
    1    1    2 1     
    2    1   15 1     
    3    1   16 1     
    4    1   17 1     
    5    2   13 1     
    6    2    3 1     
    7    2    9 1     
    8    3    8 ar    
    9    3    4 ar    
   10    4    5 ar    
   11    4   18 1     
   12    5    6 ar    
   13    5   19 1     
   14    6    7 ar    
   15    6   20 1     
   16    7    8 ar    
   17    8   21 1     
   18    9   10 am    
   19    9   22 1     
   20   10   11 2     
   21   10   12 am    
   22   12   13 am    
   23   12   23 1     
   24   13   14 2     
   25    7   24 1     
   26   11   25 1     
   27   11   26 1     
   28   14   27 1     
   29   14   28 1     
@<TRIPOS>SUBSTRUCTURE
      1 S1             1
@<TRIPOS>SET
LONE_PAIRS      STATIC     ATOMS    <user>   **** ""
5 24 25 26 27 28
DONOR_HYDROGENS      STATIC     ATOMS    <user>   **** ""
2 22 23
ATOM$BLUE        STATIC     ATOMS    COLORGROUP SYSTEM
5 24 25 26 27 28
ATOM$RED        STATIC     ATOMS    COLORGROUP SYSTEM
2 22 23
