AV-unprocessed.smi:181|AV-procd|sdf|1454|dock6
  -GOLD-   2262019253D 1   1.00000     0.00000
 Structure written by MMmdl.
 50 53  0  0  0  0  0  0  0  0  1 V2000
  148.1276  140.8797  155.2009 C   0  0  0  0  0  0  0  0  0  0  0  0
  148.7947  140.6706  156.5657 C   0  0  0  0  0  0  0  0  0  0  0  0
  150.2439  140.4796  156.4709 N   0  0  0  0  0  0  0  0  0  0  0  0
  150.6808  139.3903  155.7847 C   0  0  0  0  0  0  0  0  0  0  0  0
  151.7315  139.5079  154.9324 N   0  0  0  0  0  0  0  0  0  0  0  0
  152.1716  138.4470  154.2502 C   0  0  0  0  0  0  0  0  0  0  0  0
  151.7173  137.1930  154.2744 N   0  0  0  0  0  0  0  0  0  0  0  0
  150.6706  137.0635  155.1385 C   0  0  0  0  0  0  0  0  0  0  0  0
  150.0925  138.1013  155.9233 C   0  0  0  0  0  0  0  0  0  0  0  0
  149.0508  137.5901  156.6886 N   0  0  0  0  0  0  0  0  0  0  0  0
  149.0072  136.3269  156.3647 C   0  0  0  0  0  0  0  0  0  0  0  0
  149.9518  135.9222  155.4487 N   0  0  0  0  0  0  0  0  0  0  0  0
  150.1331  134.5781  154.9215 C   0  0  0  0  0  0  0  0  0  0  0  0
  148.8138  133.8737  154.5157 C   0  0  0  0  0  0  0  0  0  0  0  0
  148.0359  134.8006  153.7785 O   0  0  0  0  0  0  0  0  0  0  0  0
  149.0486  132.6273  153.6338 C   0  0  0  0  0  0  0  0  0  0  0  0
  147.7566  131.8192  153.4162 C   0  0  0  0  0  0  0  0  0  0  0  0
  147.1779  131.4726  154.6684 O   0  0  0  0  0  0  0  0  0  0  0  0
  146.7850  132.6106  155.4256 C   0  0  0  0  0  0  0  0  0  0  0  0
  148.0186  133.4631  155.7715 C   0  0  0  0  0  0  0  0  0  0  0  0
  151.1618  141.5481  156.9036 C   0  0  1  0  0  0  0  0  0  0  0  0
  150.4521  142.7216  157.6079 C   0  0  0  0  0  0  0  0  0  0  0  0
  151.4900  143.2601  158.6037 C   0  0  0  0  0  0  0  0  0  0  0  0
  152.4088  142.1538  158.7988 N   0  0  0  0  0  0  0  0  0  0  0  0
  152.2533  141.1756  157.9070 C   0  0  0  0  0  0  0  0  0  0  0  0
  152.8966  140.1287  157.8766 O   0  0  0  0  0  0  0  0  0  0  0  0
  147.0449  140.9470  155.3078 H   0  0  0  0  0  0  0  0  0  0  0  0
  148.3442  140.0519  154.5251 H   0  0  0  0  0  0  0  0  0  0  0  0
  148.4649  141.8022  154.7292 H   0  0  0  0  0  0  0  0  0  0  0  0
  148.5967  141.5305  157.2063 H   0  0  0  0  0  0  0  0  0  0  0  0
  148.3132  139.8235  157.0536 H   0  0  0  0  0  0  0  0  0  0  0  0
  153.0079  138.6291  153.5919 H   0  0  0  0  0  0  0  0  0  0  0  0
  148.2862  135.6482  156.7964 H   0  0  0  0  0  0  0  0  0  0  0  0
  150.7978  134.6464  154.0593 H   0  0  0  0  0  0  0  0  0  0  0  0
  150.6663  133.9862  155.6668 H   0  0  0  0  0  0  0  0  0  0  0  0
  148.6062  135.2730  153.1915 H   0  0  0  0  0  0  0  0  0  0  0  0
  149.4687  132.9070  152.6671 H   0  0  0  0  0  0  0  0  0  0  0  0
  149.7848  131.9811  154.1137 H   0  0  0  0  0  0  0  0  0  0  0  0
  147.0394  132.3792  152.8142 H   0  0  0  0  0  0  0  0  0  0  0  0
  147.9793  130.9037  152.8681 H   0  0  0  0  0  0  0  0  0  0  0  0
  146.0453  133.1927  154.8735 H   0  0  0  0  0  0  0  0  0  0  0  0
  146.2991  132.2713  156.3404 H   0  0  0  0  0  0  0  0  0  0  0  0
  148.6630  132.8814  156.4322 H   0  0  0  0  0  0  0  0  0  0  0  0
  147.7171  134.3447  156.3390 H   0  0  0  0  0  0  0  0  0  0  0  0
  151.6786  141.9363  156.0246 H   0  0  0  0  0  0  0  0  0  0  0  0
  150.1241  143.4863  156.9032 H   0  0  0  0  0  0  0  0  0  0  0  0
  149.5710  142.3959  158.1615 H   0  0  0  0  0  0  0  0  0  0  0  0
  152.0348  144.1074  158.1856 H   0  0  0  0  0  0  0  0  0  0  0  0
  151.0350  143.5714  159.5444 H   0  0  0  0  0  0  0  0  0  0  0  0
  153.0742  142.1257  159.5578 H   0  0  0  0  0  0  0  0  0  0  0  0
  1  2  1  0  0  0  0
  1 27  1  0  0  0  0
  1 28  1  0  0  0  0
  1 29  1  0  0  0  0
  2  3  1  0  0  0  0
  2 30  1  0  0  0  0
  2 31  1  0  0  0  0
  3  4  1  0  0  0  0
  3 21  1  0  0  0  0
  4  9  1  0  0  0  0
  4  5  2  0  0  0  0
  5  6  1  0  0  0  0
  6  7  2  0  0  0  0
  6 32  1  0  0  0  0
  7  8  1  0  0  0  0
  8 12  1  0  0  0  0
  8  9  2  0  0  0  0
  9 10  1  0  0  0  0
 10 11  2  0  0  0  0
 11 12  1  0  0  0  0
 11 33  1  0  0  0  0
 12 13  1  0  0  0  0
 13 14  1  0  0  0  0
 13 34  1  0  0  0  0
 13 35  1  0  0  0  0
 14 20  1  0  0  0  0
 14 15  1  0  0  0  0
 14 16  1  0  0  0  0
 15 36  1  0  0  0  0
 16 17  1  0  0  0  0
 16 37  1  0  0  0  0
 16 38  1  0  0  0  0
 17 18  1  0  0  0  0
 17 39  1  0  0  0  0
 17 40  1  0  0  0  0
 18 19  1  0  0  0  0
 19 20  1  0  0  0  0
 19 41  1  0  0  0  0
 19 42  1  0  0  0  0
 20 43  1  0  0  0  0
 20 44  1  0  0  0  0
 21 25  1  0  0  0  0
 21 22  1  0  0  0  0
 21 45  1  0  0  0  0
 22 23  1  0  0  0  0
 22 46  1  0  0  0  0
 22 47  1  0  0  0  0
 23 24  1  0  0  0  0
 23 48  1  0  0  0  0
 23 49  1  0  0  0  0
 24 25  1  0  0  0  0
 24 50  1  0  0  0  0
 25 26  2  0  0  0  0
M  END
> <s_m_source_file>
AV-unprocessed.smi

> <i_m_source_file_index>
181

> <i_lp_mmshare_version>
43012

> <i_f3d_flags>
0

> <s_epik_input>
Tz1DMVtOSF1bQ0gyXVtDSDJdW0NASF0xTihbQ0gyXVtDSDNdKWMobltjSF1uMiljKGMyMyluW2NIXW4zW0NIMl1DNChbT0hdKVtDSDJdW0NIMl1PW0NIMl1bQ0gyXTQ=

> <s_epik_cmdline>
J2VwaWtfcHl0aG9uJywgJy1waCcsICc3LjAnLCAnLXRuJywgJzgnLCAnLW1hJywgJzIwMCcsICctbWV0YWxfYmluZGluZycsICctaW1hZScsICc8aW5maWxlLm1hZT4nLCAnLW9tYWUnLCAnPG91dGZpbGUubWFlPic=

> <r_lp_tautomer_probability>
1

> <r_epik_Ionization_Penalty>
0.000985257

> <r_epik_Ionization_Penalty_Charging>
0

> <r_epik_Ionization_Penalty_Neutral>
0.000985257

> <r_epik_State_Penalty>
0.000517047

> <r_epik_Charging_Adjusted_Penalty>
0.000517047

> <i_epik_Tot_Q>
0

> <i_epik_Tot_abs_Q>
0

> <r_epik_Metal_State_Penalty>
-0

> <b_epik_Metal_Only>
0

> <s_lp_Force_Field>
OPLS_2005

> <r_lp_Energy>
36.1044

> <b_lp_Chiralities_Consistent>
1

> <s_lp_Variant>
AV-unprocessed.smi:181-2

> <Gold.Version>
5.8.1

> <Gold.Id.Protein>
6NUR|6NUR_protein|mol2

> <Gold.PLP.Fitness>
44.0545

> <Gold.PLP.PLP>
-34.3768

> <Gold.PLP.part.hbond>
-3.5147

> <Gold.PLP.part.metal>
0.0000

> <Gold.PLP.part.buried>
-6.8873

> <Gold.PLP.part.nonpolar>
-25.1638

> <Gold.PLP.part.repulsive>
0.3469

> <Gold.PLP.ligand.clash>
0.0000

> <Gold.PLP.ligand.torsion>
1.0413

> <Gold.PLP.Chemscore.Hbond>
3.8283

> <Gold.PLP.Chemscore.CHOScore>
0.0000

> <Gold.PLP.Chemscore.Metal>
0.0000

> <Gold.Chemscore.Hbonds>
donor molecule, donor type, donor heavy atom, donor atom, acceptor molecule, acceptor atom, score
      L1  H    15    36       P1  7948  1.00
      P1  H  7989  7998       L1     5  1.00
      P1  H  7997  8010       L1    26  0.98
      P1  H 10752 10763       L1     7  1.00

> <Gold.PLP.Chemscore.Internal.Correction>
0.2757

> <Gold.Rescore>
     Score         DG    S(hbond)    S(metal)    S(lipo)     H(rot)  DE(clash)    DE(int)     intcor
     12.95     -14.83       2.73        0.00      56.45       2.49       0.05       1.84       ----

> <Gold.Chemscore.Fitness>
12.9494

> <Gold.Chemscore.DG>
-14.8315

> <Gold.Chemscore.ZeroCoef>
-5.4800

> <Gold.Chemscore.Hbond>
2.7307

> <Gold.Chemscore.Metal>
0.0000

> <Gold.Chemscore.Lipo>
56.4484

> <Gold.Chemscore.Internal_Hbond>
0.0000

> <Gold.Chemscore.DEClash>
0.0458

> <Gold.Chemscore.DEInternal>
1.8362

> <Gold.Chemscore.Rot>
2.4897

> <Gold.Chemscore.Internal.Correction>
   9.000000E+99

> <Gold.Chemscore.Hbonds>
donor molecule, donor type, donor heavy atom, donor atom, acceptor molecule, acceptor atom, score
      L1  H    15    36       P1  7948  0.84
      P1  H  7989  7998       L1     5  0.28
      P1  H  7997  8010       L1    26  0.91
      P1  H 10752 10763       L1     7  0.89

> <Gold.Chemscore.Hbond.Weighted>
-9.1205

> <Gold.Chemscore.Metal.Weighted>
-0.0000

> <Gold.Chemscore.Lipo.Weighted>
-6.6045

> <Gold.Chemscore.Internal_Hbond.Weighted>
0.0000

> <Gold.Chemscore.DEClash.Weighted>
0.0458

> <Gold.Chemscore.DEInternal.Weighted>
1.8362

> <Gold.Chemscore.Rot.Weighted>
6.3735

> <Gold.Chemscore.Internal.Correction.Weighted>
   9.000000E+99

> <Gold.Protein.RotatedTorsions>
[ 6907 6896 6895 6894 ] final   24.87 input  -60.11 | X-H torsion
[ 7974 7965 7964 7962 ] final   65.92 input  175.53 | X-H torsion
[ 8008 7997 7996 7995 ] final   35.96 input   59.86 | X-H torsion
[ 10167 10162 10161 10158 ] final -139.95 input  -65.29 | X-H torsion
[ 10718 10713 10712 10709 ] final  -86.99 input   66.30 | X-H torsion
[ 10763 10752 10751 10750 ] final   30.43 input  -60.55 | X-H torsion
[ 11005 11000 10999 10996 ] final   23.33 input  -57.11 | X-H torsion

> <Gold.Protein.ActiveResidues>
 VAL166  LYS551  ARG553  GLY616  TRP617  ASP618  TYR619  PRO620  LYS621  CYS622 
 ASP623  PHE694  ASN695  SER759  ASP760  ASP761  ALA762  ILE779  LEU786  VAL792 
 PHE793  MET794  SER795  GLU796  ALA797  LYS798  CYS799  TRP800  GLU811  SER814 

> <Gold.Protein.RotatedAtoms>
  151.9641  135.0109  160.0548 H   0  0  0  0  0  0  0  0  0  0  0  0  # atno 6907 bound_to 6896
  152.1842  133.4724  159.4982 H   0  0  0  0  0  0  0  0  0  0  0  0  # atno 6908 bound_to 6896
  150.6923  134.1712  159.4256 H   0  0  0  0  0  0  0  0  0  0  0  0  # atno 6909 bound_to 6896
  145.8328  139.3149  143.0977 H   0  0  0  0  0  0  0  0  0  0  0  0  # atno 7974 bound_to 7965
  155.1795  140.3298  155.4377 H   0  0  0  0  0  0  0  0  0  0  0  0  # atno 8008 bound_to 7997
  156.2481  140.1929  156.6844 H   0  0  0  0  0  0  0  0  0  0  0  0  # atno 8009 bound_to 7997
  154.6281  140.0586  156.9684 H   0  0  0  0  0  0  0  0  0  0  0  0  # atno 8010 bound_to 7997
  139.8329  143.7423  152.2665 H   0  0  0  0  0  0  0  0  0  0  0  0  # atno 10167 bound_to 10162
  155.9987  130.4784  150.4799 H   0  0  0  0  0  0  0  0  0  0  0  0  # atno 10718 bound_to 10713
  153.0372  135.6464  154.1043 H   0  0  0  0  0  0  0  0  0  0  0  0  # atno 10763 bound_to 10752
  154.0756  135.2877  155.3301 H   0  0  0  0  0  0  0  0  0  0  0  0  # atno 10764 bound_to 10752
  154.6565  135.5407  153.8029 H   0  0  0  0  0  0  0  0  0  0  0  0  # atno 10765 bound_to 10752
  140.3708  134.2025  155.7667 H   0  0  0  0  0  0  0  0  0  0  0  0  # atno 11005 bound_to 11000
  145.9552  140.8878  143.0239 LP  0  0  0  0  0  0  0  0  0  0  0  0  # atno 17320 bound_to 7965
  144.6738  140.1735  143.7412 LP  0  0  0  0  0  0  0  0  0  0  0  0  # atno 17321 bound_to 7965
  139.7636  144.7499  151.0327 LP  0  0  0  0  0  0  0  0  0  0  0  0  # atno 17342 bound_to 10162
  140.7805  143.4723  151.0129 LP  0  0  0  0  0  0  0  0  0  0  0  0  # atno 17343 bound_to 10162
  157.2805  131.0606  151.2200 LP  0  0  0  0  0  0  0  0  0  0  0  0  # atno 17370 bound_to 10713
  157.3248  130.6955  149.6290 LP  0  0  0  0  0  0  0  0  0  0  0  0  # atno 17371 bound_to 10713
  141.1955  133.8104  157.0712 LP  0  0  0  0  0  0  0  0  0  0  0  0  # atno 17394 bound_to 11000
  140.0553  134.9784  157.1210 LP  0  0  0  0  0  0  0  0  0  0  0  0  # atno 17395 bound_to 11000

$$$$
