AV-unprocessed.smi:1220|AV-procd|sdf|5116|dock6
  -GOLD-   22720 4173D 1   1.00000     0.00000
 Structure written by MMmdl.
 35 36  0  0  0  0  0  0  0  0  1 V2000
  149.7161  141.4688  157.8443 C   0  0  0  0  0  0  0  0  0  0  0  0
  151.2057  141.1823  158.0758 C   0  0  2  0  0  0  0  0  0  0  0  0
  152.0737  142.4173  157.7498 C   0  0  0  0  0  0  0  0  0  0  0  0
  152.0784  143.3981  158.8220 N   0  0  0  0  0  0  0  0  0  0  0  0
  151.8273  144.7519  158.7460 C   0  0  0  0  0  0  0  0  0  0  0  0
  151.9167  145.2535  160.0129 C   0  0  0  0  0  0  0  0  0  0  0  0
  152.2375  144.1160  160.8051 C   0  0  0  0  0  0  0  0  0  0  0  0
  152.3384  143.0079  160.0891 N   0  0  0  0  0  0  0  0  0  0  0  0
  151.6033  140.0360  157.2589 N   0  0  0  0  0  0  0  0  0  0  0  0
  151.3096  139.8625  155.9600 C   0  0  0  0  0  0  0  0  0  0  0  0
  150.7082  140.7001  155.2865 O   0  0  0  0  0  0  0  0  0  0  0  0
  151.7468  138.5297  155.3329 C   0  0  1  0  0  0  0  0  0  0  0  0
  153.2363  138.2357  155.6262 C   0  0  0  0  0  0  0  0  0  0  0  0
  153.3707  137.5887  157.0082 C   0  0  0  0  0  0  0  0  0  0  0  0
  151.8764  136.5512  157.2008 S   0  0  0  0  0  0  0  0  0  0  0  0
  152.1897  135.1724  156.7956 O   0  0  0  0  0  0  0  0  0  0  0  0
  151.2552  136.8334  158.5036 O   0  0  0  0  0  0  0  0  0  0  0  0
  150.9041  137.3501  155.8628 C   0  0  0  0  0  0  0  0  0  0  0  0
  149.3766  142.3005  158.4624 H   0  0  0  0  0  0  0  0  0  0  0  0
  149.1051  140.6016  158.0969 H   0  0  0  0  0  0  0  0  0  0  0  0
  149.5168  141.7253  156.8032 H   0  0  0  0  0  0  0  0  0  0  0  0
  151.3255  140.9425  159.1339 H   0  0  0  0  0  0  0  0  0  0  0  0
  153.1005  142.1174  157.5331 H   0  0  0  0  0  0  0  0  0  0  0  0
  151.6985  142.9094  156.8516 H   0  0  0  0  0  0  0  0  0  0  0  0
  151.5986  145.2372  157.8087 H   0  0  0  0  0  0  0  0  0  0  0  0
  151.7721  146.2766  160.3266 H   0  0  0  0  0  0  0  0  0  0  0  0
  152.3986  144.0625  161.8717 H   0  0  0  0  0  0  0  0  0  0  0  0
  152.1019  139.2959  157.7312 H   0  0  0  0  0  0  0  0  0  0  0  0
  151.6039  138.6088  154.2539 H   0  0  0  0  0  0  0  0  0  0  0  0
  153.6067  137.5378  154.8743 H   0  0  0  0  0  0  0  0  0  0  0  0
  153.8581  139.1285  155.5488 H   0  0  0  0  0  0  0  0  0  0  0  0
  154.2703  136.9825  157.1149 H   0  0  0  0  0  0  0  0  0  0  0  0
  153.3639  138.3448  157.7938 H   0  0  0  0  0  0  0  0  0  0  0  0
  149.9280  137.6461  156.2500 H   0  0  0  0  0  0  0  0  0  0  0  0
  150.7408  136.6110  155.0787 H   0  0  0  0  0  0  0  0  0  0  0  0
  1  2  1  0  0  0  0
  1 19  1  0  0  0  0
  1 20  1  0  0  0  0
  1 21  1  0  0  0  0
  2  3  1  0  0  0  0
  2  9  1  0  0  0  0
  2 22  1  0  0  0  0
  3  4  1  0  0  0  0
  3 23  1  0  0  0  0
  3 24  1  0  0  0  0
  4  8  1  0  0  0  0
  4  5  1  0  0  0  0
  5  6  2  0  0  0  0
  5 25  1  0  0  0  0
  6  7  1  0  0  0  0
  6 26  1  0  0  0  0
  7  8  2  0  0  0  0
  7 27  1  0  0  0  0
  9 10  1  0  0  0  0
  9 28  1  0  0  0  0
 10 11  2  0  0  0  0
 10 12  1  0  0  0  0
 12 18  1  0  0  0  0
 12 13  1  0  0  0  0
 12 29  1  0  0  0  0
 13 14  1  0  0  0  0
 13 30  1  0  0  0  0
 13 31  1  0  0  0  0
 14 15  1  0  0  0  0
 14 32  1  0  0  0  0
 14 33  1  0  0  0  0
 15 16  2  0  0  0  0
 15 17  2  0  0  0  0
 15 18  1  0  0  0  0
 18 34  1  0  0  0  0
 18 35  1  0  0  0  0
M  END
> <s_m_source_file>
AV-unprocessed.smi

> <i_m_source_file_index>
1220

> <i_lp_mmshare_version>
43012

> <i_f3d_flags>
0

> <s_epik_input>
bjFbY0hdW2NIXVtjSF1uMVtDSDJdW0NAQEhdKFtDSDNdKVtOSF1DKD1PKVtDQEBIXShbQ0gyXTIpW0NIMl1bQ0gyXVMyKD1PKT1P

> <s_epik_cmdline>
J2VwaWtfcHl0aG9uJywgJy1waCcsICc3LjAnLCAnLXRuJywgJzgnLCAnLW1hJywgJzIwMCcsICctbWV0YWxfYmluZGluZycsICctaW1hZScsICc8aW5maWxlLm1hZT4nLCAnLW9tYWUnLCAnPG91dGZpbGUubWFlPic=

> <r_lp_tautomer_probability>
1

> <r_epik_Ionization_Penalty>
0.000293905

> <r_epik_Ionization_Penalty_Charging>
0

> <r_epik_Ionization_Penalty_Neutral>
0.000293905

> <r_epik_State_Penalty>
-0

> <r_epik_Charging_Adjusted_Penalty>
0

> <i_epik_Tot_Q>
0

> <i_epik_Tot_abs_Q>
0

> <r_epik_Metal_State_Penalty>
-0

> <b_epik_Metal_Only>
0

> <s_lp_Force_Field>
OPLS_2005

> <r_lp_Energy>
1.9569

> <b_lp_Chiralities_Consistent>
1

> <s_lp_Variant>
AV-unprocessed.smi:1220-3

> <Gold.Version>
5.8.1

> <Gold.Id.Protein>
6NUR|6NUR_protein|mol2

> <Gold.PLP.Fitness>
39.2086

> <Gold.PLP.PLP>
-33.2384

> <Gold.PLP.part.hbond>
-2.9938

> <Gold.PLP.part.metal>
0.0000

> <Gold.PLP.part.buried>
-5.5925

> <Gold.PLP.part.nonpolar>
-25.2706

> <Gold.PLP.part.repulsive>
0.1461

> <Gold.PLP.ligand.clash>
0.0000

> <Gold.PLP.ligand.torsion>
0.6581

> <Gold.PLP.Chemscore.Hbond>
2.4233

> <Gold.PLP.Chemscore.CHOScore>
0.0000

> <Gold.PLP.Chemscore.Metal>
0.0000

> <Gold.Chemscore.Hbonds>
donor molecule, donor type, donor heavy atom, donor atom, acceptor molecule, acceptor atom, score
      P1  H  6896  6907       L1    17  0.50
      P1  H  7989  7998       L1    11  0.88
      P1  H 10752 10764       L1    16  1.00

> <Gold.PLP.Chemscore.Internal.Correction>
0.0166

> <Gold.Rescore>
     Score         DG    S(hbond)    S(metal)    S(lipo)     H(rot)  DE(clash)    DE(int)     intcor
     12.55     -16.08       1.79        0.00      77.76       1.75       0.50       3.03       ----

> <Gold.Chemscore.Fitness>
12.5544

> <Gold.Chemscore.DG>
-16.0838

> <Gold.Chemscore.ZeroCoef>
-5.4800

> <Gold.Chemscore.Hbond>
1.7891

> <Gold.Chemscore.Metal>
0.0000

> <Gold.Chemscore.Lipo>
77.7585

> <Gold.Chemscore.Internal_Hbond>
0.0000

> <Gold.Chemscore.DEClash>
0.5034

> <Gold.Chemscore.DEInternal>
3.0259

> <Gold.Chemscore.Rot>
1.7460

> <Gold.Chemscore.Internal.Correction>
   9.000000E+99

> <Gold.Chemscore.Hbonds>
donor molecule, donor type, donor heavy atom, donor atom, acceptor molecule, acceptor atom, score
      P1  H  6896  6907       L1    17  0.44
      P1  H  7989  7998       L1    11  0.58
      P1  H 10752 10764       L1    16  0.44

> <Gold.Chemscore.Hbond.Weighted>
-5.9757

> <Gold.Chemscore.Metal.Weighted>
-0.0000

> <Gold.Chemscore.Lipo.Weighted>
-9.0977

> <Gold.Chemscore.Internal_Hbond.Weighted>
0.0000

> <Gold.Chemscore.DEClash.Weighted>
0.5034

> <Gold.Chemscore.DEInternal.Weighted>
3.0259

> <Gold.Chemscore.Rot.Weighted>
4.4697

> <Gold.Chemscore.Internal.Correction.Weighted>
   9.000000E+99

> <Gold.Protein.RotatedTorsions>
[ 6907 6896 6895 6894 ] final  -16.41 input  -60.11 | X-H torsion
[ 7974 7965 7964 7962 ] final   23.79 input  175.53 | X-H torsion
[ 8008 7997 7996 7995 ] final  -83.29 input   59.86 | X-H torsion
[ 10167 10162 10161 10158 ] final   42.04 input  -65.29 | X-H torsion
[ 10718 10713 10712 10709 ] final   -4.02 input   66.30 | X-H torsion
[ 10763 10752 10751 10750 ] final  -13.47 input  -60.55 | X-H torsion
[ 11005 11000 10999 10996 ] final -170.66 input  -57.11 | X-H torsion

> <Gold.Protein.ActiveResidues>
 VAL166  LYS551  ARG553  GLY616  TRP617  ASP618  TYR619  PRO620  LYS621  CYS622 
 ASP623  PHE694  ASN695  SER759  ASP760  ASP761  ALA762  ILE779  LEU786  VAL792 
 PHE793  MET794  SER795  GLU796  ALA797  LYS798  CYS799  TRP800  GLU811  SER814 

> <Gold.Protein.RotatedAtoms>
  151.3090  135.0789  159.9265 H   0  0  0  0  0  0  0  0  0  0  0  0  # atno 6907 bound_to 6896
  152.5281  133.9755  159.7792 H   0  0  0  0  0  0  0  0  0  0  0  0  # atno 6908 bound_to 6896
  151.0055  133.5963  159.2719 H   0  0  0  0  0  0  0  0  0  0  0  0  # atno 6909 bound_to 6896
  146.1968  139.7695  142.8791 H   0  0  0  0  0  0  0  0  0  0  0  0  # atno 7974 bound_to 7965
  154.6175  140.0621  156.9573 H   0  0  0  0  0  0  0  0  0  0  0  0  # atno 8008 bound_to 7997
  155.1872  140.3304  155.4346 H   0  0  0  0  0  0  0  0  0  0  0  0  # atno 8009 bound_to 7997
  156.2412  140.1887  156.6964 H   0  0  0  0  0  0  0  0  0  0  0  0  # atno 8010 bound_to 7997
  140.3583  144.2261  150.6140 H   0  0  0  0  0  0  0  0  0  0  0  0  # atno 10167 bound_to 10162
  156.7675  130.5289  149.5773 H   0  0  0  0  0  0  0  0  0  0  0  0  # atno 10718 bound_to 10713
  153.5138  135.7016  153.5767 H   0  0  0  0  0  0  0  0  0  0  0  0  # atno 10763 bound_to 10752
  153.3845  135.3911  155.1880 H   0  0  0  0  0  0  0  0  0  0  0  0  # atno 10764 bound_to 10752
  154.8701  135.3843  154.4621 H   0  0  0  0  0  0  0  0  0  0  0  0  # atno 10765 bound_to 10752
  140.5170  134.5747  157.5036 H   0  0  0  0  0  0  0  0  0  0  0  0  # atno 11005 bound_to 11000
  145.3617  141.0327  143.3281 LP  0  0  0  0  0  0  0  0  0  0  0  0  # atno 17320 bound_to 7965
  144.8597  139.5196  143.6818 LP  0  0  0  0  0  0  0  0  0  0  0  0  # atno 17321 bound_to 7965
  140.5151  143.2280  151.8475 LP  0  0  0  0  0  0  0  0  0  0  0  0  # atno 17342 bound_to 10162
  139.4817  144.4903  151.9193 LP  0  0  0  0  0  0  0  0  0  0  0  0  # atno 17343 bound_to 10162
  156.1299  130.6170  151.0318 LP  0  0  0  0  0  0  0  0  0  0  0  0  # atno 17370 bound_to 10713
  157.6706  131.0862  150.7621 LP  0  0  0  0  0  0  0  0  0  0  0  0  # atno 17371 bound_to 10713
  139.9627  134.7425  156.0203 LP  0  0  0  0  0  0  0  0  0  0  0  0  # atno 17394 bound_to 11000
  141.1355  133.6576  156.3582 LP  0  0  0  0  0  0  0  0  0  0  0  0  # atno 17395 bound_to 11000

$$$$
