AV-unprocessed.smi:233|AV-procd|sdf|1784|dock4
  -GOLD-   2262020333D 1   1.00000     0.00000
 Structure written by MMmdl.
 59 62  0  0  0  0  0  0  0  0  1 V2000
  148.9018  139.9381  155.0675 C   0  0  0  0  0  0  0  0  0  0  0  0
  150.1054  139.3292  155.7784 C   0  0  0  0  0  0  0  0  0  0  0  0
  151.2442  139.5652  155.3762 O   0  0  0  0  0  0  0  0  0  0  0  0
  149.8366  138.5474  156.8351 N   0  0  0  0  0  0  0  0  0  0  0  0
  150.8301  137.8624  157.6608 C   0  0  2  0  0  0  0  0  0  0  0  0
  151.7427  136.9540  156.8146 C   0  0  0  0  0  0  0  0  0  0  0  0
  150.9925  135.7347  156.2519 C   0  0  0  0  0  0  0  0  0  0  0  0
  150.3177  134.8986  157.3653 C   0  0  2  0  0  0  0  0  0  0  0  0
  149.6054  133.7389  156.8058 N   0  0  0  0  0  0  0  0  0  0  0  0
  149.0187  132.7901  157.7474 C   0  0  0  0  0  0  0  0  0  0  0  0
  148.7276  134.0139  155.8149 C   0  0  0  0  0  0  0  0  0  0  0  0
  148.1811  135.2544  155.7936 N   0  0  0  0  0  0  0  0  0  0  0  0
  147.3081  135.5817  154.8360 C   0  0  0  0  0  0  0  0  0  0  0  0
  146.8545  134.8333  153.8274 N   0  0  0  0  0  0  0  0  0  0  0  0
  147.4077  133.5864  153.8460 C   0  0  0  0  0  0  0  0  0  0  0  0
  148.3520  133.0987  154.7918 C   0  0  0  0  0  0  0  0  0  0  0  0
  148.7061  131.7922  154.4794 N   0  0  0  0  0  0  0  0  0  0  0  0
  148.0104  131.5228  153.4085 C   0  0  0  0  0  0  0  0  0  0  0  0
  147.1820  132.5346  152.9764 N   0  0  0  0  0  0  0  0  0  0  0  0
  146.3362  132.5246  151.8195 C   0  0  0  0  0  0  0  0  0  0  0  0
  146.4196  133.6433  150.7792 C   0  0  0  0  0  0  0  0  0  0  0  0
  144.9074  133.4874  150.5004 C   0  0  0  0  0  0  0  0  0  0  0  0
  144.1251  134.8000  150.3298 C   0  0  0  0  0  0  0  0  0  0  0  0
  144.7287  135.6320  149.3602 O   0  0  0  0  0  0  0  0  0  0  0  0
  144.5475  132.5288  149.3473 C   0  0  0  0  0  0  0  0  0  0  0  0
  143.1557  132.2893  149.2898 O   0  0  0  0  0  0  0  0  0  0  0  0
  144.8473  132.8671  151.9139 C   0  0  0  0  0  0  0  0  0  0  0  0
  149.3903  135.8193  158.2021 C   0  0  0  0  0  0  0  0  0  0  0  0
  150.1357  137.0433  158.7626 C   0  0  0  0  0  0  0  0  0  0  0  0
  148.1173  139.1931  154.9287 H   0  0  0  0  0  0  0  0  0  0  0  0
  149.1852  140.3201  154.0862 H   0  0  0  0  0  0  0  0  0  0  0  0
  148.4952  140.7634  155.6527 H   0  0  0  0  0  0  0  0  0  0  0  0
  148.8684  138.4133  157.0883 H   0  0  0  0  0  0  0  0  0  0  0  0
  151.4461  138.6215  158.1462 H   0  0  0  0  0  0  0  0  0  0  0  0
  152.1970  137.5194  156.0003 H   0  0  0  0  0  0  0  0  0  0  0  0
  152.5699  136.6049  157.4338 H   0  0  0  0  0  0  0  0  0  0  0  0
  150.2430  136.0647  155.5313 H   0  0  0  0  0  0  0  0  0  0  0  0
  151.7063  135.1277  155.6952 H   0  0  0  0  0  0  0  0  0  0  0  0
  151.1057  134.5231  158.0189 H   0  0  0  0  0  0  0  0  0  0  0  0
  148.2866  132.1364  157.2697 H   0  0  0  0  0  0  0  0  0  0  0  0
  148.5225  133.3137  158.5655 H   0  0  0  0  0  0  0  0  0  0  0  0
  149.7943  132.1510  158.1693 H   0  0  0  0  0  0  0  0  0  0  0  0
  146.9156  136.5867  154.8853 H   0  0  0  0  0  0  0  0  0  0  0  0
  148.0802  130.5687  152.9068 H   0  0  0  0  0  0  0  0  0  0  0  0
  146.4792  131.5497  151.3502 H   0  0  0  0  0  0  0  0  0  0  0  0
  146.6757  134.6061  151.2256 H   0  0  0  0  0  0  0  0  0  0  0  0
  147.0728  133.4223  149.9344 H   0  0  0  0  0  0  0  0  0  0  0  0
  143.1028  134.6017  150.0066 H   0  0  0  0  0  0  0  0  0  0  0  0
  144.0463  135.3475  151.2690 H   0  0  0  0  0  0  0  0  0  0  0  0
  145.4275  135.1500  148.9448 H   0  0  0  0  0  0  0  0  0  0  0  0
  144.8527  132.9389  148.3845 H   0  0  0  0  0  0  0  0  0  0  0  0
  145.0645  131.5741  149.4457 H   0  0  0  0  0  0  0  0  0  0  0  0
  142.7071  133.1204  149.3210 H   0  0  0  0  0  0  0  0  0  0  0  0
  144.1895  132.0025  152.0071 H   0  0  0  0  0  0  0  0  0  0  0  0
  144.6345  133.6053  152.6896 H   0  0  0  0  0  0  0  0  0  0  0  0
  148.5502  136.1490  157.5893 H   0  0  0  0  0  0  0  0  0  0  0  0
  148.9586  135.2765  159.0432 H   0  0  0  0  0  0  0  0  0  0  0  0
  150.8838  136.7026  159.4795 H   0  0  0  0  0  0  0  0  0  0  0  0
  149.4460  137.6752  159.3236 H   0  0  0  0  0  0  0  0  0  0  0  0
  1  2  1  0  0  0  0
  1 30  1  0  0  0  0
  1 31  1  0  0  0  0
  1 32  1  0  0  0  0
  2  3  2  0  0  0  0
  2  4  1  0  0  0  0
  4  5  1  0  0  0  0
  4 33  1  0  0  0  0
  5 29  1  0  0  0  0
  5  6  1  0  0  0  0
  5 34  1  0  0  0  0
  6  7  1  0  0  0  0
  6 35  1  0  0  0  0
  6 36  1  0  0  0  0
  7  8  1  0  0  0  0
  7 37  1  0  0  0  0
  7 38  1  0  0  0  0
  8  9  1  0  0  0  0
  8 28  1  0  0  0  0
  8 39  1  0  0  0  0
  9 10  1  0  0  0  0
  9 11  1  0  0  0  0
 10 40  1  0  0  0  0
 10 41  1  0  0  0  0
 10 42  1  0  0  0  0
 11 16  1  0  0  0  0
 11 12  2  0  0  0  0
 12 13  1  0  0  0  0
 13 14  2  0  0  0  0
 13 43  1  0  0  0  0
 14 15  1  0  0  0  0
 15 19  1  0  0  0  0
 15 16  2  0  0  0  0
 16 17  1  0  0  0  0
 17 18  2  0  0  0  0
 18 19  1  0  0  0  0
 18 44  1  0  0  0  0
 19 20  1  0  0  0  0
 20 27  1  0  0  0  0
 20 21  1  0  0  0  0
 20 45  1  0  0  0  0
 21 22  1  0  0  0  0
 21 46  1  0  0  0  0
 21 47  1  0  0  0  0
 22 23  1  0  0  0  0
 22 25  1  0  0  0  0
 22 27  1  0  0  0  0
 23 24  1  0  0  0  0
 23 48  1  0  0  0  0
 23 49  1  0  0  0  0
 24 50  1  0  0  0  0
 25 26  1  0  0  0  0
 25 51  1  0  0  0  0
 25 52  1  0  0  0  0
 26 53  1  0  0  0  0
 27 54  1  0  0  0  0
 27 55  1  0  0  0  0
 28 29  1  0  0  0  0
 28 56  1  0  0  0  0
 28 57  1  0  0  0  0
 29 58  1  0  0  0  0
 29 59  1  0  0  0  0
M  END
> <s_m_source_file>
AV-unprocessed.smi

> <i_m_source_file_index>
233

> <i_lp_mmshare_version>
43012

> <i_f3d_flags>
0

> <s_epik_input>
W0NIM11DKD1PKVtOSF1bQ0BASF0xW0NIMl1bQ0gyXVtDQEhdKFtDSDJdW0NIMl0xKU4oW0NIM10pYyhuW2NIXW4yKWMoYzIzKW5bY0hdbjNbQ0hdKFtDSDJdNClbQ0gyXUM0KFtDSDJdW09IXSlbQ0gyXVtPSF0=

> <s_epik_cmdline>
J2VwaWtfcHl0aG9uJywgJy1waCcsICc3LjAnLCAnLXRuJywgJzgnLCAnLW1hJywgJzIwMCcsICctbWV0YWxfYmluZGluZycsICctaW1hZScsICc8aW5maWxlLm1hZT4nLCAnLW9tYWUnLCAnPG91dGZpbGUubWFlPic=

> <r_lp_tautomer_probability>
1

> <r_epik_Ionization_Penalty>
0.0029036

> <r_epik_Ionization_Penalty_Charging>
0

> <r_epik_Ionization_Penalty_Neutral>
0.0029036

> <r_epik_State_Penalty>
0.00183591

> <r_epik_Charging_Adjusted_Penalty>
0.00183591

> <i_epik_Tot_Q>
0

> <i_epik_Tot_abs_Q>
0

> <r_epik_Metal_State_Penalty>
-0

> <b_epik_Metal_Only>
0

> <s_lp_Force_Field>
OPLS_2005

> <r_lp_Energy>
38.4195

> <b_lp_Chiralities_Consistent>
1

> <s_lp_Variant>
AV-unprocessed.smi:233-2

> <Gold.Version>
5.8.1

> <Gold.Id.Protein>
6NUR|6NUR_protein|mol2

> <Gold.PLP.Fitness>
48.4771

> <Gold.PLP.PLP>
-36.8083

> <Gold.PLP.part.hbond>
-5.2227

> <Gold.PLP.part.metal>
0.0000

> <Gold.PLP.part.buried>
-3.6698

> <Gold.PLP.part.nonpolar>
-29.6801

> <Gold.PLP.part.repulsive>
1.4788

> <Gold.PLP.ligand.clash>
0.0000

> <Gold.PLP.ligand.torsion>
0.9993

> <Gold.PLP.Chemscore.Hbond>
3.5121

> <Gold.PLP.Chemscore.CHOScore>
0.7262

> <Gold.PLP.Chemscore.Metal>
0.0000

> <Gold.Chemscore.Hbonds>
donor molecule, donor type, donor heavy atom, donor atom, acceptor molecule, acceptor atom, score
      L1  H    24    50       P1  7921  0.89
      L1  H    26    53       P1 10186  0.70
      P1  H  7989  7998       L1     3  0.29
      P1  H 10785 10796       L1    26  0.51
      L1  C    18    44       P1 10747  0.25

> <Gold.PLP.Chemscore.Internal.Correction>
0.9526

> <Gold.Rescore>
     Score         DG    S(hbond)    S(metal)    S(lipo)     H(rot)  DE(clash)    DE(int)     intcor
      9.59     -14.87       2.93        0.00      82.06       3.91       1.61       3.67       ----

> <Gold.Chemscore.Fitness>
9.5908

> <Gold.Chemscore.DG>
-14.8749

> <Gold.Chemscore.ZeroCoef>
-5.4800

> <Gold.Chemscore.Hbond>
2.9314

> <Gold.Chemscore.Metal>
0.0000

> <Gold.Chemscore.Lipo>
82.0583

> <Gold.Chemscore.Internal_Hbond>
0.0000

> <Gold.Chemscore.DEClash>
1.6150

> <Gold.Chemscore.DEInternal>
3.6692

> <Gold.Chemscore.Rot>
3.9050

> <Gold.Chemscore.Internal.Correction>
   9.000000E+99

> <Gold.Chemscore.Hbonds>
donor molecule, donor type, donor heavy atom, donor atom, acceptor molecule, acceptor atom, score
      L1  H    24    50       P1  7921  0.83
      L1  H    26    53       P1 10186  0.69
      P1  H  7989  7998       L1     3  0.29
      P1  H 10785 10796       L1    26  0.11

> <Gold.Chemscore.Hbond.Weighted>
-9.7910

> <Gold.Chemscore.Metal.Weighted>
-0.0000

> <Gold.Chemscore.Lipo.Weighted>
-9.6008

> <Gold.Chemscore.Internal_Hbond.Weighted>
0.0000

> <Gold.Chemscore.DEClash.Weighted>
1.6150

> <Gold.Chemscore.DEInternal.Weighted>
3.6692

> <Gold.Chemscore.Rot.Weighted>
9.9969

> <Gold.Chemscore.Internal.Correction.Weighted>
   9.000000E+99

> <Gold.Protein.RotatedTorsions>
[ 6907 6896 6895 6894 ] final    3.56 input  -60.11 | X-H torsion
[ 7974 7965 7964 7962 ] final  -96.55 input  175.53 | X-H torsion
[ 8008 7997 7996 7995 ] final   95.23 input   59.86 | X-H torsion
[ 10167 10162 10161 10158 ] final -125.14 input  -65.29 | X-H torsion
[ 10718 10713 10712 10709 ] final  -61.17 input   66.30 | X-H torsion
[ 10763 10752 10751 10750 ] final    9.18 input  -60.55 | X-H torsion
[ 11005 11000 10999 10996 ] final -148.21 input  -57.11 | X-H torsion

> <Gold.Protein.ActiveResidues>
 VAL166  LYS551  ARG553  GLY616  TRP617  ASP618  TYR619  PRO620  LYS621  CYS622 
 ASP623  PHE694  ASN695  SER759  ASP760  ASP761  ALA762  ILE779  LEU786  VAL792 
 PHE793  MET794  SER795  GLU796  ALA797  LYS798  CYS799  TRP800  GLU811  SER814 

> <Gold.Protein.RotatedAtoms>
  151.6271  135.1026  160.0113 H   0  0  0  0  0  0  0  0  0  0  0  0  # atno 6907 bound_to 6896
  152.4126  133.6984  159.6420 H   0  0  0  0  0  0  0  0  0  0  0  0  # atno 6908 bound_to 6896
  150.8016  133.8514  159.3247 H   0  0  0  0  0  0  0  0  0  0  0  0  # atno 6909 bound_to 6896
  145.3453  140.9467  143.2584 H   0  0  0  0  0  0  0  0  0  0  0  0  # atno 7974 bound_to 7965
  156.0666  140.3289  155.7525 H   0  0  0  0  0  0  0  0  0  0  0  0  # atno 8008 bound_to 7997
  155.5372  140.0598  157.2895 H   0  0  0  0  0  0  0  0  0  0  0  0  # atno 8009 bound_to 7997
  154.4508  140.1917  156.0543 H   0  0  0  0  0  0  0  0  0  0  0  0  # atno 8010 bound_to 7997
  139.9853  143.5699  152.2363 H   0  0  0  0  0  0  0  0  0  0  0  0  # atno 10167 bound_to 10162
  156.0940  130.4196  150.0957 H   0  0  0  0  0  0  0  0  0  0  0  0  # atno 10718 bound_to 10713
  153.2168  135.6876  153.8047 H   0  0  0  0  0  0  0  0  0  0  0  0  # atno 10763 bound_to 10752
  153.7260  135.3260  155.3277 H   0  0  0  0  0  0  0  0  0  0  0  0  # atno 10764 bound_to 10752
  154.8250  135.4624  154.0999 H   0  0  0  0  0  0  0  0  0  0  0  0  # atno 10765 bound_to 10752
  140.7636  134.3270  157.5095 H   0  0  0  0  0  0  0  0  0  0  0  0  # atno 11005 bound_to 11000
  144.8759  139.4972  143.6746 LP  0  0  0  0  0  0  0  0  0  0  0  0  # atno 17320 bound_to 7965
  146.2990  139.7368  142.9105 LP  0  0  0  0  0  0  0  0  0  0  0  0  # atno 17321 bound_to 7965
  139.6380  144.7652  151.2398 LP  0  0  0  0  0  0  0  0  0  0  0  0  # atno 17342 bound_to 10162
  140.7474  143.6366  150.8374 LP  0  0  0  0  0  0  0  0  0  0  0  0  # atno 17343 bound_to 10162
  156.8960  130.9604  151.3582 LP  0  0  0  0  0  0  0  0  0  0  0  0  # atno 17370 bound_to 10713
  157.6096  130.8573  149.8930 LP  0  0  0  0  0  0  0  0  0  0  0  0  # atno 17371 bound_to 10713
  139.8767  134.9217  156.3283 LP  0  0  0  0  0  0  0  0  0  0  0  0  # atno 17394 bound_to 11000
  140.9640  133.7370  156.0440 LP  0  0  0  0  0  0  0  0  0  0  0  0  # atno 17395 bound_to 11000

$$$$
