#       Name:                AV-unprocessed.smi:338
#       Creating user name   scv26
#       Creation time:       Thu Mar 26 22:29:28 2020


#       File generated by GOLD software.
#

@<TRIPOS>MOLECULE
AV-unprocessed.smi:338
    48    50     1
SMALL
NO_CHARGES


@<TRIPOS>ATOM
      1 ****        -1.7469   6.8597   0.7644 C.3            1 S1                 0.0000
      2 ****        -0.9905   5.5324   0.7910 C.2            1 S1                 0.0000
      3 ****         0.2386   5.5555   0.8510 O.2            1 S1                 0.0000
      4 ****        -1.7895   4.2740   0.7435 C.ar           1 S1                 0.0000
      5 ****        -3.2013   4.2951   0.6617 C.ar           1 S1                 0.0000
      6 ****        -3.9281   3.0915   0.6195 C.ar           1 S1                 0.0000
      7 ****        -3.2545   1.8577   0.6576 C.ar           1 S1                 0.0000
      8 ****        -1.8490   1.8085   0.7369 C.ar           1 S1                 0.0000
      9 ****        -1.2697   0.5578   0.7684 O.3            1 S1                 0.0000
     10 ****         0.1489   0.4714   0.8103 C.3            1 S1                 0.0000
     11 ****         0.5623  -1.0076   0.8103 C.3            1 S1                 0.0000
     12 ****         1.9552  -1.0811   1.0427 O.3            1 S1                 0.0000
     13 ****         0.2157  -1.7174  -0.5129 C.3            1 S1                 0.0000
     14 ****         0.6017  -3.1172  -0.5100 N.pl3          1 S1                 0.0000
     15 ****        -0.0847  -4.1446   0.0262 C.2            1 S1                 0.0000
     16 ****         0.4495  -5.3576  -0.0831 N.2            1 S1                 0.0000
     17 ****         1.6191  -5.0869  -0.7725 C.ar           1 S1                 0.0000
     18 ****         2.6471  -5.9522  -1.2107 C.ar           1 S1                 0.0000
     19 ****         3.7639  -5.4412  -1.9045 C.ar           1 S1                 0.0000
     20 ****         3.8711  -4.0603  -2.1690 C.ar           1 S1                 0.0000
     21 ****         2.8593  -3.1786  -1.7429 C.ar           1 S1                 0.0000
     22 ****         1.7453  -3.6927  -1.0534 C.ar           1 S1                 0.0000
     23 ****        -1.1233   3.0262   0.7801 C.ar           1 S1                 0.0000
     24 ****        -2.4190   6.9341   1.6194 H              1 S1                 0.0000
     25 ****        -2.3312   6.9488  -0.1515 H              1 S1                 0.0000
     26 ****        -1.0500   7.6972   0.8062 H              1 S1                 0.0000
     27 ****        -3.7498   5.2246   0.6301 H              1 S1                 0.0000
     28 ****        -5.0062   3.1151   0.5573 H              1 S1                 0.0000
     29 ****        -3.8224   0.9394   0.6244 H              1 S1                 0.0000
     30 ****         0.5928   0.9833  -0.0453 H              1 S1                 0.0000
     31 ****         0.5136   0.9519   1.7201 H              1 S1                 0.0000
     32 ****         0.0645  -1.5149   1.6376 H              1 S1                 0.0000
     33 ****         2.2067  -1.9918   1.0684 H              1 S1                 0.0000
     34 ****        -0.8573  -1.6620  -0.7021 H              1 S1                 0.0000
     35 ****         0.7036  -1.2214  -1.3529 H              1 S1                 0.0000
     36 ****        -1.0297  -3.9919   0.5269 H              1 S1                 0.0000
     37 ****         2.5761  -7.0116  -1.0131 H              1 S1                 0.0000
     38 ****         4.5430  -6.1125  -2.2348 H              1 S1                 0.0000
     39 ****         4.7309  -3.6782  -2.6994 H              1 S1                 0.0000
     40 ****         2.9389  -2.1201  -1.9420 H              1 S1                 0.0000
     41 ****        -0.0456   3.0166   0.8441 H              1 S1                 0.0000
     42 ****         0.7214   6.4308   0.8813 LP             1 S1                 0.0000
     43 ****         0.7545   4.6991   0.8696 LP             1 S1                 0.0000
     44 ****        -1.5716   0.0713  -0.0514 LP             1 S1                 0.0000
     45 ****        -1.6186   0.0906   1.5808 LP             1 S1                 0.0000
     46 ****         2.1752  -0.6455   1.9156 LP             1 S1                 0.0000
     47 ****         2.4454  -0.6163   0.3054 LP             1 S1                 0.0000
     48 ****         0.0987  -6.2343   0.2461 LP             1 S1                 0.0000
@<TRIPOS>BOND
    1    1    2 1     
    2    1   24 1     
    3    1   25 1     
    4    1   26 1     
    5    2    3 2     
    6    2    4 1     
    7    4   23 ar    
    8    4    5 ar    
    9    5    6 ar    
   10    5   27 1     
   11    6    7 ar    
   12    6   28 1     
   13    7    8 ar    
   14    7   29 1     
   15    8    9 1     
   16    8   23 ar    
   17    9   10 1     
   18   10   11 1     
   19   10   30 1     
   20   10   31 1     
   21   11   12 1     
   22   11   13 1     
   23   11   32 1     
   24   12   33 1     
   25   13   14 1     
   26   13   34 1     
   27   13   35 1     
   28   14   22 1     
   29   14   15 1     
   30   15   16 2     
   31   15   36 1     
   32   16   17 1     
   33   17   22 ar    
   34   17   18 ar    
   35   18   19 ar    
   36   18   37 1     
   37   19   20 ar    
   38   19   38 1     
   39   20   21 ar    
   40   20   39 1     
   41   21   22 ar    
   42   21   40 1     
   43   23   41 1     
   44    3   42 1     
   45    3   43 1     
   46    9   44 1     
   47    9   45 1     
   48   12   46 1     
   49   12   47 1     
   50   16   48 1     
@<TRIPOS>SUBSTRUCTURE
      1 S1             1
@<TRIPOS>SET
LONE_PAIRS      STATIC     ATOMS    <user>   **** ""
7 42 43 44 45 46 47 48
DONOR_HYDROGENS      STATIC     ATOMS    <user>   **** ""
1 33
ATOM$BLUE        STATIC     ATOMS    COLORGROUP SYSTEM
7 42 43 44 45 46 47 48
ATOM$RED        STATIC     ATOMS    COLORGROUP SYSTEM
1 33
