AV-unprocessed.smi:1165|AV-procd|sdf|4931|dock2
  -GOLD-   22720 3513D 1   1.00000     0.00000
 Structure written by MMmdl.
 40 41  0  0  0  0  0  0  0  0  2 V2000
  153.8474  136.5620  164.0129 C   0  0  0  0  0  0  0  0  0  0  0  0
  154.6519  136.9033  162.7535 C   0  0  2  0  0  0  0  0  0  0  0  0
  153.7847  136.8399  161.4835 C   0  0  0  0  0  0  0  0  0  0  0  0
  154.6051  137.0306  160.2785 N   0  0  0  0  0  0  0  0  0  0  0  0
  153.7748  137.3857  158.7882 S   0  0  0  0  0  0  0  0  0  0  0  0
  154.5738  136.7357  157.7381 O   0  0  0  0  0  0  0  0  0  0  0  0
  152.3836  136.9317  158.9583 O   0  0  0  0  0  0  0  0  0  0  0  0
  153.9424  139.0061  158.7835 N   0  5  0  0  0  0  0  0  0  0  0  0
  153.0334  139.8682  159.5325 C   0  0  0  0  0  0  0  0  0  0  0  0
  153.5847  141.3091  159.5898 C   0  0  0  0  0  0  0  0  0  0  0  0
  152.5715  142.3920  159.2328 C   0  0  0  0  0  0  0  0  0  0  0  0
  152.9327  143.7571  159.2420 C   0  0  0  0  0  0  0  0  0  0  0  0
  151.9605  144.7210  158.9131 C   0  0  0  0  0  0  0  0  0  0  0  0
  150.6619  144.2801  158.5907 C   0  0  0  0  0  0  0  0  0  0  0  0
  150.2991  142.9796  158.5857 N   0  0  0  0  0  0  0  0  0  0  0  0
  151.2385  142.0615  158.9004 C   0  0  0  0  0  0  0  0  0  0  0  0
  155.7606  136.1156  160.2265 C   0  0  0  0  0  0  0  0  0  0  0  0
  156.5781  136.1715  161.5298 C   0  0  1  0  0  0  0  0  0  0  0  0
  157.4368  137.4434  161.6521 C   0  0  0  0  0  0  0  0  0  0  0  0
  155.7299  135.9788  162.6595 O   0  0  0  0  0  0  0  0  0  0  0  0
  153.0096  137.2477  164.1414 H   0  0  0  0  0  0  0  0  0  0  0  0
  154.4713  136.6298  164.9043 H   0  0  0  0  0  0  0  0  0  0  0  0
  153.4468  135.5492  163.9631 H   0  0  0  0  0  0  0  0  0  0  0  0
  155.0445  137.9131  162.8728 H   0  0  0  0  0  0  0  0  0  0  0  0
  153.2734  135.8792  161.4118 H   0  0  0  0  0  0  0  0  0  0  0  0
  153.0151  137.6096  161.5341 H   0  0  0  0  0  0  0  0  0  0  0  0
  152.0341  139.8893  159.0967 H   0  0  0  0  0  0  0  0  0  0  0  0
  152.9042  139.5051  160.5524 H   0  0  0  0  0  0  0  0  0  0  0  0
  153.9496  141.5086  160.5978 H   0  0  0  0  0  0  0  0  0  0  0  0
  154.4539  141.4027  158.9371 H   0  0  0  0  0  0  0  0  0  0  0  0
  153.9392  144.0597  159.4918 H   0  0  0  0  0  0  0  0  0  0  0  0
  152.2061  145.7725  158.9057 H   0  0  0  0  0  0  0  0  0  0  0  0
  149.8923  144.9922  158.3325 H   0  0  0  0  0  0  0  0  0  0  0  0
  150.9164  141.0306  158.8859 H   0  0  0  0  0  0  0  0  0  0  0  0
  155.3905  135.1025  160.0651 H   0  0  0  0  0  0  0  0  0  0  0  0
  156.4006  136.3496  159.3763 H   0  0  0  0  0  0  0  0  0  0  0  0
  157.2672  135.3267  161.5238 H   0  0  0  0  0  0  0  0  0  0  0  0
  158.1743  137.4881  160.8504 H   0  0  0  0  0  0  0  0  0  0  0  0
  157.9765  137.4608  162.5990 H   0  0  0  0  0  0  0  0  0  0  0  0
  156.8395  138.3526  161.5874 H   0  0  0  0  0  0  0  0  0  0  0  0
  1  2  1  0  0  0  0
  1 21  1  0  0  0  0
  1 22  1  0  0  0  0
  1 23  1  0  0  0  0
  2 20  1  0  0  0  0
  2  3  1  0  0  0  0
  2 24  1  0  0  0  0
  3  4  1  0  0  0  0
  3 25  1  0  0  0  0
  3 26  1  0  0  0  0
  4  5  1  0  0  0  0
  4 17  1  0  0  0  0
  5  6  2  0  0  0  0
  5  7  2  0  0  0  0
  5  8  1  0  0  0  0
  8  9  1  0  0  0  0
  9 10  1  0  0  0  0
  9 27  1  0  0  0  0
  9 28  1  0  0  0  0
 10 11  1  0  0  0  0
 10 29  1  0  0  0  0
 10 30  1  0  0  0  0
 11 16  1  0  0  0  0
 11 12  2  0  0  0  0
 12 13  1  0  0  0  0
 12 31  1  0  0  0  0
 13 14  2  0  0  0  0
 13 32  1  0  0  0  0
 14 15  1  0  0  0  0
 14 33  1  0  0  0  0
 15 16  2  0  0  0  0
 16 34  1  0  0  0  0
 17 18  1  0  0  0  0
 17 35  1  0  0  0  0
 17 36  1  0  0  0  0
 18 19  1  0  0  0  0
 18 20  1  0  0  0  0
 18 37  1  0  0  0  0
 19 38  1  0  0  0  0
 19 39  1  0  0  0  0
 19 40  1  0  0  0  0
M  CHG  1   8  -1
M  END
> <s_m_source_file>
AV-unprocessed.smi

> <i_m_source_file_index>
1165

> <i_lp_mmshare_version>
43012

> <i_f3d_flags>
0

> <s_epik_input>
W0NIM11bQ0BASF0xW0NIMl1OKFtDSDJdW0NASF0oTzEpW0NIM10pUyg9TykoPU8pW05IXVtDSDJdW0NIMl1jMltjSF1bY0hdW2NIXW5bY0hdMg==

> <s_epik_cmdline>
J2VwaWtfcHl0aG9uJywgJy1waCcsICc3LjAnLCAnLXRuJywgJzgnLCAnLW1hJywgJzIwMCcsICctbWV0YWxfYmluZGluZycsICctaW1hZScsICc8aW5maWxlLm1hZT4nLCAnLW9tYWUnLCAnPG91dGZpbGUubWFlPic=

> <r_epik_Ionization_Penalty>
1.23471

> <r_epik_Ionization_Penalty_Charging>
1.20871

> <r_epik_Ionization_Penalty_Neutral>
0.025996

> <r_epik_State_Penalty>
1.46261

> <r_epik_Charging_Adjusted_Penalty>
2.67132

> <i_epik_Tot_Q>
-1

> <i_epik_Tot_abs_Q>
1

> <r_epik_Metal_State_Penalty>
0.521406

> <b_epik_Metal_Only>
0

> <s_lp_Force_Field>
OPLS_2005

> <r_lp_Energy>
7.90597

> <b_lp_Chiralities_Consistent>
1

> <s_lp_Variant>
AV-unprocessed.smi:1165-4

> <Gold.Version>
5.8.1

> <Gold.Id.Protein>
6NUR|6NUR_protein|mol2

> <Gold.PLP.Fitness>
44.5621

> <Gold.PLP.PLP>
-34.6593

> <Gold.PLP.part.hbond>
-1.8368

> <Gold.PLP.part.metal>
0.0000

> <Gold.PLP.part.buried>
-4.4014

> <Gold.PLP.part.nonpolar>
-28.2652

> <Gold.PLP.part.repulsive>
0.1180

> <Gold.PLP.ligand.clash>
0.0000

> <Gold.PLP.ligand.torsion>
1.3898

> <Gold.PLP.Chemscore.Hbond>
2.6661

> <Gold.PLP.Chemscore.CHOScore>
1.0328

> <Gold.PLP.Chemscore.Metal>
0.0000

> <Gold.Chemscore.Hbonds>
donor molecule, donor type, donor heavy atom, donor atom, acceptor molecule, acceptor atom, score
      P1  H  6896  6907       L1     7  0.62
      P1  H  7997  8009       L1     8  1.85
      L1  C    14    33       P1  8028  0.04
      L1  C    14    33       P1  8029  1.00

> <Gold.PLP.Chemscore.Internal.Correction>
1.5856

> <Gold.Rescore>
     Score         DG    S(hbond)    S(metal)    S(lipo)     H(rot)  DE(clash)    DE(int)     intcor
     17.22     -18.64       1.53        0.00     101.18       1.47       0.00       1.42       ----

> <Gold.Chemscore.Fitness>
17.2226

> <Gold.Chemscore.DG>
-18.6402

> <Gold.Chemscore.ZeroCoef>
-5.4800

> <Gold.Chemscore.Hbond>
1.5250

> <Gold.Chemscore.Metal>
0.0000

> <Gold.Chemscore.Lipo>
101.1769

> <Gold.Chemscore.Internal_Hbond>
0.0000

> <Gold.Chemscore.DEClash>
0.0000

> <Gold.Chemscore.DEInternal>
1.4176

> <Gold.Chemscore.Rot>
1.4731

> <Gold.Chemscore.Internal.Correction>
   9.000000E+99

> <Gold.Chemscore.Hbonds>
donor molecule, donor type, donor heavy atom, donor atom, acceptor molecule, acceptor atom, score
      P1  H  6896  6907       L1     7  0.60
      P1  H  7997  8009       L1     8  0.72

> <Gold.Chemscore.Hbond.Weighted>
-5.0936

> <Gold.Chemscore.Metal.Weighted>
-0.0000

> <Gold.Chemscore.Lipo.Weighted>
-11.8377

> <Gold.Chemscore.Internal_Hbond.Weighted>
0.0000

> <Gold.Chemscore.DEClash.Weighted>
0.0000

> <Gold.Chemscore.DEInternal.Weighted>
1.4176

> <Gold.Chemscore.Rot.Weighted>
3.7712

> <Gold.Chemscore.Internal.Correction.Weighted>
   9.000000E+99

> <Gold.Protein.RotatedTorsions>
[ 6907 6896 6895 6894 ] final   15.35 input  -60.11 | X-H torsion
[ 7974 7965 7964 7962 ] final    4.36 input  175.53 | X-H torsion
[ 8008 7997 7996 7995 ] final  134.12 input   59.86 | X-H torsion
[ 10167 10162 10161 10158 ] final  156.58 input  -65.29 | X-H torsion
[ 10718 10713 10712 10709 ] final -101.49 input   66.30 | X-H torsion
[ 10763 10752 10751 10750 ] final  154.34 input  -60.55 | X-H torsion
[ 11005 11000 10999 10996 ] final   13.09 input  -57.11 | X-H torsion

> <Gold.Protein.ActiveResidues>
 VAL166  LYS551  ARG553  GLY616  TRP617  ASP618  TYR619  PRO620  LYS621  CYS622 
 ASP623  PHE694  ASN695  SER759  ASP760  ASP761  ALA762  ILE779  LEU786  VAL792 
 PHE793  MET794  SER795  GLU796  ALA797  LYS798  CYS799  TRP800  GLU811  SER814 

> <Gold.Protein.RotatedAtoms>
  151.8167  135.0664  160.0419 H   0  0  0  0  0  0  0  0  0  0  0  0  # atno 6907 bound_to 6896
  152.2981  133.5623  159.5609 H   0  0  0  0  0  0  0  0  0  0  0  0  # atno 6908 bound_to 6896
  150.7260  134.0248  159.3755 H   0  0  0  0  0  0  0  0  0  0  0  0  # atno 6909 bound_to 6896
  146.2444  140.0547  142.8372 H   0  0  0  0  0  0  0  0  0  0  0  0  # atno 7974 bound_to 7965
  156.2997  140.2504  156.3365 H   0  0  0  0  0  0  0  0  0  0  0  0  # atno 8008 bound_to 7997
  154.9095  140.0404  157.1957 H   0  0  0  0  0  0  0  0  0  0  0  0  # atno 8009 bound_to 7997
  154.8419  140.2892  155.5658 H   0  0  0  0  0  0  0  0  0  0  0  0  # atno 8010 bound_to 7997
  139.4821  144.4996  151.8188 H   0  0  0  0  0  0  0  0  0  0  0  0  # atno 10167 bound_to 10162
  156.0196  130.5376  150.6971 H   0  0  0  0  0  0  0  0  0  0  0  0  # atno 10718 bound_to 10713
  154.1508  135.2815  155.3136 H   0  0  0  0  0  0  0  0  0  0  0  0  # atno 10763 bound_to 10752
  154.6219  135.5464  153.7588 H   0  0  0  0  0  0  0  0  0  0  0  0  # atno 10764 bound_to 10752
  153.0222  135.6441  154.1652 H   0  0  0  0  0  0  0  0  0  0  0  0  # atno 10765 bound_to 10752
  140.4847  134.0900  155.7758 H   0  0  0  0  0  0  0  0  0  0  0  0  # atno 11005 bound_to 11000
  145.0953  140.9311  143.4745 LP  0  0  0  0  0  0  0  0  0  0  0  0  # atno 17320 bound_to 7965
  145.0728  139.3018  143.5823 LP  0  0  0  0  0  0  0  0  0  0  0  0  # atno 17321 bound_to 7965
  140.4488  144.1884  150.5896 LP  0  0  0  0  0  0  0  0  0  0  0  0  # atno 17342 bound_to 10162
  140.4607  143.2450  151.9224 LP  0  0  0  0  0  0  0  0  0  0  0  0  # atno 17343 bound_to 10162
  157.4640  131.0886  151.0715 LP  0  0  0  0  0  0  0  0  0  0  0  0  # atno 17370 bound_to 10713
  157.1195  130.6055  149.5501 LP  0  0  0  0  0  0  0  0  0  0  0  0  # atno 17371 bound_to 10713
  141.1514  133.8962  157.2088 LP  0  0  0  0  0  0  0  0  0  0  0  0  # atno 17394 bound_to 11000
  139.9805  135.0100  156.9738 LP  0  0  0  0  0  0  0  0  0  0  0  0  # atno 17395 bound_to 11000

$$$$
