AV-unprocessed.smi:2538|AV-procd|sdf|9982|dock7
  -GOLD-   2272014 33D 1   1.00000     0.00000
 Structure written by MMmdl.
 48 49  0  0  0  0  0  0  0  0  1 V2000
  152.6432  143.1374  161.7932 C   0  0  0  0  0  0  0  0  0  0  0  0
  152.5013  142.3881  160.4798 C   0  0  0  0  0  0  0  0  0  0  0  0
  152.7729  141.0017  160.4472 C   0  0  0  0  0  0  0  0  0  0  0  0
  152.6517  140.2677  159.2472 C   0  0  0  0  0  0  0  0  0  0  0  0
  152.8608  138.9232  158.9916 N   0  0  0  0  0  0  0  0  0  0  0  0
  152.5875  138.8521  157.6923 C   0  0  0  0  0  0  0  0  0  0  0  0
  152.2237  139.9930  157.0758 N   0  0  0  0  0  0  0  0  0  0  0  0
  151.8826  140.1495  155.6741 C   0  0  0  0  0  0  0  0  0  0  0  0
  150.6268  139.3418  155.2878 C   0  0  1  0  0  0  0  0  0  0  0  0
  150.1468  139.8514  154.0584 O   0  0  0  0  0  0  0  0  0  0  0  0
  150.9173  137.8313  155.1275 C   0  0  0  0  0  0  0  0  0  0  0  0
  150.3521  137.0541  156.2443 N   0  0  0  0  0  0  0  0  0  0  0  0
  149.1616  137.6349  156.8736 C   0  0  0  0  0  0  0  0  0  0  0  0
  150.5586  135.3323  156.3116 S   0  0  0  0  0  0  0  0  0  0  0  0
  151.9283  135.0414  155.8595 O   0  0  0  0  0  0  0  0  0  0  0  0
  150.1114  134.8686  157.6338 O   0  0  0  0  0  0  0  0  0  0  0  0
  149.3404  134.7475  155.0369 C   0  0  0  0  0  0  0  0  0  0  0  0
  148.2583  133.8674  155.6790 C   0  0  0  0  0  0  0  0  0  0  0  0
  150.0607  134.0215  153.8921 C   0  0  0  0  0  0  0  0  0  0  0  0
  152.2504  140.9647  158.0700 C   0  0  0  0  0  0  0  0  0  0  0  0
  151.9758  142.3436  158.0898 C   0  0  0  0  0  0  0  0  0  0  0  0
  152.0994  143.0612  159.2980 C   0  0  0  0  0  0  0  0  0  0  0  0
  151.7955  144.5489  159.3105 C   0  0  0  0  0  0  0  0  0  0  0  0
  152.9996  142.4823  162.5886 H   0  0  0  0  0  0  0  0  0  0  0  0
  151.6820  143.5481  162.1028 H   0  0  0  0  0  0  0  0  0  0  0  0
  153.3551  143.9570  161.6927 H   0  0  0  0  0  0  0  0  0  0  0  0
  153.0765  140.4880  161.3473 H   0  0  0  0  0  0  0  0  0  0  0  0
  152.6521  137.9163  157.1558 H   0  0  0  0  0  0  0  0  0  0  0  0
  151.7427  141.2093  155.4569 H   0  0  0  0  0  0  0  0  0  0  0  0
  152.7440  139.8324  155.0872 H   0  0  0  0  0  0  0  0  0  0  0  0
  149.8499  139.5016  156.0371 H   0  0  0  0  0  0  0  0  0  0  0  0
  150.2442  139.1817  153.3986 H   0  0  0  0  0  0  0  0  0  0  0  0
  150.5247  137.4629  154.1779 H   0  0  0  0  0  0  0  0  0  0  0  0
  151.9906  137.6414  155.0892 H   0  0  0  0  0  0  0  0  0  0  0  0
  149.3332  138.6810  157.1288 H   0  0  0  0  0  0  0  0  0  0  0  0
  148.9158  137.0992  157.7904 H   0  0  0  0  0  0  0  0  0  0  0  0
  148.3091  137.5701  156.1969 H   0  0  0  0  0  0  0  0  0  0  0  0
  148.8551  135.6332  154.6264 H   0  0  0  0  0  0  0  0  0  0  0  0
  147.5209  133.5526  154.9401 H   0  0  0  0  0  0  0  0  0  0  0  0
  147.7263  134.4078  156.4627 H   0  0  0  0  0  0  0  0  0  0  0  0
  148.6894  132.9696  156.1227 H   0  0  0  0  0  0  0  0  0  0  0  0
  149.3546  133.6931  153.1292 H   0  0  0  0  0  0  0  0  0  0  0  0
  150.5925  133.1412  154.2548 H   0  0  0  0  0  0  0  0  0  0  0  0
  150.7861  134.6749  153.4067 H   0  0  0  0  0  0  0  0  0  0  0  0
  151.6701  142.8439  157.1825 H   0  0  0  0  0  0  0  0  0  0  0  0
  151.4883  144.9000  158.3250 H   0  0  0  0  0  0  0  0  0  0  0  0
  152.6768  145.1172  159.6089 H   0  0  0  0  0  0  0  0  0  0  0  0
  150.9881  144.7681  160.0097 H   0  0  0  0  0  0  0  0  0  0  0  0
  1  2  1  0  0  0  0
  1 24  1  0  0  0  0
  1 25  1  0  0  0  0
  1 26  1  0  0  0  0
  2 22  1  0  0  0  0
  2  3  2  0  0  0  0
  3  4  1  0  0  0  0
  3 27  1  0  0  0  0
  4 20  2  0  0  0  0
  4  5  1  0  0  0  0
  5  6  2  0  0  0  0
  6  7  1  0  0  0  0
  6 28  1  0  0  0  0
  7  8  1  0  0  0  0
  7 20  1  0  0  0  0
  8  9  1  0  0  0  0
  8 29  1  0  0  0  0
  8 30  1  0  0  0  0
  9 10  1  0  0  0  0
  9 11  1  0  0  0  0
  9 31  1  0  0  0  0
 10 32  1  0  0  0  0
 11 12  1  0  0  0  0
 11 33  1  0  0  0  0
 11 34  1  0  0  0  0
 12 13  1  0  0  0  0
 12 14  1  0  0  0  0
 13 35  1  0  0  0  0
 13 36  1  0  0  0  0
 13 37  1  0  0  0  0
 14 15  2  0  0  0  0
 14 16  2  0  0  0  0
 14 17  1  0  0  0  0
 17 18  1  0  0  0  0
 17 19  1  0  0  0  0
 17 38  1  0  0  0  0
 18 39  1  0  0  0  0
 18 40  1  0  0  0  0
 18 41  1  0  0  0  0
 19 42  1  0  0  0  0
 19 43  1  0  0  0  0
 19 44  1  0  0  0  0
 20 21  1  0  0  0  0
 21 22  2  0  0  0  0
 21 45  1  0  0  0  0
 22 23  1  0  0  0  0
 23 46  1  0  0  0  0
 23 47  1  0  0  0  0
 23 48  1  0  0  0  0
M  END
> <s_m_source_file>
AV-unprocessed.smi

> <i_m_source_file_index>
2538

> <i_lp_mmshare_version>
43012

> <i_f3d_flags>
0

> <s_epik_input>
W0NIM11jKFtjSF0xKWMoW0NIM10pW2NIXWMoYzEyKW4oW2NIXW4yKVtDSDJdW0NASF0oW09IXSlbQ0gyXU4oW0NIM10pUyg9TykoPU8pW0NIXShbQ0gzXSlbQ0gzXQ==

> <s_epik_cmdline>
J2VwaWtfcHl0aG9uJywgJy1waCcsICc3LjAnLCAnLXRuJywgJzgnLCAnLW1hJywgJzIwMCcsICctbWV0YWxfYmluZGluZycsICctaW1hZScsICc8aW5maWxlLm1hZT4nLCAnLW9tYWUnLCAnPG91dGZpbGUubWFlPic=

> <r_epik_Ionization_Penalty>
0.105018

> <r_epik_Ionization_Penalty_Charging>
0

> <r_epik_Ionization_Penalty_Neutral>
0.105018

> <r_epik_State_Penalty>
0.094904

> <r_epik_Charging_Adjusted_Penalty>
0.094904

> <i_epik_Tot_Q>
0

> <i_epik_Tot_abs_Q>
0

> <r_epik_Metal_State_Penalty>
0.000102919

> <b_epik_Metal_Only>
0

> <s_lp_Force_Field>
OPLS_2005

> <r_lp_Energy>
6.99225

> <b_lp_Chiralities_Consistent>
1

> <s_lp_Variant>
AV-unprocessed.smi:2538-2

> <Gold.Version>
5.8.1

> <Gold.Id.Protein>
6NUR|6NUR_protein|mol2

> <Gold.PLP.Fitness>
48.6544

> <Gold.PLP.PLP>
-41.5725

> <Gold.PLP.part.hbond>
-4.0000

> <Gold.PLP.part.metal>
0.0000

> <Gold.PLP.part.buried>
-4.7657

> <Gold.PLP.part.nonpolar>
-32.0707

> <Gold.PLP.part.repulsive>
0.0035

> <Gold.PLP.ligand.clash>
0.0000

> <Gold.PLP.ligand.torsion>
2.1261

> <Gold.PLP.Chemscore.Hbond>
2.8960

> <Gold.PLP.Chemscore.CHOScore>
0.0000

> <Gold.PLP.Chemscore.Metal>
0.0000

> <Gold.Chemscore.Hbonds>
donor molecule, donor type, donor heavy atom, donor atom, acceptor molecule, acceptor atom, score
      P1  H  6896  6908       L1    16  0.77
      P1  H  7989  7998       L1    10  0.75
      P1  H 10752 10764       L1    15  0.87

> <Gold.PLP.Chemscore.Internal.Correction>
2.6460

> <Gold.Rescore>
     Score         DG    S(hbond)    S(metal)    S(lipo)     H(rot)  DE(clash)    DE(int)     intcor
     18.78     -21.18       2.47        0.00     113.91       2.29       0.27       2.13       ----

> <Gold.Chemscore.Fitness>
18.7846

> <Gold.Chemscore.DG>
-21.1843

> <Gold.Chemscore.ZeroCoef>
-5.4800

> <Gold.Chemscore.Hbond>
2.4683

> <Gold.Chemscore.Metal>
0.0000

> <Gold.Chemscore.Lipo>
113.9079

> <Gold.Chemscore.Internal_Hbond>
0.0000

> <Gold.Chemscore.DEClash>
0.2744

> <Gold.Chemscore.DEInternal>
2.1253

> <Gold.Chemscore.Rot>
2.2917

> <Gold.Chemscore.Internal.Correction>
   9.000000E+99

> <Gold.Chemscore.Hbonds>
donor molecule, donor type, donor heavy atom, donor atom, acceptor molecule, acceptor atom, score
      L1  H    10    32       P1  7957  0.01
      P1  H  6896  6908       L1    16  0.75
      P1  H  7989  7998       L1    10  0.03
      P1  H 10752 10764       L1    15  0.81

> <Gold.Chemscore.Hbond.Weighted>
-8.2440

> <Gold.Chemscore.Metal.Weighted>
-0.0000

> <Gold.Chemscore.Lipo.Weighted>
-13.3272

> <Gold.Chemscore.Internal_Hbond.Weighted>
0.0000

> <Gold.Chemscore.DEClash.Weighted>
0.2744

> <Gold.Chemscore.DEInternal.Weighted>
2.1253

> <Gold.Chemscore.Rot.Weighted>
5.8669

> <Gold.Chemscore.Internal.Correction.Weighted>
   9.000000E+99

> <Gold.Protein.RotatedTorsions>
[ 6907 6896 6895 6894 ] final  143.47 input  -60.11 | X-H torsion
[ 7974 7965 7964 7962 ] final -115.43 input  175.53 | X-H torsion
[ 8008 7997 7996 7995 ] final -157.23 input   59.86 | X-H torsion
[ 10167 10162 10161 10158 ] final  -79.20 input  -65.29 | X-H torsion
[ 10718 10713 10712 10709 ] final -115.54 input   66.30 | X-H torsion
[ 10763 10752 10751 10750 ] final  -25.91 input  -60.55 | X-H torsion
[ 11005 11000 10999 10996 ] final -126.82 input  -57.11 | X-H torsion

> <Gold.Protein.ActiveResidues>
 VAL166  LYS551  ARG553  GLY616  TRP617  ASP618  TYR619  PRO620  LYS621  CYS622 
 ASP623  PHE694  ASN695  SER759  ASP760  ASP761  ALA762  ILE779  LEU786  VAL792 
 PHE793  MET794  SER795  GLU796  ALA797  LYS798  CYS799  TRP800  GLU811  SER814 

> <Gold.Protein.RotatedAtoms>
  152.2059  133.4875  159.5083 H   0  0  0  0  0  0  0  0  0  0  0  0  # atno 6907 bound_to 6896
  150.6979  134.1530  159.4156 H   0  0  0  0  0  0  0  0  0  0  0  0  # atno 6908 bound_to 6896
  151.9449  135.0196  160.0589 H   0  0  0  0  0  0  0  0  0  0  0  0  # atno 6909 bound_to 6896
  145.1085  140.8597  143.3884 H   0  0  0  0  0  0  0  0  0  0  0  0  # atno 7974 bound_to 7965
  155.7293  140.0800  157.2296 H   0  0  0  0  0  0  0  0  0  0  0  0  # atno 8008 bound_to 7997
  154.4035  140.1598  156.2545 H   0  0  0  0  0  0  0  0  0  0  0  0  # atno 8009 bound_to 7997
  155.9124  140.3403  155.6112 H   0  0  0  0  0  0  0  0  0  0  0  0  # atno 8010 bound_to 7997
  140.4614  143.2452  151.8342 H   0  0  0  0  0  0  0  0  0  0  0  0  # atno 10167 bound_to 10162
  156.0903  130.6087  150.8920 H   0  0  0  0  0  0  0  0  0  0  0  0  # atno 10718 bound_to 10713
  153.7074  135.6953  153.5046 H   0  0  0  0  0  0  0  0  0  0  0  0  # atno 10763 bound_to 10752
  153.2297  135.4341  155.0581 H   0  0  0  0  0  0  0  0  0  0  0  0  # atno 10764 bound_to 10752
  154.8325  135.3481  154.6612 H   0  0  0  0  0  0  0  0  0  0  0  0  # atno 10765 bound_to 10752
  140.9650  134.0884  157.3929 H   0  0  0  0  0  0  0  0  0  0  0  0  # atno 11005 bound_to 11000
  145.0874  139.2915  143.5752 LP  0  0  0  0  0  0  0  0  0  0  0  0  # atno 17320 bound_to 7965
  146.3527  140.0400  142.8643 LP  0  0  0  0  0  0  0  0  0  0  0  0  # atno 17321 bound_to 7965
  139.4807  144.5002  151.9070 LP  0  0  0  0  0  0  0  0  0  0  0  0  # atno 17342 bound_to 10162
  140.4088  144.2396  150.5889 LP  0  0  0  0  0  0  0  0  0  0  0  0  # atno 17343 bound_to 10162
  157.6050  131.0939  150.8895 LP  0  0  0  0  0  0  0  0  0  0  0  0  # atno 17370 bound_to 10713
  156.9045  130.5258  149.5282 LP  0  0  0  0  0  0  0  0  0  0  0  0  # atno 17371 bound_to 10713
  139.8891  135.0103  156.6661 LP  0  0  0  0  0  0  0  0  0  0  0  0  # atno 17394 bound_to 11000
  140.7412  133.8976  155.8279 LP  0  0  0  0  0  0  0  0  0  0  0  0  # atno 17395 bound_to 11000

$$$$
