AV-unprocessed.smi:1314|AV-procd|sdf|5453|dock7
  -GOLD-   22720 5 23D 1   1.00000     0.00000
 Structure written by MMmdl.
 41 42  0  0  0  0  0  0  0  0  1 V2000
  147.0261  140.3633  152.5982 C   0  0  0  0  0  0  0  0  0  0  0  0
  146.9940  141.1021  153.9053 C   0  0  0  0  0  0  0  0  0  0  0  0
  146.2726  142.2051  154.0162 N   0  0  0  0  0  0  0  0  0  0  0  0
  146.4451  142.6445  155.3324 O   0  0  0  0  0  0  0  0  0  0  0  0
  147.2744  141.7787  155.9690 C   0  0  0  0  0  0  0  0  0  0  0  0
  147.5824  142.0728  157.3982 C   0  0  0  0  0  0  0  0  0  0  0  0
  147.6630  140.7788  155.1204 C   0  0  0  0  0  0  0  0  0  0  0  0
  148.5744  139.6099  155.3937 C   0  0  0  0  0  0  0  0  0  0  0  0
  149.9753  140.1124  155.7483 C   0  0  0  0  0  0  0  0  0  0  0  0
  150.7022  140.5803  154.8717 O   0  0  0  0  0  0  0  0  0  0  0  0
  150.3405  140.0055  157.0354 N   0  0  0  0  0  0  0  0  0  0  0  0
  151.6325  140.3995  157.5890 C   0  0  0  0  0  0  0  0  0  0  0  0
  151.4899  141.0819  158.9591 C   0  0  0  0  0  0  0  0  0  0  0  0
  153.0892  141.3427  159.7799 S   0  0  0  0  0  0  0  0  0  0  0  0
  153.1041  143.1540  159.9093 C   0  0  0  0  0  0  0  0  0  0  0  0
  152.1486  143.6698  160.9845 C   0  0  0  0  0  0  0  0  0  0  0  0
  151.9150  145.1367  160.6161 C   0  0  0  0  0  0  0  0  0  0  0  0
  152.1117  145.2296  159.0952 C   0  0  0  0  0  0  0  0  0  0  0  0
  152.6219  143.8565  158.6371 C   0  0  0  0  0  0  0  0  0  0  0  0
  146.8983  139.2918  152.7530 H   0  0  0  0  0  0  0  0  0  0  0  0
  147.9783  140.5140  152.0898 H   0  0  0  0  0  0  0  0  0  0  0  0
  146.2337  140.6954  151.9264 H   0  0  0  0  0  0  0  0  0  0  0  0
  147.5453  141.1624  157.9966 H   0  0  0  0  0  0  0  0  0  0  0  0
  146.8653  142.7794  157.8170 H   0  0  0  0  0  0  0  0  0  0  0  0
  148.5791  142.5027  157.4967 H   0  0  0  0  0  0  0  0  0  0  0  0
  148.2071  139.0052  156.2235 H   0  0  0  0  0  0  0  0  0  0  0  0
  148.6239  138.9414  154.5329 H   0  0  0  0  0  0  0  0  0  0  0  0
  149.6726  139.6113  157.6819 H   0  0  0  0  0  0  0  0  0  0  0  0
  152.2224  139.4900  157.7047 H   0  0  0  0  0  0  0  0  0  0  0  0
  152.1903  141.0346  156.8987 H   0  0  0  0  0  0  0  0  0  0  0  0
  150.9728  142.0370  158.8594 H   0  0  0  0  0  0  0  0  0  0  0  0
  150.8758  140.4563  159.6065 H   0  0  0  0  0  0  0  0  0  0  0  0
  154.1162  143.4847  160.1469 H   0  0  0  0  0  0  0  0  0  0  0  0
  151.2028  143.1282  160.9340 H   0  0  0  0  0  0  0  0  0  0  0  0
  152.5462  143.5498  161.9926 H   0  0  0  0  0  0  0  0  0  0  0  0
  150.9284  145.4818  160.9272 H   0  0  0  0  0  0  0  0  0  0  0  0
  152.6531  145.7635  161.1181 H   0  0  0  0  0  0  0  0  0  0  0  0
  151.1822  145.4863  158.5859 H   0  0  0  0  0  0  0  0  0  0  0  0
  152.8374  146.0089  158.8595 H   0  0  0  0  0  0  0  0  0  0  0  0
  153.4058  143.9388  157.8838 H   0  0  0  0  0  0  0  0  0  0  0  0
  151.7976  143.2960  158.1938 H   0  0  0  0  0  0  0  0  0  0  0  0
  1  2  1  0  0  0  0
  1 20  1  0  0  0  0
  1 21  1  0  0  0  0
  1 22  1  0  0  0  0
  2  7  1  0  0  0  0
  2  3  2  0  0  0  0
  3  4  1  0  0  0  0
  4  5  1  0  0  0  0
  5  6  1  0  0  0  0
  5  7  2  0  0  0  0
  6 23  1  0  0  0  0
  6 24  1  0  0  0  0
  6 25  1  0  0  0  0
  7  8  1  0  0  0  0
  8  9  1  0  0  0  0
  8 26  1  0  0  0  0
  8 27  1  0  0  0  0
  9 10  2  0  0  0  0
  9 11  1  0  0  0  0
 11 12  1  0  0  0  0
 11 28  1  0  0  0  0
 12 13  1  0  0  0  0
 12 29  1  0  0  0  0
 12 30  1  0  0  0  0
 13 14  1  0  0  0  0
 13 31  1  0  0  0  0
 13 32  1  0  0  0  0
 14 15  1  0  0  0  0
 15 19  1  0  0  0  0
 15 16  1  0  0  0  0
 15 33  1  0  0  0  0
 16 17  1  0  0  0  0
 16 34  1  0  0  0  0
 16 35  1  0  0  0  0
 17 18  1  0  0  0  0
 17 36  1  0  0  0  0
 17 37  1  0  0  0  0
 18 19  1  0  0  0  0
 18 38  1  0  0  0  0
 18 39  1  0  0  0  0
 19 40  1  0  0  0  0
 19 41  1  0  0  0  0
M  END
> <s_m_source_file>
AV-unprocessed.smi

> <i_m_source_file_index>
1314

> <i_lp_mmshare_version>
43012

> <i_f3d_flags>
0

> <s_epik_input>
W0NIM11jMW5vYyhbQ0gzXSljMVtDSDJdQyg9TylbTkhdW0NIMl1bQ0gyXVNbQ0hdMltDSDJdW0NIMl1bQ0gyXVtDSDJdMg==

> <s_epik_cmdline>
J2VwaWtfcHl0aG9uJywgJy1waCcsICc3LjAnLCAnLXRuJywgJzgnLCAnLW1hJywgJzIwMCcsICctbWV0YWxfYmluZGluZycsICctaW1hZScsICc8aW5maWxlLm1hZT4nLCAnLW9tYWUnLCAnPG91dGZpbGUubWFlPic=

> <r_lp_tautomer_probability>
1

> <r_epik_Ionization_Penalty>
2.75407e-08

> <r_epik_Ionization_Penalty_Charging>
0

> <r_epik_Ionization_Penalty_Neutral>
2.75407e-08

> <r_epik_State_Penalty>
-0

> <r_epik_Charging_Adjusted_Penalty>
0

> <i_epik_Tot_Q>
0

> <i_epik_Tot_abs_Q>
0

> <r_epik_Metal_State_Penalty>
-0

> <b_epik_Metal_Only>
0

> <s_lp_Force_Field>
OPLS_2005

> <r_lp_Energy>
14.7141

> <b_lp_Chiralities_Consistent>
1

> <s_lp_Variant>
AV-unprocessed.smi:1314-1

> <Gold.Version>
5.8.1

> <Gold.Id.Protein>
6NUR|6NUR_protein|mol2

> <Gold.PLP.Fitness>
40.1504

> <Gold.PLP.PLP>
-38.6713

> <Gold.PLP.part.hbond>
-1.0000

> <Gold.PLP.part.metal>
0.0000

> <Gold.PLP.part.buried>
-3.5796

> <Gold.PLP.part.nonpolar>
-34.0958

> <Gold.PLP.part.repulsive>
0.4713

> <Gold.PLP.ligand.clash>
0.0000

> <Gold.PLP.ligand.torsion>
0.8007

> <Gold.PLP.Chemscore.Hbond>
1.0000

> <Gold.PLP.Chemscore.CHOScore>
0.0000

> <Gold.PLP.Chemscore.Metal>
0.0000

> <Gold.Chemscore.Hbonds>
donor molecule, donor type, donor heavy atom, donor atom, acceptor molecule, acceptor atom, score
      P1  H  7989  7998       L1    10  0.99

> <Gold.PLP.Chemscore.Internal.Correction>
0.0805

> <Gold.Rescore>
     Score         DG    S(hbond)    S(metal)    S(lipo)     H(rot)  DE(clash)    DE(int)     intcor
     17.01     -17.89       0.98        0.00     114.55       1.66       0.13       0.76       ----

> <Gold.Chemscore.Fitness>
17.0086

> <Gold.Chemscore.DG>
-17.8947

> <Gold.Chemscore.ZeroCoef>
-5.4800

> <Gold.Chemscore.Hbond>
0.9804

> <Gold.Chemscore.Metal>
0.0000

> <Gold.Chemscore.Lipo>
114.5474

> <Gold.Chemscore.Internal_Hbond>
0.0000

> <Gold.Chemscore.DEClash>
0.1251

> <Gold.Chemscore.DEInternal>
0.7609

> <Gold.Chemscore.Rot>
1.6648

> <Gold.Chemscore.Internal.Correction>
   9.000000E+99

> <Gold.Chemscore.Hbonds>
donor molecule, donor type, donor heavy atom, donor atom, acceptor molecule, acceptor atom, score
      P1  H  7989  7998       L1    10  0.93

> <Gold.Chemscore.Hbond.Weighted>
-3.2746

> <Gold.Chemscore.Metal.Weighted>
-0.0000

> <Gold.Chemscore.Lipo.Weighted>
-13.4020

> <Gold.Chemscore.Internal_Hbond.Weighted>
0.0000

> <Gold.Chemscore.DEClash.Weighted>
0.1251

> <Gold.Chemscore.DEInternal.Weighted>
0.7609

> <Gold.Chemscore.Rot.Weighted>
4.2619

> <Gold.Chemscore.Internal.Correction.Weighted>
   9.000000E+99

> <Gold.Protein.RotatedTorsions>
[ 6907 6896 6895 6894 ] final   25.64 input  -60.11 | X-H torsion
[ 7974 7965 7964 7962 ] final -113.29 input  175.53 | X-H torsion
[ 8008 7997 7996 7995 ] final -171.64 input   59.86 | X-H torsion
[ 10167 10162 10161 10158 ] final -165.79 input  -65.29 | X-H torsion
[ 10718 10713 10712 10709 ] final  -20.02 input   66.30 | X-H torsion
[ 10763 10752 10751 10750 ] final  136.26 input  -60.55 | X-H torsion
[ 11005 11000 10999 10996 ] final  151.68 input  -57.11 | X-H torsion

> <Gold.Protein.ActiveResidues>
 VAL166  LYS551  ARG553  GLY616  TRP617  ASP618  TYR619  PRO620  LYS621  CYS622 
 ASP623  PHE694  ASN695  SER759  ASP760  ASP761  ALA762  ILE779  LEU786  VAL792 
 PHE793  MET794  SER795  GLU796  ALA797  LYS798  CYS799  TRP800  GLU811  SER814 

> <Gold.Protein.RotatedAtoms>
  151.9756  135.0055  160.0554 H   0  0  0  0  0  0  0  0  0  0  0  0  # atno 6907 bound_to 6896
  152.1743  133.4660  159.4933 H   0  0  0  0  0  0  0  0  0  0  0  0  # atno 6908 bound_to 6896
  150.6907  134.1831  159.4299 H   0  0  0  0  0  0  0  0  0  0  0  0  # atno 6909 bound_to 6896
  145.1338  140.8739  143.3742 H   0  0  0  0  0  0  0  0  0  0  0  0  # atno 7974 bound_to 7965
  155.9341  140.1096  157.1108 H   0  0  0  0  0  0  0  0  0  0  0  0  # atno 8008 bound_to 7997
  154.4076  140.1232  156.4907 H   0  0  0  0  0  0  0  0  0  0  0  0  # atno 8009 bound_to 7997
  155.7043  140.3471  155.4948 H   0  0  0  0  0  0  0  0  0  0  0  0  # atno 8010 bound_to 7997
  139.6158  144.0722  152.1886 H   0  0  0  0  0  0  0  0  0  0  0  0  # atno 10167 bound_to 10162
  156.5376  130.4670  149.6515 H   0  0  0  0  0  0  0  0  0  0  0  0  # atno 10718 bound_to 10713
  153.8536  135.3076  155.3434 H   0  0  0  0  0  0  0  0  0  0  0  0  # atno 10763 bound_to 10752
  154.7880  135.4799  153.9992 H   0  0  0  0  0  0  0  0  0  0  0  0  # atno 10764 bound_to 10752
  153.1503  135.6842  153.8985 H   0  0  0  0  0  0  0  0  0  0  0  0  # atno 10765 bound_to 10752
  140.1240  134.8845  157.2112 H   0  0  0  0  0  0  0  0  0  0  0  0  # atno 11005 bound_to 11000
  145.0607  139.3108  143.5882 LP  0  0  0  0  0  0  0  0  0  0  0  0  # atno 17320 bound_to 7965
  146.3511  140.0047  142.8672 LP  0  0  0  0  0  0  0  0  0  0  0  0  # atno 17321 bound_to 7965
  140.0352  144.6050  150.7455 LP  0  0  0  0  0  0  0  0  0  0  0  0  # atno 17342 bound_to 10162
  140.7350  143.2735  151.3813 LP  0  0  0  0  0  0  0  0  0  0  0  0  # atno 17343 bound_to 10162
  156.3001  130.7172  151.2041 LP  0  0  0  0  0  0  0  0  0  0  0  0  # atno 17370 bound_to 10713
  157.7411  131.0508  150.5121 LP  0  0  0  0  0  0  0  0  0  0  0  0  # atno 17371 bound_to 10713
  140.2928  134.3221  155.7310 LP  0  0  0  0  0  0  0  0  0  0  0  0  # atno 17394 bound_to 11000
  141.2157  133.7545  156.9528 LP  0  0  0  0  0  0  0  0  0  0  0  0  # atno 17395 bound_to 11000

$$$$
