AV-unprocessed.smi:2402|AV-procd|sdf|9505|dock3
  -GOLD-   2272013133D 1   1.00000     0.00000
 Structure written by MMmdl.
 38 39  0  0  0  0  0  0  0  0  1 V2000
  151.8013  145.9288  160.4596 C   0  0  0  0  0  0  0  0  0  0  0  0
  151.9372  144.5807  159.7833 C   0  0  0  0  0  0  0  0  0  0  0  0
  152.8603  143.6266  160.2525 C   0  0  0  0  0  0  0  0  0  0  0  0
  152.9386  142.3909  159.5807 C   0  0  0  0  0  0  0  0  0  0  0  0
  153.9132  141.3219  160.0282 C   0  0  0  0  0  0  0  0  0  0  0  0
  152.1723  142.0835  158.5122 N   0  0  0  0  0  0  0  0  0  0  0  0
  151.2794  142.9944  158.0515 C   0  0  0  0  0  0  0  0  0  0  0  0
  150.4331  142.7721  156.9325 N   0  0  0  0  0  0  0  0  0  0  0  0
  150.0993  141.6007  156.3623 C   0  0  0  0  0  0  0  0  0  0  0  0
  150.4508  140.4887  156.7579 O   0  0  0  0  0  0  0  0  0  0  0  0
  149.3182  141.7886  155.2888 N   0  0  0  0  0  0  0  0  0  0  0  0
  148.7868  140.7206  154.4492 C   0  0  2  0  0  0  0  0  0  0  0  0
  148.0339  139.7184  155.2803 C   0  0  0  0  0  0  0  0  0  0  0  0
  148.4729  138.4738  155.1070 C   0  0  0  0  0  0  0  0  0  0  0  0
  149.6158  138.3872  154.1299 C   0  0  2  0  0  0  0  0  0  0  0  0
  150.8237  137.6385  154.7171 C   0  0  0  0  0  0  0  0  0  0  0  0
  151.7624  137.3536  153.7018 O   0  0  0  0  0  0  0  0  0  0  0  0
  149.9006  139.8722  153.7813 C   0  0  0  0  0  0  0  0  0  0  0  0
  151.1377  144.2579  158.6684 C   0  0  0  0  0  0  0  0  0  0  0  0
  148.1026  141.1255  153.7013 H   0  0  0  0  0  0  0  0  0  0  0  0
  149.2482  137.8609  153.2480 H   0  0  0  0  0  0  0  0  0  0  0  0
  152.5845  146.0801  161.2030 H   0  0  0  0  0  0  0  0  0  0  0  0
  150.8356  146.0037  160.9599 H   0  0  0  0  0  0  0  0  0  0  0  0
  151.8716  146.7307  159.7242 H   0  0  0  0  0  0  0  0  0  0  0  0
  153.4922  143.8363  161.1033 H   0  0  0  0  0  0  0  0  0  0  0  0
  154.3383  141.5586  161.0039 H   0  0  0  0  0  0  0  0  0  0  0  0
  154.7302  141.2338  159.3116 H   0  0  0  0  0  0  0  0  0  0  0  0
  153.4139  140.3553  160.1015 H   0  0  0  0  0  0  0  0  0  0  0  0
  150.0501  143.6030  156.5070 H   0  0  0  0  0  0  0  0  0  0  0  0
  149.0735  142.7342  155.0338 H   0  0  0  0  0  0  0  0  0  0  0  0
  147.2160  140.0038  155.9257 H   0  0  0  0  0  0  0  0  0  0  0  0
  148.0649  137.5995  155.5925 H   0  0  0  0  0  0  0  0  0  0  0  0
  151.3044  138.2249  155.5013 H   0  0  0  0  0  0  0  0  0  0  0  0
  150.5061  136.6972  155.1663 H   0  0  0  0  0  0  0  0  0  0  0  0
  151.2964  137.0564  152.9354 H   0  0  0  0  0  0  0  0  0  0  0  0
  149.9161  140.0260  152.7018 H   0  0  0  0  0  0  0  0  0  0  0  0
  150.8838  140.1679  154.1513 H   0  0  0  0  0  0  0  0  0  0  0  0
  150.4231  144.9756  158.2913 H   0  0  0  0  0  0  0  0  0  0  0  0
  1  2  1  0  0  0  0
  1 22  1  0  0  0  0
  1 23  1  0  0  0  0
  1 24  1  0  0  0  0
  2 19  1  0  0  0  0
  2  3  2  0  0  0  0
  3  4  1  0  0  0  0
  3 25  1  0  0  0  0
  4  5  1  0  0  0  0
  4  6  2  0  0  0  0
  5 26  1  0  0  0  0
  5 27  1  0  0  0  0
  5 28  1  0  0  0  0
  6  7  1  0  0  0  0
  7  8  1  0  0  0  0
  7 19  2  0  0  0  0
  8  9  1  0  0  0  0
  8 29  1  0  0  0  0
  9 10  2  0  0  0  0
  9 11  1  0  0  0  0
 11 12  1  0  0  0  0
 11 30  1  0  0  0  0
 12 20  1  0  0  0  0
 12 18  1  0  0  0  0
 12 13  1  0  0  0  0
 13 14  2  0  0  0  0
 13 31  1  0  0  0  0
 14 15  1  0  0  0  0
 14 32  1  0  0  0  0
 15 21  1  0  0  0  0
 15 16  1  0  0  0  0
 15 18  1  0  0  0  0
 16 17  1  0  0  0  0
 16 33  1  0  0  0  0
 16 34  1  0  0  0  0
 17 35  1  0  0  0  0
 18 36  1  0  0  0  0
 18 37  1  0  0  0  0
 19 38  1  0  0  0  0
M  END
> <s_m_source_file>
AV-unprocessed.smi

> <i_m_source_file_index>
2402

> <i_lp_mmshare_version>
43012

> <i_f3d_flags>
0

> <s_epik_input>
W0NIM11jMVtjSF1jKFtDSDNdKW5jKFtjSF0xKVtOSF1DKD1PKVtOSF1bQ0BASF0yW0NIXT1bQ0hdW0NAQEhdKFtDSDJdMilbQ0gyXVtPSF0=

> <s_epik_cmdline>
J2VwaWtfcHl0aG9uJywgJy1waCcsICc3LjAnLCAnLXRuJywgJzgnLCAnLW1hJywgJzIwMCcsICctbWV0YWxfYmluZGluZycsICctaW1hZScsICc8aW5maWxlLm1hZT4nLCAnLW9tYWUnLCAnPG91dGZpbGUubWFlPic=

> <r_lp_tautomer_probability>
1

> <r_epik_Ionization_Penalty>
0.000257495

> <r_epik_Ionization_Penalty_Charging>
0

> <r_epik_Ionization_Penalty_Neutral>
0.000257495

> <r_epik_State_Penalty>
-0

> <r_epik_Charging_Adjusted_Penalty>
0

> <i_epik_Tot_Q>
0

> <i_epik_Tot_abs_Q>
0

> <r_epik_Metal_State_Penalty>
-0

> <b_epik_Metal_Only>
0

> <s_lp_Force_Field>
OPLS_2005

> <r_lp_Energy>
18.4158

> <b_lp_Chiralities_Consistent>
1

> <s_lp_Variant>
AV-unprocessed.smi:2402-1

> <Gold.Version>
5.8.1

> <Gold.Id.Protein>
6NUR|6NUR_protein|mol2

> <Gold.PLP.Fitness>
48.2746

> <Gold.PLP.PLP>
-37.3632

> <Gold.PLP.part.hbond>
-4.0000

> <Gold.PLP.part.metal>
0.0000

> <Gold.PLP.part.buried>
-0.2540

> <Gold.PLP.part.nonpolar>
-34.4572

> <Gold.PLP.part.repulsive>
0.2159

> <Gold.PLP.ligand.clash>
0.0000

> <Gold.PLP.ligand.torsion>
0.1720

> <Gold.PLP.Chemscore.Hbond>
3.7471

> <Gold.PLP.Chemscore.CHOScore>
0.0000

> <Gold.PLP.Chemscore.Metal>
0.0000

> <Gold.Chemscore.Hbonds>
donor molecule, donor type, donor heavy atom, donor atom, acceptor molecule, acceptor atom, score
      L1  H     8    29       P1  8028  1.00
      L1  H    11    30       P1  8028  0.84
      L1  H    17    35       P1  7949  1.00
      P1  H 10752 10764       L1    17  0.80

> <Gold.PLP.Chemscore.Internal.Correction>
0.0141

> <Gold.Rescore>
     Score         DG    S(hbond)    S(metal)    S(lipo)     H(rot)  DE(clash)    DE(int)     intcor
     17.77     -21.90       2.70        0.00     102.44       1.78       1.49       2.64       ----

> <Gold.Chemscore.Fitness>
17.7667

> <Gold.Chemscore.DG>
-21.9021

> <Gold.Chemscore.ZeroCoef>
-5.4800

> <Gold.Chemscore.Hbond>
2.6961

> <Gold.Chemscore.Metal>
0.0000

> <Gold.Chemscore.Lipo>
102.4390

> <Gold.Chemscore.Internal_Hbond>
0.0000

> <Gold.Chemscore.DEClash>
1.4946

> <Gold.Chemscore.DEInternal>
2.6408

> <Gold.Chemscore.Rot>
1.7844

> <Gold.Chemscore.Internal.Correction>
   9.000000E+99

> <Gold.Chemscore.Hbonds>
donor molecule, donor type, donor heavy atom, donor atom, acceptor molecule, acceptor atom, score
      L1  H     8    29       P1  8028  1.00
      L1  H    11    30       P1  8028  0.79
      L1  H    17    35       P1  7949  0.67
      P1  H 10752 10764       L1    17  0.22

> <Gold.Chemscore.Hbond.Weighted>
-9.0049

> <Gold.Chemscore.Metal.Weighted>
-0.0000

> <Gold.Chemscore.Lipo.Weighted>
-11.9854

> <Gold.Chemscore.Internal_Hbond.Weighted>
0.0000

> <Gold.Chemscore.DEClash.Weighted>
1.4946

> <Gold.Chemscore.DEInternal.Weighted>
2.6408

> <Gold.Chemscore.Rot.Weighted>
4.5681

> <Gold.Chemscore.Internal.Correction.Weighted>
   9.000000E+99

> <Gold.Protein.RotatedTorsions>
[ 6907 6896 6895 6894 ] final  -72.52 input  -60.11 | X-H torsion
[ 7974 7965 7964 7962 ] final   -8.44 input  175.53 | X-H torsion
[ 8008 7997 7996 7995 ] final -121.26 input   59.86 | X-H torsion
[ 10167 10162 10161 10158 ] final   40.71 input  -65.29 | X-H torsion
[ 10718 10713 10712 10709 ] final -118.84 input   66.30 | X-H torsion
[ 10763 10752 10751 10750 ] final  -83.45 input  -60.55 | X-H torsion
[ 11005 11000 10999 10996 ] final -175.67 input  -57.11 | X-H torsion

> <Gold.Protein.ActiveResidues>
 VAL166  LYS551  ARG553  GLY616  TRP617  ASP618  TYR619  PRO620  LYS621  CYS622 
 ASP623  PHE694  ASN695  SER759  ASP760  ASP761  ALA762  ILE779  LEU786  VAL792 
 PHE793  MET794  SER795  GLU796  ALA797  LYS798  CYS799  TRP800  GLU811  SER814 

> <Gold.Protein.RotatedAtoms>
  150.7166  134.5150  159.5625 H   0  0  0  0  0  0  0  0  0  0  0  0  # atno 6907 bound_to 6896
  152.2718  134.7921  160.0422 H   0  0  0  0  0  0  0  0  0  0  0  0  # atno 6908 bound_to 6896
  151.8598  133.3420  159.3737 H   0  0  0  0  0  0  0  0  0  0  0  0  # atno 6909 bound_to 6896
  146.2280  140.2468  142.8345 H   0  0  0  0  0  0  0  0  0  0  0  0  # atno 7974 bound_to 7965
  155.1452  140.0402  157.2808 H   0  0  0  0  0  0  0  0  0  0  0  0  # atno 8008 bound_to 7997
  154.6444  140.2554  155.7258 H   0  0  0  0  0  0  0  0  0  0  0  0  # atno 8009 bound_to 7997
  156.2548  140.2849  156.0851 H   0  0  0  0  0  0  0  0  0  0  0  0  # atno 8010 bound_to 7997
  140.3715  144.2099  150.6133 H   0  0  0  0  0  0  0  0  0  0  0  0  # atno 10167 bound_to 10162
  156.1136  130.6268  150.9342 H   0  0  0  0  0  0  0  0  0  0  0  0  # atno 10718 bound_to 10713
  154.5879  135.5555  153.7249 H   0  0  0  0  0  0  0  0  0  0  0  0  # atno 10763 bound_to 10752
  153.0105  135.6336  154.1891 H   0  0  0  0  0  0  0  0  0  0  0  0  # atno 10764 bound_to 10752
  154.1832  135.2886  155.3025 H   0  0  0  0  0  0  0  0  0  0  0  0  # atno 10765 bound_to 10752
  140.4607  134.6257  157.4841 H   0  0  0  0  0  0  0  0  0  0  0  0  # atno 11005 bound_to 11000
  144.9442  140.8111  143.5611 LP  0  0  0  0  0  0  0  0  0  0  0  0  # atno 17320 bound_to 7965
  145.2422  139.2067  143.4986 LP  0  0  0  0  0  0  0  0  0  0  0  0  # atno 17321 bound_to 7965
  140.5029  143.2313  151.8652 LP  0  0  0  0  0  0  0  0  0  0  0  0  # atno 17342 bound_to 10162
  139.4803  144.5039  151.9023 LP  0  0  0  0  0  0  0  0  0  0  0  0  # atno 17343 bound_to 10162
  157.6319  131.0920  150.8425 LP  0  0  0  0  0  0  0  0  0  0  0  0  # atno 17370 bound_to 10713
  156.8531  130.5087  149.5310 LP  0  0  0  0  0  0  0  0  0  0  0  0  # atno 17371 bound_to 10713
  139.9947  134.6930  155.9630 LP  0  0  0  0  0  0  0  0  0  0  0  0  # atno 17394 bound_to 11000
  141.1622  133.6538  156.4358 LP  0  0  0  0  0  0  0  0  0  0  0  0  # atno 17395 bound_to 11000

$$$$
