AV-unprocessed.smi:2153|AV-procd|sdf|8769|dock2
  -GOLD-   2272011553D 1   1.00000     0.00000
 Structure written by MMmdl.
 48 49  0  0  0  0  0  0  0  0  1 V2000
  151.6017  144.4852  159.5137 C   0  0  0  0  0  0  0  0  0  0  0  0
  152.4028  143.1972  159.2653 C   0  0  1  0  0  0  0  0  0  0  0  0
  153.0090  142.6698  160.5817 C   0  0  0  0  0  0  0  0  0  0  0  0
  153.8166  141.3817  160.3630 C   0  0  0  0  0  0  0  0  0  0  0  0
  152.9535  140.3001  159.7015 C   0  0  0  0  0  0  0  0  0  0  0  0
  152.3510  140.8104  158.3862 C   0  0  0  0  0  0  0  0  0  0  0  0
  151.5418  142.1109  158.5809 C   0  0  2  0  0  0  0  0  0  0  0  0
  151.1575  142.6067  157.3050 O   0  0  0  0  0  0  0  0  0  0  0  0
  150.3781  141.7085  156.5269 C   0  0  0  0  0  0  0  0  0  0  0  0
  149.1432  141.2921  157.3428 C   0  0  0  0  0  0  0  0  0  0  0  0
  147.9374  141.2723  156.5203 N   0  0  0  0  0  0  0  0  0  0  0  0
  146.8137  141.9621  156.7687 C   0  0  0  0  0  0  0  0  0  0  0  0
  146.7015  142.7682  157.6918 O   0  0  0  0  0  0  0  0  0  0  0  0
  145.6294  141.6904  155.8358 C   0  0  0  0  0  0  0  0  0  0  0  0
  145.3201  142.8672  155.0138 N   0  0  0  0  0  0  0  0  0  0  0  0
  145.9497  143.0258  153.7922 C   0  0  0  0  0  0  0  0  0  0  0  0
  145.7029  144.0556  152.9533 C   0  0  0  0  0  0  0  0  0  0  0  0
  144.7251  145.0817  153.2942 C   0  0  0  0  0  0  0  0  0  0  0  0
  144.4708  146.0359  152.5587 O   0  0  0  0  0  0  0  0  0  0  0  0
  144.0901  144.8922  154.5454 N   0  0  0  0  0  0  0  0  0  0  0  0
  143.0982  145.8545  154.9779 C   0  0  0  0  0  0  0  0  0  0  0  0
  144.3705  143.8260  155.4291 C   0  0  0  0  0  0  0  0  0  0  0  0
  143.8093  143.7245  156.5226 O   0  0  0  0  0  0  0  0  0  0  0  0
  150.7473  144.3006  160.1656 H   0  0  0  0  0  0  0  0  0  0  0  0
  151.2232  144.9040  158.5809 H   0  0  0  0  0  0  0  0  0  0  0  0
  152.2217  145.2481  159.9849 H   0  0  0  0  0  0  0  0  0  0  0  0
  153.2285  143.4448  158.5961 H   0  0  0  0  0  0  0  0  0  0  0  0
  153.6525  143.4296  161.0265 H   0  0  0  0  0  0  0  0  0  0  0  0
  152.2134  142.4795  161.3033 H   0  0  0  0  0  0  0  0  0  0  0  0
  154.6843  141.5930  159.7367 H   0  0  0  0  0  0  0  0  0  0  0  0
  154.2035  141.0176  161.3151 H   0  0  0  0  0  0  0  0  0  0  0  0
  153.5537  139.4095  159.5135 H   0  0  0  0  0  0  0  0  0  0  0  0
  152.1536  139.9994  160.3794 H   0  0  0  0  0  0  0  0  0  0  0  0
  153.1536  141.0026  157.6775 H   0  0  0  0  0  0  0  0  0  0  0  0
  151.7380  140.0253  157.9455 H   0  0  0  0  0  0  0  0  0  0  0  0
  150.6600  141.9162  159.1948 H   0  0  0  0  0  0  0  0  0  0  0  0
  150.0618  142.1560  155.5852 H   0  0  0  0  0  0  0  0  0  0  0  0
  150.9806  140.8365  156.2713 H   0  0  0  0  0  0  0  0  0  0  0  0
  149.2996  140.3138  157.7992 H   0  0  0  0  0  0  0  0  0  0  0  0
  148.9847  141.9979  158.1583 H   0  0  0  0  0  0  0  0  0  0  0  0
  147.9370  140.6377  155.7352 H   0  0  0  0  0  0  0  0  0  0  0  0
  145.8545  140.8288  155.2050 H   0  0  0  0  0  0  0  0  0  0  0  0
  144.7578  141.4009  156.4252 H   0  0  0  0  0  0  0  0  0  0  0  0
  146.6759  142.2859  153.4878 H   0  0  0  0  0  0  0  0  0  0  0  0
  146.2314  144.1177  152.0133 H   0  0  0  0  0  0  0  0  0  0  0  0
  142.2424  145.3052  155.3749 H   0  0  0  0  0  0  0  0  0  0  0  0
  142.7568  146.4637  154.1412 H   0  0  0  0  0  0  0  0  0  0  0  0
  143.5687  146.4716  155.7448 H   0  0  0  0  0  0  0  0  0  0  0  0
  1  2  1  0  0  0  0
  1 24  1  0  0  0  0
  1 25  1  0  0  0  0
  1 26  1  0  0  0  0
  2  7  1  0  0  0  0
  2  3  1  0  0  0  0
  2 27  1  0  0  0  0
  3  4  1  0  0  0  0
  3 28  1  0  0  0  0
  3 29  1  0  0  0  0
  4  5  1  0  0  0  0
  4 30  1  0  0  0  0
  4 31  1  0  0  0  0
  5  6  1  0  0  0  0
  5 32  1  0  0  0  0
  5 33  1  0  0  0  0
  6  7  1  0  0  0  0
  6 34  1  0  0  0  0
  6 35  1  0  0  0  0
  7  8  1  0  0  0  0
  7 36  1  0  0  0  0
  8  9  1  0  0  0  0
  9 10  1  0  0  0  0
  9 37  1  0  0  0  0
  9 38  1  0  0  0  0
 10 11  1  0  0  0  0
 10 39  1  0  0  0  0
 10 40  1  0  0  0  0
 11 12  1  0  0  0  0
 11 41  1  0  0  0  0
 12 13  2  0  0  0  0
 12 14  1  0  0  0  0
 14 15  1  0  0  0  0
 14 42  1  0  0  0  0
 14 43  1  0  0  0  0
 15 22  1  0  0  0  0
 15 16  1  0  0  0  0
 16 17  2  0  0  0  0
 16 44  1  0  0  0  0
 17 18  1  0  0  0  0
 17 45  1  0  0  0  0
 18 19  2  0  0  0  0
 18 20  1  0  0  0  0
 20 21  1  0  0  0  0
 20 22  1  0  0  0  0
 21 46  1  0  0  0  0
 21 47  1  0  0  0  0
 21 48  1  0  0  0  0
 22 23  2  0  0  0  0
M  END
> <s_m_source_file>
AV-unprocessed.smi

> <i_m_source_file_index>
2153

> <i_lp_mmshare_version>
43012

> <i_f3d_flags>
0

> <s_epik_input>
W0NIM11bQ0BASF0xW0NIMl1bQ0gyXVtDSDJdW0NIMl1bQ0BIXTFPW0NIMl1bQ0gyXVtOSF1DKD1PKVtDSDJdbjJbY0hdW2NIXWMoPU8pbihbQ0gzXSljMj1P

> <s_epik_cmdline>
J2VwaWtfcHl0aG9uJywgJy1waCcsICc3LjAnLCAnLXRuJywgJzgnLCAnLW1hJywgJzIwMCcsICctbWV0YWxfYmluZGluZycsICctaW1hZScsICc8aW5maWxlLm1hZT4nLCAnLW9tYWUnLCAnPG91dGZpbGUubWFlPic=

> <r_lp_tautomer_probability>
1

> <r_epik_Ionization_Penalty>
4.02205e-08

> <r_epik_Ionization_Penalty_Charging>
1.23606e-08

> <r_epik_Ionization_Penalty_Neutral>
2.78599e-08

> <r_epik_State_Penalty>
-0

> <r_epik_Charging_Adjusted_Penalty>
1.23606e-08

> <i_epik_Tot_Q>
0

> <i_epik_Tot_abs_Q>
0

> <r_epik_Metal_State_Penalty>
-0

> <b_epik_Metal_Only>
0

> <s_lp_Force_Field>
OPLS_2005

> <r_lp_Energy>
17.7366

> <b_lp_Chiralities_Consistent>
1

> <s_lp_Variant>
AV-unprocessed.smi:2153-4

> <Gold.Version>
5.8.1

> <Gold.Id.Protein>
6NUR|6NUR_protein|mol2

> <Gold.PLP.Fitness>
47.9485

> <Gold.PLP.PLP>
-49.3589

> <Gold.PLP.part.hbond>
-2.0000

> <Gold.PLP.part.metal>
0.0000

> <Gold.PLP.part.buried>
-7.1105

> <Gold.PLP.part.nonpolar>
-40.5501

> <Gold.PLP.part.repulsive>
0.9437

> <Gold.PLP.ligand.clash>
0.0000

> <Gold.PLP.ligand.torsion>
0.7367

> <Gold.PLP.Chemscore.Hbond>
0.0000

> <Gold.PLP.Chemscore.CHOScore>
0.0000

> <Gold.PLP.Chemscore.Metal>
0.0000

> <Gold.PLP.Chemscore.Internal.Correction>
0.0629

> <Gold.Rescore>
     Score         DG    S(hbond)    S(metal)    S(lipo)     H(rot)  DE(clash)    DE(int)     intcor
     10.27     -12.60       0.00        0.00     108.93       2.20       1.56       0.77       ----

> <Gold.Chemscore.Fitness>
10.2668

> <Gold.Chemscore.DG>
-12.6007

> <Gold.Chemscore.ZeroCoef>
-5.4800

> <Gold.Chemscore.Hbond>
0.0000

> <Gold.Chemscore.Metal>
0.0000

> <Gold.Chemscore.Lipo>
108.9270

> <Gold.Chemscore.Internal_Hbond>
0.0000

> <Gold.Chemscore.DEClash>
1.5610

> <Gold.Chemscore.DEInternal>
0.7729

> <Gold.Chemscore.Rot>
2.1968

> <Gold.Chemscore.Internal.Correction>
   9.000000E+99

> <Gold.Chemscore.Hbond.Weighted>
-0.0000

> <Gold.Chemscore.Metal.Weighted>
-0.0000

> <Gold.Chemscore.Lipo.Weighted>
-12.7445

> <Gold.Chemscore.Internal_Hbond.Weighted>
0.0000

> <Gold.Chemscore.DEClash.Weighted>
1.5610

> <Gold.Chemscore.DEInternal.Weighted>
0.7729

> <Gold.Chemscore.Rot.Weighted>
5.6238

> <Gold.Chemscore.Internal.Correction.Weighted>
   9.000000E+99

> <Gold.Protein.RotatedTorsions>
[ 6907 6896 6895 6894 ] final   18.46 input  -60.11 | X-H torsion
[ 7974 7965 7964 7962 ] final    6.22 input  175.53 | X-H torsion
[ 8008 7997 7996 7995 ] final  -81.07 input   59.86 | X-H torsion
[ 10167 10162 10161 10158 ] final -144.72 input  -65.29 | X-H torsion
[ 10718 10713 10712 10709 ] final -119.06 input   66.30 | X-H torsion
[ 10763 10752 10751 10750 ] final  -47.50 input  -60.55 | X-H torsion
[ 11005 11000 10999 10996 ] final -173.17 input  -57.11 | X-H torsion

> <Gold.Protein.ActiveResidues>
 VAL166  LYS551  ARG553  GLY616  TRP617  ASP618  TYR619  PRO620  LYS621  CYS622 
 ASP623  PHE694  ASN695  SER759  ASP760  ASP761  ALA762  ILE779  LEU786  VAL792 
 PHE793  MET794  SER795  GLU796  ALA797  LYS798  CYS799  TRP800  GLU811  SER814 

> <Gold.Protein.RotatedAtoms>
  151.8657  135.0508  160.0473 H   0  0  0  0  0  0  0  0  0  0  0  0  # atno 6907 bound_to 6896
  152.2628  133.5308  159.5400 H   0  0  0  0  0  0  0  0  0  0  0  0  # atno 6908 bound_to 6896
  150.7123  134.0722  159.3911 H   0  0  0  0  0  0  0  0  0  0  0  0  # atno 6909 bound_to 6896
  146.2436  140.0266  142.8393 H   0  0  0  0  0  0  0  0  0  0  0  0  # atno 7974 bound_to 7965
  154.5947  140.0653  156.9286 H   0  0  0  0  0  0  0  0  0  0  0  0  # atno 8008 bound_to 7997
  155.2235  140.3332  155.4294 H   0  0  0  0  0  0  0  0  0  0  0  0  # atno 8009 bound_to 7997
  156.2279  140.1827  156.7301 H   0  0  0  0  0  0  0  0  0  0  0  0  # atno 8010 bound_to 7997
  139.7873  143.8016  152.2646 H   0  0  0  0  0  0  0  0  0  0  0  0  # atno 10167 bound_to 10162
  156.1152  130.6280  150.9368 H   0  0  0  0  0  0  0  0  0  0  0  0  # atno 10718 bound_to 10713
  154.0624  135.6616  153.4813 H   0  0  0  0  0  0  0  0  0  0  0  0  # atno 10763 bound_to 10752
  153.0422  135.5138  154.7646 H   0  0  0  0  0  0  0  0  0  0  0  0  # atno 10764 bound_to 10752
  154.6687  135.3026  154.9738 H   0  0  0  0  0  0  0  0  0  0  0  0  # atno 10765 bound_to 10752
  140.4887  134.6005  157.4946 H   0  0  0  0  0  0  0  0  0  0  0  0  # atno 11005 bound_to 11000
  145.1192  140.9452  143.4610 LP  0  0  0  0  0  0  0  0  0  0  0  0  # atno 17320 bound_to 7965
  145.0498  139.3191  143.5934 LP  0  0  0  0  0  0  0  0  0  0  0  0  # atno 17321 bound_to 7965
  139.8097  144.7341  150.9714 LP  0  0  0  0  0  0  0  0  0  0  0  0  # atno 17342 bound_to 10162
  140.7820  143.4263  151.0763 LP  0  0  0  0  0  0  0  0  0  0  0  0  # atno 17343 bound_to 10162
  157.6335  131.0918  150.8394 LP  0  0  0  0  0  0  0  0  0  0  0  0  # atno 17370 bound_to 10713
  156.8499  130.5077  149.5313 LP  0  0  0  0  0  0  0  0  0  0  0  0  # atno 17371 bound_to 10713
  139.9782  134.7180  155.9909 LP  0  0  0  0  0  0  0  0  0  0  0  0  # atno 17394 bound_to 11000
  141.1495  133.6550  156.3969 LP  0  0  0  0  0  0  0  0  0  0  0  0  # atno 17395 bound_to 11000

$$$$
