AV-unprocessed.smi:2928|AV-procd|sdf|11235|dock1
  -GOLD-   2272016123D 1   1.00000     0.00000
 Structure written by MMmdl.
 56 59  0  0  0  0  0  0  0  0  3 V2000
  157.8977  137.3542  161.9724 C   0  0  0  0  0  0  0  0  0  0  0  0
  156.4977  137.4876  161.5033 N   0  3  2  0  0  0  0  0  0  0  0  0
  156.3436  137.6313  160.0358 C   0  0  2  0  0  0  0  0  0  0  0  0
  156.8592  139.0083  159.5444 C   0  0  0  0  0  0  0  0  0  0  0  0
  156.2936  140.2127  160.3202 C   0  0  0  0  0  0  0  0  0  0  0  0
  156.1893  139.9520  161.8338 C   0  0  0  0  0  0  0  0  0  0  0  0
  155.7046  138.5271  162.2014 C   0  0  1  0  0  0  0  0  0  0  0  0
  154.1998  138.2611  161.9631 C   0  0  0  0  0  0  0  0  0  0  0  0
  153.7865  137.9899  160.4898 C   0  0  1  0  0  0  0  0  0  0  0  0
  153.2660  139.1736  159.8112 N   0  0  0  0  0  0  0  0  0  0  0  0
  152.5738  139.1837  158.6631 C   0  0  0  0  0  0  0  0  0  0  0  0
  152.3099  138.1713  158.0155 O   0  0  0  0  0  0  0  0  0  0  0  0
  152.1933  140.4307  158.3427 N   0  0  0  0  0  0  0  0  0  0  0  0
  151.3583  140.8428  157.2671 C   0  0  0  0  0  0  0  0  0  0  0  0
  150.9523  139.9620  156.2328 C   0  0  0  0  0  0  0  0  0  0  0  0
  150.1389  140.4429  155.1875 C   0  0  0  0  0  0  0  0  0  0  0  0
  149.7514  141.7959  155.1877 C   0  0  0  0  0  0  0  0  0  0  0  0
  150.1681  142.6118  156.1785 N   0  3  0  0  0  0  0  0  0  0  0  0
  150.9516  142.1997  157.2051 C   0  0  0  0  0  0  0  0  0  0  0  0
  151.3311  143.1283  158.1896 N   0  0  0  0  0  0  0  0  0  0  0  0
  152.2397  144.1726  157.7476 C   0  0  0  0  0  0  0  0  0  0  0  0
  152.1986  145.2385  158.8458 C   0  0  0  0  0  0  0  0  0  0  0  0
  150.8773  144.9934  159.5854 C   0  0  0  0  0  0  0  0  0  0  0  0
  150.2362  143.8062  158.8625 C   0  0  0  0  0  0  0  0  0  0  0  0
  154.8847  137.2930  159.6470 C   0  0  0  0  0  0  0  0  0  0  0  0
  158.4895  138.2465  161.7710 H   0  0  0  0  0  0  0  0  0  0  0  0
  158.3832  136.5097  161.4829 H   0  0  0  0  0  0  0  0  0  0  0  0
  157.9217  137.1693  163.0466 H   0  0  0  0  0  0  0  0  0  0  0  0
  156.9671  136.8722  159.5612 H   0  0  0  0  0  0  0  0  0  0  0  0
  157.9457  139.0250  159.6351 H   0  0  0  0  0  0  0  0  0  0  0  0
  156.6585  139.1277  158.4794 H   0  0  0  0  0  0  0  0  0  0  0  0
  156.9260  141.0838  160.1469 H   0  0  0  0  0  0  0  0  0  0  0  0
  155.3282  140.5025  159.9204 H   0  0  0  0  0  0  0  0  0  0  0  0
  157.1727  140.1109  162.2769 H   0  0  0  0  0  0  0  0  0  0  0  0
  155.5422  140.6996  162.2936 H   0  0  0  0  0  0  0  0  0  0  0  0
  155.8681  138.4038  163.2732 H   0  0  0  0  0  0  0  0  0  0  0  0
  153.9431  137.3674  162.5336 H   0  0  0  0  0  0  0  0  0  0  0  0
  153.6005  139.0561  162.4077 H   0  0  0  0  0  0  0  0  0  0  0  0
  152.9431  137.2969  160.5190 H   0  0  0  0  0  0  0  0  0  0  0  0
  153.4337  140.0599  160.2645 H   0  0  0  0  0  0  0  0  0  0  0  0
  152.4205  141.1494  159.0142 H   0  0  0  0  0  0  0  0  0  0  0  0
  151.2620  138.9281  156.2167 H   0  0  0  0  0  0  0  0  0  0  0  0
  149.8205  139.7825  154.3942 H   0  0  0  0  0  0  0  0  0  0  0  0
  149.1304  142.2484  154.4281 H   0  0  0  0  0  0  0  0  0  0  0  0
  153.2480  143.7822  157.6056 H   0  0  0  0  0  0  0  0  0  0  0  0
  151.9053  144.5966  156.7997 H   0  0  0  0  0  0  0  0  0  0  0  0
  153.0369  145.1100  159.5317 H   0  0  0  0  0  0  0  0  0  0  0  0
  152.2615  146.2448  158.4302 H   0  0  0  0  0  0  0  0  0  0  0  0
  151.0772  144.7396  160.6273 H   0  0  0  0  0  0  0  0  0  0  0  0
  150.2265  145.8682  159.5759 H   0  0  0  0  0  0  0  0  0  0  0  0
  149.5017  144.1609  158.1380 H   0  0  0  0  0  0  0  0  0  0  0  0
  149.7282  143.1384  159.5589 H   0  0  0  0  0  0  0  0  0  0  0  0
  154.7235  137.4591  158.5810 H   0  0  0  0  0  0  0  0  0  0  0  0
  154.7610  136.2178  159.7859 H   0  0  0  0  0  0  0  0  0  0  0  0
  156.0642  136.6063  161.7399 H   0  0  0  0  0  0  0  0  0  0  0  0
  149.8768  143.5892  156.1535 H   0  0  0  0  0  0  0  0  0  0  0  0
  1  2  1  0  0  0  0
  1 26  1  0  0  0  0
  1 27  1  0  0  0  0
  1 28  1  0  0  0  0
  2  7  1  0  0  0  0
  2  3  1  0  0  0  0
  2 55  1  0  0  0  0
  3 25  1  0  0  0  0
  3  4  1  0  0  0  0
  3 29  1  0  0  0  0
  4  5  1  0  0  0  0
  4 30  1  0  0  0  0
  4 31  1  0  0  0  0
  5  6  1  0  0  0  0
  5 32  1  0  0  0  0
  5 33  1  0  0  0  0
  6  7  1  0  0  0  0
  6 34  1  0  0  0  0
  6 35  1  0  0  0  0
  7  8  1  0  0  0  0
  7 36  1  0  0  0  0
  8  9  1  0  0  0  0
  8 37  1  0  0  0  0
  8 38  1  0  0  0  0
  9 10  1  0  0  0  0
  9 25  1  0  0  0  0
  9 39  1  0  0  0  0
 10 11  1  0  0  0  0
 10 40  1  0  0  0  0
 11 12  2  0  0  0  0
 11 13  1  0  0  0  0
 13 14  1  0  0  0  0
 13 41  1  0  0  0  0
 14 19  1  0  0  0  0
 14 15  2  0  0  0  0
 15 16  1  0  0  0  0
 15 42  1  0  0  0  0
 16 17  2  0  0  0  0
 16 43  1  0  0  0  0
 17 18  1  0  0  0  0
 17 44  1  0  0  0  0
 18 19  2  0  0  0  0
 18 56  1  0  0  0  0
 19 20  1  0  0  0  0
 20 24  1  0  0  0  0
 20 21  1  0  0  0  0
 21 22  1  0  0  0  0
 21 45  1  0  0  0  0
 21 46  1  0  0  0  0
 22 23  1  0  0  0  0
 22 47  1  0  0  0  0
 22 48  1  0  0  0  0
 23 24  1  0  0  0  0
 23 49  1  0  0  0  0
 23 50  1  0  0  0  0
 24 51  1  0  0  0  0
 24 52  1  0  0  0  0
 25 53  1  0  0  0  0
 25 54  1  0  0  0  0
M  CHG  1   2   1
M  CHG  1  18   1
M  END
> <s_m_source_file>
AV-unprocessed.smi

> <i_m_source_file_index>
2928

> <i_lp_mmshare_version>
43012

> <i_f3d_flags>
0

> <s_epik_input>
W0NIMl0xW0NIMl1bQ0gyXVtDQEhdKE4oW0NIM10pW0NIXTEyKVtDSDJdW0NASF0oW0NIMl0yKVtOSF1DKD1PKVtOSF1jM1tjSF1bY0hdW2NIXW5jM040W0NIMl1bQ0gyXVtDSDJdW0NIMl00

> <s_epik_cmdline>
J2VwaWtfcHl0aG9uJywgJy1waCcsICc3LjAnLCAnLXRuJywgJzgnLCAnLW1hJywgJzIwMCcsICctbWV0YWxfYmluZGluZycsICctaW1hZScsICc8aW5maWxlLm1hZT4nLCAnLW9tYWUnLCAnPG91dGZpbGUubWFlPic=

> <r_lp_tautomer_probability>
0.999994

> <r_epik_Ionization_Penalty>
1.2404

> <r_epik_Ionization_Penalty_Charging>
1.24038

> <r_epik_Ionization_Penalty_Neutral>
1.86539e-05

> <r_epik_State_Penalty>
1.30821

> <r_epik_Charging_Adjusted_Penalty>
2.54859

> <i_epik_Tot_Q>
2

> <i_epik_Tot_abs_Q>
2

> <r_epik_Metal_State_Penalty>
1.3782

> <b_epik_Metal_Only>
0

> <s_lp_Force_Field>
OPLS_2005

> <r_lp_Energy>
75.6224

> <b_lp_Chiralities_Consistent>
1

> <s_lp_Variant>
AV-unprocessed.smi:2928-5

> <Gold.Version>
5.8.1

> <Gold.Id.Protein>
6NUR|6NUR_protein|mol2

> <Gold.PLP.Fitness>
42.9443

> <Gold.PLP.PLP>
-37.2432

> <Gold.PLP.part.hbond>
-1.0000

> <Gold.PLP.part.metal>
0.0000

> <Gold.PLP.part.buried>
-3.6168

> <Gold.PLP.part.nonpolar>
-31.9545

> <Gold.PLP.part.repulsive>
0.3734

> <Gold.PLP.ligand.clash>
0.0000

> <Gold.PLP.ligand.torsion>
0.2016

> <Gold.PLP.Chemscore.Hbond>
2.0000

> <Gold.PLP.Chemscore.CHOScore>
0.0000

> <Gold.PLP.Chemscore.Metal>
0.0000

> <Gold.Chemscore.Hbonds>
donor molecule, donor type, donor heavy atom, donor atom, acceptor molecule, acceptor atom, score
      L1  H    18    56       P1  8028  2.00

> <Gold.PLP.Chemscore.Internal.Correction>
0.1042

> <Gold.Rescore>
     Score         DG    S(hbond)    S(metal)    S(lipo)     H(rot)  DE(clash)    DE(int)     intcor
     17.09     -18.77       0.98        0.00     111.57       1.19       0.16       1.52       ----

> <Gold.Chemscore.Fitness>
17.0946

> <Gold.Chemscore.DG>
-18.7743

> <Gold.Chemscore.ZeroCoef>
-5.4800

> <Gold.Chemscore.Hbond>
0.9826

> <Gold.Chemscore.Metal>
0.0000

> <Gold.Chemscore.Lipo>
111.5684

> <Gold.Chemscore.Internal_Hbond>
0.0000

> <Gold.Chemscore.DEClash>
0.1642

> <Gold.Chemscore.DEInternal>
1.5154

> <Gold.Chemscore.Rot>
1.1879

> <Gold.Chemscore.Internal.Correction>
   9.000000E+99

> <Gold.Chemscore.Hbonds>
donor molecule, donor type, donor heavy atom, donor atom, acceptor molecule, acceptor atom, score
      L1  H    18    56       P1  8028  0.93

> <Gold.Chemscore.Hbond.Weighted>
-3.2818

> <Gold.Chemscore.Metal.Weighted>
-0.0000

> <Gold.Chemscore.Lipo.Weighted>
-13.0535

> <Gold.Chemscore.Internal_Hbond.Weighted>
0.0000

> <Gold.Chemscore.DEClash.Weighted>
0.1642

> <Gold.Chemscore.DEInternal.Weighted>
1.5154

> <Gold.Chemscore.Rot.Weighted>
3.0410

> <Gold.Chemscore.Internal.Correction.Weighted>
   9.000000E+99

> <Gold.Protein.RotatedTorsions>
[ 6907 6896 6895 6894 ] final  -81.83 input  -60.11 | X-H torsion
[ 7974 7965 7964 7962 ] final  112.37 input  175.53 | X-H torsion
[ 8008 7997 7996 7995 ] final  -83.06 input   59.86 | X-H torsion
[ 10167 10162 10161 10158 ] final  -91.41 input  -65.29 | X-H torsion
[ 10718 10713 10712 10709 ] final -143.64 input   66.30 | X-H torsion
[ 10763 10752 10751 10750 ] final  -82.21 input  -60.55 | X-H torsion
[ 11005 11000 10999 10996 ] final  -82.99 input  -57.11 | X-H torsion

> <Gold.Protein.ActiveResidues>
 VAL166  LYS551  ARG553  GLY616  TRP617  ASP618  TYR619  PRO620  LYS621  CYS622 
 ASP623  PHE694  ASN695  SER759  ASP760  ASP761  ALA762  ILE779  LEU786  VAL792 
 PHE793  MET794  SER795  GLU796  ALA797  LYS798  CYS799  TRP800  GLU811  SER814 

> <Gold.Protein.RotatedAtoms>
  150.6906  134.3758  159.5011 H   0  0  0  0  0  0  0  0  0  0  0  0  # atno 6907 bound_to 6896
  152.1567  134.8942  160.0553 H   0  0  0  0  0  0  0  0  0  0  0  0  # atno 6908 bound_to 6896
  152.0019  133.3794  159.4222 H   0  0  0  0  0  0  0  0  0  0  0  0  # atno 6909 bound_to 6896
  145.2304  139.2822  143.4171 H   0  0  0  0  0  0  0  0  0  0  0  0  # atno 7974 bound_to 7965
  154.6151  140.0624  156.9544 H   0  0  0  0  0  0  0  0  0  0  0  0  # atno 8008 bound_to 7997
  155.1909  140.3307  155.4340 H   0  0  0  0  0  0  0  0  0  0  0  0  # atno 8009 bound_to 7997
  156.2399  140.1881  156.6999 H   0  0  0  0  0  0  0  0  0  0  0  0  # atno 8010 bound_to 7997
  140.3451  143.2921  151.9790 H   0  0  0  0  0  0  0  0  0  0  0  0  # atno 10167 bound_to 10162
  156.3604  130.7735  151.1902 H   0  0  0  0  0  0  0  0  0  0  0  0  # atno 10718 bound_to 10713
  154.5730  135.5599  153.7112 H   0  0  0  0  0  0  0  0  0  0  0  0  # atno 10763 bound_to 10752
  153.0055  135.6301  154.2088 H   0  0  0  0  0  0  0  0  0  0  0  0  # atno 10764 bound_to 10752
  154.2028  135.2877  155.2965 H   0  0  0  0  0  0  0  0  0  0  0  0  # atno 10765 bound_to 10752
  141.1660  133.7272  156.8653 H   0  0  0  0  0  0  0  0  0  0  0  0  # atno 11005 bound_to 11000
  146.3354  140.2637  142.8603 LP  0  0  0  0  0  0  0  0  0  0  0  0  # atno 17320 bound_to 7965
  144.9682  140.8342  143.5472 LP  0  0  0  0  0  0  0  0  0  0  0  0  # atno 17321 bound_to 7965
  139.4834  144.6124  151.7410 LP  0  0  0  0  0  0  0  0  0  0  0  0  # atno 17342 bound_to 10162
  140.5272  144.0787  150.6041 LP  0  0  0  0  0  0  0  0  0  0  0  0  # atno 17343 bound_to 10162
  157.7473  131.0401  150.4584 LP  0  0  0  0  0  0  0  0  0  0  0  0  # atno 17370 bound_to 10713
  156.4794  130.4070  149.6470 LP  0  0  0  0  0  0  0  0  0  0  0  0  # atno 17371 bound_to 10713
  140.1819  134.9027  157.2959 LP  0  0  0  0  0  0  0  0  0  0  0  0  # atno 17394 bound_to 11000
  140.2385  134.3824  155.7491 LP  0  0  0  0  0  0  0  0  0  0  0  0  # atno 17395 bound_to 11000

$$$$
