#       Name:                AV-unprocessed.smi:1749
#       Creating user name   scv26
#       Creation time:       Fri Mar 27 08:26:24 2020


#       File generated by GOLD software.
#

@<TRIPOS>MOLECULE
AV-unprocessed.smi:1749
    36    37     1
SMALL
NO_CHARGES


@<TRIPOS>ATOM
      1 ****        -2.9979  -0.6549   2.2964 C.3            1 S1                 0.0000
      2 ****        -2.4888   0.0421   1.0268 C.3            1 S1                 0.0000
      3 ****        -3.0536  -0.6209  -0.2443 C.3            1 S1                 0.0000
      4 ****        -2.5426   0.0729  -1.5166 C.3            1 S1                 0.0000
      5 ****        -1.0071   0.1028  -1.5563 C.3            1 S1                 0.0000
      6 ****        -0.4269   0.7652  -0.2934 C.3            1 S1                 0.0000
      7 ****         1.0308   0.6937  -0.3276 N.am           1 S1                 0.0000
      8 ****         1.8818   1.7313  -0.2617 C.2            1 S1                 0.0000
      9 ****         1.5064   2.8996  -0.1806 O.2            1 S1                 0.0000
     10 ****         3.1980   1.4297  -0.2913 N.am           1 S1                 0.0000
     11 ****         4.3636   2.2498  -0.2425 C.2            1 S1                 0.0000
     12 ****         4.3526   3.5919  -0.1856 N.2            1 S1                 0.0000
     13 ****         5.6338   4.1257  -0.1561 N.2            1 S1                 0.0000
     14 ****         6.5640   3.1681  -0.1951 C.2            1 S1                 0.0000
     15 ****         5.9640   1.5208  -0.2713 S.3            1 S1                 0.0000
     16 ****        -0.9485   0.0733   0.9805 C.3            1 S1                 0.0000
     17 ****        -2.6781  -1.6969   2.3320 H              1 S1                 0.0000
     18 ****        -4.0871  -0.6391   2.3432 H              1 S1                 0.0000
     19 ****        -2.6225  -0.1612   3.1931 H              1 S1                 0.0000
     20 ****        -2.8440   1.0734   1.0539 H              1 S1                 0.0000
     21 ****        -2.7716  -1.6745  -0.2679 H              1 S1                 0.0000
     22 ****        -4.1437  -0.5941  -0.2267 H              1 S1                 0.0000
     23 ****        -2.9265  -0.4402  -2.3989 H              1 S1                 0.0000
     24 ****        -2.9298   1.0917  -1.5585 H              1 S1                 0.0000
     25 ****        -0.6296  -0.9170  -1.6466 H              1 S1                 0.0000
     26 ****        -0.6725   0.6367  -2.4467 H              1 S1                 0.0000
     27 ****        -0.7565   1.8055  -0.2757 H              1 S1                 0.0000
     28 ****         1.4321  -0.2309  -0.3952 H              1 S1                 0.0000
     29 ****         3.3919   0.4438  -0.3901 H              1 S1                 0.0000
     30 ****         7.6106   3.4336  -0.1794 H              1 S1                 0.0000
     31 ****        -0.5638   0.5895   1.8612 H              1 S1                 0.0000
     32 ****        -0.5621  -0.9462   1.0288 H              1 S1                 0.0000
     33 ****         0.5291   3.1105  -0.1613 LP             1 S1                 0.0000
     34 ****         2.1784   3.6386  -0.1340 LP             1 S1                 0.0000
     35 ****         3.5182   4.1427  -0.1668 LP             1 S1                 0.0000
     36 ****         5.8349   5.1042  -0.1112 LP             1 S1                 0.0000
@<TRIPOS>BOND
    1    1    2 1     
    2    1   17 1     
    3    1   18 1     
    4    1   19 1     
    5    2   16 1     
    6    2    3 1     
    7    2   20 1     
    8    3    4 1     
    9    3   21 1     
   10    3   22 1     
   11    4    5 1     
   12    4   23 1     
   13    4   24 1     
   14    5    6 1     
   15    5   25 1     
   16    5   26 1     
   17    6    7 1     
   18    6   16 1     
   19    6   27 1     
   20    7    8 am    
   21    7   28 1     
   22    8    9 2     
   23    8   10 am    
   24   10   11 1     
   25   10   29 1     
   26   11   15 1     
   27   11   12 2     
   28   12   13 1     
   29   13   14 2     
   30   14   15 1     
   31   14   30 1     
   32   16   31 1     
   33   16   32 1     
   34    9   33 1     
   35    9   34 1     
   36   12   35 1     
   37   13   36 1     
@<TRIPOS>SUBSTRUCTURE
      1 S1             1
@<TRIPOS>SET
LONE_PAIRS      STATIC     ATOMS    <user>   **** ""
4 33 34 35 36
DONOR_HYDROGENS      STATIC     ATOMS    <user>   **** ""
2 28 29
ATOM$BLUE        STATIC     ATOMS    COLORGROUP SYSTEM
4 33 34 35 36
ATOM$RED        STATIC     ATOMS    COLORGROUP SYSTEM
2 28 29
