AV-unprocessed.smi:188|AV-procd|sdf|1474|dock4
  -GOLD-   2262019293D 1   1.00000     0.00000
 Structure written by MMmdl.
 48 52  0  0  0  0  0  0  0  0  2 V2000
  148.2708  142.5421  158.7663 O   0  0  0  0  0  0  0  0  0  0  0  0
  147.6391  141.8388  157.9811 C   0  0  0  0  0  0  0  0  0  0  0  0
  147.5005  142.1759  156.6957 N   0  0  0  0  0  0  0  0  0  0  0  0
  146.7823  141.2811  156.0248 C   0  0  0  0  0  0  0  0  0  0  0  0
  146.4889  141.3166  154.8304 O   0  0  0  0  0  0  0  0  0  0  0  0
  146.3840  140.1894  157.0148 C   0  0  0  0  0  0  0  0  0  0  0  0
  144.8515  140.0802  157.2051 C   0  0  0  0  0  0  0  0  0  0  0  0
  144.1540  139.4076  156.0082 C   0  0  0  0  0  0  0  0  0  0  0  0
  144.7676  138.1143  155.7006 N   0  0  0  0  0  0  0  0  0  0  0  0
  144.0804  137.2733  154.8859 C   0  0  0  0  0  0  0  0  0  0  0  0
  142.8524  136.8204  155.2568 N   0  0  0  0  0  0  0  0  0  0  0  0
  142.1628  136.0028  154.4566 C   0  0  0  0  0  0  0  0  0  0  0  0
  142.5084  135.5162  153.2635 N   0  0  0  0  0  0  0  0  0  0  0  0
  143.7436  135.9548  152.8891 C   0  0  0  0  0  0  0  0  0  0  0  0
  144.5878  136.8296  153.6315 C   0  0  0  0  0  0  0  0  0  0  0  0
  145.7695  137.0487  152.9332 N   0  0  0  0  0  0  0  0  0  0  0  0
  145.6280  136.3532  151.8386 C   0  0  0  0  0  0  0  0  0  0  0  0
  144.4454  135.6556  151.7336 N   0  0  0  0  0  0  0  0  0  0  0  0
  144.0384  134.8034  150.6259 C   0  0  0  0  0  0  0  0  0  0  0  0
  144.6157  133.3739  150.6713 C   0  0  0  0  0  0  0  0  0  0  0  0
  143.8100  132.4710  149.7135 C   0  0  0  0  0  0  0  0  0  0  0  0
  144.2166  132.6102  148.3666 O   0  0  0  0  0  0  0  0  0  0  0  0
  146.1444  133.2537  150.5806 C   0  0  0  0  0  0  0  0  0  0  0  0
  146.2128  132.4727  151.7938 O   0  0  0  0  0  0  0  0  0  0  0  0
  144.8430  132.8240  152.0874 C   0  0  0  0  0  0  0  0  0  0  0  0
  146.2094  138.1509  155.4579 C   0  0  0  0  0  0  0  0  0  0  0  0
  146.9550  138.7998  156.6398 C   0  0  0  0  0  0  0  0  0  0  0  0
  147.0049  140.6711  158.2396 N   0  5  0  0  0  0  0  0  0  0  0  0
  147.8943  143.0089  156.2849 H   0  0  0  0  0  0  0  0  0  0  0  0
  144.6383  139.4984  158.1036 H   0  0  0  0  0  0  0  0  0  0  0  0
  144.4127  141.0648  157.3748 H   0  0  0  0  0  0  0  0  0  0  0  0
  143.0976  139.2700  156.2425 H   0  0  0  0  0  0  0  0  0  0  0  0
  144.2028  140.0511  155.1293 H   0  0  0  0  0  0  0  0  0  0  0  0
  141.1966  135.6937  154.8268 H   0  0  0  0  0  0  0  0  0  0  0  0
  146.3927  136.3222  151.0762 H   0  0  0  0  0  0  0  0  0  0  0  0
  142.9482  134.7779  150.6094 H   0  0  0  0  0  0  0  0  0  0  0  0
  144.3329  135.2947  149.6975 H   0  0  0  0  0  0  0  0  0  0  0  0
  143.9129  131.4215  149.9911 H   0  0  0  0  0  0  0  0  0  0  0  0
  142.7462  132.7068  149.7505 H   0  0  0  0  0  0  0  0  0  0  0  0
  144.5355  133.4903  148.2369 H   0  0  0  0  0  0  0  0  0  0  0  0
  146.4996  132.7073  149.7061 H   0  0  0  0  0  0  0  0  0  0  0  0
  146.6758  134.1997  150.6889 H   0  0  0  0  0  0  0  0  0  0  0  0
  144.7814  133.5812  152.8708 H   0  0  0  0  0  0  0  0  0  0  0  0
  144.2300  131.9584  152.3407 H   0  0  0  0  0  0  0  0  0  0  0  0
  146.6089  137.1504  155.2961 H   0  0  0  0  0  0  0  0  0  0  0  0
  146.3969  138.7061  154.5387 H   0  0  0  0  0  0  0  0  0  0  0  0
  148.0175  138.8720  156.4023 H   0  0  0  0  0  0  0  0  0  0  0  0
  146.8855  138.1342  157.5017 H   0  0  0  0  0  0  0  0  0  0  0  0
  1  2  2  0  0  0  0
  2 28  1  0  0  0  0
  2  3  1  0  0  0  0
  3  4  1  0  0  0  0
  3 29  1  0  0  0  0
  4  5  2  0  0  0  0
  4  6  1  0  0  0  0
  6 27  1  0  0  0  0
  6  7  1  0  0  0  0
  6 28  1  0  0  0  0
  7  8  1  0  0  0  0
  7 30  1  0  0  0  0
  7 31  1  0  0  0  0
  8  9  1  0  0  0  0
  8 32  1  0  0  0  0
  8 33  1  0  0  0  0
  9 10  1  0  0  0  0
  9 26  1  0  0  0  0
 10 15  1  0  0  0  0
 10 11  2  0  0  0  0
 11 12  1  0  0  0  0
 12 13  2  0  0  0  0
 12 34  1  0  0  0  0
 13 14  1  0  0  0  0
 14 18  1  0  0  0  0
 14 15  2  0  0  0  0
 15 16  1  0  0  0  0
 16 17  2  0  0  0  0
 17 18  1  0  0  0  0
 17 35  1  0  0  0  0
 18 19  1  0  0  0  0
 19 20  1  0  0  0  0
 19 36  1  0  0  0  0
 19 37  1  0  0  0  0
 20 25  1  0  0  0  0
 20 21  1  0  0  0  0
 20 23  1  0  0  0  0
 21 22  1  0  0  0  0
 21 38  1  0  0  0  0
 21 39  1  0  0  0  0
 22 40  1  0  0  0  0
 23 24  1  0  0  0  0
 23 41  1  0  0  0  0
 23 42  1  0  0  0  0
 24 25  1  0  0  0  0
 25 43  1  0  0  0  0
 25 44  1  0  0  0  0
 26 27  1  0  0  0  0
 26 45  1  0  0  0  0
 26 46  1  0  0  0  0
 27 47  1  0  0  0  0
 27 48  1  0  0  0  0
M  CHG  1  28  -1
M  END
> <s_m_source_file>
AV-unprocessed.smi

> <i_m_source_file_index>
188

> <i_lp_mmshare_version>
43012

> <i_f3d_flags>
0

> <s_epik_input>
Tz1DKFtOSF0xKVtOSF1DKD1PKUMxMltDSDJdW0NIMl1OKFtDSDJdW0NIMl0yKWMobltjSF1uMyljKGMzNCluW2NIXW40W0NIMl1DNShbQ0gyXVtPSF0pW0NIMl1PW0NIMl01

> <s_epik_cmdline>
J2VwaWtfcHl0aG9uJywgJy1waCcsICc3LjAnLCAnLXRuJywgJzgnLCAnLW1hJywgJzIwMCcsICctbWV0YWxfYmluZGluZycsICctaW1hZScsICc8aW5maWxlLm1hZT4nLCAnLW9tYWUnLCAnPG91dGZpbGUubWFlPic=

> <r_lp_tautomer_probability>
1

> <r_epik_Ionization_Penalty>
5.87904

> <r_epik_Ionization_Penalty_Charging>
5.87677

> <r_epik_Ionization_Penalty_Neutral>
0.00227107

> <r_epik_State_Penalty>
5.88193

> <r_epik_Charging_Adjusted_Penalty>
11.7587

> <i_epik_Tot_Q>
-1

> <i_epik_Tot_abs_Q>
1

> <r_epik_Metal_State_Penalty>
2.21794

> <b_epik_Metal_Only>
1

> <s_lp_Force_Field>
OPLS_2005

> <r_lp_Energy>
46.2215

> <b_lp_Chiralities_Consistent>
1

> <s_lp_Variant>
AV-unprocessed.smi:188-3

> <Gold.Version>
5.8.1

> <Gold.Id.Protein>
6NUR|6NUR_protein|mol2

> <Gold.PLP.Fitness>
38.1742

> <Gold.PLP.PLP>
-29.1131

> <Gold.PLP.part.hbond>
-4.3650

> <Gold.PLP.part.metal>
0.0000

> <Gold.PLP.part.buried>
-7.0625

> <Gold.PLP.part.nonpolar>
-19.2837

> <Gold.PLP.part.repulsive>
0.7767

> <Gold.PLP.ligand.clash>
0.0000

> <Gold.PLP.ligand.torsion>
1.1672

> <Gold.PLP.Chemscore.Hbond>
2.0000

> <Gold.PLP.Chemscore.CHOScore>
1.5622

> <Gold.PLP.Chemscore.Metal>
0.0000

> <Gold.Chemscore.Hbonds>
donor molecule, donor type, donor heavy atom, donor atom, acceptor molecule, acceptor atom, score
      L1  H     3    29       P1  8028  0.94
      L1  H    22    40       P1  7921  0.71
      L1  C    12    34       P1 11000  0.96
      L1  C    17    35       P1  7948  0.58

> <Gold.PLP.Chemscore.Internal.Correction>
0.7089

> <Gold.Rescore>
     Score         DG    S(hbond)    S(metal)    S(lipo)     H(rot)  DE(clash)    DE(int)     intcor
      7.15      -9.88       1.86        0.00      46.69       2.84       0.07       2.65       ----

> <Gold.Chemscore.Fitness>
7.1485

> <Gold.Chemscore.DG>
-9.8757

> <Gold.Chemscore.ZeroCoef>
-5.4800

> <Gold.Chemscore.Hbond>
1.8613

> <Gold.Chemscore.Metal>
0.0000

> <Gold.Chemscore.Lipo>
46.6852

> <Gold.Chemscore.Internal_Hbond>
0.0000

> <Gold.Chemscore.DEClash>
0.0739

> <Gold.Chemscore.DEInternal>
2.6533

> <Gold.Chemscore.Rot>
2.8450

> <Gold.Chemscore.Internal.Correction>
   9.000000E+99

> <Gold.Chemscore.Hbonds>
donor molecule, donor type, donor heavy atom, donor atom, acceptor molecule, acceptor atom, score
      L1  H     3    29       P1  8028  0.27
      L1  H    22    40       P1  7921  0.64

> <Gold.Chemscore.Hbond.Weighted>
-6.2166

> <Gold.Chemscore.Metal.Weighted>
-0.0000

> <Gold.Chemscore.Lipo.Weighted>
-5.4622

> <Gold.Chemscore.Internal_Hbond.Weighted>
0.0000

> <Gold.Chemscore.DEClash.Weighted>
0.0739

> <Gold.Chemscore.DEInternal.Weighted>
2.6533

> <Gold.Chemscore.Rot.Weighted>
7.2831

> <Gold.Chemscore.Internal.Correction.Weighted>
   9.000000E+99

> <Gold.Protein.RotatedTorsions>
[ 6907 6896 6895 6894 ] final   15.23 input  -60.11 | X-H torsion
[ 7974 7965 7964 7962 ] final  -96.10 input  175.53 | X-H torsion
[ 8008 7997 7996 7995 ] final  176.16 input   59.86 | X-H torsion
[ 10167 10162 10161 10158 ] final  -77.71 input  -65.29 | X-H torsion
[ 10718 10713 10712 10709 ] final  -87.01 input   66.30 | X-H torsion
[ 10763 10752 10751 10750 ] final -176.97 input  -60.55 | X-H torsion
[ 11005 11000 10999 10996 ] final -107.36 input  -57.11 | X-H torsion

> <Gold.Protein.ActiveResidues>
 VAL166  LYS551  ARG553  GLY616  TRP617  ASP618  TYR619  PRO620  LYS621  CYS622 
 ASP623  PHE694  ASN695  SER759  ASP760  ASP761  ALA762  ILE779  LEU786  VAL792 
 PHE793  MET794  SER795  GLU796  ALA797  LYS798  CYS799  TRP800  GLU811  SER814 

> <Gold.Protein.RotatedAtoms>
  151.8148  135.0670  160.0417 H   0  0  0  0  0  0  0  0  0  0  0  0  # atno 6907 bound_to 6896
  152.2994  133.5636  159.5617 H   0  0  0  0  0  0  0  0  0  0  0  0  # atno 6908 bound_to 6896
  150.7266  134.0229  159.3749 H   0  0  0  0  0  0  0  0  0  0  0  0  # atno 6909 bound_to 6896
  145.3513  140.9477  143.2552 H   0  0  0  0  0  0  0  0  0  0  0  0  # atno 7974 bound_to 7965
  156.0795  140.1391  156.9730 H   0  0  0  0  0  0  0  0  0  0  0  0  # atno 8008 bound_to 7997
  154.4576  140.0955  156.6853 H   0  0  0  0  0  0  0  0  0  0  0  0  # atno 8009 bound_to 7997
  155.5099  140.3453  155.4389 H   0  0  0  0  0  0  0  0  0  0  0  0  # atno 8010 bound_to 7997
  140.4747  143.2417  151.8151 H   0  0  0  0  0  0  0  0  0  0  0  0  # atno 10167 bound_to 10162
  155.9987  130.4785  150.4802 H   0  0  0  0  0  0  0  0  0  0  0  0  # atno 10718 bound_to 10713
  154.5659  135.2824  155.0875 H   0  0  0  0  0  0  0  0  0  0  0  0  # atno 10763 bound_to 10752
  154.2266  135.6381  153.5165 H   0  0  0  0  0  0  0  0  0  0  0  0  # atno 10764 bound_to 10752
  153.0043  135.5527  154.6267 H   0  0  0  0  0  0  0  0  0  0  0  0  # atno 10765 bound_to 10752
  141.0958  133.8974  157.1967 H   0  0  0  0  0  0  0  0  0  0  0  0  # atno 11005 bound_to 11000
  144.8715  139.5031  143.6765 LP  0  0  0  0  0  0  0  0  0  0  0  0  # atno 17320 bound_to 7965
  146.2966  139.7298  142.9122 LP  0  0  0  0  0  0  0  0  0  0  0  0  # atno 17321 bound_to 7965
  139.4823  144.4848  151.9260 LP  0  0  0  0  0  0  0  0  0  0  0  0  # atno 17342 bound_to 10162
  140.3934  144.2587  150.5898 LP  0  0  0  0  0  0  0  0  0  0  0  0  # atno 17343 bound_to 10162
  157.2808  131.0606  151.2198 LP  0  0  0  0  0  0  0  0  0  0  0  0  # atno 17370 bound_to 10713
  157.3245  130.6954  149.6288 LP  0  0  0  0  0  0  0  0  0  0  0  0  # atno 17371 bound_to 10713
  139.9794  135.0103  156.9712 LP  0  0  0  0  0  0  0  0  0  0  0  0  # atno 17394 bound_to 11000
  140.5144  134.0970  155.7277 LP  0  0  0  0  0  0  0  0  0  0  0  0  # atno 17395 bound_to 11000

$$$$
