#       Name:                AV-unprocessed.smi:1782
#       Creating user name   scv26
#       Creation time:       Fri Mar 27 08:43:22 2020


#       File generated by GOLD software.
#

@<TRIPOS>MOLECULE
AV-unprocessed.smi:1782
    46    48     1
SMALL
NO_CHARGES


@<TRIPOS>ATOM
      1 ****         0.0120   2.0215  -0.5286 O.2            1 S1                 0.0000
      2 ****         0.5860   1.3435   0.3244 C.2            1 S1                 0.0000
      3 ****         2.0460   1.6316   0.7011 C.3            1 S1                 0.0000
      4 ****         2.8398   2.1387  -0.4316 N.am           1 S1                 0.0000
      5 ****         3.0691   3.5254  -0.4816 C.2            1 S1                 0.0000
      6 ****         3.7718   4.0885  -1.4735 C.2            1 S1                 0.0000
      7 ****         4.2963   3.2327  -2.5097 C.2            1 S1                 0.0000
      8 ****         4.0929   1.8950  -2.4886 C.2            1 S1                 0.0000
      9 ****         4.6303   0.9763  -3.5836 C.3            1 S1                 0.0000
     10 ****         5.4953   0.0991  -3.0732 F              1 S1                 0.0000
     11 ****         3.6370   0.2961  -4.1575 F              1 S1                 0.0000
     12 ****         5.2597   1.6611  -4.5398 F              1 S1                 0.0000
     13 ****         3.3198   1.2840  -1.3880 C.2            1 S1                 0.0000
     14 ****         3.1097   0.0712  -1.3227 O.2            1 S1                 0.0000
     15 ****        -0.0091   0.3372   0.9818 N.am           1 S1                 0.0000
     16 ****        -1.3783  -0.1082   0.7487 C.3            1 S1                 0.0000
     17 ****        -1.5781  -0.8736  -0.5633 C.3            1 S1                 0.0000
     18 ****        -2.7211  -1.8596  -0.2684 C.3            1 S1                 0.0000
     19 ****        -3.0054  -1.7643   1.1824 N.4            1 S1                 1.0000
     20 ****        -3.3914  -3.0445   1.8122 C.3            1 S1                 0.0000
     21 ****        -4.8588  -3.3693   1.6664 C.3            1 S1                 0.0000
     22 ****        -4.3179  -2.8816   2.9931 C.3            1 S1                 0.0000
     23 ****        -1.8338  -1.1175   1.7980 C.3            1 S1                 0.0000
     24 ****         2.0473   2.3450   1.5263 H              1 S1                 0.0000
     25 ****         2.5093   0.7289   1.1043 H              1 S1                 0.0000
     26 ****         2.6364   4.0964   0.3272 H              1 S1                 0.0000
     27 ****         3.9368   5.1556  -1.4992 H              1 S1                 0.0000
     28 ****         4.8570   3.6858  -3.3134 H              1 S1                 0.0000
     29 ****         0.5300  -0.1642   1.6735 H              1 S1                 0.0000
     30 ****        -2.0531   0.7502   0.7739 H              1 S1                 0.0000
     31 ****        -1.8063  -0.2084  -1.3967 H              1 S1                 0.0000
     32 ****        -0.6757  -1.4295  -0.8229 H              1 S1                 0.0000
     33 ****        -3.6216  -1.6132  -0.8317 H              1 S1                 0.0000
     34 ****        -2.4226  -2.8718  -0.5461 H              1 S1                 0.0000
     35 ****        -2.6464  -3.8383   1.7982 H              1 S1                 0.0000
     36 ****        -5.4839  -2.6849   1.0954 H              1 S1                 0.0000
     37 ****        -5.1363  -4.4193   1.5970 H              1 S1                 0.0000
     38 ****        -4.2396  -3.6108   3.7972 H              1 S1                 0.0000
     39 ****        -4.5843  -1.8730   3.3046 H              1 S1                 0.0000
     40 ****        -1.0551  -1.8613   1.9795 H              1 S1                 0.0000
     41 ****        -2.0880  -0.6486   2.7493 H              1 S1                 0.0000
     42 ****        -3.7772  -1.1208   1.2846 H              1 S1                 0.0000
     43 ****         0.4972   2.7683  -0.9834 LP             1 S1                 0.0000
     44 ****        -0.9392   1.8252  -0.7664 LP             1 S1                 0.0000
     45 ****         2.5806  -0.3044  -0.5618 LP             1 S1                 0.0000
     46 ****         3.4684  -0.5372  -2.0306 LP             1 S1                 0.0000
@<TRIPOS>BOND
    1    1    2 2     
    2    2    3 1     
    3    2   15 am    
    4    3    4 1     
    5    3   24 1     
    6    3   25 1     
    7    4   13 am    
    8    4    5 1     
    9    5    6 2     
   10    5   26 1     
   11    6    7 1     
   12    6   27 1     
   13    7    8 2     
   14    7   28 1     
   15    8    9 1     
   16    8   13 1     
   17    9   10 1     
   18    9   11 1     
   19    9   12 1     
   20   13   14 2     
   21   15   16 1     
   22   15   29 1     
   23   16   23 1     
   24   16   17 1     
   25   16   30 1     
   26   17   18 1     
   27   17   31 1     
   28   17   32 1     
   29   18   19 1     
   30   18   33 1     
   31   18   34 1     
   32   19   20 1     
   33   19   23 1     
   34   19   42 1     
   35   20   22 1     
   36   20   21 1     
   37   20   35 1     
   38   21   22 1     
   39   21   36 1     
   40   21   37 1     
   41   22   38 1     
   42   22   39 1     
   43   23   40 1     
   44   23   41 1     
   45    1   43 1     
   46    1   44 1     
   47   14   45 1     
   48   14   46 1     
@<TRIPOS>SUBSTRUCTURE
      1 S1             1
@<TRIPOS>SET
LONE_PAIRS      STATIC     ATOMS    <user>   **** ""
4 43 44 45 46
DONOR_HYDROGENS      STATIC     ATOMS    <user>   **** ""
2 29 42
ATOM$BLUE        STATIC     ATOMS    COLORGROUP SYSTEM
4 43 44 45 46
ATOM$RED        STATIC     ATOMS    COLORGROUP SYSTEM
2 29 42
