AV-unprocessed.smi:3322|AV-procd|sdf|12774|dock2
  -GOLD-   2272019113D 1   1.00000     0.00000
 Structure written by MMmdl.
 39 40  0  0  0  0  0  0  0  0  2 V2000
  151.3111  140.8211  158.0032 C   0  0  0  0  0  0  0  0  0  0  0  0
  150.0510  141.4979  157.4377 C   0  0  1  0  0  0  0  0  0  0  0  0
  150.1359  142.9584  157.6791 N   0  3  0  0  0  0  0  0  0  0  0  0
  151.4692  143.5567  157.4535 C   0  0  0  0  0  0  0  0  0  0  0  0
  151.8193  144.5528  158.5674 C   0  0  0  0  0  0  0  0  0  0  0  0
  152.1938  143.8745  159.7926 N   0  0  0  0  0  0  0  0  0  0  0  0
  151.7705  144.1308  161.0798 C   0  0  0  0  0  0  0  0  0  0  0  0
  152.3939  143.2328  161.8979 C   0  0  0  0  0  0  0  0  0  0  0  0
  153.1910  142.4602  161.0075 C   0  0  0  0  0  0  0  0  0  0  0  0
  153.0689  142.8472  159.7477 N   0  0  0  0  0  0  0  0  0  0  0  0
  149.8964  141.1721  155.9356 C   0  0  0  0  0  0  0  0  0  0  0  0
  150.8769  140.7233  155.3383 O   0  0  0  0  0  0  0  0  0  0  0  0
  148.7091  141.3732  155.3103 N   0  0  0  0  0  0  0  0  0  0  0  0
  147.4507  141.8095  155.9274 C   0  0  0  0  0  0  0  0  0  0  0  0
  146.4054  140.6915  155.7556 C   0  0  0  0  0  0  0  0  0  0  0  0
  146.2417  140.3899  154.3730 O   0  0  0  0  0  0  0  0  0  0  0  0
  147.4531  139.9779  153.7468 C   0  0  0  0  0  0  0  0  0  0  0  0
  148.5051  141.0920  153.8846 C   0  0  0  0  0  0  0  0  0  0  0  0
  151.2789  139.7380  157.8852 H   0  0  0  0  0  0  0  0  0  0  0  0
  151.4187  141.0261  159.0688 H   0  0  0  0  0  0  0  0  0  0  0  0
  152.2136  141.1790  157.5058 H   0  0  0  0  0  0  0  0  0  0  0  0
  149.1801  141.1488  157.9915 H   0  0  0  0  0  0  0  0  0  0  0  0
  149.4881  143.4166  157.0543 H   0  0  0  0  0  0  0  0  0  0  0  0
  152.2255  142.7719  157.4137 H   0  0  0  0  0  0  0  0  0  0  0  0
  151.4755  144.0588  156.4851 H   0  0  0  0  0  0  0  0  0  0  0  0
  152.6437  145.1991  158.2619 H   0  0  0  0  0  0  0  0  0  0  0  0
  150.9676  145.2015  158.7774 H   0  0  0  0  0  0  0  0  0  0  0  0
  151.0685  144.9205  161.3049 H   0  0  0  0  0  0  0  0  0  0  0  0
  152.2961  143.1420  162.9696 H   0  0  0  0  0  0  0  0  0  0  0  0
  153.8497  141.6356  161.2375 H   0  0  0  0  0  0  0  0  0  0  0  0
  147.5304  142.0539  156.9836 H   0  0  0  0  0  0  0  0  0  0  0  0
  147.1081  142.7208  155.4351 H   0  0  0  0  0  0  0  0  0  0  0  0
  146.7029  139.7930  156.2986 H   0  0  0  0  0  0  0  0  0  0  0  0
  145.4448  141.0072  156.1627 H   0  0  0  0  0  0  0  0  0  0  0  0
  147.8085  139.0477  154.1933 H   0  0  0  0  0  0  0  0  0  0  0  0
  147.2546  139.7729  152.6948 H   0  0  0  0  0  0  0  0  0  0  0  0
  148.1592  141.9979  153.3846 H   0  0  0  0  0  0  0  0  0  0  0  0
  149.4196  140.7960  153.3693 H   0  0  0  0  0  0  0  0  0  0  0  0
  149.8493  143.1398  158.6307 H   0  0  0  0  0  0  0  0  0  0  0  0
  1  2  1  0  0  0  0
  1 19  1  0  0  0  0
  1 20  1  0  0  0  0
  1 21  1  0  0  0  0
  2  3  1  0  0  0  0
  2 11  1  0  0  0  0
  2 22  1  0  0  0  0
  3  4  1  0  0  0  0
  3 23  1  0  0  0  0
  3 39  1  0  0  0  0
  4  5  1  0  0  0  0
  4 24  1  0  0  0  0
  4 25  1  0  0  0  0
  5  6  1  0  0  0  0
  5 26  1  0  0  0  0
  5 27  1  0  0  0  0
  6 10  1  0  0  0  0
  6  7  1  0  0  0  0
  7  8  2  0  0  0  0
  7 28  1  0  0  0  0
  8  9  1  0  0  0  0
  8 29  1  0  0  0  0
  9 10  2  0  0  0  0
  9 30  1  0  0  0  0
 11 12  2  0  0  0  0
 11 13  1  0  0  0  0
 13 18  1  0  0  0  0
 13 14  1  0  0  0  0
 14 15  1  0  0  0  0
 14 31  1  0  0  0  0
 14 32  1  0  0  0  0
 15 16  1  0  0  0  0
 15 33  1  0  0  0  0
 15 34  1  0  0  0  0
 16 17  1  0  0  0  0
 17 18  1  0  0  0  0
 17 35  1  0  0  0  0
 17 36  1  0  0  0  0
 18 37  1  0  0  0  0
 18 38  1  0  0  0  0
M  CHG  1   3   1
M  END
> <s_m_source_file>
AV-unprocessed.smi

> <i_m_source_file_index>
3322

> <i_lp_mmshare_version>
43012

> <i_f3d_flags>
0

> <s_epik_input>
W0NIMl0xW0NIMl1PW0NIMl1bQ0gyXU4xQyg9TylbQ0BIXShbQ0gzXSlbTkhdW0NIMl1bQ0gyXW4yW2NIXVtjSF1bY0hdbjI=

> <s_epik_cmdline>
J2VwaWtfcHl0aG9uJywgJy1waCcsICc3LjAnLCAnLXRuJywgJzgnLCAnLW1hJywgJzIwMCcsICctbWV0YWxfYmluZGluZycsICctaW1hZScsICc8aW5maWxlLm1hZT4nLCAnLW9tYWUnLCAnPG91dGZpbGUubWFlPic=

> <r_lp_tautomer_probability>
1

> <r_epik_Ionization_Penalty>
0.3254

> <r_epik_Ionization_Penalty_Charging>
0.325398

> <r_epik_Ionization_Penalty_Neutral>
2.29478e-06

> <r_epik_State_Penalty>
0.320187

> <r_epik_Charging_Adjusted_Penalty>
0.645585

> <i_epik_Tot_Q>
1

> <i_epik_Tot_abs_Q>
1

> <r_epik_Metal_State_Penalty>
0.320558

> <b_epik_Metal_Only>
0

> <s_lp_Force_Field>
OPLS_2005

> <r_lp_Energy>
25.7531

> <b_lp_Chiralities_Consistent>
1

> <s_lp_Variant>
AV-unprocessed.smi:3322-2

> <Gold.Version>
5.8.1

> <Gold.Id.Protein>
6NUR|6NUR_protein|mol2

> <Gold.PLP.Fitness>
46.7649

> <Gold.PLP.PLP>
-40.3222

> <Gold.PLP.part.hbond>
-2.0000

> <Gold.PLP.part.metal>
0.0000

> <Gold.PLP.part.buried>
-3.9618

> <Gold.PLP.part.nonpolar>
-34.7855

> <Gold.PLP.part.repulsive>
0.2127

> <Gold.PLP.ligand.clash>
0.0000

> <Gold.PLP.ligand.torsion>
1.1085

> <Gold.PLP.Chemscore.Hbond>
2.8640

> <Gold.PLP.Chemscore.CHOScore>
0.0000

> <Gold.PLP.Chemscore.Metal>
0.0000

> <Gold.Chemscore.Hbonds>
donor molecule, donor type, donor heavy atom, donor atom, acceptor molecule, acceptor atom, score
      L1  H     3    23       P1  8028  2.00
      P1  H  7989  7998       L1    12  0.85

> <Gold.PLP.Chemscore.Internal.Correction>
0.0677

> <Gold.Rescore>
     Score         DG    S(hbond)    S(metal)    S(lipo)     H(rot)  DE(clash)    DE(int)     intcor
     16.05     -17.11       1.82        0.00      89.38       1.91       0.02       1.04       ----

> <Gold.Chemscore.Fitness>
16.0515

> <Gold.Chemscore.DG>
-17.1146

> <Gold.Chemscore.ZeroCoef>
-5.4800

> <Gold.Chemscore.Hbond>
1.8161

> <Gold.Chemscore.Metal>
0.0000

> <Gold.Chemscore.Lipo>
89.3772

> <Gold.Chemscore.Internal_Hbond>
0.0000

> <Gold.Chemscore.DEClash>
0.0239

> <Gold.Chemscore.DEInternal>
1.0393

> <Gold.Chemscore.Rot>
1.9095

> <Gold.Chemscore.Internal.Correction>
   9.000000E+99

> <Gold.Chemscore.Hbonds>
donor molecule, donor type, donor heavy atom, donor atom, acceptor molecule, acceptor atom, score
      L1  H     3    23       P1  8028  0.90
      P1  H  7989  7998       L1    12  0.83

> <Gold.Chemscore.Hbond.Weighted>
-6.0658

> <Gold.Chemscore.Metal.Weighted>
-0.0000

> <Gold.Chemscore.Lipo.Weighted>
-10.4571

> <Gold.Chemscore.Internal_Hbond.Weighted>
0.0000

> <Gold.Chemscore.DEClash.Weighted>
0.0239

> <Gold.Chemscore.DEInternal.Weighted>
1.0393

> <Gold.Chemscore.Rot.Weighted>
4.8884

> <Gold.Chemscore.Internal.Correction.Weighted>
   9.000000E+99

> <Gold.Protein.RotatedTorsions>
[ 6907 6896 6895 6894 ] final  -17.69 input  -60.11 | X-H torsion
[ 7974 7965 7964 7962 ] final  -31.39 input  175.53 | X-H torsion
[ 8008 7997 7996 7995 ] final -158.79 input   59.86 | X-H torsion
[ 10167 10162 10161 10158 ] final  -92.73 input  -65.29 | X-H torsion
[ 10718 10713 10712 10709 ] final   64.90 input   66.30 | X-H torsion
[ 10763 10752 10751 10750 ] final   64.40 input  -60.55 | X-H torsion
[ 11005 11000 10999 10996 ] final  166.30 input  -57.11 | X-H torsion

> <Gold.Protein.ActiveResidues>
 VAL166  LYS551  ARG553  GLY616  TRP617  ASP618  TYR619  PRO620  LYS621  CYS622 
 ASP623  PHE694  ASN695  SER759  ASP760  ASP761  ALA762  ILE779  LEU786  VAL792 
 PHE793  MET794  SER795  GLU796  ALA797  LYS798  CYS799  TRP800  GLU811  SER814 

> <Gold.Protein.RotatedAtoms>
  151.2895  135.0738  159.9198 H   0  0  0  0  0  0  0  0  0  0  0  0  # atno 6907 bound_to 6896
  152.5319  133.9946  159.7877 H   0  0  0  0  0  0  0  0  0  0  0  0  # atno 6908 bound_to 6896
  151.0214  133.5822  159.2701 H   0  0  0  0  0  0  0  0  0  0  0  0  # atno 6909 bound_to 6896
  146.1071  140.5661  142.8795 H   0  0  0  0  0  0  0  0  0  0  0  0  # atno 7974 bound_to 7965
  155.7528  140.0829  157.2193 H   0  0  0  0  0  0  0  0  0  0  0  0  # atno 8008 bound_to 7997
  154.4010  140.1557  156.2800 H   0  0  0  0  0  0  0  0  0  0  0  0  # atno 8009 bound_to 7997
  155.8914  140.3415  155.5961 H   0  0  0  0  0  0  0  0  0  0  0  0  # atno 8010 bound_to 7997
  140.3318  143.2990  151.9933 H   0  0  0  0  0  0  0  0  0  0  0  0  # atno 10167 bound_to 10162
  157.6070  130.9185  149.9905 H   0  0  0  0  0  0  0  0  0  0  0  0  # atno 10718 bound_to 10713
  153.0054  135.5394  154.6504 H   0  0  0  0  0  0  0  0  0  0  0  0  # atno 10763 bound_to 10752
  154.5737  135.2844  155.0804 H   0  0  0  0  0  0  0  0  0  0  0  0  # atno 10764 bound_to 10752
  154.1959  135.6492  153.5126 H   0  0  0  0  0  0  0  0  0  0  0  0  # atno 10765 bound_to 10752
  140.2650  134.7872  157.3624 H   0  0  0  0  0  0  0  0  0  0  0  0  # atno 11005 bound_to 11000
  144.7480  140.5117  143.6822 LP  0  0  0  0  0  0  0  0  0  0  0  0  # atno 17320 bound_to 7965
  145.5740  139.1485  143.3273 LP  0  0  0  0  0  0  0  0  0  0  0  0  # atno 17321 bound_to 7965
  139.4855  144.6228  151.7222 LP  0  0  0  0  0  0  0  0  0  0  0  0  # atno 17342 bound_to 10162
  140.5390  144.0610  150.6081 LP  0  0  0  0  0  0  0  0  0  0  0  0  # atno 17343 bound_to 10162
  156.1159  130.3648  149.9968 LP  0  0  0  0  0  0  0  0  0  0  0  0  # atno 17370 bound_to 10713
  156.8058  130.9307  151.3645 LP  0  0  0  0  0  0  0  0  0  0  0  0  # atno 17371 bound_to 10713
  140.1428  134.4950  155.8018 LP  0  0  0  0  0  0  0  0  0  0  0  0  # atno 17394 bound_to 11000
  141.2185  133.6832  156.7241 LP  0  0  0  0  0  0  0  0  0  0  0  0  # atno 17395 bound_to 11000

$$$$
