AV-unprocessed.smi:2364|AV-procd|sdf|9417|dock10
  -GOLD-   2272013 53D 1   1.00000     0.00000
 Structure written by MMmdl.
 46 47  0  0  0  0  0  0  0  0  1 V2000
  149.5023  140.8197  154.7340 C   0  0  0  0  0  0  0  0  0  0  0  0
  149.6858  139.3623  154.2758 C   0  0  0  0  0  0  0  0  0  0  0  0
  150.8396  138.5761  154.9663 C   0  0  1  0  0  0  0  0  0  0  0  0
  151.0761  137.2331  154.2366 C   0  0  0  0  0  0  0  0  0  0  0  0
  152.1569  139.3930  154.9620 C   0  0  0  0  0  0  0  0  0  0  0  0
  153.2206  138.7168  155.6023 O   0  0  0  0  0  0  0  0  0  0  0  0
  150.5332  138.3150  156.3806 N   0  0  0  0  0  0  0  0  0  0  0  0
  149.6969  137.4028  156.9064 C   0  0  0  0  0  0  0  0  0  0  0  0
  149.0349  136.6079  156.2389 O   0  0  0  0  0  0  0  0  0  0  0  0
  149.6893  137.4763  158.2493 N   0  0  0  0  0  0  0  0  0  0  0  0
  148.8833  136.7470  159.1621 C   0  0  0  0  0  0  0  0  0  0  0  0
  148.1706  135.6751  158.7137 N   0  0  0  0  0  0  0  0  0  0  0  0
  147.6119  135.3015  159.8575 C   0  0  0  0  0  0  0  0  0  0  0  0
  147.9168  136.0802  160.9037 N   0  0  0  0  0  0  0  0  0  0  0  0
  147.5827  135.9405  162.3248 C   0  0  0  0  0  0  0  0  0  0  0  0
  146.6706  134.7200  162.5899 C   0  0  0  0  0  0  0  0  0  0  0  0
  145.2627  134.9150  161.9969 C   0  0  0  0  0  0  0  0  0  0  0  0
  144.6014  136.1872  162.5531 C   0  0  0  0  0  0  0  0  0  0  0  0
  145.4912  137.4240  162.3452 C   0  0  0  0  0  0  0  0  0  0  0  0
  146.9017  137.1976  162.9227 C   0  0  0  0  0  0  0  0  0  0  0  0
  148.7971  137.0157  160.4658 N   0  0  0  0  0  0  0  0  0  0  0  0
  148.6664  141.2807  154.2079 H   0  0  0  0  0  0  0  0  0  0  0  0
  150.3862  141.4222  154.5268 H   0  0  0  0  0  0  0  0  0  0  0  0
  149.2897  140.8859  155.8010 H   0  0  0  0  0  0  0  0  0  0  0  0
  148.7417  138.8384  154.4261 H   0  0  0  0  0  0  0  0  0  0  0  0
  149.8341  139.3553  153.1955 H   0  0  0  0  0  0  0  0  0  0  0  0
  151.3741  137.3901  153.1995 H   0  0  0  0  0  0  0  0  0  0  0  0
  150.1792  136.6142  154.2141 H   0  0  0  0  0  0  0  0  0  0  0  0
  151.8631  136.6519  154.7183 H   0  0  0  0  0  0  0  0  0  0  0  0
  152.4674  139.6292  153.9438 H   0  0  0  0  0  0  0  0  0  0  0  0
  152.0128  140.3497  155.4660 H   0  0  0  0  0  0  0  0  0  0  0  0
  153.4117  137.9292  155.1164 H   0  0  0  0  0  0  0  0  0  0  0  0
  151.0192  138.9066  157.0382 H   0  0  0  0  0  0  0  0  0  0  0  0
  150.3182  138.1455  158.6676 H   0  0  0  0  0  0  0  0  0  0  0  0
  146.9718  134.4349  159.9283 H   0  0  0  0  0  0  0  0  0  0  0  0
  148.5271  135.7828  162.8471 H   0  0  0  0  0  0  0  0  0  0  0  0
  147.1191  133.8052  162.2026 H   0  0  0  0  0  0  0  0  0  0  0  0
  146.5834  134.5671  163.6663 H   0  0  0  0  0  0  0  0  0  0  0  0
  145.3196  134.9756  160.9094 H   0  0  0  0  0  0  0  0  0  0  0  0
  144.6425  134.0476  162.2237 H   0  0  0  0  0  0  0  0  0  0  0  0
  143.6321  136.3417  162.0783 H   0  0  0  0  0  0  0  0  0  0  0  0
  144.4059  136.0572  163.6182 H   0  0  0  0  0  0  0  0  0  0  0  0
  145.5539  137.6551  161.2814 H   0  0  0  0  0  0  0  0  0  0  0  0
  145.0326  138.2925  162.8188 H   0  0  0  0  0  0  0  0  0  0  0  0
  146.8244  137.0782  164.0041 H   0  0  0  0  0  0  0  0  0  0  0  0
  147.5169  138.0859  162.7738 H   0  0  0  0  0  0  0  0  0  0  0  0
  1  2  1  0  0  0  0
  1 22  1  0  0  0  0
  1 23  1  0  0  0  0
  1 24  1  0  0  0  0
  2  3  1  0  0  0  0
  2 25  1  0  0  0  0
  2 26  1  0  0  0  0
  3  4  1  0  0  0  0
  3  5  1  0  0  0  0
  3  7  1  0  0  0  0
  4 27  1  0  0  0  0
  4 28  1  0  0  0  0
  4 29  1  0  0  0  0
  5  6  1  0  0  0  0
  5 30  1  0  0  0  0
  5 31  1  0  0  0  0
  6 32  1  0  0  0  0
  7  8  1  0  0  0  0
  7 33  1  0  0  0  0
  8  9  2  0  0  0  0
  8 10  1  0  0  0  0
 10 11  1  0  0  0  0
 10 34  1  0  0  0  0
 11 21  2  0  0  0  0
 11 12  1  0  0  0  0
 12 13  2  0  0  0  0
 13 14  1  0  0  0  0
 13 35  1  0  0  0  0
 14 15  1  0  0  0  0
 14 21  1  0  0  0  0
 15 20  1  0  0  0  0
 15 16  1  0  0  0  0
 15 36  1  0  0  0  0
 16 17  1  0  0  0  0
 16 37  1  0  0  0  0
 16 38  1  0  0  0  0
 17 18  1  0  0  0  0
 17 39  1  0  0  0  0
 17 40  1  0  0  0  0
 18 19  1  0  0  0  0
 18 41  1  0  0  0  0
 18 42  1  0  0  0  0
 19 20  1  0  0  0  0
 19 43  1  0  0  0  0
 19 44  1  0  0  0  0
 20 45  1  0  0  0  0
 20 46  1  0  0  0  0
M  END
> <s_m_source_file>
AV-unprocessed.smi

> <i_m_source_file_index>
2364

> <i_lp_mmshare_version>
43012

> <i_f3d_flags>
0

> <s_epik_input>
W0NIM11bQ0gyXVtDQEBdKFtDSDNdKShbQ0gyXVtPSF0pW05IXUMoPU8pW05IXWMxbltjSF1uKG4xKVtDSF0yW0NIMl1bQ0gyXVtDSDJdW0NIMl1bQ0gyXTI=

> <s_epik_cmdline>
J2VwaWtfcHl0aG9uJywgJy1waCcsICc3LjAnLCAnLXRuJywgJzgnLCAnLW1hJywgJzIwMCcsICctbWV0YWxfYmluZGluZycsICctaW1hZScsICc8aW5maWxlLm1hZT4nLCAnLW9tYWUnLCAnPG91dGZpbGUubWFlPic=

> <r_lp_tautomer_probability>
1

> <r_epik_Ionization_Penalty>
9.31261e-05

> <r_epik_Ionization_Penalty_Charging>
0

> <r_epik_Ionization_Penalty_Neutral>
9.31261e-05

> <r_epik_State_Penalty>
-0

> <r_epik_Charging_Adjusted_Penalty>
0

> <i_epik_Tot_Q>
0

> <i_epik_Tot_abs_Q>
0

> <r_epik_Metal_State_Penalty>
-0

> <b_epik_Metal_Only>
0

> <s_lp_Force_Field>
OPLS_2005

> <r_lp_Energy>
23.546

> <b_lp_Chiralities_Consistent>
1

> <s_lp_Variant>
AV-unprocessed.smi:2364-1

> <Gold.Version>
5.8.1

> <Gold.Id.Protein>
6NUR|6NUR_protein|mol2

> <Gold.PLP.Fitness>
44.4173

> <Gold.PLP.PLP>
-40.0650

> <Gold.PLP.part.hbond>
-2.4362

> <Gold.PLP.part.metal>
0.0000

> <Gold.PLP.part.buried>
-3.3950

> <Gold.PLP.part.nonpolar>
-35.1765

> <Gold.PLP.part.repulsive>
0.1616

> <Gold.PLP.ligand.clash>
0.0000

> <Gold.PLP.ligand.torsion>
0.4728

> <Gold.PLP.Chemscore.Hbond>
1.7200

> <Gold.PLP.Chemscore.CHOScore>
0.0000

> <Gold.PLP.Chemscore.Metal>
0.0000

> <Gold.Chemscore.Hbonds>
donor molecule, donor type, donor heavy atom, donor atom, acceptor molecule, acceptor atom, score
      P1  H  6931  6943       L1    21  0.74
      P1  H  7997  8008       L1     6  0.88

> <Gold.PLP.Chemscore.Internal.Correction>
0.1379

> <Gold.Rescore>
     Score         DG    S(hbond)    S(metal)    S(lipo)     H(rot)  DE(clash)    DE(int)     intcor
     11.58     -14.77       1.94        0.00      75.14       2.34       0.18       3.00       ----

> <Gold.Chemscore.Fitness>
11.5824

> <Gold.Chemscore.DG>
-14.7688

> <Gold.Chemscore.ZeroCoef>
-5.4800

> <Gold.Chemscore.Hbond>
1.9391

> <Gold.Chemscore.Metal>
0.0000

> <Gold.Chemscore.Lipo>
75.1354

> <Gold.Chemscore.Internal_Hbond>
0.0000

> <Gold.Chemscore.DEClash>
0.1828

> <Gold.Chemscore.DEInternal>
3.0036

> <Gold.Chemscore.Rot>
2.3354

> <Gold.Chemscore.Internal.Correction>
   9.000000E+99

> <Gold.Chemscore.Hbonds>
donor molecule, donor type, donor heavy atom, donor atom, acceptor molecule, acceptor atom, score
      P1  H  6931  6943       L1    21  0.48
      P1  H  7997  8008       L1     6  0.52

> <Gold.Chemscore.Hbond.Weighted>
-6.4767

> <Gold.Chemscore.Metal.Weighted>
-0.0000

> <Gold.Chemscore.Lipo.Weighted>
-8.7908

> <Gold.Chemscore.Internal_Hbond.Weighted>
0.0000

> <Gold.Chemscore.DEClash.Weighted>
0.1828

> <Gold.Chemscore.DEInternal.Weighted>
3.0036

> <Gold.Chemscore.Rot.Weighted>
5.9787

> <Gold.Chemscore.Internal.Correction.Weighted>
   9.000000E+99

> <Gold.Protein.RotatedTorsions>
[ 6907 6896 6895 6894 ] final   41.85 input  -60.11 | X-H torsion
[ 7974 7965 7964 7962 ] final   18.35 input  175.53 | X-H torsion
[ 8008 7997 7996 7995 ] final  -48.27 input   59.86 | X-H torsion
[ 10167 10162 10161 10158 ] final  -85.72 input  -65.29 | X-H torsion
[ 10718 10713 10712 10709 ] final  175.32 input   66.30 | X-H torsion
[ 10763 10752 10751 10750 ] final  157.32 input  -60.55 | X-H torsion
[ 11005 11000 10999 10996 ] final  -73.78 input  -57.11 | X-H torsion

> <Gold.Protein.ActiveResidues>
 VAL166  LYS551  ARG553  GLY616  TRP617  ASP618  TYR619  PRO620  LYS621  CYS622 
 ASP623  PHE694  ASN695  SER759  ASP760  ASP761  ALA762  ILE779  LEU786  VAL792 
 PHE793  MET794  SER795  GLU796  ALA797  LYS798  CYS799  TRP800  GLU811  SER814 

> <Gold.Protein.RotatedAtoms>
  152.2005  134.8592  160.0508 H   0  0  0  0  0  0  0  0  0  0  0  0  # atno 6907 bound_to 6896
  151.9447  133.3643  159.3986 H   0  0  0  0  0  0  0  0  0  0  0  0  # atno 6908 bound_to 6896
  150.6954  134.4327  159.5300 H   0  0  0  0  0  0  0  0  0  0  0  0  # atno 6909 bound_to 6896
  146.2188  139.8469  142.8630 H   0  0  0  0  0  0  0  0  0  0  0  0  # atno 7974 bound_to 7965
  154.4027  140.1325  156.4311 H   0  0  0  0  0  0  0  0  0  0  0  0  # atno 8008 bound_to 7997
  155.7550  140.3487  155.5149 H   0  0  0  0  0  0  0  0  0  0  0  0  # atno 8009 bound_to 7997
  155.8914  140.1004  157.1406 H   0  0  0  0  0  0  0  0  0  0  0  0  # atno 8010 bound_to 7997
  140.4010  143.2663  151.9142 H   0  0  0  0  0  0  0  0  0  0  0  0  # atno 10167 bound_to 10162
  156.9366  130.9988  151.2977 H   0  0  0  0  0  0  0  0  0  0  0  0  # atno 10718 bound_to 10713
  154.1983  135.2791  155.2999 H   0  0  0  0  0  0  0  0  0  0  0  0  # atno 10763 bound_to 10752
  154.5874  135.5570  153.7248 H   0  0  0  0  0  0  0  0  0  0  0  0  # atno 10764 bound_to 10752
  153.0094  135.6360  154.2122 H   0  0  0  0  0  0  0  0  0  0  0  0  # atno 10765 bound_to 10752
  141.1627  133.6889  156.7263 H   0  0  0  0  0  0  0  0  0  0  0  0  # atno 11005 bound_to 11000
  145.2841  141.0147  143.3701 LP  0  0  0  0  0  0  0  0  0  0  0  0  # atno 17320 bound_to 7965
  144.9127  139.4508  143.6579 LP  0  0  0  0  0  0  0  0  0  0  0  0  # atno 17321 bound_to 7965
  139.4785  144.5633  151.8204 LP  0  0  0  0  0  0  0  0  0  0  0  0  # atno 17342 bound_to 10162
  140.4740  144.1546  150.5922 LP  0  0  0  0  0  0  0  0  0  0  0  0  # atno 17343 bound_to 10162
  157.5812  130.8378  149.8525 LP  0  0  0  0  0  0  0  0  0  0  0  0  # atno 17370 bound_to 10713
  156.0423  130.3736  150.1405 LP  0  0  0  0  0  0  0  0  0  0  0  0  # atno 17371 bound_to 10713
  140.2778  134.8341  157.3906 LP  0  0  0  0  0  0  0  0  0  0  0  0  # atno 17394 bound_to 11000
  140.1461  134.4909  155.7995 LP  0  0  0  0  0  0  0  0  0  0  0  0  # atno 17395 bound_to 11000

$$$$
