AV-unprocessed.smi:2025|AV-procd|sdf|8200|dock3
  -GOLD-   2272010453D 1   1.00000     0.00000
 Structure written by MMmdl.
 39 40  0  0  0  0  0  0  0  0  1 V2000
  147.2835  140.8348  153.4514 C   0  0  0  0  0  0  0  0  0  0  0  0
  147.3979  141.3967  154.8769 C   0  0  1  0  0  0  0  0  0  0  0  0
  148.7889  141.7750  155.1165 N   0  0  0  0  0  0  0  0  0  0  0  0
  149.5227  141.4252  156.1844 C   0  0  0  0  0  0  0  0  0  0  0  0
  149.0912  140.7303  157.1056 O   0  0  0  0  0  0  0  0  0  0  0  0
  150.9564  141.9714  156.2199 C   0  0  0  0  0  0  0  0  0  0  0  0
  151.4250  142.2706  157.5793 N   0  0  0  0  0  0  0  0  0  0  0  0
  150.9823  143.4145  158.2184 C   0  0  0  0  0  0  0  0  0  0  0  0
  151.3473  143.7551  159.4736 C   0  0  0  0  0  0  0  0  0  0  0  0
  152.2567  142.9137  160.2411 C   0  0  0  0  0  0  0  0  0  0  0  0
  152.6059  143.1715  161.3939 O   0  0  0  0  0  0  0  0  0  0  0  0
  152.7059  141.7582  159.5605 N   0  0  0  0  0  0  0  0  0  0  0  0
  153.6001  140.8772  160.2831 C   0  0  0  0  0  0  0  0  0  0  0  0
  152.3054  141.3963  158.2532 C   0  0  0  0  0  0  0  0  0  0  0  0
  152.6928  140.3600  157.7081 O   0  0  0  0  0  0  0  0  0  0  0  0
  146.4766  142.6137  155.1044 C   0  0  1  0  0  0  0  0  0  0  0  0
  146.1966  143.4451  153.8536 C   0  0  0  0  0  0  0  0  0  0  0  0
  144.9379  144.1860  154.2485 C   0  0  0  0  0  0  0  0  0  0  0  0
  144.2079  143.1712  155.1285 C   0  0  0  0  0  0  0  0  0  0  0  0
  145.1763  142.1959  155.5062 O   0  0  0  0  0  0  0  0  0  0  0  0
  146.2753  140.4755  153.2446 H   0  0  0  0  0  0  0  0  0  0  0  0
  147.9621  139.9933  153.3064 H   0  0  0  0  0  0  0  0  0  0  0  0
  147.5270  141.5917  152.7050 H   0  0  0  0  0  0  0  0  0  0  0  0
  147.1085  140.6027  155.5676 H   0  0  0  0  0  0  0  0  0  0  0  0
  149.2266  142.3554  154.4158 H   0  0  0  0  0  0  0  0  0  0  0  0
  151.6332  141.2650  155.7355 H   0  0  0  0  0  0  0  0  0  0  0  0
  150.9899  142.8752  155.6100 H   0  0  0  0  0  0  0  0  0  0  0  0
  150.3025  144.0683  157.6913 H   0  0  0  0  0  0  0  0  0  0  0  0
  150.9591  144.6605  159.9167 H   0  0  0  0  0  0  0  0  0  0  0  0
  154.1305  140.2180  159.5956 H   0  0  0  0  0  0  0  0  0  0  0  0
  152.9860  140.3061  160.9808 H   0  0  0  0  0  0  0  0  0  0  0  0
  154.3375  141.4882  160.8067 H   0  0  0  0  0  0  0  0  0  0  0  0
  146.8840  143.2589  155.8852 H   0  0  0  0  0  0  0  0  0  0  0  0
  147.0157  144.1157  153.5921 H   0  0  0  0  0  0  0  0  0  0  0  0
  145.9967  142.7965  152.9993 H   0  0  0  0  0  0  0  0  0  0  0  0
  145.1959  145.0694  154.8341 H   0  0  0  0  0  0  0  0  0  0  0  0
  144.3468  144.5086  153.3907 H   0  0  0  0  0  0  0  0  0  0  0  0
  143.7731  143.6453  156.0091 H   0  0  0  0  0  0  0  0  0  0  0  0
  143.4062  142.6765  154.5795 H   0  0  0  0  0  0  0  0  0  0  0  0
  1  2  1  0  0  0  0
  1 21  1  0  0  0  0
  1 22  1  0  0  0  0
  1 23  1  0  0  0  0
  2  3  1  0  0  0  0
  2 16  1  0  0  0  0
  2 24  1  0  0  0  0
  3  4  1  0  0  0  0
  3 25  1  0  0  0  0
  4  5  2  0  0  0  0
  4  6  1  0  0  0  0
  6  7  1  0  0  0  0
  6 26  1  0  0  0  0
  6 27  1  0  0  0  0
  7 14  1  0  0  0  0
  7  8  1  0  0  0  0
  8  9  2  0  0  0  0
  8 28  1  0  0  0  0
  9 10  1  0  0  0  0
  9 29  1  0  0  0  0
 10 11  2  0  0  0  0
 10 12  1  0  0  0  0
 12 13  1  0  0  0  0
 12 14  1  0  0  0  0
 13 30  1  0  0  0  0
 13 31  1  0  0  0  0
 13 32  1  0  0  0  0
 14 15  2  0  0  0  0
 16 20  1  0  0  0  0
 16 17  1  0  0  0  0
 16 33  1  0  0  0  0
 17 18  1  0  0  0  0
 17 34  1  0  0  0  0
 17 35  1  0  0  0  0
 18 19  1  0  0  0  0
 18 36  1  0  0  0  0
 18 37  1  0  0  0  0
 19 20  1  0  0  0  0
 19 38  1  0  0  0  0
 19 39  1  0  0  0  0
M  END
> <s_m_source_file>
AV-unprocessed.smi

> <i_m_source_file_index>
2025

> <i_lp_mmshare_version>
43012

> <i_f3d_flags>
0

> <s_epik_input>
TzFbQ0gyXVtDSDJdW0NIMl1bQ0BIXTFbQ0BIXShbQ0gzXSlbTkhdQyg9TylbQ0gyXW4yW2NIXVtjSF1jKD1PKW4oW0NIM10pYzI9Tw==

> <s_epik_cmdline>
J2VwaWtfcHl0aG9uJywgJy1waCcsICc3LjAnLCAnLXRuJywgJzgnLCAnLW1hJywgJzIwMCcsICctbWV0YWxfYmluZGluZycsICctaW1hZScsICc8aW5maWxlLm1hZT4nLCAnLW9tYWUnLCAnPG91dGZpbGUubWFlPic=

> <r_lp_tautomer_probability>
1

> <r_epik_Ionization_Penalty>
3.54787e-08

> <r_epik_Ionization_Penalty_Charging>
1.24654e-08

> <r_epik_Ionization_Penalty_Neutral>
2.30132e-08

> <r_epik_State_Penalty>
-0

> <r_epik_Charging_Adjusted_Penalty>
1.24654e-08

> <i_epik_Tot_Q>
0

> <i_epik_Tot_abs_Q>
0

> <r_epik_Metal_State_Penalty>
-0

> <b_epik_Metal_Only>
0

> <s_lp_Force_Field>
OPLS_2005

> <r_lp_Energy>
25.8508

> <b_lp_Chiralities_Consistent>
1

> <s_lp_Variant>
AV-unprocessed.smi:2025-4

> <Gold.Version>
5.8.1

> <Gold.Id.Protein>
6NUR|6NUR_protein|mol2

> <Gold.PLP.Fitness>
42.4466

> <Gold.PLP.PLP>
-39.6031

> <Gold.PLP.part.hbond>
-1.9646

> <Gold.PLP.part.metal>
0.0000

> <Gold.PLP.part.buried>
-5.3418

> <Gold.PLP.part.nonpolar>
-31.5307

> <Gold.PLP.part.repulsive>
0.4272

> <Gold.PLP.ligand.clash>
0.0000

> <Gold.PLP.ligand.torsion>
1.4329

> <Gold.PLP.Chemscore.Hbond>
0.8960

> <Gold.PLP.Chemscore.CHOScore>
1.0000

> <Gold.PLP.Chemscore.Metal>
0.0000

> <Gold.Chemscore.Hbonds>
donor molecule, donor type, donor heavy atom, donor atom, acceptor molecule, acceptor atom, score
      P1  H  7997  8009       L1    15  0.93
      L1  C     8    28       P1  8028  0.99

> <Gold.PLP.Chemscore.Internal.Correction>
0.0213

> <Gold.Rescore>
     Score         DG    S(hbond)    S(metal)    S(lipo)     H(rot)  DE(clash)    DE(int)     intcor
     11.05     -12.15       0.95        0.00      69.79       1.82       0.07       1.03       ----

> <Gold.Chemscore.Fitness>
11.0504

> <Gold.Chemscore.DG>
-12.1493

> <Gold.Chemscore.ZeroCoef>
-5.4800

> <Gold.Chemscore.Hbond>
0.9493

> <Gold.Chemscore.Metal>
0.0000

> <Gold.Chemscore.Lipo>
69.7857

> <Gold.Chemscore.Internal_Hbond>
0.0000

> <Gold.Chemscore.DEClash>
0.0687

> <Gold.Chemscore.DEInternal>
1.0301

> <Gold.Chemscore.Rot>
1.8228

> <Gold.Chemscore.Internal.Correction>
   9.000000E+99

> <Gold.Chemscore.Hbonds>
donor molecule, donor type, donor heavy atom, donor atom, acceptor molecule, acceptor atom, score
      P1  H  7997  8009       L1    15  0.87

> <Gold.Chemscore.Hbond.Weighted>
-3.1708

> <Gold.Chemscore.Metal.Weighted>
-0.0000

> <Gold.Chemscore.Lipo.Weighted>
-8.1649

> <Gold.Chemscore.Internal_Hbond.Weighted>
0.0000

> <Gold.Chemscore.DEClash.Weighted>
0.0687

> <Gold.Chemscore.DEInternal.Weighted>
1.0301

> <Gold.Chemscore.Rot.Weighted>
4.6665

> <Gold.Chemscore.Internal.Correction.Weighted>
   9.000000E+99

> <Gold.Protein.RotatedTorsions>
[ 6907 6896 6895 6894 ] final  -57.30 input  -60.11 | X-H torsion
[ 7974 7965 7964 7962 ] final  173.60 input  175.53 | X-H torsion
[ 8008 7997 7996 7995 ] final  169.30 input   59.86 | X-H torsion
[ 10167 10162 10161 10158 ] final  118.34 input  -65.29 | X-H torsion
[ 10718 10713 10712 10709 ] final   45.45 input   66.30 | X-H torsion
[ 10763 10752 10751 10750 ] final -146.50 input  -60.55 | X-H torsion
[ 11005 11000 10999 10996 ] final  156.82 input  -57.11 | X-H torsion

> <Gold.Protein.ActiveResidues>
 VAL166  LYS551  ARG553  GLY616  TRP617  ASP618  TYR619  PRO620  LYS621  CYS622 
 ASP623  PHE694  ASN695  SER759  ASP760  ASP761  ALA762  ILE779  LEU786  VAL792 
 PHE793  MET794  SER795  GLU796  ALA797  LYS798  CYS799  TRP800  GLU811  SER814 

> <Gold.Protein.RotatedAtoms>
  150.8097  134.7245  159.6676 H   0  0  0  0  0  0  0  0  0  0  0  0  # atno 6907 bound_to 6896
  152.4217  134.5939  159.9991 H   0  0  0  0  0  0  0  0  0  0  0  0  # atno 6908 bound_to 6896
  151.6153  133.3306  159.3112 H   0  0  0  0  0  0  0  0  0  0  0  0  # atno 6909 bound_to 6896
  144.7240  139.9672  143.6436 H   0  0  0  0  0  0  0  0  0  0  0  0  # atno 7974 bound_to 7965
  156.1470  140.1568  156.8831 H   0  0  0  0  0  0  0  0  0  0  0  0  # atno 8008 bound_to 7997
  154.5037  140.0818  156.7887 H   0  0  0  0  0  0  0  0  0  0  0  0  # atno 8009 bound_to 7997
  155.3970  140.3412  155.4257 H   0  0  0  0  0  0  0  0  0  0  0  0  # atno 8010 bound_to 7997
  139.6118  144.7083  151.2828 H   0  0  0  0  0  0  0  0  0  0  0  0  # atno 10167 bound_to 10162
  157.4377  130.8062  149.7664 H   0  0  0  0  0  0  0  0  0  0  0  0  # atno 10718 bound_to 10713
  154.8333  135.3385  154.6670 H   0  0  0  0  0  0  0  0  0  0  0  0  # atno 10763 bound_to 10752
  153.7288  135.6953  153.4999 H   0  0  0  0  0  0  0  0  0  0  0  0  # atno 10764 bound_to 10752
  153.2327  135.4411  155.0565 H   0  0  0  0  0  0  0  0  0  0  0  0  # atno 10765 bound_to 10752
  140.1711  134.8542  157.2691 H   0  0  0  0  0  0  0  0  0  0  0  0  # atno 11005 bound_to 11000
  146.0591  139.3586  143.0592 LP  0  0  0  0  0  0  0  0  0  0  0  0  # atno 17320 bound_to 7965
  145.8115  140.9723  143.0946 LP  0  0  0  0  0  0  0  0  0  0  0  0  # atno 17321 bound_to 7965
  140.7324  143.6824  150.7989 LP  0  0  0  0  0  0  0  0  0  0  0  0  # atno 17342 bound_to 10162
  140.0420  143.5336  152.2713 LP  0  0  0  0  0  0  0  0  0  0  0  0  # atno 17343 bound_to 10162
  155.9937  130.3923  150.2891 LP  0  0  0  0  0  0  0  0  0  0  0  0  # atno 17370 bound_to 10713
  157.1053  131.0207  151.3069 LP  0  0  0  0  0  0  0  0  0  0  0  0  # atno 17371 bound_to 10713
  140.2376  134.3834  155.7494 LP  0  0  0  0  0  0  0  0  0  0  0  0  # atno 17394 bound_to 11000
  141.2217  133.7248  156.8739 LP  0  0  0  0  0  0  0  0  0  0  0  0  # atno 17395 bound_to 11000

$$$$
