AV-unprocessed.smi:3068|AV-procd|sdf|11702|dock10
  -GOLD-   2272017103D 1   1.00000     0.00000
 Structure written by MMmdl.
 40 42  0  0  0  0  0  0  0  0  2 V2000
  150.6751  133.9115  157.2580 N   0  0  0  0  0  0  0  0  0  0  0  0
  150.8492  132.9299  156.6703 C   0  0  0  0  0  0  0  0  0  0  0  0
  151.0711  131.6944  155.9298 C   0  0  0  0  0  0  0  0  0  0  0  0
  152.3089  131.1528  156.0051 N   0  0  0  0  0  0  0  0  0  0  0  0
  152.5268  130.0105  155.3191 C   0  0  0  0  0  0  0  0  0  0  0  0
  151.5109  129.4032  154.5558 C   0  0  0  0  0  0  0  0  0  0  0  0
  150.2731  129.9358  154.4756 N   0  0  0  0  0  0  0  0  0  0  0  0
  150.0415  131.0849  155.1586 C   0  0  0  0  0  0  0  0  0  0  0  0
  148.7556  131.6493  155.0838 N   0  0  0  0  0  0  0  0  0  0  0  0
  147.6039  130.8213  154.7544 C   0  0  0  0  0  0  0  0  0  0  0  0
  147.3862  130.7310  153.2381 C   0  0  2  0  0  0  0  0  0  0  0  0
  147.1093  132.1162  152.6255 C   0  0  0  0  0  0  0  0  0  0  0  0
  146.8030  131.9976  151.1783 N   0  3  2  0  0  0  0  0  0  0  0  0
  146.5739  133.3018  150.5031 C   0  0  0  0  0  0  0  0  0  0  0  0
  145.1972  133.9021  150.8477 C   0  0  0  0  0  0  0  0  0  0  0  0
  144.0695  132.9042  150.5504 C   0  0  0  0  0  0  0  0  0  0  0  0
  144.3308  131.5718  151.2668 C   0  0  0  0  0  0  0  0  0  0  0  0
  145.7232  131.0097  150.9038 C   0  0  2  0  0  0  0  0  0  0  0  0
  146.0295  129.6771  151.6143 C   0  0  0  0  0  0  0  0  0  0  0  0
  146.2547  129.8998  153.0007 O   0  0  0  0  0  0  0  0  0  0  0  0
  153.5152  129.5798  155.3796 H   0  0  0  0  0  0  0  0  0  0  0  0
  151.6909  128.4896  154.0084 H   0  0  0  0  0  0  0  0  0  0  0  0
  148.6637  132.6528  155.0124 H   0  0  0  0  0  0  0  0  0  0  0  0
  147.7349  129.8232  155.1751 H   0  0  0  0  0  0  0  0  0  0  0  0
  146.7205  131.2566  155.2238 H   0  0  0  0  0  0  0  0  0  0  0  0
  148.2727  130.2956  152.7723 H   0  0  0  0  0  0  0  0  0  0  0  0
  146.2829  132.5944  153.1518 H   0  0  0  0  0  0  0  0  0  0  0  0
  147.9802  132.7593  152.7572 H   0  0  0  0  0  0  0  0  0  0  0  0
  147.3713  134.0000  150.7599 H   0  0  0  0  0  0  0  0  0  0  0  0
  146.6397  133.1441  149.4257 H   0  0  0  0  0  0  0  0  0  0  0  0
  145.1649  134.1930  151.8981 H   0  0  0  0  0  0  0  0  0  0  0  0
  145.0403  134.8174  150.2764 H   0  0  0  0  0  0  0  0  0  0  0  0
  143.1098  133.3173  150.8619 H   0  0  0  0  0  0  0  0  0  0  0  0
  144.0024  132.7359  149.4748 H   0  0  0  0  0  0  0  0  0  0  0  0
  144.2456  131.7118  152.3449 H   0  0  0  0  0  0  0  0  0  0  0  0
  143.5572  130.8536  150.9929 H   0  0  0  0  0  0  0  0  0  0  0  0
  145.7286  130.8176  149.8299 H   0  0  0  0  0  0  0  0  0  0  0  0
  145.1991  128.9809  151.4946 H   0  0  0  0  0  0  0  0  0  0  0  0
  146.9043  129.1975  151.1722 H   0  0  0  0  0  0  0  0  0  0  0  0
  147.6402  131.6146  150.7628 H   0  0  0  0  0  0  0  0  0  0  0  0
  1  2  3  0  0  0  0
  2  3  1  0  0  0  0
  3  8  1  0  0  0  0
  3  4  2  0  0  0  0
  4  5  1  0  0  0  0
  5  6  2  0  0  0  0
  5 21  1  0  0  0  0
  6  7  1  0  0  0  0
  6 22  1  0  0  0  0
  7  8  2  0  0  0  0
  8  9  1  0  0  0  0
  9 10  1  0  0  0  0
  9 23  1  0  0  0  0
 10 11  1  0  0  0  0
 10 24  1  0  0  0  0
 10 25  1  0  0  0  0
 11 20  1  0  0  0  0
 11 12  1  0  0  0  0
 11 26  1  0  0  0  0
 12 13  1  0  0  0  0
 12 27  1  0  0  0  0
 12 28  1  0  0  0  0
 13 18  1  0  0  0  0
 13 14  1  0  0  0  0
 13 40  1  0  0  0  0
 14 15  1  0  0  0  0
 14 29  1  0  0  0  0
 14 30  1  0  0  0  0
 15 16  1  0  0  0  0
 15 31  1  0  0  0  0
 15 32  1  0  0  0  0
 16 17  1  0  0  0  0
 16 33  1  0  0  0  0
 16 34  1  0  0  0  0
 17 18  1  0  0  0  0
 17 35  1  0  0  0  0
 17 36  1  0  0  0  0
 18 19  1  0  0  0  0
 18 37  1  0  0  0  0
 19 20  1  0  0  0  0
 19 38  1  0  0  0  0
 19 39  1  0  0  0  0
M  CHG  1  13   1
M  END
> <s_m_source_file>
AV-unprocessed.smi

> <i_m_source_file_index>
3068

> <i_lp_mmshare_version>
43012

> <i_f3d_flags>
0

> <s_epik_input>
TiNDYzFuW2NIXVtjSF1uYzFbTkhdW0NIMl1bQ0BIXShbQ0gyXTIpT1tDSDJdW0NAQEhdKE4yMylbQ0gyXVtDSDJdW0NIMl1bQ0gyXTM=

> <s_epik_cmdline>
J2VwaWtfcHl0aG9uJywgJy1waCcsICc3LjAnLCAnLXRuJywgJzgnLCAnLW1hJywgJzIwMCcsICctbWV0YWxfYmluZGluZycsICctaW1hZScsICc8aW5maWxlLm1hZT4nLCAnLW9tYWUnLCAnPG91dGZpbGUubWFlPic=

> <r_epik_Ionization_Penalty>
0.0804321

> <r_epik_Ionization_Penalty_Charging>
0.0803403

> <r_epik_Ionization_Penalty_Neutral>
9.17277e-05

> <r_epik_State_Penalty>
0.0711481

> <r_epik_Charging_Adjusted_Penalty>
0.151488

> <i_epik_Tot_Q>
1

> <i_epik_Tot_abs_Q>
1

> <r_epik_Metal_State_Penalty>
0.0711481

> <b_epik_Metal_Only>
0

> <s_lp_Force_Field>
OPLS_2005

> <r_lp_Energy>
39.3749

> <b_lp_Chiralities_Consistent>
1

> <s_lp_Variant>
AV-unprocessed.smi:3068-5

> <Gold.Version>
5.8.1

> <Gold.Id.Protein>
6NUR|6NUR_protein|mol2

> <Gold.PLP.Fitness>
41.2789

> <Gold.PLP.PLP>
-33.8252

> <Gold.PLP.part.hbond>
-2.0000

> <Gold.PLP.part.metal>
0.0000

> <Gold.PLP.part.buried>
-5.6741

> <Gold.PLP.part.nonpolar>
-27.0215

> <Gold.PLP.part.repulsive>
0.2866

> <Gold.PLP.ligand.clash>
0.0000

> <Gold.PLP.ligand.torsion>
0.3055

> <Gold.PLP.Chemscore.Hbond>
1.6880

> <Gold.PLP.Chemscore.CHOScore>
1.0000

> <Gold.PLP.Chemscore.Metal>
0.0000

> <Gold.Chemscore.Hbonds>
donor molecule, donor type, donor heavy atom, donor atom, acceptor molecule, acceptor atom, score
      L1  H    13    40       P1 10747  1.00
      P1  H  6896  6907       L1     1  0.69
      L1  C     6    22       P1 10737  1.00

> <Gold.PLP.Chemscore.Internal.Correction>
0.0007

> <Gold.Rescore>
     Score         DG    S(hbond)    S(metal)    S(lipo)     H(rot)  DE(clash)    DE(int)     intcor
     18.15     -18.66       1.93        0.00      86.58       1.32       0.12       0.39       ----

> <Gold.Chemscore.Fitness>
18.1539

> <Gold.Chemscore.DG>
-18.6647

> <Gold.Chemscore.ZeroCoef>
-5.4800

> <Gold.Chemscore.Hbond>
1.9259

> <Gold.Chemscore.Metal>
0.0000

> <Gold.Chemscore.Lipo>
86.5783

> <Gold.Chemscore.Internal_Hbond>
0.0000

> <Gold.Chemscore.DEClash>
0.1214

> <Gold.Chemscore.DEInternal>
0.3893

> <Gold.Chemscore.Rot>
1.3193

> <Gold.Chemscore.Internal.Correction>
   9.000000E+99

> <Gold.Chemscore.Hbonds>
donor molecule, donor type, donor heavy atom, donor atom, acceptor molecule, acceptor atom, score
      L1  H    13    40       P1 10747  0.99
      P1  H  6896  6907       L1     1  0.58

> <Gold.Chemscore.Hbond.Weighted>
-6.4324

> <Gold.Chemscore.Metal.Weighted>
-0.0000

> <Gold.Chemscore.Lipo.Weighted>
-10.1297

> <Gold.Chemscore.Internal_Hbond.Weighted>
0.0000

> <Gold.Chemscore.DEClash.Weighted>
0.1214

> <Gold.Chemscore.DEInternal.Weighted>
0.3893

> <Gold.Chemscore.Rot.Weighted>
3.3774

> <Gold.Chemscore.Internal.Correction.Weighted>
   9.000000E+99

> <Gold.Protein.RotatedTorsions>
[ 6907 6896 6895 6894 ] final -127.00 input  -60.11 | X-H torsion
[ 7974 7965 7964 7962 ] final -166.45 input  175.53 | X-H torsion
[ 8008 7997 7996 7995 ] final  106.68 input   59.86 | X-H torsion
[ 10167 10162 10161 10158 ] final  101.61 input  -65.29 | X-H torsion
[ 10718 10713 10712 10709 ] final -115.75 input   66.30 | X-H torsion
[ 10763 10752 10751 10750 ] final  -51.77 input  -60.55 | X-H torsion
[ 11005 11000 10999 10996 ] final  146.40 input  -57.11 | X-H torsion

> <Gold.Protein.ActiveResidues>
 VAL166  LYS551  ARG553  GLY616  TRP617  ASP618  TYR619  PRO620  LYS621  CYS622 
 ASP623  PHE694  ASN695  SER759  ASP760  ASP761  ALA762  ILE779  LEU786  VAL792 
 PHE793  MET794  SER795  GLU796  ALA797  LYS798  CYS799  TRP800  GLU811  SER814 

> <Gold.Protein.RotatedAtoms>
  150.9028  133.7097  159.2874 H   0  0  0  0  0  0  0  0  0  0  0  0  # atno 6907 bound_to 6896
  151.4610  135.1037  159.9734 H   0  0  0  0  0  0  0  0  0  0  0  0  # atno 6908 bound_to 6896
  152.4886  133.8391  159.7198 H   0  0  0  0  0  0  0  0  0  0  0  0  # atno 6909 bound_to 6896
  144.7245  140.2665  143.6257 H   0  0  0  0  0  0  0  0  0  0  0  0  # atno 7974 bound_to 7965
  156.1763  140.3108  155.9065 H   0  0  0  0  0  0  0  0  0  0  0  0  # atno 8008 bound_to 7997
  155.3481  140.0469  157.3063 H   0  0  0  0  0  0  0  0  0  0  0  0  # atno 8009 bound_to 7997
  154.5294  140.2225  155.8842 H   0  0  0  0  0  0  0  0  0  0  0  0  # atno 8010 bound_to 7997
  139.7423  144.7008  151.0557 H   0  0  0  0  0  0  0  0  0  0  0  0  # atno 10167 bound_to 10162
  156.0916  130.6098  150.8946 H   0  0  0  0  0  0  0  0  0  0  0  0  # atno 10718 bound_to 10713
  154.1319  135.6518  153.4924 H   0  0  0  0  0  0  0  0  0  0  0  0  # atno 10763 bound_to 10752
  153.0192  135.5295  154.6992 H   0  0  0  0  0  0  0  0  0  0  0  0  # atno 10764 bound_to 10752
  154.6229  135.2967  155.0275 H   0  0  0  0  0  0  0  0  0  0  0  0  # atno 10765 bound_to 10752
  140.0790  134.9108  157.1470 H   0  0  0  0  0  0  0  0  0  0  0  0  # atno 11005 bound_to 11000
  145.8085  139.1993  143.2007 LP  0  0  0  0  0  0  0  0  0  0  0  0  # atno 17320 bound_to 7965
  146.0616  140.7964  142.9732 LP  0  0  0  0  0  0  0  0  0  0  0  0  # atno 17321 bound_to 7965
  140.7787  143.4909  150.9894 LP  0  0  0  0  0  0  0  0  0  0  0  0  # atno 17342 bound_to 10162
  139.8598  143.7330  152.3174 LP  0  0  0  0  0  0  0  0  0  0  0  0  # atno 17343 bound_to 10162
  157.6067  131.0938  150.8867 LP  0  0  0  0  0  0  0  0  0  0  0  0  # atno 17370 bound_to 10713
  156.9014  130.5248  149.5282 LP  0  0  0  0  0  0  0  0  0  0  0  0  # atno 17371 bound_to 10713
  140.3515  134.2593  155.7198 LP  0  0  0  0  0  0  0  0  0  0  0  0  # atno 17394 bound_to 11000
  141.2040  133.7898  157.0311 LP  0  0  0  0  0  0  0  0  0  0  0  0  # atno 17395 bound_to 11000

$$$$
