AV-unprocessed.smi:234|AV-procd|sdf|1798|dock1
  -GOLD-   2262020363D 1   1.00000     0.00000
 Structure written by MMmdl.
 59 62  0  0  0  0  0  0  0  0  1 V2000
  147.3107  136.1938  162.5211 C   0  0  0  0  0  0  0  0  0  0  0  0
  146.3308  136.4460  161.3678 C   0  0  0  0  0  0  0  0  0  0  0  0
  146.7065  137.5594  160.5680 O   0  0  0  0  0  0  0  0  0  0  0  0
  146.4697  137.4050  159.1744 C   0  0  1  0  0  0  0  0  0  0  0  0
  147.3370  138.2759  158.2647 C   0  0  0  0  0  0  0  0  0  0  0  0
  147.4039  137.0552  157.3368 C   0  0  1  0  0  0  0  0  0  0  0  0
  148.7001  136.8776  156.6725 N   0  0  0  0  0  0  0  0  0  0  0  0
  148.8752  135.7112  155.8135 C   0  0  0  0  0  0  0  0  0  0  0  0
  149.3086  137.9774  156.1625 C   0  0  0  0  0  0  0  0  0  0  0  0
  149.3162  138.1952  154.8200 N   0  0  0  0  0  0  0  0  0  0  0  0
  149.9282  139.2715  154.3172 C   0  0  0  0  0  0  0  0  0  0  0  0
  150.5817  140.2385  154.9644 N   0  0  0  0  0  0  0  0  0  0  0  0
  150.5793  140.0223  156.3112 C   0  0  0  0  0  0  0  0  0  0  0  0
  149.9781  138.9233  156.9862 C   0  0  0  0  0  0  0  0  0  0  0  0
  150.1833  139.0366  158.3557 N   0  0  0  0  0  0  0  0  0  0  0  0
  150.8647  140.1426  158.4833 C   0  0  0  0  0  0  0  0  0  0  0  0
  151.1383  140.8041  157.3070 N   0  0  0  0  0  0  0  0  0  0  0  0
  151.8669  142.0553  157.1606 C   0  0  0  0  0  0  0  0  0  0  0  0
  151.3589  143.1771  158.1045 C   0  0  2  0  0  0  0  0  0  0  0  0
  149.9451  143.2223  158.0006 O   0  0  0  0  0  0  0  0  0  0  0  0
  151.8978  144.5622  157.7612 C   0  0  0  0  0  0  0  0  0  0  0  0
  151.8441  145.2871  159.0971 C   0  0  0  0  0  0  0  0  0  0  0  0
  152.2583  144.2851  160.0093 O   0  0  0  0  0  0  0  0  0  0  0  0
  151.7130  143.0287  159.6112 C   0  0  2  0  0  0  0  0  0  0  0  0
  152.7463  141.9501  159.9721 C   0  0  0  0  0  0  0  0  0  0  0  0
  147.1779  136.1579  158.5868 C   0  0  0  0  0  0  0  0  0  0  0  0
  148.4268  135.6826  159.3518 C   0  0  0  0  0  0  0  0  0  0  0  0
  146.2762  134.9377  158.3953 C   0  0  0  0  0  0  0  0  0  0  0  0
  147.0708  135.2612  163.0319 H   0  0  0  0  0  0  0  0  0  0  0  0
  147.2736  136.9879  163.2653 H   0  0  0  0  0  0  0  0  0  0  0  0
  148.3348  136.1189  162.1551 H   0  0  0  0  0  0  0  0  0  0  0  0
  146.3288  135.5708  160.7179 H   0  0  0  0  0  0  0  0  0  0  0  0
  145.3102  136.5564  161.7362 H   0  0  0  0  0  0  0  0  0  0  0  0
  145.4108  137.4349  158.9058 H   0  0  0  0  0  0  0  0  0  0  0  0
  146.8266  139.1389  157.8370 H   0  0  0  0  0  0  0  0  0  0  0  0
  148.2938  138.5501  158.7124 H   0  0  0  0  0  0  0  0  0  0  0  0
  146.5540  137.0238  156.6519 H   0  0  0  0  0  0  0  0  0  0  0  0
  148.9889  135.9934  154.7654 H   0  0  0  0  0  0  0  0  0  0  0  0
  148.0200  135.0399  155.8780 H   0  0  0  0  0  0  0  0  0  0  0  0
  149.7624  135.1539  156.1146 H   0  0  0  0  0  0  0  0  0  0  0  0
  149.8889  139.3718  153.2426 H   0  0  0  0  0  0  0  0  0  0  0  0
  151.1819  140.5141  159.4470 H   0  0  0  0  0  0  0  0  0  0  0  0
  152.9239  141.8559  157.3418 H   0  0  0  0  0  0  0  0  0  0  0  0
  151.7849  142.3636  156.1183 H   0  0  0  0  0  0  0  0  0  0  0  0
  149.7173  143.7617  157.2589 H   0  0  0  0  0  0  0  0  0  0  0  0
  152.9388  144.4917  157.4443 H   0  0  0  0  0  0  0  0  0  0  0  0
  151.3426  145.0705  156.9714 H   0  0  0  0  0  0  0  0  0  0  0  0
  152.4976  146.1588  159.1321 H   0  0  0  0  0  0  0  0  0  0  0  0
  150.8274  145.6048  159.3332 H   0  0  0  0  0  0  0  0  0  0  0  0
  150.8114  142.8514  160.2007 H   0  0  0  0  0  0  0  0  0  0  0  0
  152.3914  140.9535  159.7089 H   0  0  0  0  0  0  0  0  0  0  0  0
  152.9447  141.9518  161.0440 H   0  0  0  0  0  0  0  0  0  0  0  0
  153.6961  142.1210  159.4646 H   0  0  0  0  0  0  0  0  0  0  0  0
  148.9563  134.8968  158.8129 H   0  0  0  0  0  0  0  0  0  0  0  0
  148.1642  135.2791  160.3302 H   0  0  0  0  0  0  0  0  0  0  0  0
  149.1388  136.4907  159.5209 H   0  0  0  0  0  0  0  0  0  0  0  0
  146.7981  134.1193  157.8996 H   0  0  0  0  0  0  0  0  0  0  0  0
  145.4016  135.1772  157.7900 H   0  0  0  0  0  0  0  0  0  0  0  0
  145.9124  134.5613  159.3519 H   0  0  0  0  0  0  0  0  0  0  0  0
  1  2  1  0  0  0  0
  1 29  1  0  0  0  0
  1 30  1  0  0  0  0
  1 31  1  0  0  0  0
  2  3  1  0  0  0  0
  2 32  1  0  0  0  0
  2 33  1  0  0  0  0
  3  4  1  0  0  0  0
  4 26  1  0  0  0  0
  4  5  1  0  0  0  0
  4 34  1  0  0  0  0
  5  6  1  0  0  0  0
  5 35  1  0  0  0  0
  5 36  1  0  0  0  0
  6  7  1  0  0  0  0
  6 26  1  0  0  0  0
  6 37  1  0  0  0  0
  7  8  1  0  0  0  0
  7  9  1  0  0  0  0
  8 38  1  0  0  0  0
  8 39  1  0  0  0  0
  8 40  1  0  0  0  0
  9 14  1  0  0  0  0
  9 10  2  0  0  0  0
 10 11  1  0  0  0  0
 11 12  2  0  0  0  0
 11 41  1  0  0  0  0
 12 13  1  0  0  0  0
 13 17  1  0  0  0  0
 13 14  2  0  0  0  0
 14 15  1  0  0  0  0
 15 16  2  0  0  0  0
 16 17  1  0  0  0  0
 16 42  1  0  0  0  0
 17 18  1  0  0  0  0
 18 19  1  0  0  0  0
 18 43  1  0  0  0  0
 18 44  1  0  0  0  0
 19 24  1  0  0  0  0
 19 20  1  0  0  0  0
 19 21  1  0  0  0  0
 20 45  1  0  0  0  0
 21 22  1  0  0  0  0
 21 46  1  0  0  0  0
 21 47  1  0  0  0  0
 22 23  1  0  0  0  0
 22 48  1  0  0  0  0
 22 49  1  0  0  0  0
 23 24  1  0  0  0  0
 24 25  1  0  0  0  0
 24 50  1  0  0  0  0
 25 51  1  0  0  0  0
 25 52  1  0  0  0  0
 25 53  1  0  0  0  0
 26 27  1  0  0  0  0
 26 28  1  0  0  0  0
 27 54  1  0  0  0  0
 27 55  1  0  0  0  0
 27 56  1  0  0  0  0
 28 57  1  0  0  0  0
 28 58  1  0  0  0  0
 28 59  1  0  0  0  0
M  END
> <s_m_source_file>
AV-unprocessed.smi

> <i_m_source_file_index>
234

> <i_lp_mmshare_version>
43012

> <i_f3d_flags>
0

> <s_epik_input>
W0NIM11bQ0gyXU9bQ0BASF0oQzEoW0NIM10pW0NIM10pW0NIMl1bQ0BIXTFOKFtDSDNdKWMobltjSF1uMiljKGMyMyluW2NIXW4zW0NIMl1bQ0BAXTQoW09IXSlbQ0gyXVtDSDJdT1tDQEhdNFtDSDNd

> <s_epik_cmdline>
J2VwaWtfcHl0aG9uJywgJy1waCcsICc3LjAnLCAnLXRuJywgJzgnLCAnLW1hJywgJzIwMCcsICctbWV0YWxfYmluZGluZycsICctaW1hZScsICc8aW5maWxlLm1hZT4nLCAnLW9tYWUnLCAnPG91dGZpbGUubWFlPic=

> <r_lp_tautomer_probability>
1

> <r_epik_Ionization_Penalty>
0.00349132

> <r_epik_Ionization_Penalty_Charging>
0

> <r_epik_Ionization_Penalty_Neutral>
0.00349132

> <r_epik_State_Penalty>
0.00242418

> <r_epik_Charging_Adjusted_Penalty>
0.00242418

> <i_epik_Tot_Q>
0

> <i_epik_Tot_abs_Q>
0

> <r_epik_Metal_State_Penalty>
-0

> <b_epik_Metal_Only>
0

> <s_lp_Force_Field>
OPLS_2005

> <r_lp_Energy>
48.9285

> <b_lp_Chiralities_Consistent>
1

> <s_lp_Variant>
AV-unprocessed.smi:234-14

> <Gold.Version>
5.8.1

> <Gold.Id.Protein>
6NUR|6NUR_protein|mol2

> <Gold.PLP.Fitness>
48.6614

> <Gold.PLP.PLP>
-38.4140

> <Gold.PLP.part.hbond>
-3.0226

> <Gold.PLP.part.metal>
0.0000

> <Gold.PLP.part.buried>
-6.4482

> <Gold.PLP.part.nonpolar>
-29.5233

> <Gold.PLP.part.repulsive>
0.2545

> <Gold.PLP.ligand.clash>
0.0000

> <Gold.PLP.ligand.torsion>
1.5291

> <Gold.PLP.Chemscore.Hbond>
3.0000

> <Gold.PLP.Chemscore.CHOScore>
1.0000

> <Gold.PLP.Chemscore.Metal>
0.0000

> <Gold.Chemscore.Hbonds>
donor molecule, donor type, donor heavy atom, donor atom, acceptor molecule, acceptor atom, score
      L1  H    20    45       P1  8028  1.00
      P1  H  6934  6947       L1     3  1.00
      P1  H  7989  7998       L1    12  0.90
      L1  C    11    41       P1  7957  1.00

> <Gold.PLP.Chemscore.Internal.Correction>
1.3057

> <Gold.Rescore>
     Score         DG    S(hbond)    S(metal)    S(lipo)     H(rot)  DE(clash)    DE(int)     intcor
     15.63     -19.39       2.85        0.00      94.79       2.62       1.55       2.22       ----

> <Gold.Chemscore.Fitness>
15.6324

> <Gold.Chemscore.DG>
-19.3929

> <Gold.Chemscore.ZeroCoef>
-5.4800

> <Gold.Chemscore.Hbond>
2.8546

> <Gold.Chemscore.Metal>
0.0000

> <Gold.Chemscore.Lipo>
94.7928

> <Gold.Chemscore.Internal_Hbond>
0.0000

> <Gold.Chemscore.DEClash>
1.5454

> <Gold.Chemscore.DEInternal>
2.2151

> <Gold.Chemscore.Rot>
2.6219

> <Gold.Chemscore.Internal.Correction>
   9.000000E+99

> <Gold.Chemscore.Hbonds>
donor molecule, donor type, donor heavy atom, donor atom, acceptor molecule, acceptor atom, score
      L1  H    20    45       P1  8028  0.73
      P1  H  6934  6947       L1     3  0.80
      P1  H  7989  7998       L1    12  0.18

> <Gold.Chemscore.Hbond.Weighted>
-9.5342

> <Gold.Chemscore.Metal.Weighted>
-0.0000

> <Gold.Chemscore.Lipo.Weighted>
-11.0908

> <Gold.Chemscore.Internal_Hbond.Weighted>
0.0000

> <Gold.Chemscore.DEClash.Weighted>
1.5454

> <Gold.Chemscore.DEInternal.Weighted>
2.2151

> <Gold.Chemscore.Rot.Weighted>
6.7121

> <Gold.Chemscore.Internal.Correction.Weighted>
   9.000000E+99

> <Gold.Protein.RotatedTorsions>
[ 6907 6896 6895 6894 ] final  -55.47 input  -60.11 | X-H torsion
[ 7974 7965 7964 7962 ] final   19.28 input  175.53 | X-H torsion
[ 8008 7997 7996 7995 ] final -107.28 input   59.86 | X-H torsion
[ 10167 10162 10161 10158 ] final   86.41 input  -65.29 | X-H torsion
[ 10718 10713 10712 10709 ] final  170.68 input   66.30 | X-H torsion
[ 10763 10752 10751 10750 ] final  105.51 input  -60.55 | X-H torsion
[ 11005 11000 10999 10996 ] final   13.45 input  -57.11 | X-H torsion

> <Gold.Protein.ActiveResidues>
 VAL166  LYS551  ARG553  GLY616  TRP617  ASP618  TYR619  PRO620  LYS621  CYS622 
 ASP623  PHE694  ASN695  SER759  ASP760  ASP761  ALA762  ILE779  LEU786  VAL792 
 PHE793  MET794  SER795  GLU796  ALA797  LYS798  CYS799  TRP800  GLU811  SER814 

> <Gold.Protein.RotatedAtoms>
  150.8248  134.7474  159.6803 H   0  0  0  0  0  0  0  0  0  0  0  0  # atno 6907 bound_to 6896
  152.4360  134.5681  159.9923 H   0  0  0  0  0  0  0  0  0  0  0  0  # atno 6908 bound_to 6896
  151.5856  133.3335  159.3053 H   0  0  0  0  0  0  0  0  0  0  0  0  # atno 6909 bound_to 6896
  146.2155  139.8335  142.8655 H   0  0  0  0  0  0  0  0  0  0  0  0  # atno 7974 bound_to 7965
  154.9270  140.0406  157.2028 H   0  0  0  0  0  0  0  0  0  0  0  0  # atno 8008 bound_to 7997
  154.8198  140.2881  155.5773 H   0  0  0  0  0  0  0  0  0  0  0  0  # atno 8009 bound_to 7997
  156.2979  140.2521  156.3103 H   0  0  0  0  0  0  0  0  0  0  0  0  # atno 8010 bound_to 7997
  139.8878  144.6403  150.8772 H   0  0  0  0  0  0  0  0  0  0  0  0  # atno 10167 bound_to 10162
  157.0046  131.0186  151.2821 H   0  0  0  0  0  0  0  0  0  0  0  0  # atno 10718 bound_to 10713
  153.3804  135.3907  155.1852 H   0  0  0  0  0  0  0  0  0  0  0  0  # atno 10763 bound_to 10752
  154.8707  135.3724  154.4864 H   0  0  0  0  0  0  0  0  0  0  0  0  # atno 10764 bound_to 10752
  153.5341  135.7085  153.5730 H   0  0  0  0  0  0  0  0  0  0  0  0  # atno 10765 bound_to 10752
  140.4806  134.0939  155.7750 H   0  0  0  0  0  0  0  0  0  0  0  0  # atno 11005 bound_to 11000
  145.2973  141.0184  143.3629 LP  0  0  0  0  0  0  0  0  0  0  0  0  # atno 17320 bound_to 7965
  144.9033  139.4622  143.6622 LP  0  0  0  0  0  0  0  0  0  0  0  0  # atno 17321 bound_to 7965
  140.7732  143.3534  151.1969 LP  0  0  0  0  0  0  0  0  0  0  0  0  # atno 17342 bound_to 10162
  139.7137  143.9335  152.2958 LP  0  0  0  0  0  0  0  0  0  0  0  0  # atno 17343 bound_to 10162
  157.5365  130.8092  149.7978 LP  0  0  0  0  0  0  0  0  0  0  0  0  # atno 17370 bound_to 10713
  156.0158  130.3814  150.2115 LP  0  0  0  0  0  0  0  0  0  0  0  0  # atno 17371 bound_to 10713
  141.1533  133.8929  157.2043 LP  0  0  0  0  0  0  0  0  0  0  0  0  # atno 17394 bound_to 11000
  139.9829  135.0092  156.9792 LP  0  0  0  0  0  0  0  0  0  0  0  0  # atno 17395 bound_to 11000

$$$$
