#       Name:                AV-unprocessed.smi:557
#       Creating user name   scv26
#       Creation time:       Thu Mar 26 23:41:21 2020


#       File generated by GOLD software.
#

@<TRIPOS>MOLECULE
AV-unprocessed.smi:557
    50    52     1
SMALL
NO_CHARGES


@<TRIPOS>ATOM
      1 ****        -7.5771  -5.9709  -0.7660 C.3            1 S1                 0.0000
      2 ****        -6.6894  -4.9174  -0.3221 N.pl3          1 S1                 0.0000
      3 ****        -5.6661  -4.3068  -1.0141 C.2            1 S1                 0.0000
      4 ****        -5.1114  -3.3719  -0.1861 C.2            1 S1                 0.0000
      5 ****        -3.9641  -2.4403  -0.4591 C.3            1 S1                 0.0000
      6 ****        -2.6137  -3.1252  -0.2115 C.3            1 S1                 0.0000
      7 ****        -1.5128  -2.2219  -0.5344 N.am           1 S1                 0.0000
      8 ****        -0.1995  -2.5040  -0.5121 C.2            1 S1                 0.0000
      9 ****         0.2220  -3.6173  -0.2059 O.2            1 S1                 0.0000
     10 ****         0.5973  -1.4778  -0.8575 N.am           1 S1                 0.0000
     11 ****         2.0583  -1.5133  -0.8860 C.3            1 S1                 0.0000
     12 ****         2.6653  -0.6325  -1.9946 C.3            1 S1                 0.0000
     13 ****         3.8931   0.0127  -1.3435 C.3            1 S1                 0.0000
     14 ****         3.4665   0.1880   0.0494 N.4            1 S1                 1.0000
     15 ****         4.4737   0.5715   1.0587 C.3            1 S1                 0.0000
     16 ****         3.7400   0.8822   2.3815 C.3            1 S1                 0.0000
     17 ****         2.7993  -0.2656   2.8160 C.3            1 S1                 0.0000
     18 ****         1.8652  -0.7118   1.6697 C.3            1 S1                 0.0000
     19 ****         2.7157  -1.0224   0.4251 C.3            1 S1                 0.0000
     20 ****        -5.8812  -3.4886   1.0065 C.2            1 S1                 0.0000
     21 ****        -6.8224  -4.4150   0.9225 N.2            1 S1                 0.0000
     22 ****        -7.3112  -6.2832  -1.7762 H              1 S1                 0.0000
     23 ****        -8.6063  -5.6106  -0.7655 H              1 S1                 0.0000
     24 ****        -7.4966  -6.8287  -0.0976 H              1 S1                 0.0000
     25 ****        -5.4180  -4.5852  -2.0278 H              1 S1                 0.0000
     26 ****        -4.0047  -2.0821  -1.4886 H              1 S1                 0.0000
     27 ****        -4.0373  -1.5502   0.1673 H              1 S1                 0.0000
     28 ****        -2.5394  -3.4377   0.8314 H              1 S1                 0.0000
     29 ****        -2.5358  -4.0221  -0.8286 H              1 S1                 0.0000
     30 ****        -1.7759  -1.3093  -0.8783 H              1 S1                 0.0000
     31 ****         0.1561  -0.6049  -1.1080 H              1 S1                 0.0000
     32 ****         2.3872  -2.5390  -1.0662 H              1 S1                 0.0000
     33 ****         2.9174  -1.1987  -2.8919 H              1 S1                 0.0000
     34 ****         1.9611   0.1490  -2.2850 H              1 S1                 0.0000
     35 ****         4.7507  -0.6608  -1.3856 H              1 S1                 0.0000
     36 ****         4.1695   0.9589  -1.8095 H              1 S1                 0.0000
     37 ****         5.1983  -0.2333   1.1931 H              1 S1                 0.0000
     38 ****         5.0229   1.4495   0.7173 H              1 S1                 0.0000
     39 ****         4.4632   1.0918   3.1702 H              1 S1                 0.0000
     40 ****         3.1527   1.7929   2.2568 H              1 S1                 0.0000
     41 ****         3.4002  -1.1160   3.1410 H              1 S1                 0.0000
     42 ****         2.2105   0.0408   3.6811 H              1 S1                 0.0000
     43 ****         1.2986  -1.5916   1.9762 H              1 S1                 0.0000
     44 ****         1.1407   0.0737   1.4495 H              1 S1                 0.0000
     45 ****         3.4443  -1.7871   0.7039 H              1 S1                 0.0000
     46 ****        -5.7827  -2.9310   1.9263 H              1 S1                 0.0000
     47 ****         2.7895   0.9369   0.0260 H              1 S1                 0.0000
     48 ****        -0.4192  -4.3454   0.0364 LP             1 S1                 0.0000
     49 ****         1.2061  -3.7949  -0.1991 LP             1 S1                 0.0000
     50 ****        -7.4834  -4.6823   1.6238 LP             1 S1                 0.0000
@<TRIPOS>BOND
    1    1    2 1     
    2    1   22 1     
    3    1   23 1     
    4    1   24 1     
    5    2   21 1     
    6    2    3 1     
    7    3    4 2     
    8    3   25 1     
    9    4    5 1     
   10    4   20 1     
   11    5    6 1     
   12    5   26 1     
   13    5   27 1     
   14    6    7 1     
   15    6   28 1     
   16    6   29 1     
   17    7    8 am    
   18    7   30 1     
   19    8    9 2     
   20    8   10 am    
   21   10   11 1     
   22   10   31 1     
   23   11   19 1     
   24   11   12 1     
   25   11   32 1     
   26   12   13 1     
   27   12   33 1     
   28   12   34 1     
   29   13   14 1     
   30   13   35 1     
   31   13   36 1     
   32   14   19 1     
   33   14   15 1     
   34   14   47 1     
   35   15   16 1     
   36   15   37 1     
   37   15   38 1     
   38   16   17 1     
   39   16   39 1     
   40   16   40 1     
   41   17   18 1     
   42   17   41 1     
   43   17   42 1     
   44   18   19 1     
   45   18   43 1     
   46   18   44 1     
   47   19   45 1     
   48   20   21 2     
   49   20   46 1     
   50    9   48 1     
   51    9   49 1     
   52   21   50 1     
@<TRIPOS>SUBSTRUCTURE
      1 S1             1
@<TRIPOS>SET
LONE_PAIRS      STATIC     ATOMS    <user>   **** ""
3 48 49 50
DONOR_HYDROGENS      STATIC     ATOMS    <user>   **** ""
3 30 31 47
ATOM$BLUE        STATIC     ATOMS    COLORGROUP SYSTEM
3 48 49 50
ATOM$RED        STATIC     ATOMS    COLORGROUP SYSTEM
3 30 31 47
