AV-unprocessed.smi:1893|AV-procd|sdf|7672|dock6
  -GOLD-   22720 9413D 1   1.00000     0.00000
 Structure written by MMmdl.
 43 44  0  0  0  0  0  0  0  0  2 V2000
  150.0564  144.6150  159.4094 C   0  0  0  0  0  0  0  0  0  0  0  0
  151.5878  144.7404  159.2546 C   0  0  1  0  0  0  0  0  0  0  0  0
  152.2891  145.0630  160.5911 C   0  0  0  0  0  0  0  0  0  0  0  0
  152.3230  143.8508  161.5337 C   0  0  0  0  0  0  0  0  0  0  0  0
  152.9497  142.6470  160.8196 C   0  0  0  0  0  0  0  0  0  0  0  0
  152.2294  142.3500  159.4945 C   0  0  0  0  0  0  0  0  0  0  0  0
  152.2190  143.5490  158.6118 N   0  3  1  0  0  0  0  0  0  0  0  0
  151.7189  143.2720  157.2410 C   0  0  0  0  0  0  0  0  0  0  0  0
  150.6240  142.1878  157.2326 C   0  0  0  0  0  0  0  0  0  0  0  0
  151.1858  140.8554  157.0472 N   0  0  0  0  0  0  0  0  0  0  0  0
  150.9726  140.0745  155.9759 C   0  0  0  0  0  0  0  0  0  0  0  0
  150.2919  140.4303  155.0132 O   0  0  0  0  0  0  0  0  0  0  0  0
  151.6232  138.6830  156.0058 C   0  0  2  0  0  0  0  0  0  0  0  0
  152.7567  138.5381  154.9700 C   0  0  0  0  0  0  0  0  0  0  0  0
  150.6027  137.6516  155.8609 N   0  0  0  0  0  0  0  0  0  0  0  0
  149.3245  137.7563  155.4900 C   0  0  0  0  0  0  0  0  0  0  0  0
  148.6883  136.5961  155.4122 N   0  0  0  0  0  0  0  0  0  0  0  0
  149.7060  135.7546  155.7618 C   0  0  0  0  0  0  0  0  0  0  0  0
  150.8769  136.3335  156.0272 N   0  0  0  0  0  0  0  0  0  0  0  0
  149.6409  145.5175  159.8583 H   0  0  0  0  0  0  0  0  0  0  0  0
  149.7689  143.7781  160.0447 H   0  0  0  0  0  0  0  0  0  0  0  0
  149.5617  144.4844  158.4472 H   0  0  0  0  0  0  0  0  0  0  0  0
  151.7699  145.5903  158.5953 H   0  0  0  0  0  0  0  0  0  0  0  0
  153.3126  145.3827  160.3898 H   0  0  0  0  0  0  0  0  0  0  0  0
  151.8010  145.9054  161.0823 H   0  0  0  0  0  0  0  0  0  0  0  0
  152.8917  144.0913  162.4325 H   0  0  0  0  0  0  0  0  0  0  0  0
  151.3142  143.6026  161.8646 H   0  0  0  0  0  0  0  0  0  0  0  0
  154.0042  142.8471  160.6243 H   0  0  0  0  0  0  0  0  0  0  0  0
  152.9164  141.7702  161.4673 H   0  0  0  0  0  0  0  0  0  0  0  0
  152.7379  141.5230  159.0004 H   0  0  0  0  0  0  0  0  0  0  0  0
  151.2100  142.0122  159.6830 H   0  0  0  0  0  0  0  0  0  0  0  0
  151.3601  144.1981  156.7890 H   0  0  0  0  0  0  0  0  0  0  0  0
  152.5427  142.9219  156.6170 H   0  0  0  0  0  0  0  0  0  0  0  0
  150.0854  142.1979  158.1806 H   0  0  0  0  0  0  0  0  0  0  0  0
  149.8829  142.3726  156.4545 H   0  0  0  0  0  0  0  0  0  0  0  0
  151.7564  140.4897  157.7960 H   0  0  0  0  0  0  0  0  0  0  0  0
  152.0719  138.5508  156.9918 H   0  0  0  0  0  0  0  0  0  0  0  0
  153.5295  139.2912  155.1260 H   0  0  0  0  0  0  0  0  0  0  0  0
  152.3960  138.6441  153.9460 H   0  0  0  0  0  0  0  0  0  0  0  0
  153.2330  137.5607  155.0516 H   0  0  0  0  0  0  0  0  0  0  0  0
  148.8505  138.7009  155.2665 H   0  0  0  0  0  0  0  0  0  0  0  0
  149.5826  134.6829  155.8138 H   0  0  0  0  0  0  0  0  0  0  0  0
  153.1881  143.8068  158.4919 H   0  0  0  0  0  0  0  0  0  0  0  0
  1  2  1  0  0  0  0
  1 20  1  0  0  0  0
  1 21  1  0  0  0  0
  1 22  1  0  0  0  0
  2  7  1  0  0  0  0
  2  3  1  0  0  0  0
  2 23  1  0  0  0  0
  3  4  1  0  0  0  0
  3 24  1  0  0  0  0
  3 25  1  0  0  0  0
  4  5  1  0  0  0  0
  4 26  1  0  0  0  0
  4 27  1  0  0  0  0
  5  6  1  0  0  0  0
  5 28  1  0  0  0  0
  5 29  1  0  0  0  0
  6  7  1  0  0  0  0
  6 30  1  0  0  0  0
  6 31  1  0  0  0  0
  7  8  1  0  0  0  0
  7 43  1  0  0  0  0
  8  9  1  0  0  0  0
  8 32  1  0  0  0  0
  8 33  1  0  0  0  0
  9 10  1  0  0  0  0
  9 34  1  0  0  0  0
  9 35  1  0  0  0  0
 10 11  1  0  0  0  0
 10 36  1  0  0  0  0
 11 12  2  0  0  0  0
 11 13  1  0  0  0  0
 13 14  1  0  0  0  0
 13 15  1  0  0  0  0
 13 37  1  0  0  0  0
 14 38  1  0  0  0  0
 14 39  1  0  0  0  0
 14 40  1  0  0  0  0
 15 19  1  0  0  0  0
 15 16  1  0  0  0  0
 16 17  2  0  0  0  0
 16 41  1  0  0  0  0
 17 18  1  0  0  0  0
 18 19  2  0  0  0  0
 18 42  1  0  0  0  0
M  CHG  1   7   1
M  END
> <s_m_source_file>
AV-unprocessed.smi

> <i_m_source_file_index>
1893

> <i_lp_mmshare_version>
43012

> <i_f3d_flags>
0

> <s_epik_input>
W0NIM11bQ0BASF0xW0NIMl1bQ0gyXVtDSDJdW0NIMl1OMVtDSDJdW0NIMl1bTkhdQyg9TylbQ0BIXShbQ0gzXSluMltjSF1uW2NIXW4y

> <s_epik_cmdline>
J2VwaWtfcHl0aG9uJywgJy1waCcsICc3LjAnLCAnLXRuJywgJzgnLCAnLW1hJywgJzIwMCcsICctbWV0YWxfYmluZGluZycsICctaW1hZScsICc8aW5maWxlLm1hZT4nLCAnLW9tYWUnLCAnPG91dGZpbGUubWFlPic=

> <r_lp_tautomer_probability>
1

> <r_epik_Ionization_Penalty>
0.00266409

> <r_epik_Ionization_Penalty_Charging>
0.00265606

> <r_epik_Ionization_Penalty_Neutral>
8.02794e-06

> <r_epik_State_Penalty>
0.00184955

> <r_epik_Charging_Adjusted_Penalty>
0.00450561

> <i_epik_Tot_Q>
1

> <i_epik_Tot_abs_Q>
1

> <r_epik_Metal_State_Penalty>
-0

> <b_epik_Metal_Only>
0

> <s_lp_Force_Field>
OPLS_2005

> <r_lp_Energy>
25.286

> <b_lp_Chiralities_Consistent>
1

> <s_lp_Variant>
AV-unprocessed.smi:1893-2

> <Gold.Version>
5.8.1

> <Gold.Id.Protein>
6NUR|6NUR_protein|mol2

> <Gold.PLP.Fitness>
45.3467

> <Gold.PLP.PLP>
-40.8642

> <Gold.PLP.part.hbond>
-2.0000

> <Gold.PLP.part.metal>
0.0000

> <Gold.PLP.part.buried>
-6.6575

> <Gold.PLP.part.nonpolar>
-33.2982

> <Gold.PLP.part.repulsive>
0.4021

> <Gold.PLP.ligand.clash>
0.0000

> <Gold.PLP.ligand.torsion>
0.8396

> <Gold.PLP.Chemscore.Hbond>
2.0000

> <Gold.PLP.Chemscore.CHOScore>
0.0000

> <Gold.PLP.Chemscore.Metal>
0.0000

> <Gold.Chemscore.Hbonds>
donor molecule, donor type, donor heavy atom, donor atom, acceptor molecule, acceptor atom, score
      P1  H  7989  7998       L1    12  0.91

> <Gold.PLP.Chemscore.Internal.Correction>
0.1616

> <Gold.Rescore>
     Score         DG    S(hbond)    S(metal)    S(lipo)     H(rot)  DE(clash)    DE(int)     intcor
     14.65     -16.80       1.95        0.00      96.57       2.54       1.28       0.86       ----

> <Gold.Chemscore.Fitness>
14.6549

> <Gold.Chemscore.DG>
-16.8008

> <Gold.Chemscore.ZeroCoef>
-5.4800

> <Gold.Chemscore.Hbond>
1.9516

> <Gold.Chemscore.Metal>
0.0000

> <Gold.Chemscore.Lipo>
96.5743

> <Gold.Chemscore.Internal_Hbond>
0.0000

> <Gold.Chemscore.DEClash>
1.2818

> <Gold.Chemscore.DEInternal>
0.8641

> <Gold.Chemscore.Rot>
2.5377

> <Gold.Chemscore.Internal.Correction>
   9.000000E+99

> <Gold.Chemscore.Hbonds>
donor molecule, donor type, donor heavy atom, donor atom, acceptor molecule, acceptor atom, score
      P1  H  7989  7998       L1    12  0.46

> <Gold.Chemscore.Hbond.Weighted>
-6.5182

> <Gold.Chemscore.Metal.Weighted>
-0.0000

> <Gold.Chemscore.Lipo.Weighted>
-11.2992

> <Gold.Chemscore.Internal_Hbond.Weighted>
0.0000

> <Gold.Chemscore.DEClash.Weighted>
1.2818

> <Gold.Chemscore.DEInternal.Weighted>
0.8641

> <Gold.Chemscore.Rot.Weighted>
6.4966

> <Gold.Chemscore.Internal.Correction.Weighted>
   9.000000E+99

> <Gold.Protein.RotatedTorsions>
[ 6907 6896 6895 6894 ] final   81.27 input  -60.11 | X-H torsion
[ 7974 7965 7964 7962 ] final -171.38 input  175.53 | X-H torsion
[ 8008 7997 7996 7995 ] final  -49.33 input   59.86 | X-H torsion
[ 10167 10162 10161 10158 ] final  158.09 input  -65.29 | X-H torsion
[ 10718 10713 10712 10709 ] final -143.28 input   66.30 | X-H torsion
[ 10763 10752 10751 10750 ] final  -54.98 input  -60.55 | X-H torsion
[ 11005 11000 10999 10996 ] final  -34.58 input  -57.11 | X-H torsion

> <Gold.Protein.ActiveResidues>
 VAL166  LYS551  ARG553  GLY616  TRP617  ASP618  TYR619  PRO620  LYS621  CYS622 
 ASP623  PHE694  ASN695  SER759  ASP760  ASP761  ALA762  ILE779  LEU786  VAL792 
 PHE793  MET794  SER795  GLU796  ALA797  LYS798  CYS799  TRP800  GLU811  SER814 

> <Gold.Protein.RotatedAtoms>
  152.5263  134.3230  159.9155 H   0  0  0  0  0  0  0  0  0  0  0  0  # atno 6907 bound_to 6896
  151.3179  133.4046  159.2660 H   0  0  0  0  0  0  0  0  0  0  0  0  # atno 6908 bound_to 6896
  150.9983  134.9318  159.7997 H   0  0  0  0  0  0  0  0  0  0  0  0  # atno 6909 bound_to 6896
  144.7158  140.1930  143.6346 H   0  0  0  0  0  0  0  0  0  0  0  0  # atno 7974 bound_to 7965
  154.4042  140.1299  156.4485 H   0  0  0  0  0  0  0  0  0  0  0  0  # atno 8008 bound_to 7997
  155.7389  140.3490  155.5075 H   0  0  0  0  0  0  0  0  0  0  0  0  # atno 8009 bound_to 7997
  155.9057  140.1027  157.1307 H   0  0  0  0  0  0  0  0  0  0  0  0  # atno 8010 bound_to 7997
  139.4825  144.4856  151.8381 H   0  0  0  0  0  0  0  0  0  0  0  0  # atno 10167 bound_to 10162
  156.3560  130.7713  151.1873 H   0  0  0  0  0  0  0  0  0  0  0  0  # atno 10718 bound_to 10713
  154.1834  135.6439  153.5040 H   0  0  0  0  0  0  0  0  0  0  0  0  # atno 10763 bound_to 10752
  153.0053  135.5411  154.6490 H   0  0  0  0  0  0  0  0  0  0  0  0  # atno 10764 bound_to 10752
  154.5860  135.2929  155.0657 H   0  0  0  0  0  0  0  0  0  0  0  0  # atno 10765 bound_to 10752
  140.9728  133.7100  156.1552 H   0  0  0  0  0  0  0  0  0  0  0  0  # atno 11005 bound_to 11000
  145.8750  139.2292  143.1638 LP  0  0  0  0  0  0  0  0  0  0  0  0  # atno 17320 bound_to 7965
  146.0049  140.8488  143.0000 LP  0  0  0  0  0  0  0  0  0  0  0  0  # atno 17321 bound_to 7965
  140.4336  144.2082  150.5888 LP  0  0  0  0  0  0  0  0  0  0  0  0  # atno 17342 bound_to 10162
  140.4754  143.2398  151.9030 LP  0  0  0  0  0  0  0  0  0  0  0  0  # atno 17343 bound_to 10162
  157.7467  131.0414  150.4643 LP  0  0  0  0  0  0  0  0  0  0  0  0  # atno 17370 bound_to 10713
  156.4846  130.4081  149.6442 LP  0  0  0  0  0  0  0  0  0  0  0  0  # atno 17371 bound_to 10713
  140.7304  134.4261  157.5566 LP  0  0  0  0  0  0  0  0  0  0  0  0  # atno 17394 bound_to 11000
  139.8919  134.8769  156.2299 LP  0  0  0  0  0  0  0  0  0  0  0  0  # atno 17395 bound_to 11000

$$$$
