#       Name:                AV-unprocessed.smi:280
#       Creating user name   scv26
#       Creation time:       Thu Mar 26 21:38:09 2020


#       File generated by GOLD software.
#

@<TRIPOS>MOLECULE
AV-unprocessed.smi:280
    69    72     1
SMALL
NO_CHARGES


@<TRIPOS>ATOM
      1 ****        -3.4368  -2.1219  -2.3273 C.3            1 S1                 0.0000
      2 ****        -2.3720  -1.3107  -1.5613 C.3            1 S1                 0.0000
      3 ****        -2.3057  -1.8561  -0.1126 C.3            1 S1                 0.0000
      4 ****        -1.4398  -1.0609   0.7532 N.3            1 S1                 0.0000
      5 ****        -0.1135  -1.3542   0.8208 C.ar           1 S1                 0.0000
      6 ****         0.4695  -2.0879  -0.1646 N.ar           1 S1                 0.0000
      7 ****         1.7745  -2.3699  -0.1185 C.ar           1 S1                 0.0000
      8 ****         2.6695  -2.0233   0.8073 N.ar           1 S1                 0.0000
      9 ****         2.0929  -1.2940   1.8049 C.ar           1 S1                 0.0000
     10 ****         0.7203  -0.9252   1.8929 C.ar           1 S1                 0.0000
     11 ****         0.4993  -0.2119   3.0648 N.2            1 S1                 0.0000
     12 ****         1.6740  -0.1513   3.6291 C.2            1 S1                 0.0000
     13 ****         2.6946  -0.7566   2.9304 N.pl3          1 S1                 0.0000
     14 ****         4.0957  -0.8379   3.3212 C.3            1 S1                 0.0000
     15 ****         4.9657   0.3636   2.8770 C.3            1 S1                 0.0000
     16 ****         6.4154   0.0803   3.2936 C.3            1 S1                 0.0000
     17 ****         6.9714  -0.9727   2.5326 O.3            1 S1                 0.0000
     18 ****         4.7619   0.9027   1.4502 C.3            1 S1                 0.0000
     19 ****         3.9332   1.9857   1.9224 O.3            1 S1                 0.0000
     20 ****         4.4373   1.7580   3.2552 C.3            1 S1                 0.0000
     21 ****        -1.7890   0.3529   0.7713 C.3            1 S1                 0.0000
     22 ****        -1.7552   0.9218  -0.6532 C.3            1 S1                 0.0000
     23 ****        -2.6427   0.1628  -1.5781 N.4            1 S1                 1.0000
     24 ****        -2.6520   0.7781  -2.9377 C.3            1 S1                 0.0000
     25 ****        -3.9343   1.5985  -3.2207 C.3            1 S1                 0.0000
     26 ****        -3.8727   2.2012  -4.6346 C.3            1 S1                 0.0000
     27 ****        -5.2233   0.7735  -3.0543 C.3            1 S1                 0.0000
     28 ****        -3.9909   2.6877  -2.3213 O.3            1 S1                 0.0000
     29 ****        -3.2344  -3.1904  -2.2481 H              1 S1                 0.0000
     30 ****        -3.4678  -1.8939  -3.3913 H              1 S1                 0.0000
     31 ****        -4.4335  -1.9507  -1.9198 H              1 S1                 0.0000
     32 ****        -1.4057  -1.4714  -2.0411 H              1 S1                 0.0000
     33 ****        -3.3041  -1.8410   0.3267 H              1 S1                 0.0000
     34 ****        -1.9966  -2.9023  -0.1064 H              1 S1                 0.0000
     35 ****         2.1565  -2.9550  -0.9420 H              1 S1                 0.0000
     36 ****         1.8272   0.3429   4.5773 H              1 S1                 0.0000
     37 ****         4.1290  -0.9452   4.4062 H              1 S1                 0.0000
     38 ****         4.4917  -1.7717   2.9210 H              1 S1                 0.0000
     39 ****         7.0422   0.9613   3.1510 H              1 S1                 0.0000
     40 ****         6.4781  -0.1774   4.3513 H              1 S1                 0.0000
     41 ****         7.8655  -1.1042   2.8091 H              1 S1                 0.0000
     42 ****         5.6773   1.2721   0.9845 H              1 S1                 0.0000
     43 ****         4.2385   0.2280   0.7751 H              1 S1                 0.0000
     44 ****         3.6565   1.7615   4.0141 H              1 S1                 0.0000
     45 ****         5.2195   2.4737   3.5139 H              1 S1                 0.0000
     46 ****        -2.7897   0.4594   1.1919 H              1 S1                 0.0000
     47 ****        -1.1256   0.9311   1.4128 H              1 S1                 0.0000
     48 ****        -2.0524   1.9700  -0.6271 H              1 S1                 0.0000
     49 ****        -0.7314   0.8947  -1.0304 H              1 S1                 0.0000
     50 ****        -1.7742   1.4145  -3.0652 H              1 S1                 0.0000
     51 ****        -2.5391   0.0202  -3.7110 H              1 S1                 0.0000
     52 ****        -3.8352   1.4195  -5.3942 H              1 S1                 0.0000
     53 ****        -2.9896   2.8282  -4.7644 H              1 S1                 0.0000
     54 ****        -4.7468   2.8187  -4.8444 H              1 S1                 0.0000
     55 ****        -5.2341  -0.0821  -3.7300 H              1 S1                 0.0000
     56 ****        -6.1075   1.3732  -3.2743 H              1 S1                 0.0000
     57 ****        -5.3355   0.3960  -2.0375 H              1 S1                 0.0000
     58 ****        -4.7467   3.2149  -2.5328 H              1 S1                 0.0000
     59 ****        -3.5794   0.2715  -1.2166 H              1 S1                 0.0000
     60 ****        -1.6817  -1.4185   1.6552 LP             1 S1                 0.0000
     61 ****        -0.0829  -2.4189  -0.9297 LP             1 S1                 0.0000
     62 ****         3.6388  -2.2668   0.7742 LP             1 S1                 0.0000
     63 ****        -0.3631   0.1682   3.3992 LP             1 S1                 0.0000
     64 ****         6.9504  -0.7344   1.5616 LP             1 S1                 0.0000
     65 ****         6.4458  -1.8103   2.6816 LP             1 S1                 0.0000
     66 ****         2.9511   1.8270   1.8210 LP             1 S1                 0.0000
     67 ****         4.1675   2.8799   1.5408 LP             1 S1                 0.0000
     68 ****        -3.1610   3.2390  -2.4072 LP             1 S1                 0.0000
     69 ****        -4.0693   2.3471  -1.3844 LP             1 S1                 0.0000
@<TRIPOS>BOND
    1    1    2 1     
    2    1   29 1     
    3    1   30 1     
    4    1   31 1     
    5    2   23 1     
    6    2    3 1     
    7    2   32 1     
    8    3    4 1     
    9    3   33 1     
   10    3   34 1     
   11    4    5 1     
   12    4   21 1     
   13    5   10 ar    
   14    5    6 ar    
   15    6    7 ar    
   16    7    8 ar    
   17    7   35 1     
   18    8    9 ar    
   19    9   13 1     
   20    9   10 ar    
   21   10   11 1     
   22   11   12 2     
   23   12   13 1     
   24   12   36 1     
   25   13   14 1     
   26   14   15 1     
   27   14   37 1     
   28   14   38 1     
   29   15   20 1     
   30   15   16 1     
   31   15   18 1     
   32   16   17 1     
   33   16   39 1     
   34   16   40 1     
   35   17   41 1     
   36   18   19 1     
   37   18   42 1     
   38   18   43 1     
   39   19   20 1     
   40   20   44 1     
   41   20   45 1     
   42   21   22 1     
   43   21   46 1     
   44   21   47 1     
   45   22   23 1     
   46   22   48 1     
   47   22   49 1     
   48   23   24 1     
   49   23   59 1     
   50   24   25 1     
   51   24   50 1     
   52   24   51 1     
   53   25   26 1     
   54   25   27 1     
   55   25   28 1     
   56   26   52 1     
   57   26   53 1     
   58   26   54 1     
   59   27   55 1     
   60   27   56 1     
   61   27   57 1     
   62   28   58 1     
   63    4   60 1     
   64    6   61 1     
   65    8   62 1     
   66   11   63 1     
   67   17   64 1     
   68   17   65 1     
   69   19   66 1     
   70   19   67 1     
   71   28   68 1     
   72   28   69 1     
@<TRIPOS>SUBSTRUCTURE
      1 S1             1
@<TRIPOS>SET
LONE_PAIRS      STATIC     ATOMS    <user>   **** ""
10 60 61 62 63 64 65 66 67 68 69
DONOR_HYDROGENS      STATIC     ATOMS    <user>   **** ""
3 41 59 58
ATOM$BLUE        STATIC     ATOMS    COLORGROUP SYSTEM
10 60 61 62 63 64 65 66 67 68 69
ATOM$RED        STATIC     ATOMS    COLORGROUP SYSTEM
3 41 59 58
