AV-unprocessed.smi:2440|AV-procd|sdf|9616|dock1
  -GOLD-   2272013253D 1   1.00000     0.00000
 Structure written by MMmdl.
 52 54  0  0  0  0  0  0  0  0  2 V2000
  151.0394  137.5886  154.5391 C   0  0  0  0  0  0  0  0  0  0  0  0
  150.4251  138.9680  154.7021 C   0  0  0  0  0  0  0  0  0  0  0  0
  151.1415  139.9837  155.3717 C   0  0  0  0  0  0  0  0  0  0  0  0
  150.6663  141.2320  155.5601 N   0  0  0  0  0  0  0  0  0  0  0  0
  149.4371  141.5152  155.0827 C   0  0  0  0  0  0  0  0  0  0  0  0
  148.6360  140.5800  154.3991 C   0  0  0  0  0  0  0  0  0  0  0  0
  149.1415  139.2743  154.1886 C   0  0  0  0  0  0  0  0  0  0  0  0
  148.4015  138.2505  153.5320 N   0  0  0  0  0  0  0  0  0  0  0  0
  147.1384  138.2910  153.0738 C   0  0  0  0  0  0  0  0  0  0  0  0
  146.3959  139.2715  153.1197 O   0  0  0  0  0  0  0  0  0  0  0  0
  146.7845  137.1166  152.5308 N   0  0  0  0  0  0  0  0  0  0  0  0
  145.4880  136.8093  151.9320 C   0  0  2  0  0  0  0  0  0  0  0  0
  144.5682  136.1584  152.9812 C   0  0  0  0  0  0  0  0  0  0  0  0
  143.2543  135.6729  152.3394 C   0  0  0  0  0  0  0  0  0  0  0  0
  143.5046  134.7141  151.2246 N   0  3  2  0  0  0  0  0  0  0  0  0
  143.9972  133.3536  151.6371 C   0  0  0  0  0  0  0  0  0  0  0  0
  145.3821  133.4280  152.3361 C   0  0  0  0  0  0  0  0  0  0  0  0
  145.9413  132.0457  152.7080 C   0  0  0  0  0  0  0  0  0  0  0  0
  146.0309  131.1306  151.4837 C   0  0  0  0  0  0  0  0  0  0  0  0
  144.6581  131.0014  150.8183 C   0  0  0  0  0  0  0  0  0  0  0  0
  144.0889  132.3762  150.4335 C   0  0  0  0  0  0  0  0  0  0  0  0
  144.3144  135.3970  150.1740 C   0  0  0  0  0  0  0  0  0  0  0  0
  145.6734  135.8791  150.7185 C   0  0  0  0  0  0  0  0  0  0  0  0
  152.0315  137.5401  154.9892 H   0  0  0  0  0  0  0  0  0  0  0  0
  151.1367  137.3381  153.4823 H   0  0  0  0  0  0  0  0  0  0  0  0
  150.4153  136.8334  155.0176 H   0  0  0  0  0  0  0  0  0  0  0  0
  152.1262  139.7907  155.7715 H   0  0  0  0  0  0  0  0  0  0  0  0
  149.0752  142.5178  155.2570 H   0  0  0  0  0  0  0  0  0  0  0  0
  147.6535  140.8766  154.0658 H   0  0  0  0  0  0  0  0  0  0  0  0
  148.9176  137.4053  153.3372 H   0  0  0  0  0  0  0  0  0  0  0  0
  147.4684  136.3739  152.5335 H   0  0  0  0  0  0  0  0  0  0  0  0
  145.0008  137.7224  151.5849 H   0  0  0  0  0  0  0  0  0  0  0  0
  145.0763  135.3246  153.4668 H   0  0  0  0  0  0  0  0  0  0  0  0
  144.3452  136.8776  153.7705 H   0  0  0  0  0  0  0  0  0  0  0  0
  142.5753  135.2713  153.0883 H   0  0  0  0  0  0  0  0  0  0  0  0
  142.7248  136.5349  151.9313 H   0  0  0  0  0  0  0  0  0  0  0  0
  143.2904  132.9290  152.3500 H   0  0  0  0  0  0  0  0  0  0  0  0
  146.0937  133.9446  151.6904 H   0  0  0  0  0  0  0  0  0  0  0  0
  145.3262  133.9989  153.2611 H   0  0  0  0  0  0  0  0  0  0  0  0
  146.9274  132.1543  153.1608 H   0  0  0  0  0  0  0  0  0  0  0  0
  145.3041  131.5842  153.4636 H   0  0  0  0  0  0  0  0  0  0  0  0
  146.7527  131.5326  150.7714 H   0  0  0  0  0  0  0  0  0  0  0  0
  146.3980  130.1469  151.7778 H   0  0  0  0  0  0  0  0  0  0  0  0
  144.7350  130.3708  149.9319 H   0  0  0  0  0  0  0  0  0  0  0  0
  143.9687  130.4970  151.4968 H   0  0  0  0  0  0  0  0  0  0  0  0
  143.1069  132.1940  150.0002 H   0  0  0  0  0  0  0  0  0  0  0  0
  144.7042  132.8156  149.6469 H   0  0  0  0  0  0  0  0  0  0  0  0
  144.4447  134.7833  149.2856 H   0  0  0  0  0  0  0  0  0  0  0  0
  143.7509  136.2629  149.8237 H   0  0  0  0  0  0  0  0  0  0  0  0
  146.2156  136.4056  149.9318 H   0  0  0  0  0  0  0  0  0  0  0  0
  146.2916  135.0222  150.9886 H   0  0  0  0  0  0  0  0  0  0  0  0
  142.6012  134.5453  150.8051 H   0  0  0  0  0  0  0  0  0  0  0  0
  1  2  1  0  0  0  0
  1 24  1  0  0  0  0
  1 25  1  0  0  0  0
  1 26  1  0  0  0  0
  2  7  1  0  0  0  0
  2  3  2  0  0  0  0
  3  4  1  0  0  0  0
  3 27  1  0  0  0  0
  4  5  2  0  0  0  0
  5  6  1  0  0  0  0
  5 28  1  0  0  0  0
  6  7  2  0  0  0  0
  6 29  1  0  0  0  0
  7  8  1  0  0  0  0
  8  9  1  0  0  0  0
  8 30  1  0  0  0  0
  9 10  2  0  0  0  0
  9 11  1  0  0  0  0
 11 12  1  0  0  0  0
 11 31  1  0  0  0  0
 12 23  1  0  0  0  0
 12 13  1  0  0  0  0
 12 32  1  0  0  0  0
 13 14  1  0  0  0  0
 13 33  1  0  0  0  0
 13 34  1  0  0  0  0
 14 15  1  0  0  0  0
 14 35  1  0  0  0  0
 14 36  1  0  0  0  0
 15 16  1  0  0  0  0
 15 22  1  0  0  0  0
 15 52  1  0  0  0  0
 16 21  1  0  0  0  0
 16 17  1  0  0  0  0
 16 37  1  0  0  0  0
 17 18  1  0  0  0  0
 17 38  1  0  0  0  0
 17 39  1  0  0  0  0
 18 19  1  0  0  0  0
 18 40  1  0  0  0  0
 18 41  1  0  0  0  0
 19 20  1  0  0  0  0
 19 42  1  0  0  0  0
 19 43  1  0  0  0  0
 20 21  1  0  0  0  0
 20 44  1  0  0  0  0
 20 45  1  0  0  0  0
 21 46  1  0  0  0  0
 21 47  1  0  0  0  0
 22 23  1  0  0  0  0
 22 48  1  0  0  0  0
 22 49  1  0  0  0  0
 23 50  1  0  0  0  0
 23 51  1  0  0  0  0
M  CHG  1  15   1
M  END
> <s_m_source_file>
AV-unprocessed.smi

> <i_m_source_file_index>
2440

> <i_lp_mmshare_version>
43012

> <i_f3d_flags>
0

> <s_epik_input>
W0NIM11jMVtjSF1uW2NIXVtjSF1jMVtOSF1DKD1PKVtOSF1bQ0hdMltDSDJdW0NIMl1OKFtDSDJdW0NIMl0yKVtDSF0zW0NIMl1bQ0gyXVtDSDJdW0NIMl1bQ0gyXTM=

> <s_epik_cmdline>
J2VwaWtfcHl0aG9uJywgJy1waCcsICc3LjAnLCAnLXRuJywgJzgnLCAnLW1hJywgJzIwMCcsICctbWV0YWxfYmluZGluZycsICctaW1hZScsICc8aW5maWxlLm1hZT4nLCAnLW9tYWUnLCAnPG91dGZpbGUubWFlPic=

> <r_epik_Ionization_Penalty>
0.180356

> <r_epik_Ionization_Penalty_Charging>
0.00171891

> <r_epik_Ionization_Penalty_Neutral>
0.178637

> <r_epik_State_Penalty>
0.173134

> <r_epik_Charging_Adjusted_Penalty>
0.174853

> <i_epik_Tot_Q>
1

> <i_epik_Tot_abs_Q>
1

> <r_epik_Metal_State_Penalty>
0.131816

> <b_epik_Metal_Only>
0

> <s_lp_Force_Field>
OPLS_2005

> <r_lp_Energy>
36.8114

> <b_lp_Chiralities_Consistent>
1

> <s_lp_Variant>
AV-unprocessed.smi:2440-2

> <Gold.Version>
5.8.1

> <Gold.Id.Protein>
6NUR|6NUR_protein|mol2

> <Gold.PLP.Fitness>
48.1463

> <Gold.PLP.PLP>
-40.8108

> <Gold.PLP.part.hbond>
-4.0704

> <Gold.PLP.part.metal>
0.0000

> <Gold.PLP.part.buried>
0.0383

> <Gold.PLP.part.nonpolar>
-37.6713

> <Gold.PLP.part.repulsive>
0.9513

> <Gold.PLP.ligand.clash>
4.2027

> <Gold.PLP.ligand.torsion>
0.3753

> <Gold.PLP.Chemscore.Hbond>
3.0803

> <Gold.PLP.Chemscore.CHOScore>
1.0000

> <Gold.PLP.Chemscore.Metal>
0.0000

> <Gold.Chemscore.Hbonds>
donor molecule, donor type, donor heavy atom, donor atom, acceptor molecule, acceptor atom, score
      L1  H     8    30       P1  7948  0.67
      L1  H    11    31       P1  7948  0.66
      L1  H    15    52       P1 10186  1.70
      L1  C     5    28       P1  8028  1.00

> <Gold.PLP.Chemscore.Internal.Correction>
0.0481

> <Gold.Rescore>
     Score         DG    S(hbond)    S(metal)    S(lipo)     H(rot)  DE(clash)    DE(int)     intcor
     16.87     -21.34       1.63        0.00     114.54       1.17       0.41       4.06       ----

> <Gold.Chemscore.Fitness>
16.8748

> <Gold.Chemscore.DG>
-21.3402

> <Gold.Chemscore.ZeroCoef>
-5.4800

> <Gold.Chemscore.Hbond>
1.6343

> <Gold.Chemscore.Metal>
0.0000

> <Gold.Chemscore.Lipo>
114.5360

> <Gold.Chemscore.Internal_Hbond>
0.0000

> <Gold.Chemscore.DEClash>
0.4103

> <Gold.Chemscore.DEInternal>
4.0551

> <Gold.Chemscore.Rot>
1.1715

> <Gold.Chemscore.Internal.Correction>
   9.000000E+99

> <Gold.Chemscore.Hbonds>
donor molecule, donor type, donor heavy atom, donor atom, acceptor molecule, acceptor atom, score
      L1  H     8    30       P1  7948  0.66
      L1  H    11    31       P1  7948  0.66
      L1  H    15    52       P1 10186  0.14

> <Gold.Chemscore.Hbond.Weighted>
-5.4587

> <Gold.Chemscore.Metal.Weighted>
-0.0000

> <Gold.Chemscore.Lipo.Weighted>
-13.4007

> <Gold.Chemscore.Internal_Hbond.Weighted>
0.0000

> <Gold.Chemscore.DEClash.Weighted>
0.4103

> <Gold.Chemscore.DEInternal.Weighted>
4.0551

> <Gold.Chemscore.Rot.Weighted>
2.9991

> <Gold.Chemscore.Internal.Correction.Weighted>
   9.000000E+99

> <Gold.Protein.RotatedTorsions>
[ 6907 6896 6895 6894 ] final  -94.58 input  -60.11 | X-H torsion
[ 7974 7965 7964 7962 ] final   49.39 input  175.53 | X-H torsion
[ 8008 7997 7996 7995 ] final  -92.50 input   59.86 | X-H torsion
[ 10167 10162 10161 10158 ] final -148.85 input  -65.29 | X-H torsion
[ 10718 10713 10712 10709 ] final  -80.51 input   66.30 | X-H torsion
[ 10763 10752 10751 10750 ] final -116.12 input  -60.55 | X-H torsion
[ 11005 11000 10999 10996 ] final  -25.71 input  -57.11 | X-H torsion

> <Gold.Protein.ActiveResidues>
 VAL166  LYS551  ARG553  GLY616  TRP617  ASP618  TYR619  PRO620  LYS621  CYS622 
 ASP623  PHE694  ASN695  SER759  ASP760  ASP761  ALA762  ILE779  LEU786  VAL792 
 PHE793  MET794  SER795  GLU796  ALA797  LYS798  CYS799  TRP800  GLU811  SER814 

> <Gold.Protein.RotatedAtoms>
  150.6945  134.1790  159.4241 H   0  0  0  0  0  0  0  0  0  0  0  0  # atno 6907 bound_to 6896
  151.9765  135.0048  160.0564 H   0  0  0  0  0  0  0  0  0  0  0  0  # atno 6908 bound_to 6896
  152.1794  133.4662  159.4987 H   0  0  0  0  0  0  0  0  0  0  0  0  # atno 6909 bound_to 6896
  146.0113  139.4546  142.9954 H   0  0  0  0  0  0  0  0  0  0  0  0  # atno 7974 bound_to 7965
  154.7239  140.0508  157.0665 H   0  0  0  0  0  0  0  0  0  0  0  0  # atno 8008 bound_to 7997
  155.0390  140.3166  155.4712 H   0  0  0  0  0  0  0  0  0  0  0  0  # atno 8009 bound_to 7997
  156.2824  140.2136  156.5513 H   0  0  0  0  0  0  0  0  0  0  0  0  # atno 8010 bound_to 7997
  139.7495  143.8540  152.2583 H   0  0  0  0  0  0  0  0  0  0  0  0  # atno 10167 bound_to 10162
  156.0069  130.4576  150.3811 H   0  0  0  0  0  0  0  0  0  0  0  0  # atno 10718 bound_to 10713
  154.8507  135.4357  154.1771 H   0  0  0  0  0  0  0  0  0  0  0  0  # atno 10763 bound_to 10752
  153.2870  135.6958  153.7335 H   0  0  0  0  0  0  0  0  0  0  0  0  # atno 10764 bound_to 10752
  153.6517  135.3450  155.3076 H   0  0  0  0  0  0  0  0  0  0  0  0  # atno 10765 bound_to 10752
  140.8963  133.7554  156.0486 H   0  0  0  0  0  0  0  0  0  0  0  0  # atno 11005 bound_to 11000
  145.7337  141.0033  143.1338 LP  0  0  0  0  0  0  0  0  0  0  0  0  # atno 17320 bound_to 7965
  144.6954  139.9016  143.7459 LP  0  0  0  0  0  0  0  0  0  0  0  0  # atno 17321 bound_to 7965
  139.8514  144.7162  150.9209 LP  0  0  0  0  0  0  0  0  0  0  0  0  # atno 17342 bound_to 10162
  140.7796  143.3896  151.1334 LP  0  0  0  0  0  0  0  0  0  0  0  0  # atno 17343 bound_to 10162
  157.1891  131.0411  151.2709 LP  0  0  0  0  0  0  0  0  0  0  0  0  # atno 17370 bound_to 10713
  157.4077  130.7368  149.6815 LP  0  0  0  0  0  0  0  0  0  0  0  0  # atno 17371 bound_to 10713
  140.8285  134.3206  157.5357 LP  0  0  0  0  0  0  0  0  0  0  0  0  # atno 17394 bound_to 11000
  139.8736  134.9350  156.3621 LP  0  0  0  0  0  0  0  0  0  0  0  0  # atno 17395 bound_to 11000

$$$$
