AV-unprocessed.smi:3335|AV-procd|sdf|12843|dock3
  -GOLD-   2272019233D 1   1.00000     0.00000
 Structure written by MMmdl.
 47 48  0  0  0  0  0  0  0  0  2 V2000
  152.2536  144.2169  158.3546 C   0  0  0  0  0  0  0  0  0  0  0  0
  152.6107  142.7992  158.6963 C   0  0  0  0  0  0  0  0  0  0  0  0
  153.7950  142.3242  159.3271 C   0  0  0  0  0  0  0  0  0  0  0  0
  153.8043  141.0101  159.4763 N   0  0  0  0  0  0  0  0  0  0  0  0
  152.6276  140.5984  158.9533 N   0  0  0  0  0  0  0  0  0  0  0  0
  152.2926  139.1790  158.9254 C   0  0  2  0  0  0  0  0  0  0  0  0
  153.3337  138.4129  158.0861 C   0  0  0  0  0  0  0  0  0  0  0  0
  150.8321  138.9650  158.4460 C   0  0  1  0  0  0  0  0  0  0  0  0
  150.6404  139.2705  156.9491 C   0  0  0  0  0  0  0  0  0  0  0  0
  150.4113  137.5685  158.7176 N   0  3  0  0  0  0  0  0  0  0  0  0
  148.9654  137.3738  158.9718 C   0  0  1  0  0  0  0  0  0  0  0  0
  148.1645  137.7551  157.7175 C   0  0  0  0  0  0  0  0  0  0  0  0
  148.6740  135.9092  159.3523 C   0  0  0  0  0  0  0  0  0  0  0  0
  148.9639  135.0221  158.5482 O   0  0  0  0  0  0  0  0  0  0  0  0
  148.0961  135.6321  160.5404 N   0  0  0  0  0  0  0  0  0  0  0  0
  147.8052  134.2708  160.9876 C   0  0  0  0  0  0  0  0  0  0  0  0
  147.3934  134.3934  162.4545 C   0  0  0  0  0  0  0  0  0  0  0  0
  146.8584  135.8134  162.5717 C   0  0  0  0  0  0  0  0  0  0  0  0
  147.6711  136.6047  161.5467 C   0  0  0  0  0  0  0  0  0  0  0  0
  151.8879  141.6610  158.4771 C   0  0  0  0  0  0  0  0  0  0  0  0
  152.9996  144.9226  158.7206 H   0  0  0  0  0  0  0  0  0  0  0  0
  151.2970  144.5075  158.7893 H   0  0  0  0  0  0  0  0  0  0  0  0
  152.1760  144.3626  157.2771 H   0  0  0  0  0  0  0  0  0  0  0  0
  154.6464  142.8915  159.6732 H   0  0  0  0  0  0  0  0  0  0  0  0
  152.3718  138.8133  159.9506 H   0  0  0  0  0  0  0  0  0  0  0  0
  153.2242  137.3342  158.1950 H   0  0  0  0  0  0  0  0  0  0  0  0
  154.3477  138.6609  158.4018 H   0  0  0  0  0  0  0  0  0  0  0  0
  153.2494  138.6523  157.0254 H   0  0  0  0  0  0  0  0  0  0  0  0
  150.1899  139.6413  159.0128 H   0  0  0  0  0  0  0  0  0  0  0  0
  150.8292  140.3202  156.7253 H   0  0  0  0  0  0  0  0  0  0  0  0
  149.6203  139.0614  156.6268 H   0  0  0  0  0  0  0  0  0  0  0  0
  151.3107  138.6708  156.3324 H   0  0  0  0  0  0  0  0  0  0  0  0
  150.6894  137.0001  157.9308 H   0  0  0  0  0  0  0  0  0  0  0  0
  148.6753  138.0528  159.7724 H   0  0  0  0  0  0  0  0  0  0  0  0
  147.0920  137.6451  157.8831 H   0  0  0  0  0  0  0  0  0  0  0  0
  148.4343  137.1324  156.8632 H   0  0  0  0  0  0  0  0  0  0  0  0
  148.3455  138.7940  157.4397 H   0  0  0  0  0  0  0  0  0  0  0  0
  146.9843  133.8689  160.3917 H   0  0  0  0  0  0  0  0  0  0  0  0
  148.6646  133.6082  160.8723 H   0  0  0  0  0  0  0  0  0  0  0  0
  146.6647  133.6397  162.7540 H   0  0  0  0  0  0  0  0  0  0  0  0
  148.2715  134.2811  163.0918 H   0  0  0  0  0  0  0  0  0  0  0  0
  145.8037  135.8287  162.2936 H   0  0  0  0  0  0  0  0  0  0  0  0
  146.9435  136.2159  163.5815 H   0  0  0  0  0  0  0  0  0  0  0  0
  148.5538  137.0396  162.0177 H   0  0  0  0  0  0  0  0  0  0  0  0
  147.0762  137.4123  161.1177 H   0  0  0  0  0  0  0  0  0  0  0  0
  150.9191  141.5214  158.0205 H   0  0  0  0  0  0  0  0  0  0  0  0
  150.8999  137.2412  159.5393 H   0  0  0  0  0  0  0  0  0  0  0  0
  1  2  1  0  0  0  0
  1 21  1  0  0  0  0
  1 22  1  0  0  0  0
  1 23  1  0  0  0  0
  2 20  2  0  0  0  0
  2  3  1  0  0  0  0
  3  4  2  0  0  0  0
  3 24  1  0  0  0  0
  4  5  1  0  0  0  0
  5  6  1  0  0  0  0
  5 20  1  0  0  0  0
  6  7  1  0  0  0  0
  6  8  1  0  0  0  0
  6 25  1  0  0  0  0
  7 26  1  0  0  0  0
  7 27  1  0  0  0  0
  7 28  1  0  0  0  0
  8  9  1  0  0  0  0
  8 10  1  0  0  0  0
  8 29  1  0  0  0  0
  9 30  1  0  0  0  0
  9 31  1  0  0  0  0
  9 32  1  0  0  0  0
 10 11  1  0  0  0  0
 10 33  1  0  0  0  0
 10 47  1  0  0  0  0
 11 12  1  0  0  0  0
 11 13  1  0  0  0  0
 11 34  1  0  0  0  0
 12 35  1  0  0  0  0
 12 36  1  0  0  0  0
 12 37  1  0  0  0  0
 13 14  2  0  0  0  0
 13 15  1  0  0  0  0
 15 19  1  0  0  0  0
 15 16  1  0  0  0  0
 16 17  1  0  0  0  0
 16 38  1  0  0  0  0
 16 39  1  0  0  0  0
 17 18  1  0  0  0  0
 17 40  1  0  0  0  0
 17 41  1  0  0  0  0
 18 19  1  0  0  0  0
 18 42  1  0  0  0  0
 18 43  1  0  0  0  0
 19 44  1  0  0  0  0
 19 45  1  0  0  0  0
 20 46  1  0  0  0  0
M  CHG  1  10   1
M  END
> <s_m_source_file>
AV-unprocessed.smi

> <i_m_source_file_index>
3335

> <i_lp_mmshare_version>
43012

> <i_f3d_flags>
0

> <s_epik_input>
W0NIM11jMVtjSF1ubihbY0hdMSlbQ0BIXShbQ0gzXSlbQ0BIXShbQ0gzXSlbTkhdW0NASF0oW0NIM10pQyg9TylOMltDSDJdW0NIMl1bQ0gyXVtDSDJdMg==

> <s_epik_cmdline>
J2VwaWtfcHl0aG9uJywgJy1waCcsICc3LjAnLCAnLXRuJywgJzgnLCAnLW1hJywgJzIwMCcsICctbWV0YWxfYmluZGluZycsICctaW1hZScsICc8aW5maWxlLm1hZT4nLCAnLW9tYWUnLCAnPG91dGZpbGUubWFlPic=

> <r_lp_tautomer_probability>
1

> <r_epik_Ionization_Penalty>
0.14175

> <r_epik_Ionization_Penalty_Charging>
0.141731

> <r_epik_Ionization_Penalty_Neutral>
1.91261e-05

> <r_epik_State_Penalty>
0.131043

> <r_epik_Charging_Adjusted_Penalty>
0.272773

> <i_epik_Tot_Q>
1

> <i_epik_Tot_abs_Q>
1

> <r_epik_Metal_State_Penalty>
0.131408

> <b_epik_Metal_Only>
0

> <s_lp_Force_Field>
OPLS_2005

> <r_lp_Energy>
35.1527

> <b_lp_Chiralities_Consistent>
1

> <s_lp_Variant>
AV-unprocessed.smi:3335-7

> <Gold.Version>
5.8.1

> <Gold.Id.Protein>
6NUR|6NUR_protein|mol2

> <Gold.PLP.Fitness>
42.2835

> <Gold.PLP.PLP>
-40.1671

> <Gold.PLP.part.hbond>
-1.0000

> <Gold.PLP.part.metal>
0.0000

> <Gold.PLP.part.buried>
-5.2013

> <Gold.PLP.part.nonpolar>
-34.6718

> <Gold.PLP.part.repulsive>
0.1742

> <Gold.PLP.ligand.clash>
0.0000

> <Gold.PLP.ligand.torsion>
0.4961

> <Gold.PLP.Chemscore.Hbond>
1.0000

> <Gold.PLP.Chemscore.CHOScore>
0.0000

> <Gold.PLP.Chemscore.Metal>
0.0000

> <Gold.Chemscore.Hbonds>
donor molecule, donor type, donor heavy atom, donor atom, acceptor molecule, acceptor atom, score
      P1  H  6896  6908       L1    14  0.95

> <Gold.PLP.Chemscore.Internal.Correction>
0.1087

> <Gold.Rescore>
     Score         DG    S(hbond)    S(metal)    S(lipo)     H(rot)  DE(clash)    DE(int)     intcor
     16.03     -16.77       0.98        0.00     105.10       1.68       0.13       0.61       ----

> <Gold.Chemscore.Fitness>
16.0283

> <Gold.Chemscore.DG>
-16.7686

> <Gold.Chemscore.ZeroCoef>
-5.4800

> <Gold.Chemscore.Hbond>
0.9841

> <Gold.Chemscore.Metal>
0.0000

> <Gold.Chemscore.Lipo>
105.1005

> <Gold.Chemscore.Internal_Hbond>
0.0000

> <Gold.Chemscore.DEClash>
0.1318

> <Gold.Chemscore.DEInternal>
0.6084

> <Gold.Chemscore.Rot>
1.6778

> <Gold.Chemscore.Internal.Correction>
   9.000000E+99

> <Gold.Chemscore.Hbonds>
donor molecule, donor type, donor heavy atom, donor atom, acceptor molecule, acceptor atom, score
      P1  H  6896  6908       L1    14  0.21

> <Gold.Chemscore.Hbond.Weighted>
-3.2870

> <Gold.Chemscore.Metal.Weighted>
-0.0000

> <Gold.Chemscore.Lipo.Weighted>
-12.2968

> <Gold.Chemscore.Internal_Hbond.Weighted>
0.0000

> <Gold.Chemscore.DEClash.Weighted>
0.1318

> <Gold.Chemscore.DEInternal.Weighted>
0.6084

> <Gold.Chemscore.Rot.Weighted>
4.2952

> <Gold.Chemscore.Internal.Correction.Weighted>
   9.000000E+99

> <Gold.Protein.RotatedTorsions>
[ 6907 6896 6895 6894 ] final  152.84 input  -60.11 | X-H torsion
[ 7974 7965 7964 7962 ] final -141.60 input  175.53 | X-H torsion
[ 8008 7997 7996 7995 ] final -112.53 input   59.86 | X-H torsion
[ 10167 10162 10161 10158 ] final  179.40 input  -65.29 | X-H torsion
[ 10718 10713 10712 10709 ] final  -50.46 input   66.30 | X-H torsion
[ 10763 10752 10751 10750 ] final  -22.21 input  -60.55 | X-H torsion
[ 11005 11000 10999 10996 ] final  171.26 input  -57.11 | X-H torsion

> <Gold.Protein.ActiveResidues>
 VAL166  LYS551  ARG553  GLY616  TRP617  ASP618  TYR619  PRO620  LYS621  CYS622 
 ASP623  PHE694  ASN695  SER759  ASP760  ASP761  ALA762  ILE779  LEU786  VAL792 
 PHE793  MET794  SER795  GLU796  ALA797  LYS798  CYS799  TRP800  GLU811  SER814 

> <Gold.Protein.RotatedAtoms>
  152.0811  133.4153  159.4501 H   0  0  0  0  0  0  0  0  0  0  0  0  # atno 6907 bound_to 6896
  150.6862  134.2981  159.4704 H   0  0  0  0  0  0  0  0  0  0  0  0  # atno 6908 bound_to 6896
  152.0823  134.9462  160.0624 H   0  0  0  0  0  0  0  0  0  0  0  0  # atno 6909 bound_to 6896
  144.8507  140.6059  143.5392 H   0  0  0  0  0  0  0  0  0  0  0  0  # atno 7974 bound_to 7965
  155.0066  140.0394  157.2382 H   0  0  0  0  0  0  0  0  0  0  0  0  # atno 8008 bound_to 7997
  154.7497  140.2764  155.6280 H   0  0  0  0  0  0  0  0  0  0  0  0  # atno 8009 bound_to 7997
  156.2882  140.2649  156.2247 H   0  0  0  0  0  0  0  0  0  0  0  0  # atno 8010 bound_to 7997
  139.5335  144.2565  152.0742 H   0  0  0  0  0  0  0  0  0  0  0  0  # atno 10167 bound_to 10162
  156.1798  130.4150  149.9523 H   0  0  0  0  0  0  0  0  0  0  0  0  # atno 10718 bound_to 10713
  153.6483  135.6982  153.5218 H   0  0  0  0  0  0  0  0  0  0  0  0  # atno 10763 bound_to 10752
  153.2727  135.4210  155.1003 H   0  0  0  0  0  0  0  0  0  0  0  0  # atno 10764 bound_to 10752
  154.8483  135.3582  154.6027 H   0  0  0  0  0  0  0  0  0  0  0  0  # atno 10765 bound_to 10752
  140.3171  134.7468  157.4036 H   0  0  0  0  0  0  0  0  0  0  0  0  # atno 11005 bound_to 11000
  145.4507  139.1524  143.3920 LP  0  0  0  0  0  0  0  0  0  0  0  0  # atno 17320 bound_to 7965
  146.2782  140.4632  142.8787 LP  0  0  0  0  0  0  0  0  0  0  0  0  # atno 17321 bound_to 7965
  140.2032  144.4637  150.6421 LP  0  0  0  0  0  0  0  0  0  0  0  0  # atno 17342 bound_to 10162
  140.6527  143.2229  151.6039 LP  0  0  0  0  0  0  0  0  0  0  0  0  # atno 17343 bound_to 10162
  156.7297  130.9038  151.3625 LP  0  0  0  0  0  0  0  0  0  0  0  0  # atno 17370 bound_to 10713
  157.6860  130.9186  150.0389 LP  0  0  0  0  0  0  0  0  0  0  0  0  # atno 17371 bound_to 10713
  140.0974  134.5519  155.8385 LP  0  0  0  0  0  0  0  0  0  0  0  0  # atno 17394 bound_to 11000
  141.2095  133.6684  156.6443 LP  0  0  0  0  0  0  0  0  0  0  0  0  # atno 17395 bound_to 11000

$$$$
