AV-unprocessed.smi:2026|AV-procd|sdf|8206|dock9
  -GOLD-   2272010463D 1   1.00000     0.00000
 Structure written by MMmdl.
 45 47  0  0  0  0  0  0  0  0  2 V2000
  153.6233  142.2913  162.5385 C   0  0  0  0  0  0  0  0  0  0  0  0
  153.0400  142.1029  161.1491 C   0  0  0  0  0  0  0  0  0  0  0  0
  153.3511  140.9295  160.4254 C   0  0  0  0  0  0  0  0  0  0  0  0
  152.8294  140.7172  159.1304 C   0  0  0  0  0  0  0  0  0  0  0  0
  153.0003  139.6577  158.2553 N   0  0  0  0  0  0  0  0  0  0  0  0
  152.2629  140.0458  157.2186 C   0  0  0  0  0  0  0  0  0  0  0  0
  151.6367  141.2340  157.3173 N   0  0  0  0  0  0  0  0  0  0  0  0
  150.7879  141.8588  156.3182 C   0  0  0  0  0  0  0  0  0  0  0  0
  149.5865  140.9774  155.9248 C   0  0  1  0  0  0  0  0  0  0  0  0
  148.4696  141.8139  155.6902 O   0  0  0  0  0  0  0  0  0  0  0  0
  149.8786  140.1666  154.6456 C   0  0  0  0  0  0  0  0  0  0  0  0
  150.4273  138.8398  154.9465 N   0  0  0  0  0  0  0  0  0  0  0  0
  151.7012  138.4602  154.7324 C   0  0  0  0  0  0  0  0  0  0  0  0
  152.5433  139.2202  154.2554 O   0  0  0  0  0  0  0  0  0  0  0  0
  151.8947  137.1740  155.1092 N   0  5  0  0  0  0  0  0  0  0  0  0
  150.6446  136.6405  155.6127 C   0  0  0  0  0  0  0  0  0  0  0  0
  150.1848  135.4559  154.7422 C   0  0  0  0  0  0  0  0  0  0  0  0
  150.7978  136.2325  157.0902 C   0  0  0  0  0  0  0  0  0  0  0  0
  149.7157  137.8317  155.4617 C   0  0  0  0  0  0  0  0  0  0  0  0
  148.5220  137.8329  155.7668 O   0  0  0  0  0  0  0  0  0  0  0  0
  151.9825  141.7197  158.5738 C   0  0  0  0  0  0  0  0  0  0  0  0
  151.6649  142.8909  159.2845 C   0  0  0  0  0  0  0  0  0  0  0  0
  152.1939  143.0868  160.5773 C   0  0  0  0  0  0  0  0  0  0  0  0
  151.8424  144.3538  161.3367 C   0  0  0  0  0  0  0  0  0  0  0  0
  154.2196  141.4301  162.8411 H   0  0  0  0  0  0  0  0  0  0  0  0
  152.8285  142.4219  163.2733 H   0  0  0  0  0  0  0  0  0  0  0  0
  154.2673  143.1705  162.5643 H   0  0  0  0  0  0  0  0  0  0  0  0
  153.9949  140.1795  160.8608 H   0  0  0  0  0  0  0  0  0  0  0  0
  152.1713  139.4314  156.3346 H   0  0  0  0  0  0  0  0  0  0  0  0
  150.4474  142.8225  156.6990 H   0  0  0  0  0  0  0  0  0  0  0  0
  151.4001  142.0713  155.4407 H   0  0  0  0  0  0  0  0  0  0  0  0
  149.3540  140.3080  156.7542 H   0  0  0  0  0  0  0  0  0  0  0  0
  148.7806  142.6834  155.4911 H   0  0  0  0  0  0  0  0  0  0  0  0
  148.9892  140.0978  154.0168 H   0  0  0  0  0  0  0  0  0  0  0  0
  150.6127  140.6996  154.0389 H   0  0  0  0  0  0  0  0  0  0  0  0
  149.2360  135.0506  155.0958 H   0  0  0  0  0  0  0  0  0  0  0  0
  150.9142  134.6454  154.7634 H   0  0  0  0  0  0  0  0  0  0  0  0
  150.0496  135.7480  153.6995 H   0  0  0  0  0  0  0  0  0  0  0  0
  149.8649  135.8308  157.4874 H   0  0  0  0  0  0  0  0  0  0  0  0
  151.0846  137.0787  157.7168 H   0  0  0  0  0  0  0  0  0  0  0  0
  151.5615  135.4631  157.2095 H   0  0  0  0  0  0  0  0  0  0  0  0
  151.0171  143.6310  158.8386 H   0  0  0  0  0  0  0  0  0  0  0  0
  151.2184  145.0167  160.7367 H   0  0  0  0  0  0  0  0  0  0  0  0
  152.7448  144.9013  161.6094 H   0  0  0  0  0  0  0  0  0  0  0  0
  151.2944  144.1118  162.2475 H   0  0  0  0  0  0  0  0  0  0  0  0
  1  2  1  0  0  0  0
  1 25  1  0  0  0  0
  1 26  1  0  0  0  0
  1 27  1  0  0  0  0
  2 23  1  0  0  0  0
  2  3  2  0  0  0  0
  3  4  1  0  0  0  0
  3 28  1  0  0  0  0
  4 21  2  0  0  0  0
  4  5  1  0  0  0  0
  5  6  2  0  0  0  0
  6  7  1  0  0  0  0
  6 29  1  0  0  0  0
  7  8  1  0  0  0  0
  7 21  1  0  0  0  0
  8  9  1  0  0  0  0
  8 30  1  0  0  0  0
  8 31  1  0  0  0  0
  9 10  1  0  0  0  0
  9 11  1  0  0  0  0
  9 32  1  0  0  0  0
 10 33  1  0  0  0  0
 11 12  1  0  0  0  0
 11 34  1  0  0  0  0
 11 35  1  0  0  0  0
 12 19  1  0  0  0  0
 12 13  1  0  0  0  0
 13 14  2  0  0  0  0
 13 15  1  0  0  0  0
 15 16  1  0  0  0  0
 16 17  1  0  0  0  0
 16 18  1  0  0  0  0
 16 19  1  0  0  0  0
 17 36  1  0  0  0  0
 17 37  1  0  0  0  0
 17 38  1  0  0  0  0
 18 39  1  0  0  0  0
 18 40  1  0  0  0  0
 18 41  1  0  0  0  0
 19 20  2  0  0  0  0
 21 22  1  0  0  0  0
 22 23  2  0  0  0  0
 22 42  1  0  0  0  0
 23 24  1  0  0  0  0
 24 43  1  0  0  0  0
 24 44  1  0  0  0  0
 24 45  1  0  0  0  0
M  CHG  1  15  -1
M  END
> <s_m_source_file>
AV-unprocessed.smi

> <i_m_source_file_index>
2026

> <i_lp_mmshare_version>
43012

> <i_f3d_flags>
0

> <s_epik_input>
W0NIM11jKFtjSF0xKWMoW0NIM10pW2NIXWMoYzEyKW4oW2NIXW4yKVtDSDJdW0NASF0oW09IXSlbQ0gyXU4oQzM9TylDKD1PKVtOSF1DMyhbQ0gzXSlbQ0gzXQ==

> <s_epik_cmdline>
J2VwaWtfcHl0aG9uJywgJy1waCcsICc3LjAnLCAnLXRuJywgJzgnLCAnLW1hJywgJzIwMCcsICctbWV0YWxfYmluZGluZycsICctaW1hZScsICc8aW5maWxlLm1hZT4nLCAnLW9tYWUnLCAnPG91dGZpbGUubWFlPic=

> <r_lp_tautomer_probability>
1

> <r_epik_Ionization_Penalty>
5.78785

> <r_epik_Ionization_Penalty_Charging>
5.68049

> <r_epik_Ionization_Penalty_Neutral>
0.107354

> <r_epik_State_Penalty>
5.7743

> <r_epik_Charging_Adjusted_Penalty>
11.4548

> <i_epik_Tot_Q>
-1

> <i_epik_Tot_abs_Q>
1

> <r_epik_Metal_State_Penalty>
1.83778

> <b_epik_Metal_Only>
1

> <s_lp_Force_Field>
OPLS_2005

> <r_lp_Energy>
18.252

> <b_lp_Chiralities_Consistent>
1

> <s_lp_Variant>
AV-unprocessed.smi:2026-6

> <Gold.Version>
5.8.1

> <Gold.Id.Protein>
6NUR|6NUR_protein|mol2

> <Gold.PLP.Fitness>
54.9222

> <Gold.PLP.PLP>
-45.0219

> <Gold.PLP.part.hbond>
-4.0000

> <Gold.PLP.part.metal>
0.0000

> <Gold.PLP.part.buried>
0.4655

> <Gold.PLP.part.nonpolar>
-39.8246

> <Gold.PLP.part.repulsive>
0.2196

> <Gold.PLP.ligand.clash>
0.0000

> <Gold.PLP.ligand.torsion>
1.0397

> <Gold.PLP.Chemscore.Hbond>
3.9924

> <Gold.PLP.Chemscore.CHOScore>
0.0000

> <Gold.PLP.Chemscore.Metal>
0.0000

> <Gold.Chemscore.Hbonds>
donor molecule, donor type, donor heavy atom, donor atom, acceptor molecule, acceptor atom, score
      L1  H    10    33       P1  8028  0.98
      P1  H  7989  7998       L1    14  0.56
      P1  H  7997  8010       L1     5  0.40
      P1  H 10752 10764       L1    15  1.95

> <Gold.PLP.Chemscore.Internal.Correction>
0.0025

> <Gold.Rescore>
     Score         DG    S(hbond)    S(metal)    S(lipo)     H(rot)  DE(clash)    DE(int)     intcor
     18.46     -20.58       2.36        0.00     113.63       2.38       1.05       1.07       ----

> <Gold.Chemscore.Fitness>
18.4604

> <Gold.Chemscore.DG>
-20.5774

> <Gold.Chemscore.ZeroCoef>
-5.4800

> <Gold.Chemscore.Hbond>
2.3627

> <Gold.Chemscore.Metal>
0.0000

> <Gold.Chemscore.Lipo>
113.6275

> <Gold.Chemscore.Internal_Hbond>
0.0000

> <Gold.Chemscore.DEClash>
1.0465

> <Gold.Chemscore.DEInternal>
1.0705

> <Gold.Chemscore.Rot>
2.3783

> <Gold.Chemscore.Internal.Correction>
   9.000000E+99

> <Gold.Chemscore.Hbonds>
donor molecule, donor type, donor heavy atom, donor atom, acceptor molecule, acceptor atom, score
      L1  H    10    33       P1  8028  0.91
      P1  H  7989  7998       L1    14  0.43
      P1  H  7997  8010       L1     5  0.02
      P1  H 10752 10764       L1    15  0.50

> <Gold.Chemscore.Hbond.Weighted>
-7.8914

> <Gold.Chemscore.Metal.Weighted>
-0.0000

> <Gold.Chemscore.Lipo.Weighted>
-13.2944

> <Gold.Chemscore.Internal_Hbond.Weighted>
0.0000

> <Gold.Chemscore.DEClash.Weighted>
1.0465

> <Gold.Chemscore.DEInternal.Weighted>
1.0705

> <Gold.Chemscore.Rot.Weighted>
6.0884

> <Gold.Chemscore.Internal.Correction.Weighted>
   9.000000E+99

> <Gold.Protein.RotatedTorsions>
[ 6907 6896 6895 6894 ] final  137.45 input  -60.11 | X-H torsion
[ 7974 7965 7964 7962 ] final  178.16 input  175.53 | X-H torsion
[ 8008 7997 7996 7995 ] final   14.06 input   59.86 | X-H torsion
[ 10167 10162 10161 10158 ] final -146.20 input  -65.29 | X-H torsion
[ 10718 10713 10712 10709 ] final   16.94 input   66.30 | X-H torsion
[ 10763 10752 10751 10750 ] final  -62.83 input  -60.55 | X-H torsion
[ 11005 11000 10999 10996 ] final  -91.67 input  -57.11 | X-H torsion

> <Gold.Protein.ActiveResidues>
 VAL166  LYS551  ARG553  GLY616  TRP617  ASP618  TYR619  PRO620  LYS621  CYS622 
 ASP623  PHE694  ASN695  SER759  ASP760  ASP761  ALA762  ILE779  LEU786  VAL792 
 PHE793  MET794  SER795  GLU796  ALA797  LYS798  CYS799  TRP800  GLU811  SER814 

> <Gold.Protein.RotatedAtoms>
  152.2779  133.5443  159.5479 H   0  0  0  0  0  0  0  0  0  0  0  0  # atno 6907 bound_to 6896
  150.7184  134.0605  159.3838 H   0  0  0  0  0  0  0  0  0  0  0  0  # atno 6908 bound_to 6896
  151.8517  135.0555  160.0510 H   0  0  0  0  0  0  0  0  0  0  0  0  # atno 6909 bound_to 6896
  144.7159  140.0355  143.6438 H   0  0  0  0  0  0  0  0  0  0  0  0  # atno 7974 bound_to 7965
  154.8432  140.2918  155.5646 H   0  0  0  0  0  0  0  0  0  0  0  0  # atno 8008 bound_to 7997
  156.3013  140.2510  156.3310 H   0  0  0  0  0  0  0  0  0  0  0  0  # atno 8009 bound_to 7997
  154.9102  140.0389  157.1931 H   0  0  0  0  0  0  0  0  0  0  0  0  # atno 8010 bound_to 7997
  139.7736  143.8203  152.2628 H   0  0  0  0  0  0  0  0  0  0  0  0  # atno 10167 bound_to 10162
  157.0750  130.6364  149.5814 H   0  0  0  0  0  0  0  0  0  0  0  0  # atno 10718 bound_to 10713
  154.3058  135.6225  153.5444 H   0  0  0  0  0  0  0  0  0  0  0  0  # atno 10763 bound_to 10752
  152.9835  135.5689  154.5233 H   0  0  0  0  0  0  0  0  0  0  0  0  # atno 10764 bound_to 10752
  154.4873  135.2866  155.1501 H   0  0  0  0  0  0  0  0  0  0  0  0  # atno 10765 bound_to 10752
  141.1539  133.7771  156.9912 H   0  0  0  0  0  0  0  0  0  0  0  0  # atno 11005 bound_to 11000
  146.0067  139.3135  143.0895 LP  0  0  0  0  0  0  0  0  0  0  0  0  # atno 17320 bound_to 7965
  145.8730  140.9408  143.0641 LP  0  0  0  0  0  0  0  0  0  0  0  0  # atno 17321 bound_to 7965
  139.8244  144.7281  150.9530 LP  0  0  0  0  0  0  0  0  0  0  0  0  # atno 17342 bound_to 10162
  140.7815  143.4128  151.0965 LP  0  0  0  0  0  0  0  0  0  0  0  0  # atno 17343 bound_to 10162
  155.9940  130.5002  150.7401 LP  0  0  0  0  0  0  0  0  0  0  0  0  # atno 17370 bound_to 10713
  157.4847  131.0905  151.0496 LP  0  0  0  0  0  0  0  0  0  0  0  0  # atno 17371 bound_to 10713
  140.1001  134.9540  157.1911 LP  0  0  0  0  0  0  0  0  0  0  0  0  # atno 17394 bound_to 11000
  140.3329  134.2789  155.7225 LP  0  0  0  0  0  0  0  0  0  0  0  0  # atno 17395 bound_to 11000

$$$$
