AV-unprocessed.smi:955|AV-procd|sdf|4262|dock4
  -GOLD-   22720 2173D 1   1.00000     0.00000
 Structure written by MMmdl.
 29 29  0  0  0  0  0  0  0  0  1 V2000
  153.1801  138.6798  154.5859 C   0  0  0  0  0  0  0  0  0  0  0  0
  151.8915  138.3644  155.3632 C   0  0  1  0  0  0  0  0  0  0  0  0
  151.2054  139.6276  155.6287 N   0  0  0  0  0  0  0  0  0  0  0  0
  151.5815  140.5385  156.5415 C   0  0  0  0  0  0  0  0  0  0  0  0
  152.5733  140.3995  157.2586 O   0  0  0  0  0  0  0  0  0  0  0  0
  150.6982  141.7909  156.6556 C   0  0  1  0  0  0  0  0  0  0  0  0
  149.2582  141.4634  157.1017 C   0  0  0  0  0  0  0  0  0  0  0  0
  151.3334  142.7809  157.5184 N   0  0  0  0  0  0  0  0  0  0  0  0
  151.5676  144.1144  157.2492 C   0  0  0  0  0  0  0  0  0  0  0  0
  152.2184  144.6439  158.3264 C   0  0  0  0  0  0  0  0  0  0  0  0
  152.3537  143.5409  159.2144 C   0  0  0  0  0  0  0  0  0  0  0  0
  151.8331  142.4274  158.7259 N   0  0  0  0  0  0  0  0  0  0  0  0
  151.0207  137.4477  154.4881 C   0  0  0  0  0  0  0  0  0  0  0  0
  150.2886  138.0383  153.5403 N   0  0  0  0  0  0  0  0  0  0  0  0
  150.9937  136.2312  154.6716 O   0  0  0  0  0  0  0  0  0  0  0  0
  153.7388  137.7708  154.3586 H   0  0  0  0  0  0  0  0  0  0  0  0
  153.8372  139.3250  155.1700 H   0  0  0  0  0  0  0  0  0  0  0  0
  152.9731  139.1880  153.6427 H   0  0  0  0  0  0  0  0  0  0  0  0
  152.1416  137.8672  156.3027 H   0  0  0  0  0  0  0  0  0  0  0  0
  150.3739  139.8143  155.0877 H   0  0  0  0  0  0  0  0  0  0  0  0
  150.6304  142.2319  155.6595 H   0  0  0  0  0  0  0  0  0  0  0  0
  148.7784  140.7772  156.4030 H   0  0  0  0  0  0  0  0  0  0  0  0
  148.6491  142.3668  157.1413 H   0  0  0  0  0  0  0  0  0  0  0  0
  149.2280  141.0023  158.0896 H   0  0  0  0  0  0  0  0  0  0  0  0
  151.2542  144.5717  156.3223 H   0  0  0  0  0  0  0  0  0  0  0  0
  152.5516  145.6626  158.4581 H   0  0  0  0  0  0  0  0  0  0  0  0
  152.8154  143.5150  160.1904 H   0  0  0  0  0  0  0  0  0  0  0  0
  149.6931  137.4828  152.9435 H   0  0  0  0  0  0  0  0  0  0  0  0
  150.3276  139.0412  153.4296 H   0  0  0  0  0  0  0  0  0  0  0  0
  1  2  1  0  0  0  0
  1 16  1  0  0  0  0
  1 17  1  0  0  0  0
  1 18  1  0  0  0  0
  2  3  1  0  0  0  0
  2 13  1  0  0  0  0
  2 19  1  0  0  0  0
  3  4  1  0  0  0  0
  3 20  1  0  0  0  0
  4  5  2  0  0  0  0
  4  6  1  0  0  0  0
  6  7  1  0  0  0  0
  6  8  1  0  0  0  0
  6 21  1  0  0  0  0
  7 22  1  0  0  0  0
  7 23  1  0  0  0  0
  7 24  1  0  0  0  0
  8 12  1  0  0  0  0
  8  9  1  0  0  0  0
  9 10  2  0  0  0  0
  9 25  1  0  0  0  0
 10 11  1  0  0  0  0
 10 26  1  0  0  0  0
 11 12  2  0  0  0  0
 11 27  1  0  0  0  0
 13 14  1  0  0  0  0
 13 15  2  0  0  0  0
 14 28  1  0  0  0  0
 14 29  1  0  0  0  0
M  END
> <s_m_source_file>
AV-unprocessed.smi

> <i_m_source_file_index>
955

> <i_lp_mmshare_version>
43012

> <i_f3d_flags>
0

> <s_epik_input>
W05IMl1DKD1PKVtDQEhdKFtDSDNdKVtOSF1DKD1PKVtDQEhdKFtDSDNdKW4xW2NIXVtjSF1bY0hdbjE=

> <s_epik_cmdline>
J2VwaWtfcHl0aG9uJywgJy1waCcsICc3LjAnLCAnLXRuJywgJzgnLCAnLW1hJywgJzIwMCcsICctbWV0YWxfYmluZGluZycsICctaW1hZScsICc8aW5maWxlLm1hZT4nLCAnLW9tYWUnLCAnPG91dGZpbGUubWFlPic=

> <r_lp_tautomer_probability>
1

> <r_epik_Ionization_Penalty>
2.8146e-05

> <r_epik_Ionization_Penalty_Charging>
0

> <r_epik_Ionization_Penalty_Neutral>
2.8146e-05

> <r_epik_State_Penalty>
-0

> <r_epik_Charging_Adjusted_Penalty>
0

> <i_epik_Tot_Q>
0

> <i_epik_Tot_abs_Q>
0

> <r_epik_Metal_State_Penalty>
-0

> <b_epik_Metal_Only>
0

> <s_lp_Force_Field>
OPLS_2005

> <r_lp_Energy>
4.82195

> <b_lp_Chiralities_Consistent>
1

> <s_lp_Variant>
AV-unprocessed.smi:955-4

> <Gold.Version>
5.8.1

> <Gold.Id.Protein>
6NUR|6NUR_protein|mol2

> <Gold.PLP.Fitness>
43.4047

> <Gold.PLP.PLP>
-34.1012

> <Gold.PLP.part.hbond>
-4.7222

> <Gold.PLP.part.metal>
0.0000

> <Gold.PLP.part.buried>
-1.6872

> <Gold.PLP.part.nonpolar>
-28.3868

> <Gold.PLP.part.repulsive>
0.4145

> <Gold.PLP.ligand.clash>
0.0000

> <Gold.PLP.ligand.torsion>
1.1746

> <Gold.PLP.Chemscore.Hbond>
2.9600

> <Gold.PLP.Chemscore.CHOScore>
0.8848

> <Gold.PLP.Chemscore.Metal>
0.0000

> <Gold.Chemscore.Hbonds>
donor molecule, donor type, donor heavy atom, donor atom, acceptor molecule, acceptor atom, score
      L1  H    14    28       P1  7948  1.00
      P1  H  7997  8008       L1     5  0.93
      P1  H 10752 10764       L1    15  0.96
      L1  C     9    25       P1  8028  0.86

> <Gold.PLP.Chemscore.Internal.Correction>
0.1182

> <Gold.Rescore>
     Score         DG    S(hbond)    S(metal)    S(lipo)     H(rot)  DE(clash)    DE(int)     intcor
     13.23     -16.63       2.74        0.00      67.46       2.30       0.95       2.44       ----

> <Gold.Chemscore.Fitness>
13.2345

> <Gold.Chemscore.DG>
-16.6309

> <Gold.Chemscore.ZeroCoef>
-5.4800

> <Gold.Chemscore.Hbond>
2.7363

> <Gold.Chemscore.Metal>
0.0000

> <Gold.Chemscore.Lipo>
67.4581

> <Gold.Chemscore.Internal_Hbond>
0.0000

> <Gold.Chemscore.DEClash>
0.9532

> <Gold.Chemscore.DEInternal>
2.4431

> <Gold.Chemscore.Rot>
2.2972

> <Gold.Chemscore.Internal.Correction>
   9.000000E+99

> <Gold.Chemscore.Hbonds>
donor molecule, donor type, donor heavy atom, donor atom, acceptor molecule, acceptor atom, score
      L1  H    14    28       P1  7948  0.55
      P1  H  7997  8008       L1     5  0.89
      P1  H 10752 10764       L1    15  0.55

> <Gold.Chemscore.Hbond.Weighted>
-9.1392

> <Gold.Chemscore.Metal.Weighted>
-0.0000

> <Gold.Chemscore.Lipo.Weighted>
-7.8926

> <Gold.Chemscore.Internal_Hbond.Weighted>
0.0000

> <Gold.Chemscore.DEClash.Weighted>
0.9532

> <Gold.Chemscore.DEInternal.Weighted>
2.4431

> <Gold.Chemscore.Rot.Weighted>
5.8809

> <Gold.Chemscore.Internal.Correction.Weighted>
   9.000000E+99

> <Gold.Protein.RotatedTorsions>
[ 6907 6896 6895 6894 ] final    9.55 input  -60.11 | X-H torsion
[ 7974 7965 7964 7962 ] final -158.26 input  175.53 | X-H torsion
[ 8008 7997 7996 7995 ] final  -62.68 input   59.86 | X-H torsion
[ 10167 10162 10161 10158 ] final  -78.87 input  -65.29 | X-H torsion
[ 10718 10713 10712 10709 ] final   85.80 input   66.30 | X-H torsion
[ 10763 10752 10751 10750 ] final  -58.15 input  -60.55 | X-H torsion
[ 11005 11000 10999 10996 ] final  135.65 input  -57.11 | X-H torsion

> <Gold.Protein.ActiveResidues>
 VAL166  LYS551  ARG553  GLY616  TRP617  ASP618  TYR619  PRO620  LYS621  CYS622 
 ASP623  PHE694  ASN695  SER759  ASP760  ASP761  ALA762  ILE779  LEU786  VAL792 
 PHE793  MET794  SER795  GLU796  ALA797  LYS798  CYS799  TRP800  GLU811  SER814 

> <Gold.Protein.RotatedAtoms>
  151.7239  135.0888  160.0288 H   0  0  0  0  0  0  0  0  0  0  0  0  # atno 6907 bound_to 6896
  152.3584  133.6262  159.6005 H   0  0  0  0  0  0  0  0  0  0  0  0  # atno 6908 bound_to 6896
  150.7587  133.9379  159.3488 H   0  0  0  0  0  0  0  0  0  0  0  0  # atno 6909 bound_to 6896
  144.7513  140.3852  143.6046 H   0  0  0  0  0  0  0  0  0  0  0  0  # atno 7974 bound_to 7965
  154.4513  140.0991  156.6625 H   0  0  0  0  0  0  0  0  0  0  0  0  # atno 8008 bound_to 7997
  155.5278  140.3480  155.4401 H   0  0  0  0  0  0  0  0  0  0  0  0  # atno 8009 bound_to 7997
  156.0686  140.1344  156.9845 H   0  0  0  0  0  0  0  0  0  0  0  0  # atno 8010 bound_to 7997
  140.4644  143.2444  151.8300 H   0  0  0  0  0  0  0  0  0  0  0  0  # atno 10167 bound_to 10162
  157.6920  131.0189  150.2876 H   0  0  0  0  0  0  0  0  0  0  0  0  # atno 10718 bound_to 10713
  154.2336  135.6356  153.5183 H   0  0  0  0  0  0  0  0  0  0  0  0  # atno 10763 bound_to 10752
  152.9944  135.5525  154.5986 H   0  0  0  0  0  0  0  0  0  0  0  0  # atno 10764 bound_to 10752
  154.5475  135.2899  155.1014 H   0  0  0  0  0  0  0  0  0  0  0  0  # atno 10765 bound_to 10752
  139.9994  134.9484  157.0037 H   0  0  0  0  0  0  0  0  0  0  0  0  # atno 11005 bound_to 11000
  145.6935  139.1644  143.2633 LP  0  0  0  0  0  0  0  0  0  0  0  0  # atno 17320 bound_to 7965
  146.1466  140.6984  142.9342 LP  0  0  0  0  0  0  0  0  0  0  0  0  # atno 17321 bound_to 7965
  139.4810  144.4969  151.9112 LP  0  0  0  0  0  0  0  0  0  0  0  0  # atno 17342 bound_to 10162
  140.4054  144.2439  150.5891 LP  0  0  0  0  0  0  0  0  0  0  0  0  # atno 17343 bound_to 10162
  156.3413  130.3816  149.7407 LP  0  0  0  0  0  0  0  0  0  0  0  0  # atno 17370 bound_to 10713
  156.4915  130.8087  151.3096 LP  0  0  0  0  0  0  0  0  0  0  0  0  # atno 17371 bound_to 10713
  140.4757  134.1341  155.7209 LP  0  0  0  0  0  0  0  0  0  0  0  0  # atno 17394 bound_to 11000
  141.1630  133.8757  157.1795 LP  0  0  0  0  0  0  0  0  0  0  0  0  # atno 17395 bound_to 11000

$$$$
