AV-unprocessed.smi:274|AV-procd|sdf|2061|dock7
  -GOLD-   2262021303D 1   1.00000     0.00000
 Structure written by MMmdl.
 50 53  0  0  0  0  0  0  0  0  1 V2000
  149.2605  141.4233  155.7992 C   0  0  0  0  0  0  0  0  0  0  0  0
  149.1852  140.6741  154.4529 C   0  0  0  0  0  0  0  0  0  0  0  0
  147.8558  141.0319  153.7581 C   0  0  0  0  0  0  0  0  0  0  0  0
  149.4038  139.1378  154.6250 C   0  0  1  0  0  0  0  0  0  0  0  0
  150.7369  138.7977  155.3393 C   0  0  0  0  0  0  0  0  0  0  0  0
  151.7993  138.8795  154.7264 O   0  0  0  0  0  0  0  0  0  0  0  0
  150.7088  138.3835  156.6193 N   0  0  0  0  0  0  0  0  0  0  0  0
  149.5099  138.1602  157.4277 C   0  0  0  0  0  0  0  0  0  0  0  0
  148.2309  138.7301  156.7896 C   0  0  0  0  0  0  0  0  0  0  0  0
  148.2594  138.5489  155.3405 N   0  0  0  0  0  0  0  0  0  0  0  0
  147.7466  137.3693  154.9060 C   0  0  0  0  0  0  0  0  0  0  0  0
  148.2959  136.1931  155.3104 N   0  0  0  0  0  0  0  0  0  0  0  0
  147.7810  135.0317  154.8962 C   0  0  0  0  0  0  0  0  0  0  0  0
  146.7382  134.8214  154.0905 N   0  0  0  0  0  0  0  0  0  0  0  0
  146.1866  135.9982  153.6773 C   0  0  0  0  0  0  0  0  0  0  0  0
  146.6222  137.3044  154.0376 C   0  0  0  0  0  0  0  0  0  0  0  0
  145.8190  138.2587  153.4248 N   0  0  0  0  0  0  0  0  0  0  0  0
  144.9554  137.5565  152.7436 C   0  0  0  0  0  0  0  0  0  0  0  0
  145.1078  136.1908  152.8319 N   0  0  0  0  0  0  0  0  0  0  0  0
  144.2959  135.1778  152.1758 C   0  0  0  0  0  0  0  0  0  0  0  0
  145.0667  134.3676  151.1072 C   0  0  2  0  0  0  0  0  0  0  0  0
  145.6906  135.2657  150.2058 O   0  0  0  0  0  0  0  0  0  0  0  0
  144.1955  133.4048  150.3049 C   0  0  0  0  0  0  0  0  0  0  0  0
  145.1481  132.2565  150.0024 C   0  0  0  0  0  0  0  0  0  0  0  0
  145.8782  132.1373  151.2111 O   0  0  0  0  0  0  0  0  0  0  0  0
  146.1482  133.4454  151.7051 C   0  0  0  0  0  0  0  0  0  0  0  0
  148.5180  141.0453  156.5026 H   0  0  0  0  0  0  0  0  0  0  0  0
  149.0773  142.4902  155.6671 H   0  0  0  0  0  0  0  0  0  0  0  0
  150.2410  141.3295  156.2667 H   0  0  0  0  0  0  0  0  0  0  0  0
  149.9825  141.0701  153.8231 H   0  0  0  0  0  0  0  0  0  0  0  0
  147.0055  140.5953  154.2830 H   0  0  0  0  0  0  0  0  0  0  0  0
  147.8267  140.6888  152.7247 H   0  0  0  0  0  0  0  0  0  0  0  0
  147.7060  142.1115  153.7288 H   0  0  0  0  0  0  0  0  0  0  0  0
  149.4617  138.7162  153.6198 H   0  0  0  0  0  0  0  0  0  0  0  0
  151.5931  138.1690  157.0567 H   0  0  0  0  0  0  0  0  0  0  0  0
  149.4024  137.0815  157.5475 H   0  0  0  0  0  0  0  0  0  0  0  0
  149.6561  138.5729  158.4259 H   0  0  0  0  0  0  0  0  0  0  0  0
  147.3511  138.2788  157.2492 H   0  0  0  0  0  0  0  0  0  0  0  0
  148.1591  139.7966  157.0022 H   0  0  0  0  0  0  0  0  0  0  0  0
  148.2746  134.1441  155.2635 H   0  0  0  0  0  0  0  0  0  0  0  0
  144.1814  138.0199  152.1494 H   0  0  0  0  0  0  0  0  0  0  0  0
  143.8922  134.5101  152.9384 H   0  0  0  0  0  0  0  0  0  0  0  0
  143.4379  135.6751  151.7213 H   0  0  0  0  0  0  0  0  0  0  0  0
  145.9161  134.7930  149.4193 H   0  0  0  0  0  0  0  0  0  0  0  0
  143.3808  133.0273  150.9242 H   0  0  0  0  0  0  0  0  0  0  0  0
  143.7551  133.8476  149.4106 H   0  0  0  0  0  0  0  0  0  0  0  0
  144.6299  131.3312  149.7505 H   0  0  0  0  0  0  0  0  0  0  0  0
  145.8248  132.5105  149.1850 H   0  0  0  0  0  0  0  0  0  0  0  0
  147.1548  133.7463  151.4095 H   0  0  0  0  0  0  0  0  0  0  0  0
  146.1217  133.4263  152.7950 H   0  0  0  0  0  0  0  0  0  0  0  0
  1  2  1  0  0  0  0
  1 27  1  0  0  0  0
  1 28  1  0  0  0  0
  1 29  1  0  0  0  0
  2  3  1  0  0  0  0
  2  4  1  0  0  0  0
  2 30  1  0  0  0  0
  3 31  1  0  0  0  0
  3 32  1  0  0  0  0
  3 33  1  0  0  0  0
  4 10  1  0  0  0  0
  4  5  1  0  0  0  0
  4 34  1  0  0  0  0
  5  6  2  0  0  0  0
  5  7  1  0  0  0  0
  7  8  1  0  0  0  0
  7 35  1  0  0  0  0
  8  9  1  0  0  0  0
  8 36  1  0  0  0  0
  8 37  1  0  0  0  0
  9 10  1  0  0  0  0
  9 38  1  0  0  0  0
  9 39  1  0  0  0  0
 10 11  1  0  0  0  0
 11 16  1  0  0  0  0
 11 12  2  0  0  0  0
 12 13  1  0  0  0  0
 13 14  2  0  0  0  0
 13 40  1  0  0  0  0
 14 15  1  0  0  0  0
 15 19  1  0  0  0  0
 15 16  2  0  0  0  0
 16 17  1  0  0  0  0
 17 18  2  0  0  0  0
 18 19  1  0  0  0  0
 18 41  1  0  0  0  0
 19 20  1  0  0  0  0
 20 21  1  0  0  0  0
 20 42  1  0  0  0  0
 20 43  1  0  0  0  0
 21 26  1  0  0  0  0
 21 22  1  0  0  0  0
 21 23  1  0  0  0  0
 22 44  1  0  0  0  0
 23 24  1  0  0  0  0
 23 45  1  0  0  0  0
 23 46  1  0  0  0  0
 24 25  1  0  0  0  0
 24 47  1  0  0  0  0
 24 48  1  0  0  0  0
 25 26  1  0  0  0  0
 26 49  1  0  0  0  0
 26 50  1  0  0  0  0
M  END
> <s_m_source_file>
AV-unprocessed.smi

> <i_m_source_file_index>
274

> <i_lp_mmshare_version>
43012

> <i_f3d_flags>
0

> <s_epik_input>
W0NIM11bQ0hdKFtDSDNdKVtDQEBIXTFDKD1PKVtOSF1bQ0gyXVtDSDJdTjFjKG5bY0hdbjIpYyhjMjMpbltjSF1uM1tDSDJdW0NAQF00KFtPSF0pW0NIMl1bQ0gyXU9bQ0gyXTQ=

> <s_epik_cmdline>
J2VwaWtfcHl0aG9uJywgJy1waCcsICc3LjAnLCAnLXRuJywgJzgnLCAnLW1hJywgJzIwMCcsICctbWV0YWxfYmluZGluZycsICctaW1hZScsICc8aW5maWxlLm1hZT4nLCAnLW9tYWUnLCAnPG91dGZpbGUubWFlPic=

> <r_lp_tautomer_probability>
1

> <r_epik_Ionization_Penalty>
0.000690079

> <r_epik_Ionization_Penalty_Charging>
0

> <r_epik_Ionization_Penalty_Neutral>
0.000690079

> <r_epik_State_Penalty>
0.000321372

> <r_epik_Charging_Adjusted_Penalty>
0.000321372

> <i_epik_Tot_Q>
0

> <i_epik_Tot_abs_Q>
0

> <r_epik_Metal_State_Penalty>
-0

> <b_epik_Metal_Only>
0

> <s_lp_Force_Field>
OPLS_2005

> <r_lp_Energy>
41.7848

> <b_lp_Chiralities_Consistent>
1

> <s_lp_Variant>
AV-unprocessed.smi:274-4

> <Gold.Version>
5.8.1

> <Gold.Id.Protein>
6NUR|6NUR_protein|mol2

> <Gold.PLP.Fitness>
39.4146

> <Gold.PLP.PLP>
-30.6591

> <Gold.PLP.part.hbond>
-2.0000

> <Gold.PLP.part.metal>
0.0000

> <Gold.PLP.part.buried>
-3.7843

> <Gold.PLP.part.nonpolar>
-25.7752

> <Gold.PLP.part.repulsive>
0.6424

> <Gold.PLP.ligand.clash>
0.0000

> <Gold.PLP.ligand.torsion>
1.4301

> <Gold.PLP.Chemscore.Hbond>
1.9760

> <Gold.PLP.Chemscore.CHOScore>
1.7868

> <Gold.PLP.Chemscore.Metal>
0.0000

> <Gold.Chemscore.Hbonds>
donor molecule, donor type, donor heavy atom, donor atom, acceptor molecule, acceptor atom, score
      L1  H    22    44       P1  7921  0.96
      P1  H  7989  7998       L1     6  0.26
      L1  C    18    41       P1 10171  1.00
      L1  C    18    41       P1 10175  0.81

> <Gold.PLP.Chemscore.Internal.Correction>
0.3273

> <Gold.Rescore>
     Score         DG    S(hbond)    S(metal)    S(lipo)     H(rot)  DE(clash)    DE(int)     intcor
     12.37     -14.46       1.97        0.00      67.39       2.14       0.28       1.81       ----

> <Gold.Chemscore.Fitness>
12.3718

> <Gold.Chemscore.DG>
-14.4635

> <Gold.Chemscore.ZeroCoef>
-5.4800

> <Gold.Chemscore.Hbond>
1.9716

> <Gold.Chemscore.Metal>
0.0000

> <Gold.Chemscore.Lipo>
67.3904

> <Gold.Chemscore.Internal_Hbond>
0.0000

> <Gold.Chemscore.DEClash>
0.2794

> <Gold.Chemscore.DEInternal>
1.8123

> <Gold.Chemscore.Rot>
2.1431

> <Gold.Chemscore.Internal.Correction>
   9.000000E+99

> <Gold.Chemscore.Hbonds>
donor molecule, donor type, donor heavy atom, donor atom, acceptor molecule, acceptor atom, score
      L1  H    22    44       P1  7921  0.76
      P1  H  7989  7998       L1     6  0.13

> <Gold.Chemscore.Hbond.Weighted>
-6.5851

> <Gold.Chemscore.Metal.Weighted>
-0.0000

> <Gold.Chemscore.Lipo.Weighted>
-7.8847

> <Gold.Chemscore.Internal_Hbond.Weighted>
0.0000

> <Gold.Chemscore.DEClash.Weighted>
0.2794

> <Gold.Chemscore.DEInternal.Weighted>
1.8123

> <Gold.Chemscore.Rot.Weighted>
5.4863

> <Gold.Chemscore.Internal.Correction.Weighted>
   9.000000E+99

> <Gold.Protein.RotatedTorsions>
[ 6907 6896 6895 6894 ] final   24.12 input  -60.11 | X-H torsion
[ 7974 7965 7964 7962 ] final   98.60 input  175.53 | X-H torsion
[ 8008 7997 7996 7995 ] final -135.74 input   59.86 | X-H torsion
[ 10167 10162 10161 10158 ] final   58.68 input  -65.29 | X-H torsion
[ 10718 10713 10712 10709 ] final  137.42 input   66.30 | X-H torsion
[ 10763 10752 10751 10750 ] final  162.86 input  -60.55 | X-H torsion
[ 11005 11000 10999 10996 ] final -175.85 input  -57.11 | X-H torsion

> <Gold.Protein.ActiveResidues>
 VAL166  LYS551  ARG553  GLY616  TRP617  ASP618  TYR619  PRO620  LYS621  CYS622 
 ASP623  PHE694  ASN695  SER759  ASP760  ASP761  ALA762  ILE779  LEU786  VAL792 
 PHE793  MET794  SER795  GLU796  ALA797  LYS798  CYS799  TRP800  GLU811  SER814 

> <Gold.Protein.RotatedAtoms>
  151.9528  135.0161  160.0542 H   0  0  0  0  0  0  0  0  0  0  0  0  # atno 6907 bound_to 6896
  152.1938  133.4787  159.5030 H   0  0  0  0  0  0  0  0  0  0  0  0  # atno 6908 bound_to 6896
  150.6940  134.1595  159.4214 H   0  0  0  0  0  0  0  0  0  0  0  0  # atno 6909 bound_to 6896
  145.4101  139.2335  143.3253 H   0  0  0  0  0  0  0  0  0  0  0  0  # atno 7974 bound_to 7965
  155.3837  140.0495  157.3043 H   0  0  0  0  0  0  0  0  0  0  0  0  # atno 8008 bound_to 7997
  154.5070  140.2178  155.9194 H   0  0  0  0  0  0  0  0  0  0  0  0  # atno 8009 bound_to 7997
  156.1537  140.3130  155.8696 H   0  0  0  0  0  0  0  0  0  0  0  0  # atno 8010 bound_to 7997
  140.1846  144.4147  150.6599 H   0  0  0  0  0  0  0  0  0  0  0  0  # atno 10167 bound_to 10162
  157.4363  131.1053  151.0194 H   0  0  0  0  0  0  0  0  0  0  0  0  # atno 10718 bound_to 10713
  154.2849  135.2762  155.2681 H   0  0  0  0  0  0  0  0  0  0  0  0  # atno 10763 bound_to 10752
  154.5185  135.5763  153.6665 H   0  0  0  0  0  0  0  0  0  0  0  0  # atno 10764 bound_to 10752
  152.9923  135.6198  154.3010 H   0  0  0  0  0  0  0  0  0  0  0  0  # atno 10765 bound_to 10752
  140.4586  134.6276  157.4833 H   0  0  0  0  0  0  0  0  0  0  0  0  # atno 11005 bound_to 11000
  146.2709  140.4811  142.8815 LP  0  0  0  0  0  0  0  0  0  0  0  0  # atno 17320 bound_to 7965
  144.8315  140.6714  143.6288 LP  0  0  0  0  0  0  0  0  0  0  0  0  # atno 17321 bound_to 7965
  140.6496  143.2222  151.6106 LP  0  0  0  0  0  0  0  0  0  0  0  0  # atno 17342 bound_to 10162
  139.5281  144.2997  152.1084 LP  0  0  0  0  0  0  0  0  0  0  0  0  # atno 17343 bound_to 10162
  157.1073  130.6007  149.5474 LP  0  0  0  0  0  0  0  0  0  0  0  0  # atno 17370 bound_to 10713
  155.9931  130.4992  150.7369 LP  0  0  0  0  0  0  0  0  0  0  0  0  # atno 17371 bound_to 10713
  139.9960  134.6911  155.9609 LP  0  0  0  0  0  0  0  0  0  0  0  0  # atno 17394 bound_to 11000
  141.1631  133.6538  156.4388 LP  0  0  0  0  0  0  0  0  0  0  0  0  # atno 17395 bound_to 11000

$$$$
