AV-unprocessed.smi:2032|AV-procd|sdf|8258|dock3
  -GOLD-   2272010533D 1   1.00000     0.00000
 Structure written by MMmdl.
 42 43  0  0  0  0  0  0  0  0  3 V2000
  149.5106  133.9082  154.0088 C   0  0  0  0  0  0  0  0  0  0  0  0
  150.0814  134.6309  155.2424 C   0  0  1  0  0  0  0  0  0  0  0  0
  150.7642  135.9728  154.9080 C   0  0  0  0  0  0  0  0  0  0  0  0
  149.7675  137.0324  154.5929 N   0  3  2  0  0  0  0  0  0  0  0  0
  150.3270  138.3668  154.2028 C   0  0  1  0  0  0  0  0  0  0  0  0
  149.2539  139.4692  154.0309 C   0  0  0  0  0  0  0  0  0  0  0  0
  151.3924  138.8137  155.2376 C   0  0  0  0  0  0  0  0  0  0  0  0
  150.8216  139.5608  156.3540 N   0  0  0  0  0  0  0  0  0  0  0  0
  151.5145  140.0949  157.3695 C   0  0  0  0  0  0  0  0  0  0  0  0
  152.7389  139.9538  157.4187 O   0  0  0  0  0  0  0  0  0  0  0  0
  150.7467  140.7638  158.2582 N   0  5  0  0  0  0  0  0  0  0  0  0
  150.9579  142.0718  158.4776 C   0  0  0  0  0  0  0  0  0  0  0  0
  150.0155  143.0035  158.2944 N   0  0  0  0  0  0  0  0  0  0  0  0
  150.4532  144.2988  158.5760 C   0  0  0  0  0  0  0  0  0  0  0  0
  151.7623  144.3555  158.9748 C   0  0  0  0  0  0  0  0  0  0  0  0
  152.4887  142.7741  159.0087 S   0  0  0  0  0  0  0  0  0  0  0  0
  148.7903  137.1351  155.7084 C   0  0  0  0  0  0  0  0  0  0  0  0
  148.1089  135.7814  155.9702 C   0  0  2  0  0  0  0  0  0  0  0  0
  147.1460  135.8437  157.1612 C   0  0  0  0  0  0  0  0  0  0  0  0
  149.1026  134.8059  156.2641 O   0  0  0  0  0  0  0  0  0  0  0  0
  150.3059  133.6557  153.3070 H   0  0  0  0  0  0  0  0  0  0  0  0
  148.7862  134.5177  153.4693 H   0  0  0  0  0  0  0  0  0  0  0  0
  149.0191  132.9785  154.2958 H   0  0  0  0  0  0  0  0  0  0  0  0
  150.8400  133.9720  155.6660 H   0  0  0  0  0  0  0  0  0  0  0  0
  151.3726  136.2979  155.7535 H   0  0  0  0  0  0  0  0  0  0  0  0
  151.4402  135.8029  154.0705 H   0  0  0  0  0  0  0  0  0  0  0  0
  150.8058  138.2476  153.2296 H   0  0  0  0  0  0  0  0  0  0  0  0
  149.7012  140.4273  153.7664 H   0  0  0  0  0  0  0  0  0  0  0  0
  148.6839  139.6192  154.9483 H   0  0  0  0  0  0  0  0  0  0  0  0
  148.5563  139.2387  153.2255 H   0  0  0  0  0  0  0  0  0  0  0  0
  151.8961  137.9376  155.6471 H   0  0  0  0  0  0  0  0  0  0  0  0
  152.1742  139.4230  154.7853 H   0  0  0  0  0  0  0  0  0  0  0  0
  149.8209  139.6948  156.3543 H   0  0  0  0  0  0  0  0  0  0  0  0
  149.7645  145.1228  158.4645 H   0  0  0  0  0  0  0  0  0  0  0  0
  152.3408  145.2249  159.2479 H   0  0  0  0  0  0  0  0  0  0  0  0
  149.3043  137.4761  156.6091 H   0  0  0  0  0  0  0  0  0  0  0  0
  148.0239  137.8767  155.4891 H   0  0  0  0  0  0  0  0  0  0  0  0
  147.5388  135.4801  155.0913 H   0  0  0  0  0  0  0  0  0  0  0  0
  146.3569  136.5764  156.9905 H   0  0  0  0  0  0  0  0  0  0  0  0
  147.6678  136.1214  158.0775 H   0  0  0  0  0  0  0  0  0  0  0  0
  146.6702  134.8771  157.3290 H   0  0  0  0  0  0  0  0  0  0  0  0
  149.2598  136.6991  153.7859 H   0  0  0  0  0  0  0  0  0  0  0  0
  1  2  1  0  0  0  0
  1 21  1  0  0  0  0
  1 22  1  0  0  0  0
  1 23  1  0  0  0  0
  2 20  1  0  0  0  0
  2  3  1  0  0  0  0
  2 24  1  0  0  0  0
  3  4  1  0  0  0  0
  3 25  1  0  0  0  0
  3 26  1  0  0  0  0
  4  5  1  0  0  0  0
  4 17  1  0  0  0  0
  4 42  1  0  0  0  0
  5  6  1  0  0  0  0
  5  7  1  0  0  0  0
  5 27  1  0  0  0  0
  6 28  1  0  0  0  0
  6 29  1  0  0  0  0
  6 30  1  0  0  0  0
  7  8  1  0  0  0  0
  7 31  1  0  0  0  0
  7 32  1  0  0  0  0
  8  9  1  0  0  0  0
  8 33  1  0  0  0  0
  9 10  2  0  0  0  0
  9 11  1  0  0  0  0
 11 12  1  0  0  0  0
 12 16  1  0  0  0  0
 12 13  2  0  0  0  0
 13 14  1  0  0  0  0
 14 15  2  0  0  0  0
 14 34  1  0  0  0  0
 15 16  1  0  0  0  0
 15 35  1  0  0  0  0
 17 18  1  0  0  0  0
 17 36  1  0  0  0  0
 17 37  1  0  0  0  0
 18 19  1  0  0  0  0
 18 20  1  0  0  0  0
 18 38  1  0  0  0  0
 19 39  1  0  0  0  0
 19 40  1  0  0  0  0
 19 41  1  0  0  0  0
M  CHG  1   4   1
M  CHG  1  11  -1
M  END
> <s_m_source_file>
AV-unprocessed.smi

> <i_m_source_file_index>
2032

> <i_lp_mmshare_version>
43012

> <i_f3d_flags>
0

> <s_epik_input>
W0NIM11bQ0BASF0xW0NIMl1OKFtDSDJdW0NASF0oTzEpW0NIM10pW0NASF0oW0NIM10pW0NIMl1bTkhdQyg9TylbTkhdYzJuW2NIXVtjSF1zMg==

> <s_epik_cmdline>
J2VwaWtfcHl0aG9uJywgJy1waCcsICc3LjAnLCAnLXRuJywgJzgnLCAnLW1hJywgJzIwMCcsICctbWV0YWxfYmluZGluZycsICctaW1hZScsICc8aW5maWxlLm1hZT4nLCAnLW9tYWUnLCAnPG91dGZpbGUubWFlPic=

> <r_lp_tautomer_probability>
0.999

> <r_epik_Ionization_Penalty>
6.71699

> <r_epik_Ionization_Penalty_Charging>
5.88592

> <r_epik_Ionization_Penalty_Neutral>
0.831074

> <r_epik_State_Penalty>
6.08365

> <r_epik_Charging_Adjusted_Penalty>
11.9696

> <i_epik_Tot_Q>
0

> <i_epik_Tot_abs_Q>
2

> <r_epik_Metal_State_Penalty>
2.0947

> <b_epik_Metal_Only>
1

> <s_lp_Force_Field>
OPLS_2005

> <r_lp_Energy>
13.797

> <b_lp_Chiralities_Consistent>
1

> <s_lp_Variant>
AV-unprocessed.smi:2032-28

> <Gold.Version>
5.8.1

> <Gold.Id.Protein>
6NUR|6NUR_protein|mol2

> <Gold.PLP.Fitness>
39.2971

> <Gold.PLP.PLP>
-30.3051

> <Gold.PLP.part.hbond>
-2.0000

> <Gold.PLP.part.metal>
0.0000

> <Gold.PLP.part.buried>
-1.3462

> <Gold.PLP.part.nonpolar>
-27.3329

> <Gold.PLP.part.repulsive>
0.2676

> <Gold.PLP.ligand.clash>
0.0000

> <Gold.PLP.ligand.torsion>
1.5372

> <Gold.PLP.Chemscore.Hbond>
3.0000

> <Gold.PLP.Chemscore.CHOScore>
0.9993

> <Gold.PLP.Chemscore.Metal>
0.0000

> <Gold.Chemscore.Hbonds>
donor molecule, donor type, donor heavy atom, donor atom, acceptor molecule, acceptor atom, score
      L1  H     4    42       P1  7948  2.00
      P1  H  7997  8008       L1    10  1.00
      L1  C    14    34       P1  8029  1.00

> <Gold.PLP.Chemscore.Internal.Correction>
0.0684

> <Gold.Rescore>
     Score         DG    S(hbond)    S(metal)    S(lipo)     H(rot)  DE(clash)    DE(int)     intcor
     14.50     -16.83       1.91        0.00      77.17       1.58       0.91       1.43       ----

> <Gold.Chemscore.Fitness>
14.4973

> <Gold.Chemscore.DG>
-16.8323

> <Gold.Chemscore.ZeroCoef>
-5.4800

> <Gold.Chemscore.Hbond>
1.9059

> <Gold.Chemscore.Metal>
0.0000

> <Gold.Chemscore.Lipo>
77.1723

> <Gold.Chemscore.Internal_Hbond>
0.0000

> <Gold.Chemscore.DEClash>
0.9062

> <Gold.Chemscore.DEInternal>
1.4289

> <Gold.Chemscore.Rot>
1.5791

> <Gold.Chemscore.Internal.Correction>
   9.000000E+99

> <Gold.Chemscore.Hbonds>
donor molecule, donor type, donor heavy atom, donor atom, acceptor molecule, acceptor atom, score
      L1  H     4    42       P1  7948  0.93
      P1  H  7997  8008       L1    10  0.96

> <Gold.Chemscore.Hbond.Weighted>
-6.3657

> <Gold.Chemscore.Metal.Weighted>
-0.0000

> <Gold.Chemscore.Lipo.Weighted>
-9.0292

> <Gold.Chemscore.Internal_Hbond.Weighted>
0.0000

> <Gold.Chemscore.DEClash.Weighted>
0.9062

> <Gold.Chemscore.DEInternal.Weighted>
1.4289

> <Gold.Chemscore.Rot.Weighted>
4.0425

> <Gold.Chemscore.Internal.Correction.Weighted>
   9.000000E+99

> <Gold.Protein.RotatedTorsions>
[ 6907 6896 6895 6894 ] final -104.18 input  -60.11 | X-H torsion
[ 7974 7965 7964 7962 ] final  -70.02 input  175.53 | X-H torsion
[ 8008 7997 7996 7995 ] final  -78.12 input   59.86 | X-H torsion
[ 10167 10162 10161 10158 ] final  175.67 input  -65.29 | X-H torsion
[ 10718 10713 10712 10709 ] final   81.33 input   66.30 | X-H torsion
[ 10763 10752 10751 10750 ] final   53.14 input  -60.55 | X-H torsion
[ 11005 11000 10999 10996 ] final  168.79 input  -57.11 | X-H torsion

> <Gold.Protein.ActiveResidues>
 VAL166  LYS551  ARG553  GLY616  TRP617  ASP618  TYR619  PRO620  LYS621  CYS622 
 ASP623  PHE694  ASN695  SER759  ASP760  ASP761  ALA762  ILE779  LEU786  VAL792 
 PHE793  MET794  SER795  GLU796  ALA797  LYS798  CYS799  TRP800  GLU811  SER814 

> <Gold.Protein.RotatedAtoms>
  150.7275  134.0316  159.3735 H   0  0  0  0  0  0  0  0  0  0  0  0  # atno 6907 bound_to 6896
  151.8286  135.0626  160.0443 H   0  0  0  0  0  0  0  0  0  0  0  0  # atno 6908 bound_to 6896
  152.2950  133.5563  159.5618 H   0  0  0  0  0  0  0  0  0  0  0  0  # atno 6909 bound_to 6896
  145.6963  140.9134  143.0754 H   0  0  0  0  0  0  0  0  0  0  0  0  # atno 7974 bound_to 7965
  154.5659  140.0699  156.8891 H   0  0  0  0  0  0  0  0  0  0  0  0  # atno 8008 bound_to 7997
  155.2724  140.3366  155.4246 H   0  0  0  0  0  0  0  0  0  0  0  0  # atno 8009 bound_to 7997
  156.2080  140.1748  156.7743 H   0  0  0  0  0  0  0  0  0  0  0  0  # atno 8010 bound_to 7997
  139.5185  144.3005  152.0383 H   0  0  0  0  0  0  0  0  0  0  0  0  # atno 10167 bound_to 10162
  157.6830  130.9999  150.2211 H   0  0  0  0  0  0  0  0  0  0  0  0  # atno 10718 bound_to 10713
  152.9793  135.5789  154.4692 H   0  0  0  0  0  0  0  0  0  0  0  0  # atno 10763 bound_to 10752
  154.4257  135.2772  155.1948 H   0  0  0  0  0  0  0  0  0  0  0  0  # atno 10764 bound_to 10752
  154.3677  135.6174  153.5777 H   0  0  0  0  0  0  0  0  0  0  0  0  # atno 10765 bound_to 10752
  140.2909  134.7674  157.3837 H   0  0  0  0  0  0  0  0  0  0  0  0  # atno 11005 bound_to 11000
  144.6981  139.8889  143.7452 LP  0  0  0  0  0  0  0  0  0  0  0  0  # atno 17320 bound_to 7965
  146.0837  139.3825  143.0448 LP  0  0  0  0  0  0  0  0  0  0  0  0  # atno 17321 bound_to 7965
  140.2453  144.4226  150.6243 LP  0  0  0  0  0  0  0  0  0  0  0  0  # atno 17342 bound_to 10162
  140.6262  143.2181  151.6591 LP  0  0  0  0  0  0  0  0  0  0  0  0  # atno 17343 bound_to 10162
  156.2863  130.3740  149.7886 LP  0  0  0  0  0  0  0  0  0  0  0  0  # atno 17370 bound_to 10713
  156.5559  130.8362  151.3314 LP  0  0  0  0  0  0  0  0  0  0  0  0  # atno 17371 bound_to 10713
  140.1196  134.5237  155.8195 LP  0  0  0  0  0  0  0  0  0  0  0  0  # atno 17394 bound_to 11000
  141.2146  133.6752  156.6841 LP  0  0  0  0  0  0  0  0  0  0  0  0  # atno 17395 bound_to 11000

$$$$
