AV-unprocessed.smi:591|AV-procd|sdf|3009|dock6
  -GOLD-   2262023513D 1   1.00000     0.00000
 Structure written by MMmdl.
 42 43  0  0  0  0  0  0  0  0  1 V2000
  149.7598  141.8489  158.7101 O   0  0  0  0  0  0  0  0  0  0  0  0
  150.6992  142.0248  157.9328 C   0  0  0  0  0  0  0  0  0  0  0  0
  151.8699  142.9461  158.3052 C   0  0  0  0  0  0  0  0  0  0  0  0
  152.5832  142.5205  159.5213 N   0  0  0  0  0  0  0  0  0  0  0  0
  153.6151  141.5745  159.3618 C   0  0  0  0  0  0  0  0  0  0  0  0
  154.3383  141.0977  160.3932 C   0  0  0  0  0  0  0  0  0  0  0  0
  155.4869  140.1234  160.1822 C   0  0  0  0  0  0  0  0  0  0  0  0
  156.4243  140.6496  159.3935 F   0  0  0  0  0  0  0  0  0  0  0  0
  156.0487  139.8262  161.3534 F   0  0  0  0  0  0  0  0  0  0  0  0
  155.0605  138.9883  159.6267 F   0  0  0  0  0  0  0  0  0  0  0  0
  154.0253  141.6345  161.7030 C   0  0  0  0  0  0  0  0  0  0  0  0
  153.0505  142.5493  161.8712 C   0  0  0  0  0  0  0  0  0  0  0  0
  152.2603  143.0444  160.7418 C   0  0  0  0  0  0  0  0  0  0  0  0
  151.3653  143.8782  160.8834 O   0  0  0  0  0  0  0  0  0  0  0  0
  150.7630  141.4544  156.7215 N   0  0  0  0  0  0  0  0  0  0  0  0
  149.7530  140.5545  156.1827 C   0  0  0  0  0  0  0  0  0  0  0  0
  149.0478  141.1944  154.9777 C   0  0  0  0  0  0  0  0  0  0  0  0
  147.6015  141.5609  155.2675 C   0  0  0  0  0  0  0  0  0  0  0  0
  146.8485  142.2452  154.3839 C   0  0  0  0  0  0  0  0  0  0  0  0
  145.3963  142.6252  154.6137 C   0  0  0  0  0  0  0  0  0  0  0  0
  144.7709  141.8648  155.7952 C   0  0  0  0  0  0  0  0  0  0  0  0
  145.7317  141.8109  156.9895 C   0  0  0  0  0  0  0  0  0  0  0  0
  147.0505  141.1105  156.6162 C   0  0  0  0  0  0  0  0  0  0  0  0
  152.5641  143.0076  157.4647 H   0  0  0  0  0  0  0  0  0  0  0  0
  151.4803  143.9579  158.4257 H   0  0  0  0  0  0  0  0  0  0  0  0
  153.7888  141.2680  158.3406 H   0  0  0  0  0  0  0  0  0  0  0  0
  154.5803  141.2955  162.5654 H   0  0  0  0  0  0  0  0  0  0  0  0
  152.8443  142.9266  162.8624 H   0  0  0  0  0  0  0  0  0  0  0  0
  151.5635  141.6520  156.1384 H   0  0  0  0  0  0  0  0  0  0  0  0
  150.2268  139.6176  155.8847 H   0  0  0  0  0  0  0  0  0  0  0  0
  149.0321  140.3184  156.9666 H   0  0  0  0  0  0  0  0  0  0  0  0
  149.5790  142.0941  154.6649 H   0  0  0  0  0  0  0  0  0  0  0  0
  149.0820  140.5072  154.1309 H   0  0  0  0  0  0  0  0  0  0  0  0
  147.2782  142.5659  153.4459 H   0  0  0  0  0  0  0  0  0  0  0  0
  145.3538  143.6999  154.7924 H   0  0  0  0  0  0  0  0  0  0  0  0
  144.8256  142.4316  153.7051 H   0  0  0  0  0  0  0  0  0  0  0  0
  143.8296  142.3331  156.0840 H   0  0  0  0  0  0  0  0  0  0  0  0
  144.5278  140.8472  155.4863 H   0  0  0  0  0  0  0  0  0  0  0  0
  145.9415  142.8272  157.3260 H   0  0  0  0  0  0  0  0  0  0  0  0
  145.2635  141.2982  157.8303 H   0  0  0  0  0  0  0  0  0  0  0  0
  146.8942  140.0321  156.5776 H   0  0  0  0  0  0  0  0  0  0  0  0
  147.7920  141.2945  157.3941 H   0  0  0  0  0  0  0  0  0  0  0  0
  1  2  2  0  0  0  0
  2  3  1  0  0  0  0
  2 15  1  0  0  0  0
  3  4  1  0  0  0  0
  3 24  1  0  0  0  0
  3 25  1  0  0  0  0
  4 13  1  0  0  0  0
  4  5  1  0  0  0  0
  5  6  2  0  0  0  0
  5 26  1  0  0  0  0
  6  7  1  0  0  0  0
  6 11  1  0  0  0  0
  7  8  1  0  0  0  0
  7  9  1  0  0  0  0
  7 10  1  0  0  0  0
 11 12  2  0  0  0  0
 11 27  1  0  0  0  0
 12 13  1  0  0  0  0
 12 28  1  0  0  0  0
 13 14  2  0  0  0  0
 15 16  1  0  0  0  0
 15 29  1  0  0  0  0
 16 17  1  0  0  0  0
 16 30  1  0  0  0  0
 16 31  1  0  0  0  0
 17 18  1  0  0  0  0
 17 32  1  0  0  0  0
 17 33  1  0  0  0  0
 18 23  1  0  0  0  0
 18 19  2  0  0  0  0
 19 20  1  0  0  0  0
 19 34  1  0  0  0  0
 20 21  1  0  0  0  0
 20 35  1  0  0  0  0
 20 36  1  0  0  0  0
 21 22  1  0  0  0  0
 21 37  1  0  0  0  0
 21 38  1  0  0  0  0
 22 23  1  0  0  0  0
 22 39  1  0  0  0  0
 22 40  1  0  0  0  0
 23 41  1  0  0  0  0
 23 42  1  0  0  0  0
M  END
> <s_m_source_file>
AV-unprocessed.smi

> <i_m_source_file_index>
591

> <i_lp_mmshare_version>
43012

> <i_f3d_flags>
0

> <s_epik_input>
Tz1jMVtjSF1bY0hdYyhDKEYpKEYpRilbY0hdbjFbQ0gyXUMoPU8pW05IXVtDSDJdW0NIMl1DMj1bQ0hdW0NIMl1bQ0gyXVtDSDJdW0NIMl0y

> <s_epik_cmdline>
J2VwaWtfcHl0aG9uJywgJy1waCcsICc3LjAnLCAnLXRuJywgJzgnLCAnLW1hJywgJzIwMCcsICctbWV0YWxfYmluZGluZycsICctaW1hZScsICc8aW5maWxlLm1hZT4nLCAnLW9tYWUnLCAnPG91dGZpbGUubWFlPic=

> <r_lp_tautomer_probability>
1

> <r_epik_Ionization_Penalty>
3.65086e-08

> <r_epik_Ionization_Penalty_Charging>
1.84051e-08

> <r_epik_Ionization_Penalty_Neutral>
1.81035e-08

> <r_epik_State_Penalty>
-0

> <r_epik_Charging_Adjusted_Penalty>
1.84051e-08

> <i_epik_Tot_Q>
0

> <i_epik_Tot_abs_Q>
0

> <r_epik_Metal_State_Penalty>
-0

> <b_epik_Metal_Only>
0

> <s_lp_Force_Field>
OPLS_2005

> <r_lp_Energy>
19.2896

> <b_lp_Chiralities_Consistent>
1

> <s_lp_Variant>
AV-unprocessed.smi:591-1

> <Gold.Version>
5.8.1

> <Gold.Id.Protein>
6NUR|6NUR_protein|mol2

> <Gold.PLP.Fitness>
51.2936

> <Gold.PLP.PLP>
-53.2798

> <Gold.PLP.part.hbond>
0.0000

> <Gold.PLP.part.metal>
0.0000

> <Gold.PLP.part.buried>
-6.4358

> <Gold.PLP.part.nonpolar>
-46.8363

> <Gold.PLP.part.repulsive>
0.3252

> <Gold.PLP.ligand.clash>
0.5048

> <Gold.PLP.ligand.torsion>
0.7898

> <Gold.PLP.Chemscore.Hbond>
0.0000

> <Gold.PLP.Chemscore.CHOScore>
0.0000

> <Gold.PLP.Chemscore.Metal>
0.0000

> <Gold.PLP.Chemscore.Internal.Correction>
0.0981

> <Gold.Rescore>
     Score         DG    S(hbond)    S(metal)    S(lipo)     H(rot)  DE(clash)    DE(int)     intcor
     11.08     -12.12       0.00        0.00      99.22       1.94       0.01       1.03       ----

> <Gold.Chemscore.Fitness>
11.0789

> <Gold.Chemscore.DG>
-12.1245

> <Gold.Chemscore.ZeroCoef>
-5.4800

> <Gold.Chemscore.Hbond>
0.0000

> <Gold.Chemscore.Metal>
0.0000

> <Gold.Chemscore.Lipo>
99.2170

> <Gold.Chemscore.Internal_Hbond>
0.0000

> <Gold.Chemscore.DEClash>
0.0106

> <Gold.Chemscore.DEInternal>
1.0349

> <Gold.Chemscore.Rot>
1.9390

> <Gold.Chemscore.Internal.Correction>
   9.000000E+99

> <Gold.Chemscore.Hbond.Weighted>
-0.0000

> <Gold.Chemscore.Metal.Weighted>
-0.0000

> <Gold.Chemscore.Lipo.Weighted>
-11.6084

> <Gold.Chemscore.Internal_Hbond.Weighted>
0.0000

> <Gold.Chemscore.DEClash.Weighted>
0.0106

> <Gold.Chemscore.DEInternal.Weighted>
1.0349

> <Gold.Chemscore.Rot.Weighted>
4.9639

> <Gold.Chemscore.Internal.Correction.Weighted>
   9.000000E+99

> <Gold.Protein.RotatedTorsions>
[ 6907 6896 6895 6894 ] final   86.00 input  -60.11 | X-H torsion
[ 7974 7965 7964 7962 ] final -146.89 input  175.53 | X-H torsion
[ 8008 7997 7996 7995 ] final   92.04 input   59.86 | X-H torsion
[ 10167 10162 10161 10158 ] final   51.97 input  -65.29 | X-H torsion
[ 10718 10713 10712 10709 ] final  -14.61 input   66.30 | X-H torsion
[ 10763 10752 10751 10750 ] final  -78.19 input  -60.55 | X-H torsion
[ 11005 11000 10999 10996 ] final   18.15 input  -57.11 | X-H torsion

> <Gold.Protein.ActiveResidues>
 VAL166  LYS551  ARG553  GLY616  TRP617  ASP618  TYR619  PRO620  LYS621  CYS622 
 ASP623  PHE694  ASN695  SER759  ASP760  ASP761  ALA762  ILE779  LEU786  VAL792 
 PHE793  MET794  SER795  GLU796  ALA797  LYS798  CYS799  TRP800  GLU811  SER814 

> <Gold.Protein.RotatedAtoms>
  152.5386  134.2499  159.8894 H   0  0  0  0  0  0  0  0  0  0  0  0  # atno 6907 bound_to 6896
  151.2463  133.4367  159.2617 H   0  0  0  0  0  0  0  0  0  0  0  0  # atno 6908 bound_to 6896
  151.0580  134.9732  159.8302 H   0  0  0  0  0  0  0  0  0  0  0  0  # atno 6909 bound_to 6896
  144.8129  140.5397  143.5630 H   0  0  0  0  0  0  0  0  0  0  0  0  # atno 7974 bound_to 7965
  156.0308  140.3330  155.7137 H   0  0  0  0  0  0  0  0  0  0  0  0  # atno 8008 bound_to 7997
  155.5888  140.0644  157.2782 H   0  0  0  0  0  0  0  0  0  0  0  0  # atno 8009 bound_to 7997
  154.4352  140.1831  156.1041 H   0  0  0  0  0  0  0  0  0  0  0  0  # atno 8010 bound_to 7997
  140.2563  144.3423  150.6332 H   0  0  0  0  0  0  0  0  0  0  0  0  # atno 10167 bound_to 10162
  156.6135  130.4856  149.6192 H   0  0  0  0  0  0  0  0  0  0  0  0  # atno 10718 bound_to 10713
  154.5227  135.5738  153.6694 H   0  0  0  0  0  0  0  0  0  0  0  0  # atno 10763 bound_to 10752
  152.9921  135.6185  154.2733 H   0  0  0  0  0  0  0  0  0  0  0  0  # atno 10764 bound_to 10752
  154.2655  135.2855  155.2740 H   0  0  0  0  0  0  0  0  0  0  0  0  # atno 10765 bound_to 10752
  140.4280  134.1450  155.7678 H   0  0  0  0  0  0  0  0  0  0  0  0  # atno 11005 bound_to 11000
  145.5282  139.1475  143.3514 LP  0  0  0  0  0  0  0  0  0  0  0  0  # atno 17320 bound_to 7965
  146.2430  140.5422  142.8926 LP  0  0  0  0  0  0  0  0  0  0  0  0  # atno 17321 bound_to 7965
  140.6001  143.2167  151.7089 LP  0  0  0  0  0  0  0  0  0  0  0  0  # atno 17342 bound_to 10162
  139.5030  144.3806  152.0379 LP  0  0  0  0  0  0  0  0  0  0  0  0  # atno 17343 bound_to 10162
  156.2370  130.6829  151.1519 LP  0  0  0  0  0  0  0  0  0  0  0  0  # atno 17370 bound_to 10713
  157.7248  131.0657  150.5981 LP  0  0  0  0  0  0  0  0  0  0  0  0  # atno 17371 bound_to 10713
  141.1757  133.8518  157.1428 LP  0  0  0  0  0  0  0  0  0  0  0  0  # atno 17394 bound_to 11000
  140.0154  134.9970  157.0482 LP  0  0  0  0  0  0  0  0  0  0  0  0  # atno 17395 bound_to 11000

$$$$
