AV-unprocessed.smi:3086|AV-procd|sdf|11765|dock5
  -GOLD-   2272017143D 1   1.00000     0.00000
 Structure written by MMmdl.
 30 31  0  0  0  0  0  0  0  0  2 V2000
  154.0244  140.6868  160.5182 C   0  0  0  0  0  0  0  0  0  0  0  0
  153.3099  141.6489  159.6320 C   0  0  0  0  0  0  0  0  0  0  0  0
  153.7039  142.9449  159.4719 N   0  0  0  0  0  0  0  0  0  0  0  0
  152.7844  143.3670  158.6110 C   0  0  0  0  0  0  0  0  0  0  0  0
  152.7386  144.7490  158.0446 C   0  0  0  0  0  0  0  0  0  0  0  0
  151.8917  142.4174  158.2914 N   0  0  0  0  0  0  0  0  0  0  0  0
  150.7686  142.4415  157.3599 C   0  0  1  0  0  0  0  0  0  0  0  0
  150.9811  141.4278  156.2194 C   0  0  0  0  0  0  0  0  0  0  0  0
  149.7897  141.4539  155.2496 C   0  0  0  0  0  0  0  0  0  0  0  0
  148.4648  141.2305  155.9979 C   0  0  0  0  0  0  0  0  0  0  0  0
  148.3031  142.2204  157.0854 N   0  3  0  0  0  0  0  0  0  0  0  0
  149.4140  142.1895  158.0616 C   0  0  0  0  0  0  0  0  0  0  0  0
  152.2378  141.2767  158.9375 N   0  0  0  0  0  0  0  0  0  0  0  0
  154.9207  141.1427  160.9399 H   0  0  0  0  0  0  0  0  0  0  0  0
  154.3210  139.8018  159.9545 H   0  0  0  0  0  0  0  0  0  0  0  0
  153.3771  140.3759  161.3385 H   0  0  0  0  0  0  0  0  0  0  0  0
  153.6296  145.3082  158.3318 H   0  0  0  0  0  0  0  0  0  0  0  0
  151.8616  145.2782  158.4176 H   0  0  0  0  0  0  0  0  0  0  0  0
  152.6930  144.7108  156.9560 H   0  0  0  0  0  0  0  0  0  0  0  0
  150.7277  143.4403  156.9234 H   0  0  0  0  0  0  0  0  0  0  0  0
  151.9030  141.6520  155.6809 H   0  0  0  0  0  0  0  0  0  0  0  0
  151.0965  140.4230  156.6287 H   0  0  0  0  0  0  0  0  0  0  0  0
  149.7612  142.4133  154.7310 H   0  0  0  0  0  0  0  0  0  0  0  0
  149.9183  140.6912  154.4811 H   0  0  0  0  0  0  0  0  0  0  0  0
  147.6228  141.3150  155.3106 H   0  0  0  0  0  0  0  0  0  0  0  0
  148.4329  140.2252  156.4200 H   0  0  0  0  0  0  0  0  0  0  0  0
  148.2591  143.1431  156.6770 H   0  0  0  0  0  0  0  0  0  0  0  0
  149.4034  141.2211  158.5639 H   0  0  0  0  0  0  0  0  0  0  0  0
  149.2342  142.9473  158.8249 H   0  0  0  0  0  0  0  0  0  0  0  0
  147.4359  142.0364  157.5701 H   0  0  0  0  0  0  0  0  0  0  0  0
  1  2  1  0  0  0  0
  1 14  1  0  0  0  0
  1 15  1  0  0  0  0
  1 16  1  0  0  0  0
  2 13  2  0  0  0  0
  2  3  1  0  0  0  0
  3  4  2  0  0  0  0
  4  5  1  0  0  0  0
  4  6  1  0  0  0  0
  5 17  1  0  0  0  0
  5 18  1  0  0  0  0
  5 19  1  0  0  0  0
  6  7  1  0  0  0  0
  6 13  1  0  0  0  0
  7 12  1  0  0  0  0
  7  8  1  0  0  0  0
  7 20  1  0  0  0  0
  8  9  1  0  0  0  0
  8 21  1  0  0  0  0
  8 22  1  0  0  0  0
  9 10  1  0  0  0  0
  9 23  1  0  0  0  0
  9 24  1  0  0  0  0
 10 11  1  0  0  0  0
 10 25  1  0  0  0  0
 10 26  1  0  0  0  0
 11 12  1  0  0  0  0
 11 27  1  0  0  0  0
 11 30  1  0  0  0  0
 12 28  1  0  0  0  0
 12 29  1  0  0  0  0
M  CHG  1  11   1
M  END
> <s_m_source_file>
AV-unprocessed.smi

> <i_m_source_file_index>
3086

> <i_lp_mmshare_version>
43012

> <i_f3d_flags>
0

> <s_epik_input>
W0NIM11jMW5jKFtDSDNdKW4objEpW0NAQEhdMltDSDJdW0NIMl1bQ0gyXVtOSF1bQ0gyXTI=

> <s_epik_cmdline>
J2VwaWtfcHl0aG9uJywgJy1waCcsICc3LjAnLCAnLXRuJywgJzgnLCAnLW1hJywgJzIwMCcsICctbWV0YWxfYmluZGluZycsICctaW1hZScsICc8aW5maWxlLm1hZT4nLCAnLW9tYWUnLCAnPG91dGZpbGUubWFlPic=

> <r_lp_tautomer_probability>
1

> <r_epik_Ionization_Penalty>
0.000522417

> <r_epik_Ionization_Penalty_Charging>
0.000474443

> <r_epik_Ionization_Penalty_Neutral>
4.79736e-05

> <r_epik_State_Penalty>
-0

> <r_epik_Charging_Adjusted_Penalty>
0.000474443

> <i_epik_Tot_Q>
1

> <i_epik_Tot_abs_Q>
1

> <r_epik_Metal_State_Penalty>
-0

> <b_epik_Metal_Only>
0

> <s_lp_Force_Field>
OPLS_2005

> <r_lp_Energy>
16.4369

> <b_lp_Chiralities_Consistent>
1

> <s_lp_Variant>
AV-unprocessed.smi:3086-2

> <Gold.Version>
5.8.1

> <Gold.Id.Protein>
6NUR|6NUR_protein|mol2

> <Gold.PLP.Fitness>
36.0658

> <Gold.PLP.PLP>
-30.0720

> <Gold.PLP.part.hbond>
-1.0000

> <Gold.PLP.part.metal>
0.0000

> <Gold.PLP.part.buried>
-4.2017

> <Gold.PLP.part.nonpolar>
-24.6522

> <Gold.PLP.part.repulsive>
0.0219

> <Gold.PLP.ligand.clash>
0.0000

> <Gold.PLP.ligand.torsion>
0.0237

> <Gold.PLP.Chemscore.Hbond>
2.0000

> <Gold.PLP.Chemscore.CHOScore>
0.0000

> <Gold.PLP.Chemscore.Metal>
0.0000

> <Gold.Chemscore.Hbonds>
donor molecule, donor type, donor heavy atom, donor atom, acceptor molecule, acceptor atom, score
      L1  H    11    27       P1  8028  2.00

> <Gold.PLP.Chemscore.Internal.Correction>
0.0412

> <Gold.Rescore>
     Score         DG    S(hbond)    S(metal)    S(lipo)     H(rot)  DE(clash)    DE(int)     intcor
     12.70     -12.77       0.98        0.00      56.19       1.00       0.02       0.05       ----

> <Gold.Chemscore.Fitness>
12.6987

> <Gold.Chemscore.DG>
-12.7721

> <Gold.Chemscore.ZeroCoef>
-5.4800

> <Gold.Chemscore.Hbond>
0.9815

> <Gold.Chemscore.Metal>
0.0000

> <Gold.Chemscore.Lipo>
56.1881

> <Gold.Chemscore.Internal_Hbond>
0.0000

> <Gold.Chemscore.DEClash>
0.0241

> <Gold.Chemscore.DEInternal>
0.0493

> <Gold.Chemscore.Rot>
1.0000

> <Gold.Chemscore.Internal.Correction>
   9.000000E+99

> <Gold.Chemscore.Hbonds>
donor molecule, donor type, donor heavy atom, donor atom, acceptor molecule, acceptor atom, score
      L1  H    11    27       P1  8028  0.39

> <Gold.Chemscore.Hbond.Weighted>
-3.2781

> <Gold.Chemscore.Metal.Weighted>
-0.0000

> <Gold.Chemscore.Lipo.Weighted>
-6.5740

> <Gold.Chemscore.Internal_Hbond.Weighted>
0.0000

> <Gold.Chemscore.DEClash.Weighted>
0.0241

> <Gold.Chemscore.DEInternal.Weighted>
0.0493

> <Gold.Chemscore.Rot.Weighted>
2.5600

> <Gold.Chemscore.Internal.Correction.Weighted>
   9.000000E+99

> <Gold.Protein.RotatedTorsions>
[ 6907 6896 6895 6894 ] final -142.55 input  -60.11 | X-H torsion
[ 7974 7965 7964 7962 ] final -121.01 input  175.53 | X-H torsion
[ 8008 7997 7996 7995 ] final  142.55 input   59.86 | X-H torsion
[ 10167 10162 10161 10158 ] final    4.27 input  -65.29 | X-H torsion
[ 10718 10713 10712 10709 ] final   -0.99 input   66.30 | X-H torsion
[ 10763 10752 10751 10750 ] final -155.31 input  -60.55 | X-H torsion
[ 11005 11000 10999 10996 ] final  133.44 input  -57.11 | X-H torsion

> <Gold.Protein.ActiveResidues>
 VAL166  LYS551  ARG553  GLY616  TRP617  ASP618  TYR619  PRO620  LYS621  CYS622 
 ASP623  PHE694  ASN695  SER759  ASP760  ASP761  ALA762  ILE779  LEU786  VAL792 
 PHE793  MET794  SER795  GLU796  ALA797  LYS798  CYS799  TRP800  GLU811  SER814 

> <Gold.Protein.RotatedAtoms>
  151.0885  133.5334  159.2616 H   0  0  0  0  0  0  0  0  0  0  0  0  # atno 6907 bound_to 6896
  151.2210  135.0518  159.8959 H   0  0  0  0  0  0  0  0  0  0  0  0  # atno 6908 bound_to 6896
  152.5431  134.0688  159.8238 H   0  0  0  0  0  0  0  0  0  0  0  0  # atno 6909 bound_to 6896
  145.0450  140.8174  143.4243 H   0  0  0  0  0  0  0  0  0  0  0  0  # atno 7974 bound_to 7965
  156.2947  140.2286  156.4747 H   0  0  0  0  0  0  0  0  0  0  0  0  # atno 8008 bound_to 7997
  154.7905  140.0454  157.1218 H   0  0  0  0  0  0  0  0  0  0  0  0  # atno 8009 bound_to 7997
  154.9651  140.3059  155.5016 H   0  0  0  0  0  0  0  0  0  0  0  0  # atno 8010 bound_to 7997
  140.6543  143.7466  150.7628 H   0  0  0  0  0  0  0  0  0  0  0  0  # atno 10167 bound_to 10162
  156.8122  130.5428  149.5707 H   0  0  0  0  0  0  0  0  0  0  0  0  # atno 10718 bound_to 10713
  154.7796  135.3170  154.8018 H   0  0  0  0  0  0  0  0  0  0  0  0  # atno 10763 bound_to 10752
  153.8733  135.6842  153.4777 H   0  0  0  0  0  0  0  0  0  0  0  0  # atno 10764 bound_to 10752
  153.1429  135.4732  154.9459 H   0  0  0  0  0  0  0  0  0  0  0  0  # atno 10765 bound_to 10752
  139.9852  134.9535  156.9725 H   0  0  0  0  0  0  0  0  0  0  0  0  # atno 11005 bound_to 11000
  145.1599  139.2464  143.5397 LP  0  0  0  0  0  0  0  0  0  0  0  0  # atno 17320 bound_to 7965
  146.3513  140.1323  142.8597 LP  0  0  0  0  0  0  0  0  0  0  0  0  # atno 17321 bound_to 7965
  140.1122  143.4688  152.2363 LP  0  0  0  0  0  0  0  0  0  0  0  0  # atno 17342 bound_to 10162
  139.5763  144.7489  151.3756 LP  0  0  0  0  0  0  0  0  0  0  0  0  # atno 17343 bound_to 10162
  156.1038  130.5989  150.9937 LP  0  0  0  0  0  0  0  0  0  0  0  0  # atno 17370 bound_to 10713
  157.6500  131.0898  150.8072 LP  0  0  0  0  0  0  0  0  0  0  0  0  # atno 17371 bound_to 10713
  140.5017  134.1090  155.7252 LP  0  0  0  0  0  0  0  0  0  0  0  0  # atno 17394 bound_to 11000
  141.1518  133.8955  157.2079 LP  0  0  0  0  0  0  0  0  0  0  0  0  # atno 17395 bound_to 11000

$$$$
