AV-unprocessed.smi:2617|AV-procd|sdf|10217|dock8
  -GOLD-   2272014223D 1   1.00000     0.00000
 Structure written by MMmdl.
 35 35  0  0  0  0  0  0  0  0  1 V2000
  149.8054  129.6695  154.4882 C   0  0  0  0  0  0  0  0  0  0  0  0
  150.4839  130.9229  155.0488 C   0  0  0  0  0  0  0  0  0  0  0  0
  149.4689  131.9997  155.4678 C   0  0  0  0  0  0  0  0  0  0  0  0
  150.0748  133.3068  155.6262 N   0  0  0  0  0  0  0  0  0  0  0  0
  149.7719  134.4049  154.8164 C   0  0  0  0  0  0  0  0  0  0  0  0
  148.8568  134.2295  153.7890 N   0  0  0  0  0  0  0  0  0  0  0  0
  150.3680  135.6195  154.9892 C   0  0  0  0  0  0  0  0  0  0  0  0
  150.0537  136.7082  154.1818 N   0  0  0  0  0  0  0  0  0  0  0  0
  150.6232  138.0447  154.2741 C   0  0  0  0  0  0  0  0  0  0  0  0
  149.5239  139.1096  154.3476 C   0  0  0  0  0  0  0  0  0  0  0  0
  150.1257  140.3923  154.4145 O   0  0  0  0  0  0  0  0  0  0  0  0
  149.1718  141.4371  154.4850 C   0  0  0  0  0  0  0  0  0  0  0  0
  151.3492  135.8154  156.0665 C   0  0  0  0  0  0  0  0  0  0  0  0
  151.9121  136.8720  156.3516 O   0  0  0  0  0  0  0  0  0  0  0  0
  151.6316  134.6767  156.8177 N   0  0  0  0  0  0  0  0  0  0  0  0
  151.0536  133.4250  156.6407 C   0  0  0  0  0  0  0  0  0  0  0  0
  151.4062  132.4890  157.3595 O   0  0  0  0  0  0  0  0  0  0  0  0
  152.3152  134.7692  157.5547 H   0  0  0  0  0  0  0  0  0  0  0  0
  150.5457  128.9237  154.1978 H   0  0  0  0  0  0  0  0  0  0  0  0
  149.2078  129.9062  153.6076 H   0  0  0  0  0  0  0  0  0  0  0  0
  149.1472  129.2146  155.2291 H   0  0  0  0  0  0  0  0  0  0  0  0
  151.1019  130.6429  155.9026 H   0  0  0  0  0  0  0  0  0  0  0  0
  151.1623  131.3301  154.2982 H   0  0  0  0  0  0  0  0  0  0  0  0
  148.6715  132.1057  154.7328 H   0  0  0  0  0  0  0  0  0  0  0  0
  148.9610  131.7455  156.4000 H   0  0  0  0  0  0  0  0  0  0  0  0
  148.4174  133.3353  153.6248 H   0  0  0  0  0  0  0  0  0  0  0  0
  148.4451  135.0193  153.3135 H   0  0  0  0  0  0  0  0  0  0  0  0
  149.8158  136.4601  153.2327 H   0  0  0  0  0  0  0  0  0  0  0  0
  151.2420  138.0868  155.1707 H   0  0  0  0  0  0  0  0  0  0  0  0
  151.2755  138.2570  153.4264 H   0  0  0  0  0  0  0  0  0  0  0  0
  148.8609  139.0362  153.4838 H   0  0  0  0  0  0  0  0  0  0  0  0
  148.9176  138.9470  155.2399 H   0  0  0  0  0  0  0  0  0  0  0  0
  149.6839  142.3977  154.5365 H   0  0  0  0  0  0  0  0  0  0  0  0
  148.5459  141.3405  155.3731 H   0  0  0  0  0  0  0  0  0  0  0  0
  148.5300  141.4448  153.6030 H   0  0  0  0  0  0  0  0  0  0  0  0
  1  2  1  0  0  0  0
  1 19  1  0  0  0  0
  1 20  1  0  0  0  0
  1 21  1  0  0  0  0
  2  3  1  0  0  0  0
  2 22  1  0  0  0  0
  2 23  1  0  0  0  0
  3  4  1  0  0  0  0
  3 24  1  0  0  0  0
  3 25  1  0  0  0  0
  4 16  1  0  0  0  0
  4  5  1  0  0  0  0
  5  6  1  0  0  0  0
  5  7  2  0  0  0  0
  6 26  1  0  0  0  0
  6 27  1  0  0  0  0
  7  8  1  0  0  0  0
  7 13  1  0  0  0  0
  8  9  1  0  0  0  0
  8 28  1  0  0  0  0
  9 10  1  0  0  0  0
  9 29  1  0  0  0  0
  9 30  1  0  0  0  0
 10 11  1  0  0  0  0
 10 31  1  0  0  0  0
 10 32  1  0  0  0  0
 11 12  1  0  0  0  0
 12 33  1  0  0  0  0
 12 34  1  0  0  0  0
 12 35  1  0  0  0  0
 13 14  2  0  0  0  0
 13 15  1  0  0  0  0
 15 18  1  0  0  0  0
 15 16  1  0  0  0  0
 16 17  2  0  0  0  0
M  END
> <s_m_source_file>
AV-unprocessed.smi

> <i_m_source_file_index>
2617

> <i_lp_mmshare_version>
43012

> <i_f3d_flags>
0

> <s_epik_input>
W0NIM11bQ0gyXVtDSDJdbjFjKFtOSDJdKWMoYyg9TylbbkhdYzE9TylbTkhdW0NIMl1bQ0gyXU9bQ0gzXQ==

> <s_epik_cmdline>
J2VwaWtfcHl0aG9uJywgJy1waCcsICc3LjAnLCAnLXRuJywgJzgnLCAnLW1hJywgJzIwMCcsICctbWV0YWxfYmluZGluZycsICctaW1hZScsICc8aW5maWxlLm1hZT4nLCAnLW9tYWUnLCAnPG91dGZpbGUubWFlPic=

> <r_lp_tautomer_probability>
1

> <r_epik_Ionization_Penalty>
1.06398e-05

> <r_epik_Ionization_Penalty_Charging>
2.62604e-06

> <r_epik_Ionization_Penalty_Neutral>
8.01376e-06

> <r_epik_State_Penalty>
-0

> <r_epik_Charging_Adjusted_Penalty>
2.62604e-06

> <i_epik_Tot_Q>
0

> <i_epik_Tot_abs_Q>
0

> <r_epik_Metal_State_Penalty>
-0

> <b_epik_Metal_Only>
0

> <s_epik_Chemistry_Notes>
This compound has an imine and may undergo hydrolysis.

> <s_lp_Force_Field>
OPLS_2005

> <r_lp_Energy>
15.6594

> <b_lp_Chiralities_Consistent>
1

> <s_lp_Variant>
AV-unprocessed.smi:2617-1

> <Gold.Version>
5.8.1

> <Gold.Id.Protein>
6NUR|6NUR_protein|mol2

> <Gold.PLP.Fitness>
37.2516

> <Gold.PLP.PLP>
-27.0044

> <Gold.PLP.part.hbond>
-5.2998

> <Gold.PLP.part.metal>
0.0000

> <Gold.PLP.part.buried>
-1.3664

> <Gold.PLP.part.nonpolar>
-21.9058

> <Gold.PLP.part.repulsive>
0.4831

> <Gold.PLP.ligand.clash>
1.3886

> <Gold.PLP.ligand.torsion>
0.1207

> <Gold.PLP.Chemscore.Hbond>
3.4890

> <Gold.PLP.Chemscore.CHOScore>
0.0000

> <Gold.PLP.Chemscore.Metal>
0.0000

> <Gold.Chemscore.Hbonds>
donor molecule, donor type, donor heavy atom, donor atom, acceptor molecule, acceptor atom, score
      L1  H     6    27       P1  7948  0.70
      L1  H     8    28       P1  7948  0.85
      P1  H  6896  6907       L1    17  0.96
      P1  H  7989  7998       L1    11  0.93

> <Gold.PLP.Chemscore.Internal.Correction>
1.4102

> <Gold.Rescore>
     Score         DG    S(hbond)    S(metal)    S(lipo)     H(rot)  DE(clash)    DE(int)     intcor
      8.60     -10.63       1.73        0.00      42.10       2.17       0.29       1.73       ----

> <Gold.Chemscore.Fitness>
8.6036

> <Gold.Chemscore.DG>
-10.6261

> <Gold.Chemscore.ZeroCoef>
-5.4800

> <Gold.Chemscore.Hbond>
1.7315

> <Gold.Chemscore.Metal>
0.0000

> <Gold.Chemscore.Lipo>
42.1002

> <Gold.Chemscore.Internal_Hbond>
0.0000

> <Gold.Chemscore.DEClash>
0.2895

> <Gold.Chemscore.DEInternal>
1.7330

> <Gold.Chemscore.Rot>
2.1730

> <Gold.Chemscore.Internal.Correction>
   9.000000E+99

> <Gold.Chemscore.Hbonds>
donor molecule, donor type, donor heavy atom, donor atom, acceptor molecule, acceptor atom, score
      L1  H     6    27       P1  7948  0.59
      L1  H     8    28       P1  7948  0.14
      P1  H  6896  6907       L1    17  0.40
      P1  H  7989  7998       L1    11  0.74

> <Gold.Chemscore.Hbond.Weighted>
-5.7831

> <Gold.Chemscore.Metal.Weighted>
-0.0000

> <Gold.Chemscore.Lipo.Weighted>
-4.9257

> <Gold.Chemscore.Internal_Hbond.Weighted>
0.0000

> <Gold.Chemscore.DEClash.Weighted>
0.2895

> <Gold.Chemscore.DEInternal.Weighted>
1.7330

> <Gold.Chemscore.Rot.Weighted>
5.5628

> <Gold.Chemscore.Internal.Correction.Weighted>
   9.000000E+99

> <Gold.Protein.RotatedTorsions>
[ 6907 6896 6895 6894 ] final -170.26 input  -60.11 | X-H torsion
[ 7974 7965 7964 7962 ] final -101.64 input  175.53 | X-H torsion
[ 8008 7997 7996 7995 ] final  -26.38 input   59.86 | X-H torsion
[ 10167 10162 10161 10158 ] final -112.32 input  -65.29 | X-H torsion
[ 10718 10713 10712 10709 ] final -175.88 input   66.30 | X-H torsion
[ 10763 10752 10751 10750 ] final -169.87 input  -60.55 | X-H torsion
[ 11005 11000 10999 10996 ] final   -1.57 input  -57.11 | X-H torsion

> <Gold.Protein.ActiveResidues>
 VAL166  LYS551  ARG553  GLY616  TRP617  ASP618  TYR619  PRO620  LYS621  CYS622 
 ASP623  PHE694  ASN695  SER759  ASP760  ASP761  ALA762  ILE779  LEU786  VAL792 
 PHE793  MET794  SER795  GLU796  ALA797  LYS798  CYS799  TRP800  GLU811  SER814 

> <Gold.Protein.RotatedAtoms>
  151.5049  133.3497  159.2874 H   0  0  0  0  0  0  0  0  0  0  0  0  # atno 6907 bound_to 6896
  150.8749  134.8132  159.7193 H   0  0  0  0  0  0  0  0  0  0  0  0  # atno 6908 bound_to 6896
  152.4724  134.4938  159.9755 H   0  0  0  0  0  0  0  0  0  0  0  0  # atno 6909 bound_to 6896
  145.2789  140.9321  143.2943 H   0  0  0  0  0  0  0  0  0  0  0  0  # atno 7974 bound_to 7965
  154.4428  140.1901  156.0766 H   0  0  0  0  0  0  0  0  0  0  0  0  # atno 8008 bound_to 7997
  156.0471  140.3313  155.7282 H   0  0  0  0  0  0  0  0  0  0  0  0  # atno 8009 bound_to 7997
  155.5613  140.0604  157.2819 H   0  0  0  0  0  0  0  0  0  0  0  0  # atno 8010 bound_to 7997
  140.1240  143.4419  152.1672 H   0  0  0  0  0  0  0  0  0  0  0  0  # atno 10167 bound_to 10162
  156.8064  130.9570  151.3117 H   0  0  0  0  0  0  0  0  0  0  0  0  # atno 10718 bound_to 10713
  154.6476  135.2907  155.0027 H   0  0  0  0  0  0  0  0  0  0  0  0  # atno 10763 bound_to 10752
  154.1131  135.6559  153.4893 H   0  0  0  0  0  0  0  0  0  0  0  0  # atno 10764 bound_to 10752
  153.0359  135.5270  154.7370 H   0  0  0  0  0  0  0  0  0  0  0  0  # atno 10765 bound_to 10752
  140.6488  133.9423  155.8368 H   0  0  0  0  0  0  0  0  0  0  0  0  # atno 11005 bound_to 11000
  144.9270  139.4344  143.6513 LP  0  0  0  0  0  0  0  0  0  0  0  0  # atno 17320 bound_to 7965
  146.3222  139.8161  142.8936 LP  0  0  0  0  0  0  0  0  0  0  0  0  # atno 17321 bound_to 7965
  139.5554  144.7369  151.4310 LP  0  0  0  0  0  0  0  0  0  0  0  0  # atno 17342 bound_to 10162
  140.6856  143.7982  150.7181 LP  0  0  0  0  0  0  0  0  0  0  0  0  # atno 17343 bound_to 10162
  157.6528  130.8898  149.9667 LP  0  0  0  0  0  0  0  0  0  0  0  0  # atno 17370 bound_to 10713
  156.1070  130.3652  150.0116 LP  0  0  0  0  0  0  0  0  0  0  0  0  # atno 17371 bound_to 10713
  141.0552  134.0427  157.3732 LP  0  0  0  0  0  0  0  0  0  0  0  0  # atno 17394 bound_to 11000
  139.9053  135.0177  156.7458 LP  0  0  0  0  0  0  0  0  0  0  0  0  # atno 17395 bound_to 11000

$$$$
