AV-unprocessed.smi:1508|AV-procd|sdf|6088|dock7
  -GOLD-   22720 6213D 1   1.00000     0.00000
 Structure written by MMmdl.
 37 38  0  0  0  0  0  0  0  0  3 V2000
  151.6010  138.2320  155.0852 C   0  0  0  0  0  0  0  0  0  0  0  0
  151.7817  138.9750  156.4182 C   0  0  0  0  0  0  0  0  0  0  0  0
  150.4630  139.2747  157.1820 C   0  0  2  0  0  0  0  0  0  0  0  0
  149.5434  138.0271  157.2842 C   0  0  0  0  0  0  0  0  0  0  0  0
  148.8423  137.9464  158.5615 N   0  0  0  0  0  0  0  0  0  0  0  0
  148.6044  136.8210  159.2499 C   0  0  0  0  0  0  0  0  0  0  0  0
  149.0104  135.7396  158.8179 O   0  0  0  0  0  0  0  0  0  0  0  0
  147.9042  137.0176  160.3889 N   0  5  0  0  0  0  0  0  0  0  0  0
  147.4513  135.9630  161.0869 C   0  0  0  0  0  0  0  0  0  0  0  0
  146.9284  134.8782  160.4932 N   0  0  0  0  0  0  0  0  0  0  0  0
  146.5228  133.9044  161.3957 N   0  0  0  0  0  0  0  0  0  0  0  0
  146.7601  134.2780  162.6529 C   0  0  0  0  0  0  0  0  0  0  0  0
  147.5017  135.8520  162.8484 S   0  0  0  0  0  0  0  0  0  0  0  0
  149.7304  140.4389  156.6038 N   0  3  0  0  0  0  0  0  0  0  0  0
  149.4919  140.3720  155.1391 C   0  0  0  0  0  0  0  0  0  0  0  0
  148.1088  140.9814  154.8720 C   0  0  0  0  0  0  0  0  0  0  0  0
  147.6917  141.6046  156.1988 C   0  0  0  0  0  0  0  0  0  0  0  0
  148.4252  140.7509  157.2261 C   0  0  0  0  0  0  0  0  0  0  0  0
  152.5630  138.0934  154.5918 H   0  0  0  0  0  0  0  0  0  0  0  0
  150.9573  138.7837  154.4002 H   0  0  0  0  0  0  0  0  0  0  0  0
  151.1682  137.2428  155.2322 H   0  0  0  0  0  0  0  0  0  0  0  0
  152.4450  138.3877  157.0536 H   0  0  0  0  0  0  0  0  0  0  0  0
  152.3308  139.8990  156.2384 H   0  0  0  0  0  0  0  0  0  0  0  0
  150.7464  139.5647  158.1951 H   0  0  0  0  0  0  0  0  0  0  0  0
  148.7980  138.0118  156.4885 H   0  0  0  0  0  0  0  0  0  0  0  0
  150.1262  137.1144  157.1601 H   0  0  0  0  0  0  0  0  0  0  0  0
  148.4980  138.8113  158.9528 H   0  0  0  0  0  0  0  0  0  0  0  0
  146.4995  133.6219  163.4699 H   0  0  0  0  0  0  0  0  0  0  0  0
  150.2772  140.9230  154.6208 H   0  0  0  0  0  0  0  0  0  0  0  0
  149.5105  139.3437  154.7746 H   0  0  0  0  0  0  0  0  0  0  0  0
  148.1203  141.7067  154.0581 H   0  0  0  0  0  0  0  0  0  0  0  0
  147.4069  140.1915  154.6007 H   0  0  0  0  0  0  0  0  0  0  0  0
  148.0456  142.6351  156.2527 H   0  0  0  0  0  0  0  0  0  0  0  0
  146.6110  141.6101  156.3445 H   0  0  0  0  0  0  0  0  0  0  0  0
  147.8698  139.8277  157.4015 H   0  0  0  0  0  0  0  0  0  0  0  0
  148.5373  141.2696  158.1785 H   0  0  0  0  0  0  0  0  0  0  0  0
  150.3081  141.2535  156.7552 H   0  0  0  0  0  0  0  0  0  0  0  0
  1  2  1  0  0  0  0
  1 19  1  0  0  0  0
  1 20  1  0  0  0  0
  1 21  1  0  0  0  0
  2  3  1  0  0  0  0
  2 22  1  0  0  0  0
  2 23  1  0  0  0  0
  3  4  1  0  0  0  0
  3 14  1  0  0  0  0
  3 24  1  0  0  0  0
  4  5  1  0  0  0  0
  4 25  1  0  0  0  0
  4 26  1  0  0  0  0
  5  6  1  0  0  0  0
  5 27  1  0  0  0  0
  6  7  2  0  0  0  0
  6  8  1  0  0  0  0
  8  9  1  0  0  0  0
  9 13  1  0  0  0  0
  9 10  2  0  0  0  0
 10 11  1  0  0  0  0
 11 12  2  0  0  0  0
 12 13  1  0  0  0  0
 12 28  1  0  0  0  0
 14 18  1  0  0  0  0
 14 15  1  0  0  0  0
 14 37  1  0  0  0  0
 15 16  1  0  0  0  0
 15 29  1  0  0  0  0
 15 30  1  0  0  0  0
 16 17  1  0  0  0  0
 16 31  1  0  0  0  0
 16 32  1  0  0  0  0
 17 18  1  0  0  0  0
 17 33  1  0  0  0  0
 17 34  1  0  0  0  0
 18 35  1  0  0  0  0
 18 36  1  0  0  0  0
M  CHG  1   8  -1
M  CHG  1  14   1
M  END
> <s_m_source_file>
AV-unprocessed.smi

> <i_m_source_file_index>
1508

> <i_lp_mmshare_version>
43012

> <i_f3d_flags>
0

> <s_epik_input>
W0NIMl0xW0NIMl1bQ0gyXVtDSDJdTjFbQ0BIXShbQ0gyXVtDSDNdKVtDSDJdW05IXUMoPU8pW05IXWMybm5bY0hdczI=

> <s_epik_cmdline>
J2VwaWtfcHl0aG9uJywgJy1waCcsICc3LjAnLCAnLXRuJywgJzgnLCAnLW1hJywgJzIwMCcsICctbWV0YWxfYmluZGluZycsICctaW1hZScsICc8aW5maWxlLm1hZT4nLCAnLW9tYWUnLCAnPG91dGZpbGUubWFlPic=

> <r_lp_tautomer_probability>
1

> <r_epik_Ionization_Penalty>
3.98086

> <r_epik_Ionization_Penalty_Charging>
3.94833

> <r_epik_Ionization_Penalty_Neutral>
0.032525

> <r_epik_State_Penalty>
3.94643

> <r_epik_Charging_Adjusted_Penalty>
7.89477

> <i_epik_Tot_Q>
0

> <i_epik_Tot_abs_Q>
2

> <r_epik_Metal_State_Penalty>
0.605555

> <b_epik_Metal_Only>
1

> <s_lp_Force_Field>
OPLS_2005

> <r_lp_Energy>
24.3568

> <b_lp_Chiralities_Consistent>
1

> <s_lp_Variant>
AV-unprocessed.smi:1508-3

> <Gold.Version>
5.8.1

> <Gold.Id.Protein>
6NUR|6NUR_protein|mol2

> <Gold.PLP.Fitness>
37.7153

> <Gold.PLP.PLP>
-27.6974

> <Gold.PLP.part.hbond>
-3.0000

> <Gold.PLP.part.metal>
0.0000

> <Gold.PLP.part.buried>
-5.5691

> <Gold.PLP.part.nonpolar>
-22.2839

> <Gold.PLP.part.repulsive>
0.2245

> <Gold.PLP.ligand.clash>
0.0000

> <Gold.PLP.ligand.torsion>
1.1516

> <Gold.PLP.Chemscore.Hbond>
4.0720

> <Gold.PLP.Chemscore.CHOScore>
0.0000

> <Gold.PLP.Chemscore.Metal>
0.0000

> <Gold.Chemscore.Hbonds>
donor molecule, donor type, donor heavy atom, donor atom, acceptor molecule, acceptor atom, score
      P1  H  6896  6909       L1     7  0.70
      P1  H  6931  6943       L1     8  0.73
      P1  H  6934  6947       L1     8  1.00

> <Gold.PLP.Chemscore.Internal.Correction>
0.1051

> <Gold.Rescore>
     Score         DG    S(hbond)    S(metal)    S(lipo)     H(rot)  DE(clash)    DE(int)     intcor
     11.51     -14.06       2.09        0.00      54.46       1.86       0.00       2.55       ----

> <Gold.Chemscore.Fitness>
11.5129

> <Gold.Chemscore.DG>
-14.0638

> <Gold.Chemscore.ZeroCoef>
-5.4800

> <Gold.Chemscore.Hbond>
2.0860

> <Gold.Chemscore.Metal>
0.0000

> <Gold.Chemscore.Lipo>
54.4600

> <Gold.Chemscore.Internal_Hbond>
0.0000

> <Gold.Chemscore.DEClash>
0.0029

> <Gold.Chemscore.DEInternal>
2.5481

> <Gold.Chemscore.Rot>
1.8575

> <Gold.Chemscore.Internal.Correction>
   9.000000E+99

> <Gold.Chemscore.Hbonds>
donor molecule, donor type, donor heavy atom, donor atom, acceptor molecule, acceptor atom, score
      P1  H  6896  6909       L1     7  0.69
      P1  H  6931  6943       L1     8  0.15
      P1  H  6934  6947       L1     8  0.46

> <Gold.Chemscore.Hbond.Weighted>
-6.9672

> <Gold.Chemscore.Metal.Weighted>
-0.0000

> <Gold.Chemscore.Lipo.Weighted>
-6.3718

> <Gold.Chemscore.Internal_Hbond.Weighted>
0.0000

> <Gold.Chemscore.DEClash.Weighted>
0.0029

> <Gold.Chemscore.DEInternal.Weighted>
2.5481

> <Gold.Chemscore.Rot.Weighted>
4.7551

> <Gold.Chemscore.Internal.Correction.Weighted>
   9.000000E+99

> <Gold.Protein.RotatedTorsions>
[ 6907 6896 6895 6894 ] final   50.44 input  -60.11 | X-H torsion
[ 7974 7965 7964 7962 ] final  -75.30 input  175.53 | X-H torsion
[ 8008 7997 7996 7995 ] final  -76.08 input   59.86 | X-H torsion
[ 10167 10162 10161 10158 ] final -119.21 input  -65.29 | X-H torsion
[ 10718 10713 10712 10709 ] final   78.41 input   66.30 | X-H torsion
[ 10763 10752 10751 10750 ] final  -73.46 input  -60.55 | X-H torsion
[ 11005 11000 10999 10996 ] final -177.29 input  -57.11 | X-H torsion

> <Gold.Protein.ActiveResidues>
 VAL166  LYS551  ARG553  GLY616  TRP617  ASP618  TYR619  PRO620  LYS621  CYS622 
 ASP623  PHE694  ASN695  SER759  ASP760  ASP761  ALA762  ILE779  LEU786  VAL792 
 PHE793  MET794  SER795  GLU796  ALA797  LYS798  CYS799  TRP800  GLU811  SER814 

> <Gold.Protein.RotatedAtoms>
  152.3018  134.7602  160.0355 H   0  0  0  0  0  0  0  0  0  0  0  0  # atno 6907 bound_to 6896
  151.8113  133.3377  159.3564 H   0  0  0  0  0  0  0  0  0  0  0  0  # atno 6908 bound_to 6896
  150.7277  134.5591  159.5877 H   0  0  0  0  0  0  0  0  0  0  0  0  # atno 6909 bound_to 6896
  145.6278  140.9346  143.1103 H   0  0  0  0  0  0  0  0  0  0  0  0  # atno 7974 bound_to 7965
  154.5473  140.0733  156.8610 H   0  0  0  0  0  0  0  0  0  0  0  0  # atno 8008 bound_to 7997
  155.3062  140.3387  155.4227 H   0  0  0  0  0  0  0  0  0  0  0  0  # atno 8009 bound_to 7997
  156.1929  140.1693  156.8041 H   0  0  0  0  0  0  0  0  0  0  0  0  # atno 8010 bound_to 7997
  140.0491  143.5077  152.2091 H   0  0  0  0  0  0  0  0  0  0  0  0  # atno 10167 bound_to 10162
  157.6744  130.9867  150.1782 H   0  0  0  0  0  0  0  0  0  0  0  0  # atno 10718 bound_to 10713
  154.4598  135.5896  153.6247 H   0  0  0  0  0  0  0  0  0  0  0  0  # atno 10763 bound_to 10752
  152.9822  135.6041  154.3501 H   0  0  0  0  0  0  0  0  0  0  0  0  # atno 10764 bound_to 10752
  154.3371  135.2842  155.2421 H   0  0  0  0  0  0  0  0  0  0  0  0  # atno 10765 bound_to 10752
  140.4426  134.6417  157.4764 H   0  0  0  0  0  0  0  0  0  0  0  0  # atno 11005 bound_to 11000
  144.7206  139.8045  143.7383 LP  0  0  0  0  0  0  0  0  0  0  0  0  # atno 17320 bound_to 7965
  146.1381  139.4431  143.0126 LP  0  0  0  0  0  0  0  0  0  0  0  0  # atno 17321 bound_to 7965
  139.5964  144.7568  151.3275 LP  0  0  0  0  0  0  0  0  0  0  0  0  # atno 17342 bound_to 10162
  140.7225  143.7096  150.7780 LP  0  0  0  0  0  0  0  0  0  0  0  0  # atno 17343 bound_to 10162
  156.2521  130.3701  149.8221 LP  0  0  0  0  0  0  0  0  0  0  0  0  # atno 17370 bound_to 10713
  156.5991  130.8539  151.3427 LP  0  0  0  0  0  0  0  0  0  0  0  0  # atno 17371 bound_to 10713
  140.0060  134.6764  155.9455 LP  0  0  0  0  0  0  0  0  0  0  0  0  # atno 17394 bound_to 11000
  141.1699  133.6537  156.4613 LP  0  0  0  0  0  0  0  0  0  0  0  0  # atno 17395 bound_to 11000

$$$$
