AV-unprocessed.smi:2457|AV-procd|sdf|9705|dock9
  -GOLD-   2272013343D 1   1.00000     0.00000
 Structure written by MMmdl.
 40 41  0  0  0  0  0  0  0  0  1 V2000
  145.4421  136.8443  153.9964 C   0  0  0  0  0  0  0  0  0  0  0  0
  146.0115  138.0026  153.2399 C   0  0  0  0  0  0  0  0  0  0  0  0
  146.0222  138.1751  151.8783 C   0  0  0  0  0  0  0  0  0  0  0  0
  146.7830  139.6735  151.4195 S   0  0  0  0  0  0  0  0  0  0  0  0
  147.0617  140.0187  153.1236 C   0  0  0  0  0  0  0  0  0  0  0  0
  147.7613  141.2537  153.6047 C   0  0  1  0  0  0  0  0  0  0  0  0
  146.8572  142.1257  154.4876 C   0  0  0  0  0  0  0  0  0  0  0  0
  149.1349  140.9628  154.2499 C   0  0  0  0  0  0  0  0  0  0  0  0
  149.5186  141.9599  155.2461 N   0  0  0  0  0  0  0  0  0  0  0  0
  150.0521  141.6823  156.4432 C   0  0  0  0  0  0  0  0  0  0  0  0
  150.3229  140.5454  156.8306 O   0  0  0  0  0  0  0  0  0  0  0  0
  150.2313  142.7897  157.1762 N   0  0  0  0  0  0  0  0  0  0  0  0
  150.7368  142.8183  158.5454 C   0  0  2  0  0  0  0  0  0  0  0  0
  151.0349  144.2722  158.9674 C   0  0  0  0  0  0  0  0  0  0  0  0
  151.5187  144.3782  160.4222 C   0  0  0  0  0  0  0  0  0  0  0  0
  152.8212  143.6022  160.6631 C   0  0  0  0  0  0  0  0  0  0  0  0
  152.5982  141.8297  160.3511 S   0  0  0  0  0  0  0  0  0  0  0  0
  151.9870  141.9272  158.6458 C   0  0  0  0  0  0  0  0  0  0  0  0
  146.6118  139.0562  153.9346 N   0  0  0  0  0  0  0  0  0  0  0  0
  144.9687  136.1249  153.3279 H   0  0  0  0  0  0  0  0  0  0  0  0
  144.6879  137.1745  154.7112 H   0  0  0  0  0  0  0  0  0  0  0  0
  146.2177  136.3175  154.5525 H   0  0  0  0  0  0  0  0  0  0  0  0
  145.6290  137.5150  151.1195 H   0  0  0  0  0  0  0  0  0  0  0  0
  147.9589  141.8488  152.7123 H   0  0  0  0  0  0  0  0  0  0  0  0
  145.9399  142.3959  153.9636 H   0  0  0  0  0  0  0  0  0  0  0  0
  147.3603  143.0504  154.7712 H   0  0  0  0  0  0  0  0  0  0  0  0
  146.5770  141.6054  155.4039 H   0  0  0  0  0  0  0  0  0  0  0  0
  149.1471  139.9667  154.6948 H   0  0  0  0  0  0  0  0  0  0  0  0
  149.9067  140.9649  153.4799 H   0  0  0  0  0  0  0  0  0  0  0  0
  149.3288  142.9251  155.0199 H   0  0  0  0  0  0  0  0  0  0  0  0
  149.9718  143.6762  156.7692 H   0  0  0  0  0  0  0  0  0  0  0  0
  149.9745  142.4054  159.2095 H   0  0  0  0  0  0  0  0  0  0  0  0
  151.7816  144.7064  158.3011 H   0  0  0  0  0  0  0  0  0  0  0  0
  150.1364  144.8801  158.8532 H   0  0  0  0  0  0  0  0  0  0  0  0
  151.6750  145.4281  160.6718 H   0  0  0  0  0  0  0  0  0  0  0  0
  150.7421  144.0156  161.0970 H   0  0  0  0  0  0  0  0  0  0  0  0
  153.6144  143.9803  160.0174 H   0  0  0  0  0  0  0  0  0  0  0  0
  153.1551  143.7359  161.6923 H   0  0  0  0  0  0  0  0  0  0  0  0
  151.7622  140.9154  158.3063 H   0  0  0  0  0  0  0  0  0  0  0  0
  152.7836  142.3094  158.0065 H   0  0  0  0  0  0  0  0  0  0  0  0
  1  2  1  0  0  0  0
  1 20  1  0  0  0  0
  1 21  1  0  0  0  0
  1 22  1  0  0  0  0
  2 19  1  0  0  0  0
  2  3  2  0  0  0  0
  3  4  1  0  0  0  0
  3 23  1  0  0  0  0
  4  5  1  0  0  0  0
  5  6  1  0  0  0  0
  5 19  2  0  0  0  0
  6  7  1  0  0  0  0
  6  8  1  0  0  0  0
  6 24  1  0  0  0  0
  7 25  1  0  0  0  0
  7 26  1  0  0  0  0
  7 27  1  0  0  0  0
  8  9  1  0  0  0  0
  8 28  1  0  0  0  0
  8 29  1  0  0  0  0
  9 10  1  0  0  0  0
  9 30  1  0  0  0  0
 10 11  2  0  0  0  0
 10 12  1  0  0  0  0
 12 13  1  0  0  0  0
 12 31  1  0  0  0  0
 13 18  1  0  0  0  0
 13 14  1  0  0  0  0
 13 32  1  0  0  0  0
 14 15  1  0  0  0  0
 14 33  1  0  0  0  0
 14 34  1  0  0  0  0
 15 16  1  0  0  0  0
 15 35  1  0  0  0  0
 15 36  1  0  0  0  0
 16 17  1  0  0  0  0
 16 37  1  0  0  0  0
 16 38  1  0  0  0  0
 17 18  1  0  0  0  0
 18 39  1  0  0  0  0
 18 40  1  0  0  0  0
M  END
> <s_m_source_file>
AV-unprocessed.smi

> <i_m_source_file_index>
2457

> <i_lp_mmshare_version>
43012

> <i_f3d_flags>
0

> <s_epik_input>
W0NIM11jMVtjSF1zYyhuMSlbQ0BIXShbQ0gzXSlbQ0gyXVtOSF1DKD1PKVtOSF1bQ0BASF0yW0NIMl1bQ0gyXVtDSDJdU1tDSDJdMg==

> <s_epik_cmdline>
J2VwaWtfcHl0aG9uJywgJy1waCcsICc3LjAnLCAnLXRuJywgJzgnLCAnLW1hJywgJzIwMCcsICctbWV0YWxfYmluZGluZycsICctaW1hZScsICc8aW5maWxlLm1hZT4nLCAnLW9tYWUnLCAnPG91dGZpbGUubWFlPic=

> <r_epik_Ionization_Penalty>
0.00154805

> <r_epik_Ionization_Penalty_Charging>
0

> <r_epik_Ionization_Penalty_Neutral>
0.00154805

> <r_epik_State_Penalty>
0.00100357

> <r_epik_Charging_Adjusted_Penalty>
0.00100357

> <i_epik_Tot_Q>
0

> <i_epik_Tot_abs_Q>
0

> <r_epik_Metal_State_Penalty>
-0

> <b_epik_Metal_Only>
0

> <s_lp_Force_Field>
OPLS_2005

> <r_lp_Energy>
-7.39523

> <b_lp_Chiralities_Consistent>
1

> <s_lp_Variant>
AV-unprocessed.smi:2457-2

> <Gold.Version>
5.8.1

> <Gold.Id.Protein>
6NUR|6NUR_protein|mol2

> <Gold.PLP.Fitness>
45.0953

> <Gold.PLP.PLP>
-38.5937

> <Gold.PLP.part.hbond>
-2.0000

> <Gold.PLP.part.metal>
0.0000

> <Gold.PLP.part.buried>
-0.7923

> <Gold.PLP.part.nonpolar>
-35.9992

> <Gold.PLP.part.repulsive>
0.3872

> <Gold.PLP.ligand.clash>
0.0000

> <Gold.PLP.ligand.torsion>
0.6913

> <Gold.PLP.Chemscore.Hbond>
2.0000

> <Gold.PLP.Chemscore.CHOScore>
0.5878

> <Gold.PLP.Chemscore.Metal>
0.0000

> <Gold.Chemscore.Hbonds>
donor molecule, donor type, donor heavy atom, donor atom, acceptor molecule, acceptor atom, score
      L1  H     9    30       P1  8028  0.98
      L1  H    12    31       P1  8028  1.00
      L1  C     3    23       P1 10171  0.64

> <Gold.PLP.Chemscore.Internal.Correction>
0.1209

> <Gold.Rescore>
     Score         DG    S(hbond)    S(metal)    S(lipo)     H(rot)  DE(clash)    DE(int)     intcor
     18.94     -21.39       1.89        0.00     114.02       1.46       0.42       2.03       ----

> <Gold.Chemscore.Fitness>
18.9433

> <Gold.Chemscore.DG>
-21.3940

> <Gold.Chemscore.ZeroCoef>
-5.4800

> <Gold.Chemscore.Hbond>
1.8906

> <Gold.Chemscore.Metal>
0.0000

> <Gold.Chemscore.Lipo>
114.0250

> <Gold.Chemscore.Internal_Hbond>
0.0000

> <Gold.Chemscore.DEClash>
0.4202

> <Gold.Chemscore.DEInternal>
2.0304

> <Gold.Chemscore.Rot>
1.4616

> <Gold.Chemscore.Internal.Correction>
   9.000000E+99

> <Gold.Chemscore.Hbonds>
donor molecule, donor type, donor heavy atom, donor atom, acceptor molecule, acceptor atom, score
      L1  H     9    30       P1  8028  0.93
      L1  H    12    31       P1  8028  0.97

> <Gold.Chemscore.Hbond.Weighted>
-6.3147

> <Gold.Chemscore.Metal.Weighted>
-0.0000

> <Gold.Chemscore.Lipo.Weighted>
-13.3409

> <Gold.Chemscore.Internal_Hbond.Weighted>
0.0000

> <Gold.Chemscore.DEClash.Weighted>
0.4202

> <Gold.Chemscore.DEInternal.Weighted>
2.0304

> <Gold.Chemscore.Rot.Weighted>
3.7416

> <Gold.Chemscore.Internal.Correction.Weighted>
   9.000000E+99

> <Gold.Protein.RotatedTorsions>
[ 6907 6896 6895 6894 ] final -144.96 input  -60.11 | X-H torsion
[ 7974 7965 7964 7962 ] final  -47.45 input  175.53 | X-H torsion
[ 8008 7997 7996 7995 ] final  162.77 input   59.86 | X-H torsion
[ 10167 10162 10161 10158 ] final   27.31 input  -65.29 | X-H torsion
[ 10718 10713 10712 10709 ] final  122.13 input   66.30 | X-H torsion
[ 10763 10752 10751 10750 ] final  -34.12 input  -60.55 | X-H torsion
[ 11005 11000 10999 10996 ] final  -68.46 input  -57.11 | X-H torsion

> <Gold.Protein.ActiveResidues>
 VAL166  LYS551  ARG553  GLY616  TRP617  ASP618  TYR619  PRO620  LYS621  CYS622 
 ASP623  PHE694  ASN695  SER759  ASP760  ASP761  ALA762  ILE779  LEU786  VAL792 
 PHE793  MET794  SER795  GLU796  ALA797  LYS798  CYS799  TRP800  GLU811  SER814 

> <Gold.Protein.RotatedAtoms>
  151.1213  133.5102  159.2601 H   0  0  0  0  0  0  0  0  0  0  0  0  # atno 6907 bound_to 6896
  151.1859  135.0381  159.8822 H   0  0  0  0  0  0  0  0  0  0  0  0  # atno 6908 bound_to 6896
  152.5456  134.1059  159.8391 H   0  0  0  0  0  0  0  0  0  0  0  0  # atno 6909 bound_to 6896
  145.9614  140.7475  142.9455 H   0  0  0  0  0  0  0  0  0  0  0  0  # atno 7974 bound_to 7965
  156.2007  140.1741  156.7906 H   0  0  0  0  0  0  0  0  0  0  0  0  # atno 8008 bound_to 7997
  154.5587  140.0703  156.8816 H   0  0  0  0  0  0  0  0  0  0  0  0  # atno 8009 bound_to 7997
  155.2889  140.3354  155.4256 H   0  0  0  0  0  0  0  0  0  0  0  0  # atno 8010 bound_to 7997
  140.4949  144.0407  150.6311 H   0  0  0  0  0  0  0  0  0  0  0  0  # atno 10167 bound_to 10162
  157.5765  131.1079  150.8269 H   0  0  0  0  0  0  0  0  0  0  0  0  # atno 10718 bound_to 10713
  153.8414  135.6857  153.4802 H   0  0  0  0  0  0  0  0  0  0  0  0  # atno 10763 bound_to 10752
  153.1451  135.4641  154.9552 H   0  0  0  0  0  0  0  0  0  0  0  0  # atno 10764 bound_to 10752
  154.7843  135.3279  154.7868 H   0  0  0  0  0  0  0  0  0  0  0  0  # atno 10765 bound_to 10752
  141.1532  133.6741  156.6449 H   0  0  0  0  0  0  0  0  0  0  0  0  # atno 11005 bound_to 11000
  144.6816  140.2598  143.7320 LP  0  0  0  0  0  0  0  0  0  0  0  0  # atno 17320 bound_to 7965
  145.8034  139.1973  143.2035 LP  0  0  0  0  0  0  0  0  0  0  0  0  # atno 17321 bound_to 7965
  140.3687  143.2867  152.0303 LP  0  0  0  0  0  0  0  0  0  0  0  0  # atno 17342 bound_to 10162
  139.4859  144.6247  151.7188 LP  0  0  0  0  0  0  0  0  0  0  0  0  # atno 17343 bound_to 10162
  156.8726  130.5151  149.5296 LP  0  0  0  0  0  0  0  0  0  0  0  0  # atno 17370 bound_to 10713
  156.0810  130.5820  150.9563 LP  0  0  0  0  0  0  0  0  0  0  0  0  # atno 17371 bound_to 10713
  140.3365  134.7885  157.4365 LP  0  0  0  0  0  0  0  0  0  0  0  0  # atno 17394 bound_to 11000
  140.0973  134.5519  155.8386 LP  0  0  0  0  0  0  0  0  0  0  0  0  # atno 17395 bound_to 11000

$$$$
