AV-unprocessed.smi:651|AV-procd|sdf|3191|dock1
  -GOLD-   22720 0113D 1   1.00000     0.00000
 Structure written by MMmdl.
 39 40  0  0  0  0  0  0  0  0  2 V2000
  152.9725  142.7980  162.8129 C   0  0  0  0  0  0  0  0  0  0  0  0
  152.5781  142.9884  161.3637 C   0  0  0  0  0  0  0  0  0  0  0  0
  151.9676  144.1724  160.8974 C   0  0  0  0  0  0  0  0  0  0  0  0
  151.6323  144.2831  159.5318 C   0  0  0  0  0  0  0  0  0  0  0  0
  151.9138  143.2087  158.6591 C   0  0  0  0  0  0  0  0  0  0  0  0
  151.5728  143.2998  157.1817 C   0  0  0  0  0  0  0  0  0  0  0  0
  150.7041  142.1127  156.7656 C   0  0  0  0  0  0  0  0  0  0  0  0
  151.0955  140.9667  156.9829 O   0  0  0  0  0  0  0  0  0  0  0  0
  149.5414  142.4064  156.1577 N   0  0  0  0  0  0  0  0  0  0  0  0
  148.5522  141.4676  155.6186 C   0  0  1  0  0  0  0  0  0  0  0  0
  147.0919  141.9371  155.7883 C   0  0  0  0  0  0  0  0  0  0  0  0
  146.5374  142.1041  154.3731 C   0  0  0  0  0  0  0  0  0  0  0  0
  147.3323  141.1110  153.5281 C   0  0  0  0  0  0  0  0  0  0  0  0
  148.7530  141.1512  154.1122 C   0  0  2  0  0  0  0  0  0  0  0  0
  149.5394  139.8547  153.8677 C   0  0  0  0  0  0  0  0  0  0  0  0
  148.9256  138.8935  153.1733 N   0  0  0  0  0  0  0  0  0  0  0  0
  150.6840  139.7197  154.2970 O   0  0  0  0  0  0  0  0  0  0  0  0
  152.5220  142.0470  159.1840 C   0  0  0  0  0  0  0  0  0  0  0  0
  152.8297  141.9812  160.4977 N   0  3  0  0  0  0  0  0  0  0  0  0
  152.5520  143.5844  163.4402 H   0  0  0  0  0  0  0  0  0  0  0  0
  154.0578  142.8222  162.9159 H   0  0  0  0  0  0  0  0  0  0  0  0
  152.6123  141.8386  163.1854 H   0  0  0  0  0  0  0  0  0  0  0  0
  151.7593  144.9878  161.5749 H   0  0  0  0  0  0  0  0  0  0  0  0
  151.1665  145.1847  159.1611 H   0  0  0  0  0  0  0  0  0  0  0  0
  151.0403  144.2321  156.9880 H   0  0  0  0  0  0  0  0  0  0  0  0
  152.4826  143.3251  156.5800 H   0  0  0  0  0  0  0  0  0  0  0  0
  149.3214  143.3848  156.0402 H   0  0  0  0  0  0  0  0  0  0  0  0
  148.6665  140.5595  156.2128 H   0  0  0  0  0  0  0  0  0  0  0  0
  146.5245  141.1623  156.3053 H   0  0  0  0  0  0  0  0  0  0  0  0
  146.9891  142.8493  156.3770 H   0  0  0  0  0  0  0  0  0  0  0  0
  145.4620  141.9318  154.3217 H   0  0  0  0  0  0  0  0  0  0  0  0
  146.7267  143.1184  154.0200 H   0  0  0  0  0  0  0  0  0  0  0  0
  146.8917  140.1176  153.6276 H   0  0  0  0  0  0  0  0  0  0  0  0
  147.3143  141.3745  152.4700 H   0  0  0  0  0  0  0  0  0  0  0  0
  149.2763  141.9757  153.6255 H   0  0  0  0  0  0  0  0  0  0  0  0
  149.4030  138.0244  152.9828 H   0  0  0  0  0  0  0  0  0  0  0  0
  147.9852  139.0425  152.8368 H   0  0  0  0  0  0  0  0  0  0  0  0
  152.7767  141.1777  158.5952 H   0  0  0  0  0  0  0  0  0  0  0  0
  153.2736  141.1333  160.8513 H   0  0  0  0  0  0  0  0  0  0  0  0
  1  2  1  0  0  0  0
  1 20  1  0  0  0  0
  1 21  1  0  0  0  0
  1 22  1  0  0  0  0
  2 19  1  0  0  0  0
  2  3  2  0  0  0  0
  3  4  1  0  0  0  0
  3 23  1  0  0  0  0
  4  5  2  0  0  0  0
  4 24  1  0  0  0  0
  5  6  1  0  0  0  0
  5 18  1  0  0  0  0
  6  7  1  0  0  0  0
  6 25  1  0  0  0  0
  6 26  1  0  0  0  0
  7  8  2  0  0  0  0
  7  9  1  0  0  0  0
  9 10  1  0  0  0  0
  9 27  1  0  0  0  0
 10 14  1  0  0  0  0
 10 11  1  0  0  0  0
 10 28  1  0  0  0  0
 11 12  1  0  0  0  0
 11 29  1  0  0  0  0
 11 30  1  0  0  0  0
 12 13  1  0  0  0  0
 12 31  1  0  0  0  0
 12 32  1  0  0  0  0
 13 14  1  0  0  0  0
 13 33  1  0  0  0  0
 13 34  1  0  0  0  0
 14 15  1  0  0  0  0
 14 35  1  0  0  0  0
 15 16  1  0  0  0  0
 15 17  2  0  0  0  0
 16 36  1  0  0  0  0
 16 37  1  0  0  0  0
 18 19  2  0  0  0  0
 18 38  1  0  0  0  0
 19 39  1  0  0  0  0
M  CHG  1  19   1
M  END
> <s_m_source_file>
AV-unprocessed.smi

> <i_m_source_file_index>
651

> <i_lp_mmshare_version>
43012

> <i_f3d_flags>
0

> <s_epik_input>
W0NIM11jMVtjSF1bY0hdYyhbY0hdbjEpW0NIMl1DKD1PKVtOSF1bQ0BASF0yW0NIMl1bQ0gyXVtDSDJdW0NASF0yQyg9TylbTkgyXQ==

> <s_epik_cmdline>
J2VwaWtfcHl0aG9uJywgJy1waCcsICc3LjAnLCAnLXRuJywgJzgnLCAnLW1hJywgJzIwMCcsICctbWV0YWxfYmluZGluZycsICctaW1hZScsICc8aW5maWxlLm1hZT4nLCAnLW9tYWUnLCAnPG91dGZpbGUubWFlPic=

> <r_epik_Ionization_Penalty>
2.14971

> <r_epik_Ionization_Penalty_Charging>
2.14971

> <r_epik_Ionization_Penalty_Neutral>
1.65229e-07

> <r_epik_State_Penalty>
2.28946

> <r_epik_Charging_Adjusted_Penalty>
4.43917

> <i_epik_Tot_Q>
1

> <i_epik_Tot_abs_Q>
1

> <r_epik_Metal_State_Penalty>
2.30508

> <b_epik_Metal_Only>
0

> <s_lp_Force_Field>
OPLS_2005

> <r_lp_Energy>
21.472

> <b_lp_Chiralities_Consistent>
1

> <s_lp_Variant>
AV-unprocessed.smi:651-8

> <Gold.Version>
5.8.1

> <Gold.Id.Protein>
6NUR|6NUR_protein|mol2

> <Gold.PLP.Fitness>
52.6186

> <Gold.PLP.PLP>
-45.7609

> <Gold.PLP.part.hbond>
-4.0000

> <Gold.PLP.part.metal>
0.0000

> <Gold.PLP.part.buried>
-5.5124

> <Gold.PLP.part.nonpolar>
-37.2914

> <Gold.PLP.part.repulsive>
0.3880

> <Gold.PLP.ligand.clash>
0.0000

> <Gold.PLP.ligand.torsion>
0.4168

> <Gold.PLP.Chemscore.Hbond>
2.5569

> <Gold.PLP.Chemscore.CHOScore>
0.0000

> <Gold.PLP.Chemscore.Metal>
0.0000

> <Gold.Chemscore.Hbonds>
donor molecule, donor type, donor heavy atom, donor atom, acceptor molecule, acceptor atom, score
      L1  H     9    27       P1  8028  0.81
      L1  H    16    36       P1  7948  0.55
      P1  H  7989  7998       L1    17  1.00

> <Gold.PLP.Chemscore.Internal.Correction>
0.0206

> <Gold.Rescore>
     Score         DG    S(hbond)    S(metal)    S(lipo)     H(rot)  DE(clash)    DE(int)     intcor
     19.26     -21.07       2.57        0.00     104.50       2.04       0.61       1.20       ----

> <Gold.Chemscore.Fitness>
19.2560

> <Gold.Chemscore.DG>
-21.0715

> <Gold.Chemscore.ZeroCoef>
-5.4800

> <Gold.Chemscore.Hbond>
2.5700

> <Gold.Chemscore.Metal>
0.0000

> <Gold.Chemscore.Lipo>
104.4999

> <Gold.Chemscore.Internal_Hbond>
0.0000

> <Gold.Chemscore.DEClash>
0.6125

> <Gold.Chemscore.DEInternal>
1.2030

> <Gold.Chemscore.Rot>
2.0386

> <Gold.Chemscore.Internal.Correction>
   9.000000E+99

> <Gold.Chemscore.Hbonds>
donor molecule, donor type, donor heavy atom, donor atom, acceptor molecule, acceptor atom, score
      L1  H     9    27       P1  8028  0.80
      L1  H    16    36       P1  7948  0.51
      P1  H  7989  7998       L1    17  0.55

> <Gold.Chemscore.Hbond.Weighted>
-8.5838

> <Gold.Chemscore.Metal.Weighted>
-0.0000

> <Gold.Chemscore.Lipo.Weighted>
-12.2265

> <Gold.Chemscore.Internal_Hbond.Weighted>
0.0000

> <Gold.Chemscore.DEClash.Weighted>
0.6125

> <Gold.Chemscore.DEInternal.Weighted>
1.2030

> <Gold.Chemscore.Rot.Weighted>
5.2188

> <Gold.Chemscore.Internal.Correction.Weighted>
   9.000000E+99

> <Gold.Protein.RotatedTorsions>
[ 6907 6896 6895 6894 ] final   -5.31 input  -60.11 | X-H torsion
[ 7974 7965 7964 7962 ] final  -90.52 input  175.53 | X-H torsion
[ 8008 7997 7996 7995 ] final  -14.47 input   59.86 | X-H torsion
[ 10167 10162 10161 10158 ] final -113.96 input  -65.29 | X-H torsion
[ 10718 10713 10712 10709 ] final  -29.09 input   66.30 | X-H torsion
[ 10763 10752 10751 10750 ] final -168.49 input  -60.55 | X-H torsion
[ 11005 11000 10999 10996 ] final -162.39 input  -57.11 | X-H torsion

> <Gold.Protein.ActiveResidues>
 VAL166  LYS551  ARG553  GLY616  TRP617  ASP618  TYR619  PRO620  LYS621  CYS622 
 ASP623  PHE694  ASN695  SER759  ASP760  ASP761  ALA762  ILE779  LEU786  VAL792 
 PHE793  MET794  SER795  GLU796  ALA797  LYS798  CYS799  TRP800  GLU811  SER814 

> <Gold.Protein.RotatedAtoms>
  151.4836  135.1053  159.9784 H   0  0  0  0  0  0  0  0  0  0  0  0  # atno 6907 bound_to 6896
  152.4769  133.8156  159.7037 H   0  0  0  0  0  0  0  0  0  0  0  0  # atno 6908 bound_to 6896
  150.8813  133.7306  159.2957 H   0  0  0  0  0  0  0  0  0  0  0  0  # atno 6909 bound_to 6896
  145.4254  140.9553  143.2157 H   0  0  0  0  0  0  0  0  0  0  0  0  # atno 7974 bound_to 7965
  154.5208  140.2222  155.8980 H   0  0  0  0  0  0  0  0  0  0  0  0  # atno 8008 bound_to 7997
  156.1659  140.3132  155.8853 H   0  0  0  0  0  0  0  0  0  0  0  0  # atno 8009 bound_to 7997
  155.3657  140.0463  157.3036 H   0  0  0  0  0  0  0  0  0  0  0  0  # atno 8010 bound_to 7997
  140.1062  143.4568  152.1781 H   0  0  0  0  0  0  0  0  0  0  0  0  # atno 10167 bound_to 10162
  156.4168  130.4419  149.7212 H   0  0  0  0  0  0  0  0  0  0  0  0  # atno 10718 bound_to 10713
  154.6623  135.2927  154.9850 H   0  0  0  0  0  0  0  0  0  0  0  0  # atno 10763 bound_to 10752
  154.0906  135.6591  153.4856 H   0  0  0  0  0  0  0  0  0  0  0  0  # atno 10764 bound_to 10752
  153.0437  135.5219  154.7580 H   0  0  0  0  0  0  0  0  0  0  0  0  # atno 10765 bound_to 10752
  140.6097  134.4861  157.5214 H   0  0  0  0  0  0  0  0  0  0  0  0  # atno 11005 bound_to 11000
  144.8217  139.5779  143.6983 LP  0  0  0  0  0  0  0  0  0  0  0  0  # atno 17320 bound_to 7965
  146.2635  139.6465  142.9346 LP  0  0  0  0  0  0  0  0  0  0  0  0  # atno 17321 bound_to 7965
  139.5644  144.7426  151.4064 LP  0  0  0  0  0  0  0  0  0  0  0  0  # atno 17342 bound_to 10162
  140.6951  143.7769  150.7314 LP  0  0  0  0  0  0  0  0  0  0  0  0  # atno 17343 bound_to 10162
  156.4169  130.7749  151.2765 LP  0  0  0  0  0  0  0  0  0  0  0  0  # atno 17370 bound_to 10713
  157.7508  131.0195  150.3668 LP  0  0  0  0  0  0  0  0  0  0  0  0  # atno 17371 bound_to 10713
  139.9197  134.8174  156.1251 LP  0  0  0  0  0  0  0  0  0  0  0  0  # atno 17394 bound_to 11000
  141.0816  133.6752  156.2348 LP  0  0  0  0  0  0  0  0  0  0  0  0  # atno 17395 bound_to 11000

$$$$
