AV-unprocessed.smi:538|AV-procd|sdf|2866|dock9
  -GOLD-   2262023363D 1   1.00000     0.00000
 Structure written by MMmdl.
 43 44  0  0  0  0  0  0  0  0  1 V2000
  146.7419  138.5045  153.3455 C   0  0  0  0  0  0  0  0  0  0  0  0
  147.3404  139.4558  154.2078 O   0  0  0  0  0  0  0  0  0  0  0  0
  147.9913  140.4968  153.4977 C   0  0  0  0  0  0  0  0  0  0  0  0
  148.6625  141.4463  154.4981 C   0  0  0  0  0  0  0  0  0  0  0  0
  149.7181  140.7895  155.2470 N   0  0  0  0  0  0  0  0  0  0  0  0
  150.4425  141.1734  156.3686 C   0  0  0  0  0  0  0  0  0  0  0  0
  150.2785  142.3289  157.0165 N   0  0  0  0  0  0  0  0  0  0  0  0
  151.2191  142.2448  158.0338 C   0  0  0  0  0  0  0  0  0  0  0  0
  151.9024  141.0776  157.9695 C   0  0  0  0  0  0  0  0  0  0  0  0
  152.9668  140.7268  158.9151 C   0  0  0  0  0  0  0  0  0  0  0  0
  153.5799  139.6615  158.8291 O   0  0  0  0  0  0  0  0  0  0  0  0
  153.2011  141.6788  159.8712 N   0  0  0  0  0  0  0  0  0  0  0  0
  154.2633  141.3602  160.8436 C   0  0  0  0  0  0  0  0  0  0  0  0
  152.5198  142.8793  159.9847 C   0  0  0  0  0  0  0  0  0  0  0  0
  152.7745  143.6839  160.8848 O   0  0  0  0  0  0  0  0  0  0  0  0
  151.5400  143.1636  159.0663 N   0  0  0  0  0  0  0  0  0  0  0  0
  150.8004  144.4262  159.1516 C   0  0  0  0  0  0  0  0  0  0  0  0
  151.3965  140.3596  156.8851 N   0  0  0  0  0  0  0  0  0  0  0  0
  151.8018  139.0398  156.4097 C   0  0  0  0  0  0  0  0  0  0  0  0
  152.2092  139.0591  154.9299 C   0  0  0  0  0  0  0  0  0  0  0  0
  152.1431  137.7453  154.3999 O   0  0  0  0  0  0  0  0  0  0  0  0
  150.8429  137.1901  154.4832 C   0  0  0  0  0  0  0  0  0  0  0  0
  146.2604  137.7259  153.9370 H   0  0  0  0  0  0  0  0  0  0  0  0
  147.4854  138.0295  152.7042 H   0  0  0  0  0  0  0  0  0  0  0  0
  145.9808  138.9678  152.7163 H   0  0  0  0  0  0  0  0  0  0  0  0
  148.7491  140.0653  152.8423 H   0  0  0  0  0  0  0  0  0  0  0  0
  147.2853  141.0373  152.8651 H   0  0  0  0  0  0  0  0  0  0  0  0
  149.0714  142.3162  153.9836 H   0  0  0  0  0  0  0  0  0  0  0  0
  147.9227  141.8166  155.2081 H   0  0  0  0  0  0  0  0  0  0  0  0
  149.9528  139.8739  154.8915 H   0  0  0  0  0  0  0  0  0  0  0  0
  154.5009  142.1594  161.5460 H   0  0  0  0  0  0  0  0  0  0  0  0
  155.1966  141.1220  160.3304 H   0  0  0  0  0  0  0  0  0  0  0  0
  153.9793  140.4917  161.4401 H   0  0  0  0  0  0  0  0  0  0  0  0
  151.4831  145.2759  159.1061 H   0  0  0  0  0  0  0  0  0  0  0  0
  150.2484  144.4819  160.0910 H   0  0  0  0  0  0  0  0  0  0  0  0
  150.0794  144.5495  158.3431 H   0  0  0  0  0  0  0  0  0  0  0  0
  152.6217  138.6753  157.0275 H   0  0  0  0  0  0  0  0  0  0  0  0
  150.9864  138.3326  156.5623 H   0  0  0  0  0  0  0  0  0  0  0  0
  151.5501  139.7225  154.3678 H   0  0  0  0  0  0  0  0  0  0  0  0
  153.2233  139.4492  154.8323 H   0  0  0  0  0  0  0  0  0  0  0  0
  150.8450  136.1881  154.0542 H   0  0  0  0  0  0  0  0  0  0  0  0
  150.1201  137.7918  153.9307 H   0  0  0  0  0  0  0  0  0  0  0  0
  150.5143  137.1115  155.5202 H   0  0  0  0  0  0  0  0  0  0  0  0
  1  2  1  0  0  0  0
  1 23  1  0  0  0  0
  1 24  1  0  0  0  0
  1 25  1  0  0  0  0
  2  3  1  0  0  0  0
  3  4  1  0  0  0  0
  3 26  1  0  0  0  0
  3 27  1  0  0  0  0
  4  5  1  0  0  0  0
  4 28  1  0  0  0  0
  4 29  1  0  0  0  0
  5  6  1  0  0  0  0
  5 30  1  0  0  0  0
  6 18  1  0  0  0  0
  6  7  2  0  0  0  0
  7  8  1  0  0  0  0
  8 16  1  0  0  0  0
  8  9  2  0  0  0  0
  9 10  1  0  0  0  0
  9 18  1  0  0  0  0
 10 11  2  0  0  0  0
 10 12  1  0  0  0  0
 12 13  1  0  0  0  0
 12 14  1  0  0  0  0
 13 31  1  0  0  0  0
 13 32  1  0  0  0  0
 13 33  1  0  0  0  0
 14 15  2  0  0  0  0
 14 16  1  0  0  0  0
 16 17  1  0  0  0  0
 17 34  1  0  0  0  0
 17 35  1  0  0  0  0
 17 36  1  0  0  0  0
 18 19  1  0  0  0  0
 19 20  1  0  0  0  0
 19 37  1  0  0  0  0
 19 38  1  0  0  0  0
 20 21  1  0  0  0  0
 20 39  1  0  0  0  0
 20 40  1  0  0  0  0
 21 22  1  0  0  0  0
 22 41  1  0  0  0  0
 22 42  1  0  0  0  0
 22 43  1  0  0  0  0
M  END
> <s_m_source_file>
AV-unprocessed.smi

> <i_m_source_file_index>
538

> <i_lp_mmshare_version>
43012

> <i_f3d_flags>
0

> <s_epik_input>
W0NIM11PW0NIMl1bQ0gyXVtOSF1jKG4xKW4oW0NIMl1bQ0gyXU9bQ0gzXSljKGMxMiljKD1PKW4oW0NIM10pYyg9TyluMltDSDNd

> <s_epik_cmdline>
J2VwaWtfcHl0aG9uJywgJy1waCcsICc3LjAnLCAnLXRuJywgJzgnLCAnLW1hJywgJzIwMCcsICctbWV0YWxfYmluZGluZycsICctaW1hZScsICc8aW5maWxlLm1hZT4nLCAnLW9tYWUnLCAnPG91dGZpbGUubWFlPic=

> <r_lp_tautomer_probability>
1

> <r_epik_Ionization_Penalty>
5.57243e-05

> <r_epik_Ionization_Penalty_Charging>
2.44156e-09

> <r_epik_Ionization_Penalty_Neutral>
5.57218e-05

> <r_epik_State_Penalty>
-0

> <r_epik_Charging_Adjusted_Penalty>
2.44156e-09

> <i_epik_Tot_Q>
0

> <i_epik_Tot_abs_Q>
0

> <r_epik_Metal_State_Penalty>
-0

> <b_epik_Metal_Only>
0

> <s_lp_Force_Field>
OPLS_2005

> <r_lp_Energy>
28.2468

> <b_lp_Chiralities_Consistent>
1

> <s_lp_Variant>
AV-unprocessed.smi:538-1

> <Gold.Version>
5.8.1

> <Gold.Id.Protein>
6NUR|6NUR_protein|mol2

> <Gold.PLP.Fitness>
43.9244

> <Gold.PLP.PLP>
-40.8832

> <Gold.PLP.part.hbond>
-1.9677

> <Gold.PLP.part.metal>
0.0000

> <Gold.PLP.part.buried>
-1.2676

> <Gold.PLP.part.nonpolar>
-38.9452

> <Gold.PLP.part.repulsive>
0.9567

> <Gold.PLP.ligand.clash>
0.0000

> <Gold.PLP.ligand.torsion>
0.1821

> <Gold.PLP.Chemscore.Hbond>
1.1269

> <Gold.PLP.Chemscore.CHOScore>
0.0000

> <Gold.PLP.Chemscore.Metal>
0.0000

> <Gold.Chemscore.Hbonds>
donor molecule, donor type, donor heavy atom, donor atom, acceptor molecule, acceptor atom, score
      P1  H  7997  8008       L1    11  0.93
      P1  H 10752 10764       L1    21  0.18

> <Gold.PLP.Chemscore.Internal.Correction>
0.0246

> <Gold.Rescore>
     Score         DG    S(hbond)    S(metal)    S(lipo)     H(rot)  DE(clash)    DE(int)     intcor
      9.41      -9.79       0.79        0.00      64.04       2.28       0.14       0.24       ----

> <Gold.Chemscore.Fitness>
9.4054

> <Gold.Chemscore.DG>
-9.7897

> <Gold.Chemscore.ZeroCoef>
-5.4800

> <Gold.Chemscore.Hbond>
0.7944

> <Gold.Chemscore.Metal>
0.0000

> <Gold.Chemscore.Lipo>
64.0403

> <Gold.Chemscore.Internal_Hbond>
0.0000

> <Gold.Chemscore.DEClash>
0.1415

> <Gold.Chemscore.DEInternal>
0.2428

> <Gold.Chemscore.Rot>
2.2797

> <Gold.Chemscore.Internal.Correction>
   9.000000E+99

> <Gold.Chemscore.Hbonds>
donor molecule, donor type, donor heavy atom, donor atom, acceptor molecule, acceptor atom, score
      P1  H  7997  8008       L1    11  0.27
      P1  H 10752 10764       L1    21  0.01

> <Gold.Chemscore.Hbond.Weighted>
-2.6531

> <Gold.Chemscore.Metal.Weighted>
-0.0000

> <Gold.Chemscore.Lipo.Weighted>
-7.4927

> <Gold.Chemscore.Internal_Hbond.Weighted>
0.0000

> <Gold.Chemscore.DEClash.Weighted>
0.1415

> <Gold.Chemscore.DEInternal.Weighted>
0.2428

> <Gold.Chemscore.Rot.Weighted>
5.8361

> <Gold.Chemscore.Internal.Correction.Weighted>
   9.000000E+99

> <Gold.Protein.RotatedTorsions>
[ 6907 6896 6895 6894 ] final -121.44 input  -60.11 | X-H torsion
[ 7974 7965 7964 7962 ] final  -86.50 input  175.53 | X-H torsion
[ 8008 7997 7996 7995 ] final  -99.99 input   59.86 | X-H torsion
[ 10167 10162 10161 10158 ] final  123.15 input  -65.29 | X-H torsion
[ 10718 10713 10712 10709 ] final  -83.53 input   66.30 | X-H torsion
[ 10763 10752 10751 10750 ] final  -81.36 input  -60.55 | X-H torsion
[ 11005 11000 10999 10996 ] final  118.66 input  -57.11 | X-H torsion

> <Gold.Protein.ActiveResidues>
 VAL166  LYS551  ARG553  GLY616  TRP617  ASP618  TYR619  PRO620  LYS621  CYS622 
 ASP623  PHE694  ASN695  SER759  ASP760  ASP761  ALA762  ILE779  LEU786  VAL792 
 PHE793  MET794  SER795  GLU796  ALA797  LYS798  CYS799  TRP800  GLU811  SER814 

> <Gold.Protein.RotatedAtoms>
  150.8483  133.7826  159.3034 H   0  0  0  0  0  0  0  0  0  0  0  0  # atno 6907 bound_to 6896
  151.5506  135.1066  159.9958 H   0  0  0  0  0  0  0  0  0  0  0  0  # atno 6908 bound_to 6896
  152.4532  133.7628  159.6812 H   0  0  0  0  0  0  0  0  0  0  0  0  # atno 6909 bound_to 6896
  145.4790  140.9557  143.1875 H   0  0  0  0  0  0  0  0  0  0  0  0  # atno 7974 bound_to 7965
  154.8224  140.0444  157.1420 H   0  0  0  0  0  0  0  0  0  0  0  0  # atno 8008 bound_to 7997
  154.9245  140.3031  155.5179 H   0  0  0  0  0  0  0  0  0  0  0  0  # atno 8009 bound_to 7997
  156.2981  140.2334  156.4298 H   0  0  0  0  0  0  0  0  0  0  0  0  # atno 8010 bound_to 7997
  139.5816  144.6989  151.3513 H   0  0  0  0  0  0  0  0  0  0  0  0  # atno 10167 bound_to 10162
  156.0017  130.4668  150.4272 H   0  0  0  0  0  0  0  0  0  0  0  0  # atno 10718 bound_to 10713
  154.5626  135.5629  153.7021 H   0  0  0  0  0  0  0  0  0  0  0  0  # atno 10763 bound_to 10752
  153.0023  135.6277  154.2224 H   0  0  0  0  0  0  0  0  0  0  0  0  # atno 10764 bound_to 10752
  154.2162  135.2871  155.2921 H   0  0  0  0  0  0  0  0  0  0  0  0  # atno 10765 bound_to 10752
  139.9117  134.9622  156.7536 H   0  0  0  0  0  0  0  0  0  0  0  0  # atno 11005 bound_to 11000
  144.7900  139.6348  143.7117 LP  0  0  0  0  0  0  0  0  0  0  0  0  # atno 17320 bound_to 7965
  146.2352  139.5891  142.9528 LP  0  0  0  0  0  0  0  0  0  0  0  0  # atno 17321 bound_to 7965
  140.7094  143.7430  150.7539 LP  0  0  0  0  0  0  0  0  0  0  0  0  # atno 17342 bound_to 10162
  140.0964  143.4829  152.2450 LP  0  0  0  0  0  0  0  0  0  0  0  0  # atno 17343 bound_to 10162
  157.2323  131.0507  151.2485 LP  0  0  0  0  0  0  0  0  0  0  0  0  # atno 17370 bound_to 10713
  157.3699  130.7175  149.6558 LP  0  0  0  0  0  0  0  0  0  0  0  0  # atno 17371 bound_to 10713
  140.6753  133.9522  155.7880 LP  0  0  0  0  0  0  0  0  0  0  0  0  # atno 17394 bound_to 11000
  141.0548  134.0432  157.3736 LP  0  0  0  0  0  0  0  0  0  0  0  0  # atno 17395 bound_to 11000

$$$$
