#       Name:                AV-unprocessed.smi:287
#       Creating user name   scv26
#       Creation time:       Thu Mar 26 22:03:21 2020


#       File generated by GOLD software.
#

@<TRIPOS>MOLECULE
AV-unprocessed.smi:287
    70    73     1
SMALL
NO_CHARGES


@<TRIPOS>ATOM
      1 ****        -2.4632   2.8765  -4.7352 C.3            1 S1                 0.0000
      2 ****        -2.7428   3.0043  -3.2771 C.2            1 S1                 0.0000
      3 ****        -3.2383   2.1540  -2.3322 C.2            1 S1                 0.0000
      4 ****        -3.2655   2.8620  -1.0937 C.2            1 S1                 0.0000
      5 ****        -3.7383   2.3026   0.2416 C.3            1 S1                 0.0000
      6 ****        -5.2559   2.0566   0.1991 C.3            1 S1                 0.0000
      7 ****        -3.5369   3.1991   1.3170 O.3            1 S1                 0.0000
      8 ****        -2.9994   1.0007   0.6263 C.3            1 S1                 0.0000
      9 ****        -1.5625   1.0705   0.3809 N.pl3          1 S1                 0.0000
     10 ****        -0.7842  -0.0111   0.5930 C.ar           1 S1                 0.0000
     11 ****        -1.3057  -1.1620   1.0918 N.ar           1 S1                 0.0000
     12 ****        -0.5144  -2.2199   1.2916 C.ar           1 S1                 0.0000
     13 ****         0.7955  -2.3363   1.0643 N.ar           1 S1                 0.0000
     14 ****         1.3252  -1.1834   0.5617 C.ar           1 S1                 0.0000
     15 ****         0.6040   0.0155   0.3019 C.ar           1 S1                 0.0000
     16 ****         1.4627   0.9836  -0.2007 N.2            1 S1                 0.0000
     17 ****         2.6236   0.3873  -0.2344 C.2            1 S1                 0.0000
     18 ****         2.6343  -0.9174   0.2075 N.pl3          1 S1                 0.0000
     19 ****         3.8179  -1.8359   0.2797 C.3            1 S1                 0.0000
     20 ****         3.4219  -3.1374  -0.0432 O.3            1 S1                 0.0000
     21 ****         3.6790  -4.0261   1.0447 C.3            1 S1                 0.0000
     22 ****         4.0166  -5.4250   0.5061 C.3            1 S1                 0.0000
     23 ****         2.8306  -6.1355   0.2218 O.3            1 S1                 0.0000
     24 ****         4.8469  -3.3498   1.7648 C.3            1 S1                 0.0000
     25 ****         5.0201  -3.7921   3.0974 O.3            1 S1                 0.0000
     26 ****         4.4754  -1.8770   1.6724 C.3            1 S1                 0.0000
     27 ****         3.6129  -1.4653   2.7227 O.3            1 S1                 0.0000
     28 ****        -2.7827   4.1134  -1.3945 C.2            1 S1                 0.0000
     29 ****        -2.5422   5.3538  -0.5982 C.3            1 S1                 0.0000
     30 ****        -2.4618   4.2065  -2.7153 O.3            1 S1                 0.0000
     31 ****         4.4946  -1.4742  -0.4955 H              1 S1                 0.0000
     32 ****         2.8134  -4.0587   1.7086 H              1 S1                 0.0000
     33 ****         5.7697  -3.5248   1.2092 H              1 S1                 0.0000
     34 ****         5.3566  -1.2347   1.6803 H              1 S1                 0.0000
     35 ****        -2.6527   1.8599  -5.0800 H              1 S1                 0.0000
     36 ****        -1.4225   3.1179  -4.9520 H              1 S1                 0.0000
     37 ****        -3.0959   3.5523  -5.3106 H              1 S1                 0.0000
     38 ****        -3.5431   1.1328  -2.5071 H              1 S1                 0.0000
     39 ****        -5.5191   1.3389  -0.5787 H              1 S1                 0.0000
     40 ****        -5.8015   2.9784  -0.0077 H              1 S1                 0.0000
     41 ****        -5.6238   1.6598   1.1461 H              1 S1                 0.0000
     42 ****        -3.8389   2.7864   2.1115 H              1 S1                 0.0000
     43 ****        -3.1982   0.7315   1.6648 H              1 S1                 0.0000
     44 ****        -3.3872   0.1858   0.0132 H              1 S1                 0.0000
     45 ****        -1.2192   1.9410  -0.0001 H              1 S1                 0.0000
     46 ****        -0.9991  -3.0989   1.6898 H              1 S1                 0.0000
     47 ****         3.5140   0.8891  -0.5846 H              1 S1                 0.0000
     48 ****         4.6479  -5.3680  -0.3812 H              1 S1                 0.0000
     49 ****         4.5648  -5.9941   1.2575 H              1 S1                 0.0000
     50 ****         3.0632  -6.9965  -0.0908 H              1 S1                 0.0000
     51 ****         4.2410  -3.5696   3.5852 H              1 S1                 0.0000
     52 ****         3.3029  -0.5933   2.5310 H              1 S1                 0.0000
     53 ****        -3.4612   5.6886  -0.1173 H              1 S1                 0.0000
     54 ****        -2.1802   6.1650  -1.2300 H              1 S1                 0.0000
     55 ****        -1.7976   5.1759   0.1777 H              1 S1                 0.0000
     56 ****        -4.0534   4.0402   1.1563 LP             1 S1                 0.0000
     57 ****        -2.5640   3.4156   1.3980 LP             1 S1                 0.0000
     58 ****        -2.2802  -1.2174   1.3091 LP             1 S1                 0.0000
     59 ****         1.3241  -3.1667   1.2406 LP             1 S1                 0.0000
     60 ****         1.2430   1.9202  -0.4736 LP             1 S1                 0.0000
     61 ****         3.9309  -3.4459  -0.8468 LP             1 S1                 0.0000
     62 ****         2.4429  -3.1420  -0.2469 LP             1 S1                 0.0000
     63 ****         2.3080  -5.6519  -0.4803 LP             1 S1                 0.0000
     64 ****         2.2787  -6.2160   1.0518 LP             1 S1                 0.0000
     65 ****         5.8146  -3.3407   3.5036 LP             1 S1                 0.0000
     66 ****         5.1567  -4.7827   3.1105 LP             1 S1                 0.0000
     67 ****         4.1129  -1.4630   3.5887 LP             1 S1                 0.0000
     68 ****         2.8369  -2.0927   2.7876 LP             1 S1                 0.0000
     69 ****        -3.0047   4.9244  -3.1509 LP             1 S1                 0.0000
     70 ****        -1.4893   4.4149  -2.8186 LP             1 S1                 0.0000
@<TRIPOS>BOND
    1    1    2 1     
    2    1   35 1     
    3    1   36 1     
    4    1   37 1     
    5    2   30 1     
    6    2    3 2     
    7    3    4 1     
    8    3   38 1     
    9    4    5 1     
   10    4   28 2     
   11    5    6 1     
   12    5    7 1     
   13    5    8 1     
   14    6   39 1     
   15    6   40 1     
   16    6   41 1     
   17    7   42 1     
   18    8    9 1     
   19    8   43 1     
   20    8   44 1     
   21    9   10 1     
   22    9   45 1     
   23   10   15 ar    
   24   10   11 ar    
   25   11   12 ar    
   26   12   13 ar    
   27   12   46 1     
   28   13   14 ar    
   29   14   18 1     
   30   14   15 ar    
   31   15   16 1     
   32   16   17 2     
   33   17   18 1     
   34   17   47 1     
   35   18   19 1     
   36   19   31 1     
   37   19   26 1     
   38   19   20 1     
   39   20   21 1     
   40   21   32 1     
   41   21   22 1     
   42   21   24 1     
   43   22   23 1     
   44   22   48 1     
   45   22   49 1     
   46   23   50 1     
   47   24   33 1     
   48   24   25 1     
   49   24   26 1     
   50   25   51 1     
   51   26   34 1     
   52   26   27 1     
   53   27   52 1     
   54   28   29 1     
   55   28   30 1     
   56   29   53 1     
   57   29   54 1     
   58   29   55 1     
   59    7   56 1     
   60    7   57 1     
   61   11   58 1     
   62   13   59 1     
   63   16   60 1     
   64   20   61 1     
   65   20   62 1     
   66   23   63 1     
   67   23   64 1     
   68   25   65 1     
   69   25   66 1     
   70   27   67 1     
   71   27   68 1     
   72   30   69 1     
   73   30   70 1     
@<TRIPOS>SUBSTRUCTURE
      1 S1             1
@<TRIPOS>SET
LONE_PAIRS      STATIC     ATOMS    <user>   **** ""
15 56 57 58 59 60 61 62 63 64 65 66 67 68 69 70
DONOR_HYDROGENS      STATIC     ATOMS    <user>   **** ""
5 42 45 50 51 52
ATOM$BLUE        STATIC     ATOMS    COLORGROUP SYSTEM
15 56 57 58 59 60 61 62 63 64 65 66 67 68 69 70
ATOM$RED        STATIC     ATOMS    COLORGROUP SYSTEM
5 42 45 50 51 52
