AV-unprocessed.smi:3308|AV-procd|sdf|12712|dock4
  -GOLD-   2272019 43D 1   1.00000     0.00000
 Structure written by MMmdl.
 40 41  0  0  0  0  0  0  0  0  1 V2000
  152.6157  139.8061  158.8017 C   0  0  0  0  0  0  0  0  0  0  0  0
  151.9139  141.1762  158.9153 C   0  0  2  0  0  0  0  0  0  0  0  0
  151.3210  141.5699  157.6398 N   0  0  0  0  0  0  0  0  0  0  0  0
  150.2034  140.7153  157.2198 C   0  0  0  0  0  0  0  0  0  0  0  0
  150.0914  140.6618  155.6926 C   0  0  0  0  0  0  0  0  0  0  0  0
  151.0706  140.2965  155.0420 O   0  0  0  0  0  0  0  0  0  0  0  0
  148.9286  141.0190  155.1069 N   0  0  0  0  0  0  0  0  0  0  0  0
  148.6530  141.0165  153.6701 C   0  0  0  0  0  0  0  0  0  0  0  0
  147.1489  141.2558  153.5368 C   0  0  0  0  0  0  0  0  0  0  0  0
  146.7755  142.0005  154.8107 C   0  0  0  0  0  0  0  0  0  0  0  0
  147.7552  141.4660  155.8554 C   0  0  0  0  0  0  0  0  0  0  0  0
  152.8369  142.3239  159.4072 C   0  0  2  0  0  0  0  0  0  0  0  0
  153.5068  142.0566  160.7722 C   0  0  0  0  0  0  0  0  0  0  0  0
  152.1386  143.6058  159.4034 N   0  0  0  0  0  0  0  0  0  0  0  0
  151.9962  144.5337  160.4186 C   0  0  0  0  0  0  0  0  0  0  0  0
  151.2238  145.5521  159.9396 C   0  0  0  0  0  0  0  0  0  0  0  0
  150.9235  145.1505  158.6090 C   0  0  0  0  0  0  0  0  0  0  0  0
  151.4639  143.9849  158.2950 N   0  0  0  0  0  0  0  0  0  0  0  0
  153.0908  139.5231  159.7404 H   0  0  0  0  0  0  0  0  0  0  0  0
  153.3833  139.8079  158.0280 H   0  0  0  0  0  0  0  0  0  0  0  0
  151.9113  139.0097  158.5636 H   0  0  0  0  0  0  0  0  0  0  0  0
  151.1071  141.0846  159.6446 H   0  0  0  0  0  0  0  0  0  0  0  0
  152.0397  141.6209  156.9319 H   0  0  0  0  0  0  0  0  0  0  0  0
  150.3519  139.7010  157.5896 H   0  0  0  0  0  0  0  0  0  0  0  0
  149.2665  141.0708  157.6500 H   0  0  0  0  0  0  0  0  0  0  0  0
  149.2099  141.8276  153.1991 H   0  0  0  0  0  0  0  0  0  0  0  0
  148.9424  140.0802  153.1911 H   0  0  0  0  0  0  0  0  0  0  0  0
  146.8860  141.8053  152.6326 H   0  0  0  0  0  0  0  0  0  0  0  0
  146.6279  140.2981  153.5092 H   0  0  0  0  0  0  0  0  0  0  0  0
  146.9396  143.0696  154.6691 H   0  0  0  0  0  0  0  0  0  0  0  0
  145.7327  141.8572  155.0954 H   0  0  0  0  0  0  0  0  0  0  0  0
  147.3259  140.6129  156.3827 H   0  0  0  0  0  0  0  0  0  0  0  0
  148.0038  142.2307  156.5928 H   0  0  0  0  0  0  0  0  0  0  0  0
  153.6493  142.4182  158.6835 H   0  0  0  0  0  0  0  0  0  0  0  0
  154.1433  141.1724  160.7373 H   0  0  0  0  0  0  0  0  0  0  0  0
  152.7764  141.9040  161.5663 H   0  0  0  0  0  0  0  0  0  0  0  0
  154.1411  142.8942  161.0641 H   0  0  0  0  0  0  0  0  0  0  0  0
  152.4478  144.3971  161.3898 H   0  0  0  0  0  0  0  0  0  0  0  0
  150.9154  146.4452  160.4624 H   0  0  0  0  0  0  0  0  0  0  0  0
  150.3292  145.6655  157.8687 H   0  0  0  0  0  0  0  0  0  0  0  0
  1  2  1  0  0  0  0
  1 19  1  0  0  0  0
  1 20  1  0  0  0  0
  1 21  1  0  0  0  0
  2  3  1  0  0  0  0
  2 12  1  0  0  0  0
  2 22  1  0  0  0  0
  3  4  1  0  0  0  0
  3 23  1  0  0  0  0
  4  5  1  0  0  0  0
  4 24  1  0  0  0  0
  4 25  1  0  0  0  0
  5  6  2  0  0  0  0
  5  7  1  0  0  0  0
  7 11  1  0  0  0  0
  7  8  1  0  0  0  0
  8  9  1  0  0  0  0
  8 26  1  0  0  0  0
  8 27  1  0  0  0  0
  9 10  1  0  0  0  0
  9 28  1  0  0  0  0
  9 29  1  0  0  0  0
 10 11  1  0  0  0  0
 10 30  1  0  0  0  0
 10 31  1  0  0  0  0
 11 32  1  0  0  0  0
 11 33  1  0  0  0  0
 12 13  1  0  0  0  0
 12 14  1  0  0  0  0
 12 34  1  0  0  0  0
 13 35  1  0  0  0  0
 13 36  1  0  0  0  0
 13 37  1  0  0  0  0
 14 18  1  0  0  0  0
 14 15  1  0  0  0  0
 15 16  2  0  0  0  0
 15 38  1  0  0  0  0
 16 17  1  0  0  0  0
 16 39  1  0  0  0  0
 17 18  2  0  0  0  0
 17 40  1  0  0  0  0
M  END
> <s_m_source_file>
AV-unprocessed.smi

> <i_m_source_file_index>
3308

> <i_lp_mmshare_version>
43012

> <i_f3d_flags>
0

> <s_epik_input>
bjFbY0hdW2NIXVtjSF1uMVtDQEBIXShbQ0gzXSlbQ0BIXShbQ0gzXSlbTkhdW0NIMl1DKD1PKU4yW0NIMl1bQ0gyXVtDSDJdW0NIMl0y

> <s_epik_cmdline>
J2VwaWtfcHl0aG9uJywgJy1waCcsICc3LjAnLCAnLXRuJywgJzgnLCAnLW1hJywgJzIwMCcsICctbWV0YWxfYmluZGluZycsICctaW1hZScsICc8aW5maWxlLm1hZT4nLCAnLW9tYWUnLCAnPG91dGZpbGUubWFlPic=

> <r_lp_tautomer_probability>
1

> <r_epik_Ionization_Penalty>
0.918676

> <r_epik_Ionization_Penalty_Charging>
0

> <r_epik_Ionization_Penalty_Neutral>
0.918676

> <r_epik_State_Penalty>
0.958258

> <r_epik_Charging_Adjusted_Penalty>
0.958258

> <i_epik_Tot_Q>
0

> <i_epik_Tot_abs_Q>
0

> <r_epik_Metal_State_Penalty>
0.956879

> <b_epik_Metal_Only>
0

> <s_lp_Force_Field>
OPLS_2005

> <r_lp_Energy>
37.0374

> <b_lp_Chiralities_Consistent>
1

> <s_lp_Variant>
AV-unprocessed.smi:3308-5

> <Gold.Version>
5.8.1

> <Gold.Id.Protein>
6NUR|6NUR_protein|mol2

> <Gold.PLP.Fitness>
49.1891

> <Gold.PLP.PLP>
-43.8416

> <Gold.PLP.part.hbond>
-1.0000

> <Gold.PLP.part.metal>
0.0000

> <Gold.PLP.part.buried>
-4.7185

> <Gold.PLP.part.nonpolar>
-37.2821

> <Gold.PLP.part.repulsive>
0.1799

> <Gold.PLP.ligand.clash>
0.0000

> <Gold.PLP.ligand.torsion>
0.3512

> <Gold.PLP.Chemscore.Hbond>
0.9920

> <Gold.PLP.Chemscore.CHOScore>
0.9614

> <Gold.PLP.Chemscore.Metal>
0.0000

> <Gold.Chemscore.Hbonds>
donor molecule, donor type, donor heavy atom, donor atom, acceptor molecule, acceptor atom, score
      P1  H  7989  7998       L1     6  1.00
      L1  C    17    40       P1  8028  0.06
      L1  C    17    40       P1  8029  0.69

> <Gold.PLP.Chemscore.Internal.Correction>
0.1897

> <Gold.Rescore>
     Score         DG    S(hbond)    S(metal)    S(lipo)     H(rot)  DE(clash)    DE(int)     intcor
     13.85     -16.03       0.98        0.00      99.93       1.72       0.12       2.05       ----

> <Gold.Chemscore.Fitness>
13.8514

> <Gold.Chemscore.DG>
-16.0268

> <Gold.Chemscore.ZeroCoef>
-5.4800

> <Gold.Chemscore.Hbond>
0.9754

> <Gold.Chemscore.Metal>
0.0000

> <Gold.Chemscore.Lipo>
99.9314

> <Gold.Chemscore.Internal_Hbond>
0.0000

> <Gold.Chemscore.DEClash>
0.1235

> <Gold.Chemscore.DEInternal>
2.0518

> <Gold.Chemscore.Rot>
1.7200

> <Gold.Chemscore.Internal.Correction>
   9.000000E+99

> <Gold.Chemscore.Hbonds>
donor molecule, donor type, donor heavy atom, donor atom, acceptor molecule, acceptor atom, score
      P1  H  7989  7998       L1     6  0.98

> <Gold.Chemscore.Hbond.Weighted>
-3.2579

> <Gold.Chemscore.Metal.Weighted>
-0.0000

> <Gold.Chemscore.Lipo.Weighted>
-11.6920

> <Gold.Chemscore.Internal_Hbond.Weighted>
0.0000

> <Gold.Chemscore.DEClash.Weighted>
0.1235

> <Gold.Chemscore.DEInternal.Weighted>
2.0518

> <Gold.Chemscore.Rot.Weighted>
4.4031

> <Gold.Chemscore.Internal.Correction.Weighted>
   9.000000E+99

> <Gold.Protein.RotatedTorsions>
[ 6907 6896 6895 6894 ] final  133.00 input  -60.11 | X-H torsion
[ 7974 7965 7964 7962 ] final    0.78 input  175.53 | X-H torsion
[ 8008 7997 7996 7995 ] final  179.04 input   59.86 | X-H torsion
[ 10167 10162 10161 10158 ] final   39.24 input  -65.29 | X-H torsion
[ 10718 10713 10712 10709 ] final   81.42 input   66.30 | X-H torsion
[ 10763 10752 10751 10750 ] final  -52.78 input  -60.55 | X-H torsion
[ 11005 11000 10999 10996 ] final -155.94 input  -57.11 | X-H torsion

> <Gold.Protein.ActiveResidues>
 VAL166  LYS551  ARG553  GLY616  TRP617  ASP618  TYR619  PRO620  LYS621  CYS622 
 ASP623  PHE694  ASN695  SER759  ASP760  ASP761  ALA762  ILE779  LEU786  VAL792 
 PHE793  MET794  SER795  GLU796  ALA797  LYS798  CYS799  TRP800  GLU811  SER814 

> <Gold.Protein.RotatedAtoms>
  152.3265  133.5911  159.5780 H   0  0  0  0  0  0  0  0  0  0  0  0  # atno 6907 bound_to 6896
  150.7400  133.9932  159.3622 H   0  0  0  0  0  0  0  0  0  0  0  0  # atno 6908 bound_to 6896
  151.7811  135.0762  160.0425 H   0  0  0  0  0  0  0  0  0  0  0  0  # atno 6909 bound_to 6896
  146.2436  140.1085  142.8345 H   0  0  0  0  0  0  0  0  0  0  0  0  # atno 7974 bound_to 7965
  156.0479  140.1318  157.0084 H   0  0  0  0  0  0  0  0  0  0  0  0  # atno 8008 bound_to 7997
  154.4421  140.1017  156.6403 H   0  0  0  0  0  0  0  0  0  0  0  0  # atno 8009 bound_to 7997
  155.5569  140.3464  155.4484 H   0  0  0  0  0  0  0  0  0  0  0  0  # atno 8010 bound_to 7997
  140.3859  144.1918  150.6130 H   0  0  0  0  0  0  0  0  0  0  0  0  # atno 10167 bound_to 10162
  157.6832  131.0003  150.2224 H   0  0  0  0  0  0  0  0  0  0  0  0  # atno 10718 bound_to 10713
  154.1483  135.6494  153.4957 H   0  0  0  0  0  0  0  0  0  0  0  0  # atno 10763 bound_to 10752
  153.0145  135.5332  154.6834 H   0  0  0  0  0  0  0  0  0  0  0  0  # atno 10764 bound_to 10752
  154.6115  135.2954  155.0398 H   0  0  0  0  0  0  0  0  0  0  0  0  # atno 10765 bound_to 10752
  140.6810  134.4144  157.5226 H   0  0  0  0  0  0  0  0  0  0  0  0  # atno 11005 bound_to 11000
  145.0507  140.9015  143.4997 LP  0  0  0  0  0  0  0  0  0  0  0  0  # atno 17320 bound_to 7965
  145.1183  139.2711  143.5602 LP  0  0  0  0  0  0  0  0  0  0  0  0  # atno 17321 bound_to 7965
  140.4890  143.2354  151.8846 LP  0  0  0  0  0  0  0  0  0  0  0  0  # atno 17342 bound_to 10162
  139.4792  144.5187  151.8832 LP  0  0  0  0  0  0  0  0  0  0  0  0  # atno 17343 bound_to 10162
  156.2873  130.3741  149.7876 LP  0  0  0  0  0  0  0  0  0  0  0  0  # atno 17370 bound_to 10713
  156.5546  130.8357  151.3310 LP  0  0  0  0  0  0  0  0  0  0  0  0  # atno 17371 bound_to 10713
  139.8952  134.8689  156.2144 LP  0  0  0  0  0  0  0  0  0  0  0  0  # atno 17394 bound_to 11000
  141.0317  133.6985  156.1442 LP  0  0  0  0  0  0  0  0  0  0  0  0  # atno 17395 bound_to 11000

$$$$
