AV-unprocessed.smi:3335|AV-procd|sdf|12846|dock10
  -GOLD-   2272019233D 1   1.00000     0.00000
 Structure written by MMmdl.
 46 47  0  0  0  0  0  0  0  0  1 V2000
  146.8231  135.2250  160.0978 C   0  0  0  0  0  0  0  0  0  0  0  0
  148.1129  135.6212  159.4392 C   0  0  0  0  0  0  0  0  0  0  0  0
  149.2525  136.2268  160.0392 C   0  0  0  0  0  0  0  0  0  0  0  0
  150.2333  136.4395  159.1783 N   0  0  0  0  0  0  0  0  0  0  0  0
  149.7576  135.9871  157.9958 N   0  0  0  0  0  0  0  0  0  0  0  0
  150.5846  136.0264  156.7915 C   0  0  1  0  0  0  0  0  0  0  0  0
  150.0438  135.1035  155.6809 C   0  0  0  0  0  0  0  0  0  0  0  0
  150.8798  137.4668  156.2912 C   0  0  2  0  0  0  0  0  0  0  0  0
  151.3917  137.5140  154.8408 C   0  0  0  0  0  0  0  0  0  0  0  0
  151.8795  138.1087  157.1429 N   0  0  0  0  0  0  0  0  0  0  0  0
  151.6006  139.5185  157.4614 C   0  0  2  0  0  0  0  0  0  0  0  0
  151.4119  140.3543  156.1812 C   0  0  0  0  0  0  0  0  0  0  0  0
  152.7439  140.1132  158.3078 C   0  0  0  0  0  0  0  0  0  0  0  0
  153.7662  139.4470  158.4820 O   0  0  0  0  0  0  0  0  0  0  0  0
  152.6056  141.3496  158.8359 N   0  0  0  0  0  0  0  0  0  0  0  0
  153.6275  141.9802  159.6699 C   0  0  0  0  0  0  0  0  0  0  0  0
  152.9854  143.2484  160.2324 C   0  0  0  0  0  0  0  0  0  0  0  0
  151.9110  143.6019  159.2144 C   0  0  0  0  0  0  0  0  0  0  0  0
  151.4660  142.2498  158.6571 C   0  0  0  0  0  0  0  0  0  0  0  0
  148.4802  135.4827  158.1309 C   0  0  0  0  0  0  0  0  0  0  0  0
  146.7296  135.6510  161.0970 H   0  0  0  0  0  0  0  0  0  0  0  0
  146.7419  134.1429  160.2010 H   0  0  0  0  0  0  0  0  0  0  0  0
  145.9589  135.5600  159.5241 H   0  0  0  0  0  0  0  0  0  0  0  0
  149.3967  136.5129  161.0706 H   0  0  0  0  0  0  0  0  0  0  0  0
  151.5470  135.6023  157.0820 H   0  0  0  0  0  0  0  0  0  0  0  0
  150.7280  135.0730  154.8327 H   0  0  0  0  0  0  0  0  0  0  0  0
  149.0748  135.4368  155.3074 H   0  0  0  0  0  0  0  0  0  0  0  0
  149.9249  134.0825  156.0443 H   0  0  0  0  0  0  0  0  0  0  0  0
  149.9391  138.0184  156.3264 H   0  0  0  0  0  0  0  0  0  0  0  0
  150.6913  137.0237  154.1644 H   0  0  0  0  0  0  0  0  0  0  0  0
  152.3582  137.0208  154.7333 H   0  0  0  0  0  0  0  0  0  0  0  0
  151.5100  138.5417  154.4969 H   0  0  0  0  0  0  0  0  0  0  0  0
  152.8052  137.9805  156.7595 H   0  0  0  0  0  0  0  0  0  0  0  0
  150.6813  139.5453  158.0455 H   0  0  0  0  0  0  0  0  0  0  0  0
  151.2604  141.4089  156.4135 H   0  0  0  0  0  0  0  0  0  0  0  0
  150.5418  140.0264  155.6128 H   0  0  0  0  0  0  0  0  0  0  0  0
  152.2812  140.2821  155.5261 H   0  0  0  0  0  0  0  0  0  0  0  0
  153.9676  141.3208  160.4702 H   0  0  0  0  0  0  0  0  0  0  0  0
  154.4882  142.2307  159.0479 H   0  0  0  0  0  0  0  0  0  0  0  0
  152.5189  143.0276  161.1934 H   0  0  0  0  0  0  0  0  0  0  0  0
  153.7043  144.0536  160.3870 H   0  0  0  0  0  0  0  0  0  0  0  0
  151.0885  144.1726  159.6467 H   0  0  0  0  0  0  0  0  0  0  0  0
  152.3499  144.2003  158.4149 H   0  0  0  0  0  0  0  0  0  0  0  0
  151.1678  142.3386  157.6118 H   0  0  0  0  0  0  0  0  0  0  0  0
  150.6170  141.8671  159.2253 H   0  0  0  0  0  0  0  0  0  0  0  0
  147.9438  135.0651  157.2915 H   0  0  0  0  0  0  0  0  0  0  0  0
  1  2  1  0  0  0  0
  1 21  1  0  0  0  0
  1 22  1  0  0  0  0
  1 23  1  0  0  0  0
  2 20  2  0  0  0  0
  2  3  1  0  0  0  0
  3  4  2  0  0  0  0
  3 24  1  0  0  0  0
  4  5  1  0  0  0  0
  5  6  1  0  0  0  0
  5 20  1  0  0  0  0
  6  7  1  0  0  0  0
  6  8  1  0  0  0  0
  6 25  1  0  0  0  0
  7 26  1  0  0  0  0
  7 27  1  0  0  0  0
  7 28  1  0  0  0  0
  8  9  1  0  0  0  0
  8 10  1  0  0  0  0
  8 29  1  0  0  0  0
  9 30  1  0  0  0  0
  9 31  1  0  0  0  0
  9 32  1  0  0  0  0
 10 11  1  0  0  0  0
 10 33  1  0  0  0  0
 11 12  1  0  0  0  0
 11 13  1  0  0  0  0
 11 34  1  0  0  0  0
 12 35  1  0  0  0  0
 12 36  1  0  0  0  0
 12 37  1  0  0  0  0
 13 14  2  0  0  0  0
 13 15  1  0  0  0  0
 15 19  1  0  0  0  0
 15 16  1  0  0  0  0
 16 17  1  0  0  0  0
 16 38  1  0  0  0  0
 16 39  1  0  0  0  0
 17 18  1  0  0  0  0
 17 40  1  0  0  0  0
 17 41  1  0  0  0  0
 18 19  1  0  0  0  0
 18 42  1  0  0  0  0
 18 43  1  0  0  0  0
 19 44  1  0  0  0  0
 19 45  1  0  0  0  0
 20 46  1  0  0  0  0
M  END
> <s_m_source_file>
AV-unprocessed.smi

> <i_m_source_file_index>
3335

> <i_lp_mmshare_version>
43012

> <i_f3d_flags>
0

> <s_epik_input>
W0NIM11jMVtjSF1ubihbY0hdMSlbQ0BIXShbQ0gzXSlbQ0BIXShbQ0gzXSlbTkhdW0NASF0oW0NIM10pQyg9TylOMltDSDJdW0NIMl1bQ0gyXVtDSDJdMg==

> <s_epik_cmdline>
J2VwaWtfcHl0aG9uJywgJy1waCcsICc3LjAnLCAnLXRuJywgJzgnLCAnLW1hJywgJzIwMCcsICctbWV0YWxfYmluZGluZycsICctaW1hZScsICc8aW5maWxlLm1hZT4nLCAnLW9tYWUnLCAnPG91dGZpbGUubWFlPic=

> <r_lp_tautomer_probability>
1

> <r_epik_Ionization_Penalty>
0.918803

> <r_epik_Ionization_Penalty_Charging>
0

> <r_epik_Ionization_Penalty_Neutral>
0.918803

> <r_epik_State_Penalty>
0.958258

> <r_epik_Charging_Adjusted_Penalty>
0.958258

> <i_epik_Tot_Q>
0

> <i_epik_Tot_abs_Q>
0

> <r_epik_Metal_State_Penalty>
0.956786

> <b_epik_Metal_Only>
0

> <s_lp_Force_Field>
OPLS_2005

> <r_lp_Energy>
40.4571

> <b_lp_Chiralities_Consistent>
1

> <s_lp_Variant>
AV-unprocessed.smi:3335-10

> <Gold.Version>
5.8.1

> <Gold.Id.Protein>
6NUR|6NUR_protein|mol2

> <Gold.PLP.Fitness>
35.8350

> <Gold.PLP.PLP>
-32.2204

> <Gold.PLP.part.hbond>
-2.0000

> <Gold.PLP.part.metal>
0.0000

> <Gold.PLP.part.buried>
-4.6246

> <Gold.PLP.part.nonpolar>
-27.0551

> <Gold.PLP.part.repulsive>
0.0000

> <Gold.PLP.ligand.clash>
0.0000

> <Gold.PLP.ligand.torsion>
1.2883

> <Gold.PLP.Chemscore.Hbond>
2.0000

> <Gold.PLP.Chemscore.CHOScore>
0.0000

> <Gold.PLP.Chemscore.Metal>
0.0000

> <Gold.Chemscore.Hbonds>
donor molecule, donor type, donor heavy atom, donor atom, acceptor molecule, acceptor atom, score
      P1  H  6896  6908       L1     4  0.60
      P1  H  7997  8008       L1    14  1.00

> <Gold.PLP.Chemscore.Internal.Correction>
0.1911

> <Gold.Rescore>
     Score         DG    S(hbond)    S(metal)    S(lipo)     H(rot)  DE(clash)    DE(int)     intcor
     13.62     -14.76       0.91        0.00      88.90       1.62       0.01       1.13       ----

> <Gold.Chemscore.Fitness>
13.6191

> <Gold.Chemscore.DG>
-14.7587

> <Gold.Chemscore.ZeroCoef>
-5.4800

> <Gold.Chemscore.Hbond>
0.9059

> <Gold.Chemscore.Metal>
0.0000

> <Gold.Chemscore.Lipo>
88.8984

> <Gold.Chemscore.Internal_Hbond>
0.0000

> <Gold.Chemscore.DEClash>
0.0054

> <Gold.Chemscore.DEInternal>
1.1342

> <Gold.Chemscore.Rot>
1.6204

> <Gold.Chemscore.Internal.Correction>
   9.000000E+99

> <Gold.Chemscore.Hbonds>
donor molecule, donor type, donor heavy atom, donor atom, acceptor molecule, acceptor atom, score
      P1  H  6896  6908       L1     4  0.02
      P1  H  7997  8008       L1    14  0.59

> <Gold.Chemscore.Hbond.Weighted>
-3.0258

> <Gold.Chemscore.Metal.Weighted>
-0.0000

> <Gold.Chemscore.Lipo.Weighted>
-10.4011

> <Gold.Chemscore.Internal_Hbond.Weighted>
0.0000

> <Gold.Chemscore.DEClash.Weighted>
0.0054

> <Gold.Chemscore.DEInternal.Weighted>
1.1342

> <Gold.Chemscore.Rot.Weighted>
4.1482

> <Gold.Chemscore.Internal.Correction.Weighted>
   9.000000E+99

> <Gold.Protein.RotatedTorsions>
[ 6907 6896 6895 6894 ] final -141.61 input  -60.11 | X-H torsion
[ 7974 7965 7964 7962 ] final   92.01 input  175.53 | X-H torsion
[ 8008 7997 7996 7995 ] final -113.39 input   59.86 | X-H torsion
[ 10167 10162 10161 10158 ] final  111.94 input  -65.29 | X-H torsion
[ 10718 10713 10712 10709 ] final  -38.37 input   66.30 | X-H torsion
[ 10763 10752 10751 10750 ] final   45.08 input  -60.55 | X-H torsion
[ 11005 11000 10999 10996 ] final -174.76 input  -57.11 | X-H torsion

> <Gold.Protein.ActiveResidues>
 VAL166  LYS551  ARG553  GLY616  TRP617  ASP618  TYR619  PRO620  LYS621  CYS622 
 ASP623  PHE694  ASN695  SER759  ASP760  ASP761  ALA762  ILE779  LEU786  VAL792 
 PHE793  MET794  SER795  GLU796  ALA797  LYS798  CYS799  TRP800  GLU811  SER814 

> <Gold.Protein.RotatedAtoms>
  151.0761  133.5427  159.2623 H   0  0  0  0  0  0  0  0  0  0  0  0  # atno 6907 bound_to 6896
  151.2348  135.0567  159.9012 H   0  0  0  0  0  0  0  0  0  0  0  0  # atno 6908 bound_to 6896
  152.5418  134.0544  159.8178 H   0  0  0  0  0  0  0  0  0  0  0  0  # atno 6909 bound_to 6896
  145.4981  139.2276  143.2793 H   0  0  0  0  0  0  0  0  0  0  0  0  # atno 7974 bound_to 7965
  155.0200  140.0393  157.2433 H   0  0  0  0  0  0  0  0  0  0  0  0  # atno 8008 bound_to 7997
  154.7386  140.2744  155.6369 H   0  0  0  0  0  0  0  0  0  0  0  0  # atno 8009 bound_to 7997
  156.2859  140.2670  156.2107 H   0  0  0  0  0  0  0  0  0  0  0  0  # atno 8010 bound_to 7997
  139.6573  144.7129  151.1932 H   0  0  0  0  0  0  0  0  0  0  0  0  # atno 10167 bound_to 10162
  156.3046  130.4244  149.8110 H   0  0  0  0  0  0  0  0  0  0  0  0  # atno 10718 bound_to 10713
  152.9830  135.6050  154.3379 H   0  0  0  0  0  0  0  0  0  0  0  0  # atno 10763 bound_to 10752
  154.3078  135.2771  155.2582 H   0  0  0  0  0  0  0  0  0  0  0  0  # atno 10764 bound_to 10752
  154.4806  135.5918  153.6442 H   0  0  0  0  0  0  0  0  0  0  0  0  # atno 10765 bound_to 10752
  140.4709  134.6166  157.4881 H   0  0  0  0  0  0  0  0  0  0  0  0  # atno 11005 bound_to 11000
  146.2243  140.5779  142.9003 LP  0  0  0  0  0  0  0  0  0  0  0  0  # atno 17320 bound_to 7965
  144.7796  140.5812  143.6615 LP  0  0  0  0  0  0  0  0  0  0  0  0  # atno 17321 bound_to 7965
  140.7565  143.6051  150.8660 LP  0  0  0  0  0  0  0  0  0  0  0  0  # atno 17342 bound_to 10162
  139.9706  143.6061  152.2975 LP  0  0  0  0  0  0  0  0  0  0  0  0  # atno 17343 bound_to 10162
  156.5476  130.8327  151.3289 LP  0  0  0  0  0  0  0  0  0  0  0  0  # atno 17370 bound_to 10713
  157.7376  130.9799  150.2204 LP  0  0  0  0  0  0  0  0  0  0  0  0  # atno 17371 bound_to 10713
  139.9886  134.7021  155.9730 LP  0  0  0  0  0  0  0  0  0  0  0  0  # atno 17394 bound_to 11000
  141.1577  133.6541  156.4217 LP  0  0  0  0  0  0  0  0  0  0  0  0  # atno 17395 bound_to 11000

$$$$
