#       Name:                AV-unprocessed.smi:1483
#       Creating user name   scv26
#       Creation time:       Fri Mar 27 06:08:31 2020


#       File generated by GOLD software.
#

@<TRIPOS>MOLECULE
AV-unprocessed.smi:1483
    52    53     1
SMALL
NO_CHARGES


@<TRIPOS>ATOM
      1 ****        -3.0066  -0.4402   2.7160 C.3            1 S1                 0.0000
      2 ****        -2.8872   0.3545   1.4325 C.ar           1 S1                 0.0000
      3 ****        -2.6432   1.7436   1.4633 C.ar           1 S1                 0.0000
      4 ****        -2.5203   2.4311   0.2404 C.ar           1 S1                 0.0000
      5 ****        -2.6430   1.7054  -0.9628 C.ar           1 S1                 0.0000
      6 ****        -2.4358   2.3847  -2.3084 C.3            1 S1                 0.0000
      7 ****        -0.9424   2.4068  -2.6441 C.2            1 S1                 0.0000
      8 ****        -0.3623   3.4736  -2.8405 O.2            1 S1                 0.0000
      9 ****        -0.3285   1.2137  -2.6501 N.am           1 S1                 0.0000
     10 ****         1.1117   0.9723  -2.6448 C.3            1 S1                 0.0000
     11 ****         1.3760  -0.5351  -2.7893 C.3            1 S1                 0.0000
     12 ****         0.8670  -1.3220  -1.5639 C.3            1 S1                 0.0000
     13 ****         1.4502  -0.8161  -0.2923 N.4            1 S1                 1.0000
     14 ****         0.9865  -1.6107   0.8757 C.3            1 S1                 0.0000
     15 ****         1.9264  -1.5164   2.0971 C.3            1 S1                 0.0000
     16 ****         3.3197  -2.0910   1.7926 C.3            1 S1                 0.0000
     17 ****         1.3054  -2.2269   3.3088 C.3            1 S1                 0.0000
     18 ****         1.2395   0.6474  -0.1185 C.3            1 S1                 0.0000
     19 ****         1.7609   1.4452  -1.3285 C.3            1 S1                 0.0000
     20 ****        -2.9056   0.3204  -0.8822 C.ar           1 S1                 0.0000
     21 ****        -3.0141  -0.3483   0.2854 N.ar           1 S1                 0.0000
     22 ****        -3.2211   0.2128   3.5625 H              1 S1                 0.0000
     23 ****        -2.0748  -0.9687   2.9181 H              1 S1                 0.0000
     24 ****        -3.8103  -1.1739   2.6435 H              1 S1                 0.0000
     25 ****        -2.5438   2.2710   2.4009 H              1 S1                 0.0000
     26 ****        -2.3143   3.4915   0.2278 H              1 S1                 0.0000
     27 ****        -2.9810   1.8533  -3.0893 H              1 S1                 0.0000
     28 ****        -2.8292   3.4016  -2.2749 H              1 S1                 0.0000
     29 ****        -0.9140   0.4023  -2.5153 H              1 S1                 0.0000
     30 ****         1.5567   1.5020  -3.4887 H              1 S1                 0.0000
     31 ****         0.9045  -0.9149  -3.6966 H              1 S1                 0.0000
     32 ****         2.4467  -0.7063  -2.9098 H              1 S1                 0.0000
     33 ****        -0.2217  -1.2735  -1.5063 H              1 S1                 0.0000
     34 ****         1.1251  -2.3745  -1.6872 H              1 S1                 0.0000
     35 ****        -0.0230  -1.2931   1.1431 H              1 S1                 0.0000
     36 ****         0.9049  -2.6610   0.5915 H              1 S1                 0.0000
     37 ****         2.0486  -0.4717   2.3804 H              1 S1                 0.0000
     38 ****         3.2619  -3.1417   1.5073 H              1 S1                 0.0000
     39 ****         3.9717  -2.0202   2.6639 H              1 S1                 0.0000
     40 ****         3.8063  -1.5512   0.9801 H              1 S1                 0.0000
     41 ****         1.1534  -3.2888   3.1130 H              1 S1                 0.0000
     42 ****         0.3380  -1.7942   3.5651 H              1 S1                 0.0000
     43 ****         1.9449  -2.1393   4.1876 H              1 S1                 0.0000
     44 ****         0.1786   0.8471   0.0379 H              1 S1                 0.0000
     45 ****         1.7548   0.9994   0.7739 H              1 S1                 0.0000
     46 ****         2.8433   1.3279  -1.3973 H              1 S1                 0.0000
     47 ****         1.5879   2.5104  -1.1721 H              1 S1                 0.0000
     48 ****        -2.9941  -0.2745  -1.7795 H              1 S1                 0.0000
     49 ****         2.4470  -0.9629  -0.3643 H              1 S1                 0.0000
     50 ****        -0.8665   4.3352  -2.7814 LP             1 S1                 0.0000
     51 ****         0.6134   3.4792  -3.0593 LP             1 S1                 0.0000
     52 ****        -3.1833  -1.3338   0.3009 LP             1 S1                 0.0000
@<TRIPOS>BOND
    1    1    2 1     
    2    1   22 1     
    3    1   23 1     
    4    1   24 1     
    5    2   21 ar    
    6    2    3 ar    
    7    3    4 ar    
    8    3   25 1     
    9    4    5 ar    
   10    4   26 1     
   11    5    6 1     
   12    5   20 ar    
   13    6    7 1     
   14    6   27 1     
   15    6   28 1     
   16    7    8 2     
   17    7    9 am    
   18    9   10 1     
   19    9   29 1     
   20   10   19 1     
   21   10   11 1     
   22   10   30 1     
   23   11   12 1     
   24   11   31 1     
   25   11   32 1     
   26   12   13 1     
   27   12   33 1     
   28   12   34 1     
   29   13   14 1     
   30   13   18 1     
   31   13   49 1     
   32   14   15 1     
   33   14   35 1     
   34   14   36 1     
   35   15   16 1     
   36   15   17 1     
   37   15   37 1     
   38   16   38 1     
   39   16   39 1     
   40   16   40 1     
   41   17   41 1     
   42   17   42 1     
   43   17   43 1     
   44   18   19 1     
   45   18   44 1     
   46   18   45 1     
   47   19   46 1     
   48   19   47 1     
   49   20   21 ar    
   50   20   48 1     
   51    8   50 1     
   52    8   51 1     
   53   21   52 1     
@<TRIPOS>SUBSTRUCTURE
      1 S1             1
@<TRIPOS>SET
LONE_PAIRS      STATIC     ATOMS    <user>   **** ""
3 50 51 52
DONOR_HYDROGENS      STATIC     ATOMS    <user>   **** ""
2 29 49
ATOM$BLUE        STATIC     ATOMS    COLORGROUP SYSTEM
3 50 51 52
ATOM$RED        STATIC     ATOMS    COLORGROUP SYSTEM
2 29 49
