AV-unprocessed.smi:676|AV-procd|sdf|3308|dock3
  -GOLD-   22720 0273D 1   1.00000     0.00000
 Structure written by MMmdl.
 42 43  0  0  0  0  0  0  0  0  1 V2000
  145.0784  139.0599  156.2025 C   0  0  0  0  0  0  0  0  0  0  0  0
  145.5822  140.2958  155.7108 O   0  0  0  0  0  0  0  0  0  0  0  0
  146.9007  140.2915  155.1463 C   0  0  2  0  0  0  0  0  0  0  0  0
  146.9734  139.3275  153.9554 C   0  0  0  0  0  0  0  0  0  0  0  0
  147.9572  140.1925  156.2632 C   0  0  0  0  0  0  0  0  0  0  0  0
  147.8178  141.7043  156.4290 C   0  0  1  0  0  0  0  0  0  0  0  0
  149.0910  142.3583  156.7101 N   0  0  0  0  0  0  0  0  0  0  0  0
  149.9936  141.9109  157.5946 C   0  0  0  0  0  0  0  0  0  0  0  0
  149.8509  140.8692  158.2358 O   0  0  0  0  0  0  0  0  0  0  0  0
  151.2528  142.7702  157.7694 C   0  0  0  0  0  0  0  0  0  0  0  0
  152.1259  142.2876  158.8516 N   0  0  0  0  0  0  0  0  0  0  0  0
  152.2561  143.1091  159.9891 C   0  0  0  0  0  0  0  0  0  0  0  0
  153.0305  142.7633  161.0296 C   0  0  0  0  0  0  0  0  0  0  0  0
  153.7431  141.5097  160.9633 C   0  0  0  0  0  0  0  0  0  0  0  0
  153.6276  140.7173  159.8792 C   0  0  0  0  0  0  0  0  0  0  0  0
  152.7830  141.0917  158.7389 C   0  0  0  0  0  0  0  0  0  0  0  0
  152.6728  140.3745  157.7438 O   0  0  0  0  0  0  0  0  0  0  0  0
  147.3584  141.7739  154.9490 C   0  0  0  0  0  0  0  0  0  0  0  0
  148.4559  142.0059  153.8926 C   0  0  0  0  0  0  0  0  0  0  0  0
  146.2585  142.7941  154.6353 C   0  0  0  0  0  0  0  0  0  0  0  0
  144.1462  139.2441  156.7363 H   0  0  0  0  0  0  0  0  0  0  0  0
  145.7654  138.5758  156.8957 H   0  0  0  0  0  0  0  0  0  0  0  0
  144.8524  138.3674  155.3920 H   0  0  0  0  0  0  0  0  0  0  0  0
  147.9356  139.3830  153.4472 H   0  0  0  0  0  0  0  0  0  0  0  0
  146.2012  139.5498  153.2186 H   0  0  0  0  0  0  0  0  0  0  0  0
  146.8553  138.2889  154.2628 H   0  0  0  0  0  0  0  0  0  0  0  0
  147.6733  139.6185  157.1445 H   0  0  0  0  0  0  0  0  0  0  0  0
  148.9356  139.8812  155.8932 H   0  0  0  0  0  0  0  0  0  0  0  0
  147.0236  141.9608  157.1339 H   0  0  0  0  0  0  0  0  0  0  0  0
  149.2862  143.2184  156.2187 H   0  0  0  0  0  0  0  0  0  0  0  0
  151.7864  142.7851  156.8183 H   0  0  0  0  0  0  0  0  0  0  0  0
  150.9705  143.8083  157.9558 H   0  0  0  0  0  0  0  0  0  0  0  0
  151.6967  144.0326  159.9577 H   0  0  0  0  0  0  0  0  0  0  0  0
  153.1210  143.4075  161.8918 H   0  0  0  0  0  0  0  0  0  0  0  0
  154.3735  141.2065  161.7860 H   0  0  0  0  0  0  0  0  0  0  0  0
  154.1697  139.7837  159.8469 H   0  0  0  0  0  0  0  0  0  0  0  0
  148.8412  143.0257  153.9285 H   0  0  0  0  0  0  0  0  0  0  0  0
  148.0789  141.8420  152.8827 H   0  0  0  0  0  0  0  0  0  0  0  0
  149.3081  141.3402  154.0296 H   0  0  0  0  0  0  0  0  0  0  0  0
  146.6553  143.8083  154.5770 H   0  0  0  0  0  0  0  0  0  0  0  0
  145.4831  142.8072  155.4012 H   0  0  0  0  0  0  0  0  0  0  0  0
  145.7719  142.5750  153.6844 H   0  0  0  0  0  0  0  0  0  0  0  0
  1  2  1  0  0  0  0
  1 21  1  0  0  0  0
  1 22  1  0  0  0  0
  1 23  1  0  0  0  0
  2  3  1  0  0  0  0
  3 18  1  0  0  0  0
  3  4  1  0  0  0  0
  3  5  1  0  0  0  0
  4 24  1  0  0  0  0
  4 25  1  0  0  0  0
  4 26  1  0  0  0  0
  5  6  1  0  0  0  0
  5 27  1  0  0  0  0
  5 28  1  0  0  0  0
  6  7  1  0  0  0  0
  6 18  1  0  0  0  0
  6 29  1  0  0  0  0
  7  8  1  0  0  0  0
  7 30  1  0  0  0  0
  8  9  2  0  0  0  0
  8 10  1  0  0  0  0
 10 11  1  0  0  0  0
 10 31  1  0  0  0  0
 10 32  1  0  0  0  0
 11 16  1  0  0  0  0
 11 12  1  0  0  0  0
 12 13  2  0  0  0  0
 12 33  1  0  0  0  0
 13 14  1  0  0  0  0
 13 34  1  0  0  0  0
 14 15  2  0  0  0  0
 14 35  1  0  0  0  0
 15 16  1  0  0  0  0
 15 36  1  0  0  0  0
 16 17  2  0  0  0  0
 18 19  1  0  0  0  0
 18 20  1  0  0  0  0
 19 37  1  0  0  0  0
 19 38  1  0  0  0  0
 19 39  1  0  0  0  0
 20 40  1  0  0  0  0
 20 41  1  0  0  0  0
 20 42  1  0  0  0  0
M  END
> <s_m_source_file>
AV-unprocessed.smi

> <i_m_source_file_index>
676

> <i_lp_mmshare_version>
43012

> <i_f3d_flags>
0

> <s_epik_input>
W0NIM11PW0NAQF0xKFtDSDNdKVtDSDJdW0NASF0oQzEoW0NIM10pW0NIM10pW05IXUMoPU8pW0NIMl1uMltjSF1bY0hdW2NIXVtjSF1jMj1P

> <s_epik_cmdline>
J2VwaWtfcHl0aG9uJywgJy1waCcsICc3LjAnLCAnLXRuJywgJzgnLCAnLW1hJywgJzIwMCcsICctbWV0YWxfYmluZGluZycsICctaW1hZScsICc8aW5maWxlLm1hZT4nLCAnLW9tYWUnLCAnPG91dGZpbGUubWFlPic=

> <r_lp_tautomer_probability>
1

> <r_epik_Ionization_Penalty>
4.09771e-07

> <r_epik_Ionization_Penalty_Charging>
3.90712e-07

> <r_epik_Ionization_Penalty_Neutral>
1.90591e-08

> <r_epik_State_Penalty>
-0

> <r_epik_Charging_Adjusted_Penalty>
3.90712e-07

> <i_epik_Tot_Q>
0

> <i_epik_Tot_abs_Q>
0

> <r_epik_Metal_State_Penalty>
-0

> <b_epik_Metal_Only>
0

> <s_lp_Force_Field>
OPLS_2005

> <r_lp_Energy>
31.4736

> <b_lp_Chiralities_Consistent>
1

> <s_lp_Variant>
AV-unprocessed.smi:676-2

> <Gold.Version>
5.8.1

> <Gold.Id.Protein>
6NUR|6NUR_protein|mol2

> <Gold.PLP.Fitness>
39.0643

> <Gold.PLP.PLP>
-33.8943

> <Gold.PLP.part.hbond>
-2.0000

> <Gold.PLP.part.metal>
0.0000

> <Gold.PLP.part.buried>
-1.2791

> <Gold.PLP.part.nonpolar>
-30.2510

> <Gold.PLP.part.repulsive>
0.0871

> <Gold.PLP.ligand.clash>
0.0000

> <Gold.PLP.ligand.torsion>
0.4377

> <Gold.PLP.Chemscore.Hbond>
1.8880

> <Gold.PLP.Chemscore.CHOScore>
0.0000

> <Gold.PLP.Chemscore.Metal>
0.0000

> <Gold.Chemscore.Hbonds>
donor molecule, donor type, donor heavy atom, donor atom, acceptor molecule, acceptor atom, score
      L1  H     7    30       P1  8028  1.00
      P1  H  7997  8008       L1    17  0.91

> <Gold.PLP.Chemscore.Internal.Correction>
0.3813

> <Gold.Rescore>
     Score         DG    S(hbond)    S(metal)    S(lipo)     H(rot)  DE(clash)    DE(int)     intcor
     13.72     -17.13       1.73        0.00      85.48       1.62       1.54       1.87       ----

> <Gold.Chemscore.Fitness>
13.7231

> <Gold.Chemscore.DG>
-17.1284

> <Gold.Chemscore.ZeroCoef>
-5.4800

> <Gold.Chemscore.Hbond>
1.7328

> <Gold.Chemscore.Metal>
0.0000

> <Gold.Chemscore.Lipo>
85.4840

> <Gold.Chemscore.Internal_Hbond>
0.0000

> <Gold.Chemscore.DEClash>
1.5361

> <Gold.Chemscore.DEInternal>
1.8693

> <Gold.Chemscore.Rot>
1.6175

> <Gold.Chemscore.Internal.Correction>
   9.000000E+99

> <Gold.Chemscore.Hbonds>
donor molecule, donor type, donor heavy atom, donor atom, acceptor molecule, acceptor atom, score
      L1  H     7    30       P1  8028  0.97
      P1  H  7997  8008       L1    17  0.65

> <Gold.Chemscore.Hbond.Weighted>
-5.7876

> <Gold.Chemscore.Metal.Weighted>
-0.0000

> <Gold.Chemscore.Lipo.Weighted>
-10.0016

> <Gold.Chemscore.Internal_Hbond.Weighted>
0.0000

> <Gold.Chemscore.DEClash.Weighted>
1.5361

> <Gold.Chemscore.DEInternal.Weighted>
1.8693

> <Gold.Chemscore.Rot.Weighted>
4.1408

> <Gold.Chemscore.Internal.Correction.Weighted>
   9.000000E+99

> <Gold.Protein.RotatedTorsions>
[ 6907 6896 6895 6894 ] final  120.28 input  -60.11 | X-H torsion
[ 7974 7965 7964 7962 ] final   54.12 input  175.53 | X-H torsion
[ 8008 7997 7996 7995 ] final  -73.53 input   59.86 | X-H torsion
[ 10167 10162 10161 10158 ] final  126.41 input  -65.29 | X-H torsion
[ 10718 10713 10712 10709 ] final  106.59 input   66.30 | X-H torsion
[ 10763 10752 10751 10750 ] final   40.32 input  -60.55 | X-H torsion
[ 11005 11000 10999 10996 ] final   12.23 input  -57.11 | X-H torsion

> <Gold.Protein.ActiveResidues>
 VAL166  LYS551  ARG553  GLY616  TRP617  ASP618  TYR619  PRO620  LYS621  CYS622 
 ASP623  PHE694  ASN695  SER759  ASP760  ASP761  ALA762  ILE779  LEU786  VAL792 
 PHE793  MET794  SER795  GLU796  ALA797  LYS798  CYS799  TRP800  GLU811  SER814 

> <Gold.Protein.RotatedAtoms>
  152.4409  133.7447  159.6660 H   0  0  0  0  0  0  0  0  0  0  0  0  # atno 6907 bound_to 6896
  150.8300  133.8097  159.3108 H   0  0  0  0  0  0  0  0  0  0  0  0  # atno 6908 bound_to 6896
  151.5753  135.1063  160.0056 H   0  0  0  0  0  0  0  0  0  0  0  0  # atno 6909 bound_to 6896
  145.9641  139.4087  143.0230 H   0  0  0  0  0  0  0  0  0  0  0  0  # atno 7974 bound_to 7965
  154.5255  140.0777  156.8251 H   0  0  0  0  0  0  0  0  0  0  0  0  # atno 8008 bound_to 7997
  155.3484  140.3411  155.4221 H   0  0  0  0  0  0  0  0  0  0  0  0  # atno 8009 bound_to 7997
  156.1727  140.1625  156.8405 H   0  0  0  0  0  0  0  0  0  0  0  0  # atno 8010 bound_to 7997
  139.5632  144.6895  151.3983 H   0  0  0  0  0  0  0  0  0  0  0  0  # atno 10167 bound_to 10162
  157.6662  131.0854  150.6029 H   0  0  0  0  0  0  0  0  0  0  0  0  # atno 10718 bound_to 10713
  152.9940  135.6194  154.2608 H   0  0  0  0  0  0  0  0  0  0  0  0  # atno 10763 bound_to 10752
  154.2344  135.2791  155.2879 H   0  0  0  0  0  0  0  0  0  0  0  0  # atno 10764 bound_to 10752
  154.5422  135.5757  153.6907 H   0  0  0  0  0  0  0  0  0  0  0  0  # atno 10765 bound_to 10752
  140.4943  134.0809  155.7778 H   0  0  0  0  0  0  0  0  0  0  0  0  # atno 11005 bound_to 11000
  145.7998  140.9776  143.1004 LP  0  0  0  0  0  0  0  0  0  0  0  0  # atno 17320 bound_to 7965
  144.6821  139.9788  143.7483 LP  0  0  0  0  0  0  0  0  0  0  0  0  # atno 17321 bound_to 7965
  140.6914  143.7852  150.7261 LP  0  0  0  0  0  0  0  0  0  0  0  0  # atno 17342 bound_to 10162
  140.1336  143.4504  152.2239 LP  0  0  0  0  0  0  0  0  0  0  0  0  # atno 17343 bound_to 10162
  156.6330  130.4437  149.5780 LP  0  0  0  0  0  0  0  0  0  0  0  0  # atno 17370 bound_to 10713
  156.2267  130.6770  151.1423 LP  0  0  0  0  0  0  0  0  0  0  0  0  # atno 17371 bound_to 10713
  141.1468  133.9041  157.2196 LP  0  0  0  0  0  0  0  0  0  0  0  0  # atno 17394 bound_to 11000
  139.9750  135.0116  156.9609 LP  0  0  0  0  0  0  0  0  0  0  0  0  # atno 17395 bound_to 11000

$$$$
