AV-unprocessed.smi:2692|AV-procd|sdf|10396|dock1
  -GOLD-   2272014433D 1   1.00000     0.00000
 Structure written by MMmdl.
 20 20  0  0  0  0  0  0  0  0  3 V2000
  147.6709  139.1568  152.2673 N   0  3  0  0  0  0  0  0  0  0  0  0
  147.4250  139.5063  153.6756 C   0  0  0  0  0  0  0  0  0  0  0  0
  148.4912  140.4751  154.2026 C   0  0  0  0  0  0  0  0  0  0  0  0
  149.7888  139.7647  154.5283 C   0  0  0  0  0  0  0  0  0  0  0  0
  150.3383  138.8123  153.6435 C   0  0  0  0  0  0  0  0  0  0  0  0
  151.4954  138.1584  153.8795 N   0  0  0  0  0  0  0  0  0  0  0  0
  152.1547  138.4350  155.0257 C   0  0  0  0  0  0  0  0  0  0  0  0
  151.6923  139.3692  155.9758 C   0  0  0  0  0  0  0  0  0  0  0  0
  152.3985  139.6157  157.1166 O   0  5  0  0  0  0  0  0  0  0  0  0
  150.4844  140.0460  155.7217 C   0  0  0  0  0  0  0  0  0  0  0  0
  148.3026  139.8309  151.8593 H   0  0  0  0  0  0  0  0  0  0  0  0
  146.7964  139.1657  151.7621 H   0  0  0  0  0  0  0  0  0  0  0  0
  146.4329  139.9516  153.7583 H   0  0  0  0  0  0  0  0  0  0  0  0
  147.4183  138.5900  154.2672 H   0  0  0  0  0  0  0  0  0  0  0  0
  148.6905  141.2532  153.4644 H   0  0  0  0  0  0  0  0  0  0  0  0
  148.1300  140.9836  155.0976 H   0  0  0  0  0  0  0  0  0  0  0  0
  149.8382  138.5717  152.7169 H   0  0  0  0  0  0  0  0  0  0  0  0
  153.0776  137.8967  155.1858 H   0  0  0  0  0  0  0  0  0  0  0  0
  150.1010  140.7698  156.4263 H   0  0  0  0  0  0  0  0  0  0  0  0
  148.0814  138.2355  152.2150 H   0  0  0  0  0  0  0  0  0  0  0  0
  1  2  1  0  0  0  0
  1 11  1  0  0  0  0
  1 12  1  0  0  0  0
  1 20  1  0  0  0  0
  2  3  1  0  0  0  0
  2 13  1  0  0  0  0
  2 14  1  0  0  0  0
  3  4  1  0  0  0  0
  3 15  1  0  0  0  0
  3 16  1  0  0  0  0
  4 10  1  0  0  0  0
  4  5  2  0  0  0  0
  5  6  1  0  0  0  0
  5 17  1  0  0  0  0
  6  7  2  0  0  0  0
  7  8  1  0  0  0  0
  7 18  1  0  0  0  0
  8  9  1  0  0  0  0
  8 10  2  0  0  0  0
 10 19  1  0  0  0  0
M  CHG  1   1   1
M  CHG  1   9  -1
M  END
> <s_m_source_file>
AV-unprocessed.smi

> <i_m_source_file_index>
2692

> <i_lp_mmshare_version>
43012

> <i_f3d_flags>
0

> <s_epik_input>
W05IMl1bQ0gyXVtDSDJdYzFbY0hdbltjSF1jKFtPSF0pW2NIXTE=

> <s_epik_cmdline>
J2VwaWtfcHl0aG9uJywgJy1waCcsICc3LjAnLCAnLXRuJywgJzgnLCAnLW1hJywgJzIwMCcsICctbWV0YWxfYmluZGluZycsICctaW1hZScsICc8aW5maWxlLm1hZT4nLCAnLW9tYWUnLCAnPG91dGZpbGUubWFlPic=

> <r_epik_Ionization_Penalty>
3.23431

> <r_epik_Ionization_Penalty_Charging>
1.61725

> <r_epik_Ionization_Penalty_Neutral>
1.61706

> <r_epik_State_Penalty>
2.11228

> <r_epik_Charging_Adjusted_Penalty>
3.72953

> <i_epik_Tot_Q>
0

> <i_epik_Tot_abs_Q>
2

> <r_epik_Metal_State_Penalty>
0.426281

> <b_epik_Metal_Only>
0

> <s_lp_Force_Field>
OPLS_2005

> <r_lp_Energy>
-2.16473

> <b_lp_Chiralities_Consistent>
1

> <s_lp_Variant>
AV-unprocessed.smi:2692-3

> <Gold.Version>
5.8.1

> <Gold.Id.Protein>
6NUR|6NUR_protein|mol2

> <Gold.PLP.Fitness>
39.4780

> <Gold.PLP.PLP>
-20.0235

> <Gold.PLP.part.hbond>
-3.0000

> <Gold.PLP.part.metal>
0.0000

> <Gold.PLP.part.buried>
0.0038

> <Gold.PLP.part.nonpolar>
-15.9794

> <Gold.PLP.part.repulsive>
0.2628

> <Gold.PLP.ligand.clash>
0.0000

> <Gold.PLP.ligand.torsion>
0.2678

> <Gold.PLP.Chemscore.Hbond>
5.0000

> <Gold.PLP.Chemscore.CHOScore>
1.6633

> <Gold.PLP.Chemscore.Metal>
0.0000

> <Gold.Chemscore.Hbonds>
donor molecule, donor type, donor heavy atom, donor atom, acceptor molecule, acceptor atom, score
      L1  H     1    11       P1  7957  0.79
      L1  H     1    20       P1  7948  1.24
      P1  H  7997  8009       L1     9  1.72
      L1  C     5    17       P1  7948  0.84
      L1  C     5    17       P1  7957  0.84

> <Gold.PLP.Chemscore.Internal.Correction>
0.0003

> <Gold.Rescore>
     Score         DG    S(hbond)    S(metal)    S(lipo)     H(rot)  DE(clash)    DE(int)     intcor
     17.27     -17.70       2.96        0.00      49.17       1.33       0.02       0.41       ----

> <Gold.Chemscore.Fitness>
17.2724

> <Gold.Chemscore.DG>
-17.7012

> <Gold.Chemscore.ZeroCoef>
-5.4800

> <Gold.Chemscore.Hbond>
2.9570

> <Gold.Chemscore.Metal>
0.0000

> <Gold.Chemscore.Lipo>
49.1705

> <Gold.Chemscore.Internal_Hbond>
0.0000

> <Gold.Chemscore.DEClash>
0.0175

> <Gold.Chemscore.DEInternal>
0.4114

> <Gold.Chemscore.Rot>
1.3313

> <Gold.Chemscore.Internal.Correction>
   9.000000E+99

> <Gold.Chemscore.Hbonds>
donor molecule, donor type, donor heavy atom, donor atom, acceptor molecule, acceptor atom, score
      L1  H     1    11       P1  7957  0.75
      L1  H     1    20       P1  7948  0.60
      P1  H  7997  8009       L1     9  0.59

> <Gold.Chemscore.Hbond.Weighted>
-9.8765

> <Gold.Chemscore.Metal.Weighted>
-0.0000

> <Gold.Chemscore.Lipo.Weighted>
-5.7529

> <Gold.Chemscore.Internal_Hbond.Weighted>
0.0000

> <Gold.Chemscore.DEClash.Weighted>
0.0175

> <Gold.Chemscore.DEInternal.Weighted>
0.4114

> <Gold.Chemscore.Rot.Weighted>
3.4082

> <Gold.Chemscore.Internal.Correction.Weighted>
   9.000000E+99

> <Gold.Protein.RotatedTorsions>
[ 6907 6896 6895 6894 ] final  -39.36 input  -60.11 | X-H torsion
[ 7974 7965 7964 7962 ] final -131.79 input  175.53 | X-H torsion
[ 8008 7997 7996 7995 ] final -178.71 input   59.86 | X-H torsion
[ 10167 10162 10161 10158 ] final  141.76 input  -65.29 | X-H torsion
[ 10718 10713 10712 10709 ] final  111.21 input   66.30 | X-H torsion
[ 10763 10752 10751 10750 ] final  -42.12 input  -60.55 | X-H torsion
[ 11005 11000 10999 10996 ] final  -49.63 input  -57.11 | X-H torsion

> <Gold.Protein.ActiveResidues>
 VAL166  LYS551  ARG553  GLY616  TRP617  ASP618  TYR619  PRO620  LYS621  CYS622 
 ASP623  PHE694  ASN695  SER759  ASP760  ASP761  ALA762  ILE779  LEU786  VAL792 
 PHE793  MET794  SER795  GLU796  ALA797  LYS798  CYS799  TRP800  GLU811  SER814 

> <Gold.Protein.RotatedAtoms>
  150.9913  134.9247  159.7900 H   0  0  0  0  0  0  0  0  0  0  0  0  # atno 6907 bound_to 6896
  152.5252  134.3278  159.9181 H   0  0  0  0  0  0  0  0  0  0  0  0  # atno 6908 bound_to 6896
  151.3284  133.3969  159.2695 H   0  0  0  0  0  0  0  0  0  0  0  0  # atno 6909 bound_to 6896
  144.9346  140.7168  143.4885 H   0  0  0  0  0  0  0  0  0  0  0  0  # atno 7974 bound_to 7965
  156.0220  140.1263  157.0347 H   0  0  0  0  0  0  0  0  0  0  0  0  # atno 8008 bound_to 7997
  154.4315  140.1067  156.6047 H   0  0  0  0  0  0  0  0  0  0  0  0  # atno 8009 bound_to 7997
  155.5931  140.3469  155.4574 H   0  0  0  0  0  0  0  0  0  0  0  0  # atno 8010 bound_to 7997
  139.5012  144.6151  151.6183 H   0  0  0  0  0  0  0  0  0  0  0  0  # atno 10167 bound_to 10162
  157.6456  131.0946  150.6715 H   0  0  0  0  0  0  0  0  0  0  0  0  # atno 10718 bound_to 10713
  153.9737  135.6725  153.4748 H   0  0  0  0  0  0  0  0  0  0  0  0  # atno 10763 bound_to 10752
  153.0780  135.4938  154.8442 H   0  0  0  0  0  0  0  0  0  0  0  0  # atno 10764 bound_to 10752
  154.7204  135.3116  154.9017 H   0  0  0  0  0  0  0  0  0  0  0  0  # atno 10765 bound_to 10752
  141.0770  133.6663  156.3613 H   0  0  0  0  0  0  0  0  0  0  0  0  # atno 11005 bound_to 11000
  145.3088  139.1825  143.4650 LP  0  0  0  0  0  0  0  0  0  0  0  0  # atno 17320 bound_to 7965
  146.3261  140.3089  142.8625 LP  0  0  0  0  0  0  0  0  0  0  0  0  # atno 17321 bound_to 7965
  140.5836  143.9903  150.6282 LP  0  0  0  0  0  0  0  0  0  0  0  0  # atno 17342 bound_to 10162
  140.3060  143.3229  152.0925 LP  0  0  0  0  0  0  0  0  0  0  0  0  # atno 17343 bound_to 10162
  156.7033  130.4630  149.5567 LP  0  0  0  0  0  0  0  0  0  0  0  0  # atno 17370 bound_to 10713
  156.1780  130.6480  151.0917 LP  0  0  0  0  0  0  0  0  0  0  0  0  # atno 17371 bound_to 10713
  140.5552  134.5989  157.5418 LP  0  0  0  0  0  0  0  0  0  0  0  0  # atno 17394 bound_to 11000
  139.9582  134.7497  156.0294 LP  0  0  0  0  0  0  0  0  0  0  0  0  # atno 17395 bound_to 11000

$$$$
