AV-unprocessed.smi:3135|AV-procd|sdf|11945|dock4
  -GOLD-   2272017333D 1   1.00000     0.00000
 Structure written by MMmdl.
 38 39  0  0  0  0  0  0  0  0  2 V2000
  151.8017  144.1495  159.8495 C   0  0  0  0  0  0  0  0  0  0  0  0
  151.6071  142.9865  158.9197 C   0  0  0  0  0  0  0  0  0  0  0  0
  150.6750  142.8707  157.8495 C   0  0  0  0  0  0  0  0  0  0  0  0
  150.7577  141.7105  157.2190 N   0  0  0  0  0  0  0  0  0  0  0  0
  151.7428  141.0462  157.8609 N   0  0  0  0  0  0  0  0  0  0  0  0
  152.1190  139.7110  157.4282 C   0  0  0  0  0  0  0  0  0  0  0  0
  151.4653  139.3319  156.0960 C   0  0  0  0  0  0  0  0  0  0  0  0
  151.4285  140.1498  155.1770 O   0  0  0  0  0  0  0  0  0  0  0  0
  150.9377  138.0999  156.0025 N   0  0  0  0  0  0  0  0  0  0  0  0
  150.2913  137.5603  154.8122 C   0  0  0  0  0  0  0  0  0  0  0  0
  148.9233  138.2237  154.5630 C   0  0  0  0  0  0  0  0  0  0  0  0
  147.8772  137.2592  154.1383 N   0  3  1  0  0  0  0  0  0  0  0  0
  147.6527  136.2228  155.1719 C   0  0  0  0  0  0  0  0  0  0  0  0
  146.6089  137.9216  153.7475 C   0  0  0  0  0  0  0  0  0  0  0  0
  145.7969  137.1494  152.7296 C   0  0  0  0  0  0  0  0  0  0  0  0
  146.5650  138.3781  152.3057 C   0  0  0  0  0  0  0  0  0  0  0  0
  152.2699  141.7924  158.8941 C   0  0  0  0  0  0  0  0  0  0  0  0
  151.6965  145.1025  159.3309 H   0  0  0  0  0  0  0  0  0  0  0  0
  152.7911  144.1416  160.3073 H   0  0  0  0  0  0  0  0  0  0  0  0
  151.0723  144.1413  160.6596 H   0  0  0  0  0  0  0  0  0  0  0  0
  149.9441  143.5919  157.5142 H   0  0  0  0  0  0  0  0  0  0  0  0
  153.2038  139.6624  157.3271 H   0  0  0  0  0  0  0  0  0  0  0  0
  151.8367  138.9953  158.2026 H   0  0  0  0  0  0  0  0  0  0  0  0
  151.0120  137.4890  156.8034 H   0  0  0  0  0  0  0  0  0  0  0  0
  150.9575  137.6922  153.9591 H   0  0  0  0  0  0  0  0  0  0  0  0
  150.1671  136.4857  154.9489 H   0  0  0  0  0  0  0  0  0  0  0  0
  148.6064  138.7068  155.4887 H   0  0  0  0  0  0  0  0  0  0  0  0
  149.0062  139.0140  153.8154 H   0  0  0  0  0  0  0  0  0  0  0  0
  147.2900  136.6697  156.0985 H   0  0  0  0  0  0  0  0  0  0  0  0
  148.5772  135.6868  155.3896 H   0  0  0  0  0  0  0  0  0  0  0  0
  146.9205  135.4862  154.8410 H   0  0  0  0  0  0  0  0  0  0  0  0
  146.0991  138.4834  154.5284 H   0  0  0  0  0  0  0  0  0  0  0  0
  146.1699  136.1870  152.3837 H   0  0  0  0  0  0  0  0  0  0  0  0
  144.7135  137.2345  152.7839 H   0  0  0  0  0  0  0  0  0  0  0  0
  145.9899  139.2742  152.0818 H   0  0  0  0  0  0  0  0  0  0  0  0
  147.4471  138.2253  151.6865 H   0  0  0  0  0  0  0  0  0  0  0  0
  153.0668  141.4163  159.5188 H   0  0  0  0  0  0  0  0  0  0  0  0
  148.2284  136.7794  153.3218 H   0  0  0  0  0  0  0  0  0  0  0  0
  1  2  1  0  0  0  0
  1 18  1  0  0  0  0
  1 19  1  0  0  0  0
  1 20  1  0  0  0  0
  2 17  2  0  0  0  0
  2  3  1  0  0  0  0
  3  4  2  0  0  0  0
  3 21  1  0  0  0  0
  4  5  1  0  0  0  0
  5  6  1  0  0  0  0
  5 17  1  0  0  0  0
  6  7  1  0  0  0  0
  6 22  1  0  0  0  0
  6 23  1  0  0  0  0
  7  8  2  0  0  0  0
  7  9  1  0  0  0  0
  9 10  1  0  0  0  0
  9 24  1  0  0  0  0
 10 11  1  0  0  0  0
 10 25  1  0  0  0  0
 10 26  1  0  0  0  0
 11 12  1  0  0  0  0
 11 27  1  0  0  0  0
 11 28  1  0  0  0  0
 12 13  1  0  0  0  0
 12 14  1  0  0  0  0
 12 38  1  0  0  0  0
 13 29  1  0  0  0  0
 13 30  1  0  0  0  0
 13 31  1  0  0  0  0
 14 16  1  0  0  0  0
 14 15  1  0  0  0  0
 14 32  1  0  0  0  0
 15 16  1  0  0  0  0
 15 33  1  0  0  0  0
 15 34  1  0  0  0  0
 16 35  1  0  0  0  0
 16 36  1  0  0  0  0
 17 37  1  0  0  0  0
M  CHG  1  12   1
M  END
> <s_m_source_file>
AV-unprocessed.smi

> <i_m_source_file_index>
3135

> <i_lp_mmshare_version>
43012

> <i_f3d_flags>
0

> <s_epik_input>
W0NIM11jMVtjSF1ubihbY0hdMSlbQ0gyXUMoPU8pW05IXVtDSDJdW0NIMl1OKFtDSDNdKVtDSF0yW0NIMl1bQ0gyXTI=

> <s_epik_cmdline>
J2VwaWtfcHl0aG9uJywgJy1waCcsICc3LjAnLCAnLXRuJywgJzgnLCAnLW1hJywgJzIwMCcsICctbWV0YWxfYmluZGluZycsICctaW1hZScsICc8aW5maWxlLm1hZT4nLCAnLW9tYWUnLCAnPG91dGZpbGUubWFlPic=

> <r_lp_tautomer_probability>
1

> <r_epik_Ionization_Penalty>
0.174318

> <r_epik_Ionization_Penalty_Charging>
0.174302

> <r_epik_Ionization_Penalty_Neutral>
1.62778e-05

> <r_epik_State_Penalty>
0.163722

> <r_epik_Charging_Adjusted_Penalty>
0.338024

> <i_epik_Tot_Q>
1

> <i_epik_Tot_abs_Q>
1

> <r_epik_Metal_State_Penalty>
0.163727

> <b_epik_Metal_Only>
0

> <s_lp_Force_Field>
OPLS_2005

> <r_lp_Energy>
17.6271

> <b_lp_Chiralities_Consistent>
1

> <s_lp_Variant>
AV-unprocessed.smi:3135-1

> <Gold.Version>
5.8.1

> <Gold.Id.Protein>
6NUR|6NUR_protein|mol2

> <Gold.PLP.Fitness>
41.8706

> <Gold.PLP.PLP>
-31.2631

> <Gold.PLP.part.hbond>
-2.0000

> <Gold.PLP.part.metal>
0.0000

> <Gold.PLP.part.buried>
-3.0526

> <Gold.PLP.part.nonpolar>
-27.7165

> <Gold.PLP.part.repulsive>
0.1557

> <Gold.PLP.ligand.clash>
0.0000

> <Gold.PLP.ligand.torsion>
1.2947

> <Gold.PLP.Chemscore.Hbond>
2.9600

> <Gold.PLP.Chemscore.CHOScore>
1.0000

> <Gold.PLP.Chemscore.Metal>
0.0000

> <Gold.Chemscore.Hbonds>
donor molecule, donor type, donor heavy atom, donor atom, acceptor molecule, acceptor atom, score
      L1  H    12    38       P1  7948  2.00
      P1  H  7989  7998       L1     8  1.00
      L1  C     3    21       P1  8028  1.00

> <Gold.PLP.Chemscore.Internal.Correction>
1.3169

> <Gold.Rescore>
     Score         DG    S(hbond)    S(metal)    S(lipo)     H(rot)  DE(clash)    DE(int)     intcor
     13.97     -16.80       1.94        0.00      83.99       1.96       0.04       2.79       ----

> <Gold.Chemscore.Fitness>
13.9692

> <Gold.Chemscore.DG>
-16.7958

> <Gold.Chemscore.ZeroCoef>
-5.4800

> <Gold.Chemscore.Hbond>
1.9446

> <Gold.Chemscore.Metal>
0.0000

> <Gold.Chemscore.Lipo>
83.9901

> <Gold.Chemscore.Internal_Hbond>
0.0000

> <Gold.Chemscore.DEClash>
0.0372

> <Gold.Chemscore.DEInternal>
2.7894

> <Gold.Chemscore.Rot>
1.9555

> <Gold.Chemscore.Internal.Correction>
   9.000000E+99

> <Gold.Chemscore.Hbonds>
donor molecule, donor type, donor heavy atom, donor atom, acceptor molecule, acceptor atom, score
      L1  H    12    38       P1  7948  1.00
      P1  H  7989  7998       L1     8  0.96

> <Gold.Chemscore.Hbond.Weighted>
-6.4950

> <Gold.Chemscore.Metal.Weighted>
-0.0000

> <Gold.Chemscore.Lipo.Weighted>
-9.8268

> <Gold.Chemscore.Internal_Hbond.Weighted>
0.0000

> <Gold.Chemscore.DEClash.Weighted>
0.0372

> <Gold.Chemscore.DEInternal.Weighted>
2.7894

> <Gold.Chemscore.Rot.Weighted>
5.0060

> <Gold.Chemscore.Internal.Correction.Weighted>
   9.000000E+99

> <Gold.Protein.RotatedTorsions>
[ 6907 6896 6895 6894 ] final   30.22 input  -60.11 | X-H torsion
[ 7974 7965 7964 7962 ] final  -23.03 input  175.53 | X-H torsion
[ 8008 7997 7996 7995 ] final    0.90 input   59.86 | X-H torsion
[ 10167 10162 10161 10158 ] final  118.27 input  -65.29 | X-H torsion
[ 10718 10713 10712 10709 ] final   48.85 input   66.30 | X-H torsion
[ 10763 10752 10751 10750 ] final  114.60 input  -60.55 | X-H torsion
[ 11005 11000 10999 10996 ] final  -75.05 input  -57.11 | X-H torsion

> <Gold.Protein.ActiveResidues>
 VAL166  LYS551  ARG553  GLY616  TRP617  ASP618  TYR619  PRO620  LYS621  CYS622 
 ASP623  PHE694  ASN695  SER759  ASP760  ASP761  ALA762  ILE779  LEU786  VAL792 
 PHE793  MET794  SER795  GLU796  ALA797  LYS798  CYS799  TRP800  GLU811  SER814 

> <Gold.Protein.RotatedAtoms>
  152.0428  134.9701  160.0573 H   0  0  0  0  0  0  0  0  0  0  0  0  # atno 6907 bound_to 6896
  152.1132  133.4307  159.4649 H   0  0  0  0  0  0  0  0  0  0  0  0  # atno 6908 bound_to 6896
  150.6844  134.2542  159.4566 H   0  0  0  0  0  0  0  0  0  0  0  0  # atno 6909 bound_to 6896
  146.1641  140.4560  142.8559 H   0  0  0  0  0  0  0  0  0  0  0  0  # atno 7974 bound_to 7965
  154.6735  140.2617  155.6982 H   0  0  0  0  0  0  0  0  0  0  0  0  # atno 8008 bound_to 7997
  156.2668  140.2824  156.1175 H   0  0  0  0  0  0  0  0  0  0  0  0  # atno 8009 bound_to 7997
  155.1134  140.0376  157.2720 H   0  0  0  0  0  0  0  0  0  0  0  0  # atno 8010 bound_to 7997
  139.6123  144.7084  151.2817 H   0  0  0  0  0  0  0  0  0  0  0  0  # atno 10167 bound_to 10162
  157.4728  130.8266  149.8007 H   0  0  0  0  0  0  0  0  0  0  0  0  # atno 10718 bound_to 10713
  153.5097  135.3620  155.2580 H   0  0  0  0  0  0  0  0  0  0  0  0  # atno 10763 bound_to 10752
  154.8743  135.4020  154.3383 H   0  0  0  0  0  0  0  0  0  0  0  0  # atno 10764 bound_to 10752
  153.4034  135.7075  153.6477 H   0  0  0  0  0  0  0  0  0  0  0  0  # atno 10765 bound_to 10752
  141.1641  133.6933  156.7458 H   0  0  0  0  0  0  0  0  0  0  0  0  # atno 11005 bound_to 11000
  144.8067  140.6313  143.6442 LP  0  0  0  0  0  0  0  0  0  0  0  0  # atno 17320 bound_to 7965
  145.4513  139.1523  143.3916 LP  0  0  0  0  0  0  0  0  0  0  0  0  # atno 17321 bound_to 7965
  140.7327  143.6815  150.7997 LP  0  0  0  0  0  0  0  0  0  0  0  0  # atno 17342 bound_to 10162
  140.0412  143.5344  152.2717 LP  0  0  0  0  0  0  0  0  0  0  0  0  # atno 17343 bound_to 10162
  156.0082  130.3845  150.2357 LP  0  0  0  0  0  0  0  0  0  0  0  0  # atno 17370 bound_to 10713
  157.0540  131.0071  151.3244 LP  0  0  0  0  0  0  0  0  0  0  0  0  # atno 17371 bound_to 10713
  140.2641  134.8444  157.3786 LP  0  0  0  0  0  0  0  0  0  0  0  0  # atno 17394 bound_to 11000
  140.1583  134.4761  155.7912 LP  0  0  0  0  0  0  0  0  0  0  0  0  # atno 17395 bound_to 11000

$$$$
