#       Name:                AV-unprocessed.smi:2562
#       Creating user name   scv26
#       Creation time:       Fri Mar 27 14:09:13 2020


#       File generated by GOLD software.
#

@<TRIPOS>MOLECULE
AV-unprocessed.smi:2562
    35    36     1
SMALL
NO_CHARGES


@<TRIPOS>ATOM
      1 ****        -2.5371   4.6320   0.7562 C.3            1 S1                 0.0000
      2 ****        -1.9869   3.2015   0.7479 C.3            1 S1                 0.0000
      3 ****        -0.4519   3.1592   0.7404 C.3            1 S1                 0.0000
      4 ****         0.0731   1.7617   0.7493 C.2            1 S1                 0.0000
      5 ****         0.2980   1.1167   1.8926 N.2            1 S1                 0.0000
      6 ****         0.7080  -0.0921   1.4550 N.pl3          1 S1                 0.0000
      7 ****         0.6999  -0.1077   0.1190 C.2            1 S1                 0.0000
      8 ****         1.0677  -1.3178  -0.6819 C.3            1 S1                 0.0000
      9 ****        -0.1603  -2.1808  -1.0336 C.3            1 S1                 0.0000
     10 ****         0.2552  -3.3912  -1.7412 N.3            1 S1                 0.0000
     11 ****         1.2541  -4.1361  -0.9764 C.3            1 S1                 0.0000
     12 ****         2.4452  -3.2270  -0.6247 C.3            1 S1                 0.0000
     13 ****         1.9805  -2.0905   0.0956 O.3            1 S1                 0.0000
     14 ****         0.2873   1.0462  -0.3959 N.2            1 S1                 0.0000
     15 ****         0.9691  -0.8457   2.0747 H              1 S1                 0.0000
     16 ****        -3.6272   4.6288   0.7594 H              1 S1                 0.0000
     17 ****        -2.2085   5.1850  -0.1239 H              1 S1                 0.0000
     18 ****        -2.2031   5.1765   1.6398 H              1 S1                 0.0000
     19 ****        -2.3635   2.6682   1.6215 H              1 S1                 0.0000
     20 ****        -2.3709   2.6733  -0.1258 H              1 S1                 0.0000
     21 ****        -0.0691   3.6749  -0.1413 H              1 S1                 0.0000
     22 ****        -0.0581   3.6937   1.6061 H              1 S1                 0.0000
     23 ****         1.5642  -0.9807  -1.5940 H              1 S1                 0.0000
     24 ****        -0.6942  -2.4514  -0.1216 H              1 S1                 0.0000
     25 ****        -0.8578  -1.6101  -1.6473 H              1 S1                 0.0000
     26 ****        -0.5535  -3.9810  -1.9104 H              1 S1                 0.0000
     27 ****         0.8073  -4.5242  -0.0604 H              1 S1                 0.0000
     28 ****         1.5966  -4.9990  -1.5478 H              1 S1                 0.0000
     29 ****         3.1605  -3.7687  -0.0059 H              1 S1                 0.0000
     30 ****         2.9767  -2.9130  -1.5246 H              1 S1                 0.0000
     31 ****         0.1908   1.4434   2.8316 LP             1 S1                 0.0000
     32 ****         0.6667  -3.1192  -2.6111 LP             1 S1                 0.0000
     33 ****         1.5190  -2.3991   0.9273 LP             1 S1                 0.0000
     34 ****         2.7633  -1.5188   0.3413 LP             1 S1                 0.0000
     35 ****         0.1673   1.3151  -1.3516 LP             1 S1                 0.0000
@<TRIPOS>BOND
    1    1    2 1     
    2    1   16 1     
    3    1   17 1     
    4    1   18 1     
    5    2    3 1     
    6    2   19 1     
    7    2   20 1     
    8    3    4 1     
    9    3   21 1     
   10    3   22 1     
   11    4   14 1     
   12    4    5 2     
   13    5    6 1     
   14    6   15 1     
   15    6    7 1     
   16    7    8 1     
   17    7   14 2     
   18    8   13 1     
   19    8    9 1     
   20    8   23 1     
   21    9   10 1     
   22    9   24 1     
   23    9   25 1     
   24   10   11 1     
   25   10   26 1     
   26   11   12 1     
   27   11   27 1     
   28   11   28 1     
   29   12   13 1     
   30   12   29 1     
   31   12   30 1     
   32    5   31 1     
   33   10   32 1     
   34   13   33 1     
   35   13   34 1     
   36   14   35 1     
@<TRIPOS>SUBSTRUCTURE
      1 S1             1
@<TRIPOS>SET
LONE_PAIRS      STATIC     ATOMS    <user>   **** ""
5 31 32 33 34 35
DONOR_HYDROGENS      STATIC     ATOMS    <user>   **** ""
2 15 26
ATOM$BLUE        STATIC     ATOMS    COLORGROUP SYSTEM
5 31 32 33 34 35
ATOM$RED        STATIC     ATOMS    COLORGROUP SYSTEM
2 15 26
