AV-unprocessed.smi:1166|AV-procd|sdf|4937|dock9
  -GOLD-   22720 3523D 1   1.00000     0.00000
 Structure written by MMmdl.
 46 47  0  0  0  0  0  0  0  0  1 V2000
  150.7897  144.5640  158.7923 C   0  0  0  0  0  0  0  0  0  0  0  0
  151.1715  143.1618  158.9268 N   0  0  0  0  0  0  0  0  0  0  0  0
  150.5408  142.1535  158.0840 C   0  0  0  0  0  0  0  0  0  0  0  0
  152.1083  142.7791  159.9142 C   0  0  0  0  0  0  0  0  0  0  0  0
  152.8886  141.6041  159.7781 C   0  0  0  0  0  0  0  0  0  0  0  0
  153.8080  141.2634  160.7888 C   0  0  0  0  0  0  0  0  0  0  0  0
  153.9351  142.1088  161.9148 C   0  0  0  0  0  0  0  0  0  0  0  0
  154.8080  141.8677  163.0103 N   0  0  0  0  0  0  0  0  0  0  0  0
  155.0812  142.6617  164.0598 C   0  0  0  0  0  0  0  0  0  0  0  0
  154.5718  143.7611  164.2757 O   0  0  0  0  0  0  0  0  0  0  0  0
  155.9818  142.0924  164.8734 N   0  0  0  0  0  0  0  0  0  0  0  0
  156.4988  142.6829  166.1040 C   0  0  1  0  0  0  0  0  0  0  0  0
  156.7331  144.1926  165.9290 C   0  0  0  0  0  0  0  0  0  0  0  0
  157.2218  144.7972  167.2498 C   0  0  0  0  0  0  0  0  0  0  0  0
  156.2393  144.5037  168.3971 C   0  0  0  0  0  0  0  0  0  0  0  0
  155.9493  143.0598  168.5116 N   0  0  0  0  0  0  0  0  0  0  0  0
  156.7229  142.1128  169.7499 S   0  0  0  0  0  0  0  0  0  0  0  0
  155.6594  142.3524  171.2317 C   0  0  0  0  0  0  0  0  0  0  0  0
  156.6409  140.6994  169.3506 O   0  0  0  0  0  0  0  0  0  0  0  0
  158.0355  142.7172  170.0247 O   0  0  0  0  0  0  0  0  0  0  0  0
  155.5110  142.4168  167.2567 C   0  0  0  0  0  0  0  0  0  0  0  0
  153.1098  143.2490  161.9679 C   0  0  0  0  0  0  0  0  0  0  0  0
  152.2286  143.5796  161.0015 N   0  0  0  0  0  0  0  0  0  0  0  0
  151.6616  145.1785  158.5666 H   0  0  0  0  0  0  0  0  0  0  0  0
  150.3382  144.9278  159.7159 H   0  0  0  0  0  0  0  0  0  0  0  0
  150.0668  144.7052  157.9888 H   0  0  0  0  0  0  0  0  0  0  0  0
  149.9975  141.4302  158.6927 H   0  0  0  0  0  0  0  0  0  0  0  0
  151.2897  141.6236  157.4950 H   0  0  0  0  0  0  0  0  0  0  0  0
  149.8302  142.6032  157.3902 H   0  0  0  0  0  0  0  0  0  0  0  0
  152.7986  140.9540  158.9213 H   0  0  0  0  0  0  0  0  0  0  0  0
  154.3815  140.3564  160.6827 H   0  0  0  0  0  0  0  0  0  0  0  0
  155.2494  140.9597  163.0159 H   0  0  0  0  0  0  0  0  0  0  0  0
  156.3420  141.1838  164.6203 H   0  0  0  0  0  0  0  0  0  0  0  0
  157.4492  142.2060  166.3447 H   0  0  0  0  0  0  0  0  0  0  0  0
  157.4676  144.3782  165.1443 H   0  0  0  0  0  0  0  0  0  0  0  0
  155.8097  144.6831  165.6177 H   0  0  0  0  0  0  0  0  0  0  0  0
  158.2080  144.4017  167.4894 H   0  0  0  0  0  0  0  0  0  0  0  0
  157.3459  145.8747  167.1391 H   0  0  0  0  0  0  0  0  0  0  0  0
  156.6297  144.8893  169.3386 H   0  0  0  0  0  0  0  0  0  0  0  0
  155.3009  145.0290  168.2162 H   0  0  0  0  0  0  0  0  0  0  0  0
  156.0676  141.7725  172.0592 H   0  0  0  0  0  0  0  0  0  0  0  0
  154.6484  142.0065  171.0236 H   0  0  0  0  0  0  0  0  0  0  0  0
  155.6445  143.4037  171.5133 H   0  0  0  0  0  0  0  0  0  0  0  0
  154.5268  142.8101  166.9990 H   0  0  0  0  0  0  0  0  0  0  0  0
  155.3818  141.3453  167.4086 H   0  0  0  0  0  0  0  0  0  0  0  0
  153.1583  143.9221  162.8114 H   0  0  0  0  0  0  0  0  0  0  0  0
  1  2  1  0  0  0  0
  1 24  1  0  0  0  0
  1 25  1  0  0  0  0
  1 26  1  0  0  0  0
  2  3  1  0  0  0  0
  2  4  1  0  0  0  0
  3 27  1  0  0  0  0
  3 28  1  0  0  0  0
  3 29  1  0  0  0  0
  4 23  1  0  0  0  0
  4  5  2  0  0  0  0
  5  6  1  0  0  0  0
  5 30  1  0  0  0  0
  6  7  2  0  0  0  0
  6 31  1  0  0  0  0
  7  8  1  0  0  0  0
  7 22  1  0  0  0  0
  8  9  1  0  0  0  0
  8 32  1  0  0  0  0
  9 10  2  0  0  0  0
  9 11  1  0  0  0  0
 11 12  1  0  0  0  0
 11 33  1  0  0  0  0
 12 21  1  0  0  0  0
 12 13  1  0  0  0  0
 12 34  1  0  0  0  0
 13 14  1  0  0  0  0
 13 35  1  0  0  0  0
 13 36  1  0  0  0  0
 14 15  1  0  0  0  0
 14 37  1  0  0  0  0
 14 38  1  0  0  0  0
 15 16  1  0  0  0  0
 15 39  1  0  0  0  0
 15 40  1  0  0  0  0
 16 17  1  0  0  0  0
 16 21  1  0  0  0  0
 17 18  1  0  0  0  0
 17 19  2  0  0  0  0
 17 20  2  0  0  0  0
 18 41  1  0  0  0  0
 18 42  1  0  0  0  0
 18 43  1  0  0  0  0
 21 44  1  0  0  0  0
 21 45  1  0  0  0  0
 22 23  2  0  0  0  0
 22 46  1  0  0  0  0
M  END
> <s_m_source_file>
AV-unprocessed.smi

> <i_m_source_file_index>
1166

> <i_lp_mmshare_version>
43012

> <i_f3d_flags>
0

> <s_epik_input>
W0NIM11OKFtDSDNdKWMxW2NIXVtjSF1jKFtjSF1uMSlbTkhdQyg9TylbTkhdW0NAQEhdMltDSDJdW0NIMl1bQ0gyXU4oW0NIMl0yKVMoPU8pKD1PKVtDSDNd

> <s_epik_cmdline>
J2VwaWtfcHl0aG9uJywgJy1waCcsICc3LjAnLCAnLXRuJywgJzgnLCAnLW1hJywgJzIwMCcsICctbWV0YWxfYmluZGluZycsICctaW1hZScsICc8aW5maWxlLm1hZT4nLCAnLW9tYWUnLCAnPG91dGZpbGUubWFlPic=

> <r_lp_tautomer_probability>
1

> <r_epik_Ionization_Penalty>
0.585334

> <r_epik_Ionization_Penalty_Charging>
0

> <r_epik_Ionization_Penalty_Neutral>
0.585334

> <r_epik_State_Penalty>
0.597345

> <r_epik_Charging_Adjusted_Penalty>
0.597345

> <i_epik_Tot_Q>
0

> <i_epik_Tot_abs_Q>
0

> <r_epik_Metal_State_Penalty>
0.29678

> <b_epik_Metal_Only>
0

> <s_lp_Force_Field>
OPLS_2005

> <r_lp_Energy>
2.0747

> <b_lp_Chiralities_Consistent>
1

> <s_lp_Variant>
AV-unprocessed.smi:1166-4

> <Gold.Version>
5.8.1

> <Gold.Id.Protein>
6NUR|6NUR_protein|mol2

> <Gold.PLP.Fitness>
48.5638

> <Gold.PLP.PLP>
-49.8186

> <Gold.PLP.part.hbond>
-2.7096

> <Gold.PLP.part.metal>
0.0000

> <Gold.PLP.part.buried>
-6.3710

> <Gold.PLP.part.nonpolar>
-40.2505

> <Gold.PLP.part.repulsive>
0.4175

> <Gold.PLP.ligand.clash>
0.0000

> <Gold.PLP.ligand.torsion>
1.6585

> <Gold.PLP.Chemscore.Hbond>
0.0000

> <Gold.PLP.Chemscore.CHOScore>
0.0000

> <Gold.PLP.Chemscore.Metal>
0.0000

> <Gold.PLP.Chemscore.Internal.Correction>
2.0621

> <Gold.Rescore>
     Score         DG    S(hbond)    S(metal)    S(lipo)     H(rot)  DE(clash)    DE(int)     intcor
      7.99     -14.34       0.00        0.00      97.65       1.00       1.92       4.43       ----

> <Gold.Chemscore.Fitness>
7.9937

> <Gold.Chemscore.DG>
-14.3445

> <Gold.Chemscore.ZeroCoef>
-5.4800

> <Gold.Chemscore.Hbond>
0.0000

> <Gold.Chemscore.Metal>
0.0000

> <Gold.Chemscore.Lipo>
97.6454

> <Gold.Chemscore.Internal_Hbond>
0.0000

> <Gold.Chemscore.DEClash>
1.9214

> <Gold.Chemscore.DEInternal>
4.4295

> <Gold.Chemscore.Rot>
1.0000

> <Gold.Chemscore.Internal.Correction>
   9.000000E+99

> <Gold.Chemscore.Hbond.Weighted>
-0.0000

> <Gold.Chemscore.Metal.Weighted>
-0.0000

> <Gold.Chemscore.Lipo.Weighted>
-11.4245

> <Gold.Chemscore.Internal_Hbond.Weighted>
0.0000

> <Gold.Chemscore.DEClash.Weighted>
1.9214

> <Gold.Chemscore.DEInternal.Weighted>
4.4295

> <Gold.Chemscore.Rot.Weighted>
2.5600

> <Gold.Chemscore.Internal.Correction.Weighted>
   9.000000E+99

> <Gold.Protein.RotatedTorsions>
[ 6907 6896 6895 6894 ] final -104.98 input  -60.11 | X-H torsion
[ 7974 7965 7964 7962 ] final    8.35 input  175.53 | X-H torsion
[ 8008 7997 7996 7995 ] final  127.07 input   59.86 | X-H torsion
[ 10167 10162 10161 10158 ] final  153.27 input  -65.29 | X-H torsion
[ 10718 10713 10712 10709 ] final  -35.68 input   66.30 | X-H torsion
[ 10763 10752 10751 10750 ] final   34.36 input  -60.55 | X-H torsion
[ 11005 11000 10999 10996 ] final   31.62 input  -57.11 | X-H torsion

> <Gold.Protein.ActiveResidues>
 VAL166  LYS551  ARG553  GLY616  TRP617  ASP618  TYR619  PRO620  LYS621  CYS622 
 ASP623  PHE694  ASN695  SER759  ASP760  ASP761  ALA762  ILE779  LEU786  VAL792 
 PHE793  MET794  SER795  GLU796  ALA797  LYS798  CYS799  TRP800  GLU811  SER814 

> <Gold.Protein.RotatedAtoms>
  150.7314  134.0195  159.3696 H   0  0  0  0  0  0  0  0  0  0  0  0  # atno 6907 bound_to 6896
  151.8159  135.0664  160.0428 H   0  0  0  0  0  0  0  0  0  0  0  0  # atno 6908 bound_to 6896
  152.3039  133.5647  159.5672 H   0  0  0  0  0  0  0  0  0  0  0  0  # atno 6909 bound_to 6896
  146.2417  139.9947  142.8422 H   0  0  0  0  0  0  0  0  0  0  0  0  # atno 7974 bound_to 7965
  156.2881  140.2677  156.2214 H   0  0  0  0  0  0  0  0  0  0  0  0  # atno 8008 bound_to 7997
  155.0164  140.0387  157.2438 H   0  0  0  0  0  0  0  0  0  0  0  0  # atno 8009 bound_to 7997
  154.7473  140.2736  155.6327 H   0  0  0  0  0  0  0  0  0  0  0  0  # atno 8010 bound_to 7997
  139.4828  144.5287  151.7758 H   0  0  0  0  0  0  0  0  0  0  0  0  # atno 10167 bound_to 10162
  156.3358  130.4286  149.7831 H   0  0  0  0  0  0  0  0  0  0  0  0  # atno 10718 bound_to 10713
  153.0168  135.6362  154.1656 H   0  0  0  0  0  0  0  0  0  0  0  0  # atno 10763 bound_to 10752
  154.1394  135.2835  155.3166 H   0  0  0  0  0  0  0  0  0  0  0  0  # atno 10764 bound_to 10752
  154.6136  135.5548  153.7560 H   0  0  0  0  0  0  0  0  0  0  0  0  # atno 10765 bound_to 10752
  140.2820  134.2962  155.7798 H   0  0  0  0  0  0  0  0  0  0  0  0  # atno 11005 bound_to 11000
  145.1471  140.9603  143.4454 LP  0  0  0  0  0  0  0  0  0  0  0  0  # atno 17320 bound_to 7965
  145.0240  139.3398  143.6058 LP  0  0  0  0  0  0  0  0  0  0  0  0  # atno 17321 bound_to 7965
  140.4810  144.1449  150.5933 LP  0  0  0  0  0  0  0  0  0  0  0  0  # atno 17342 bound_to 10162
  140.4277  143.2582  151.9635 LP  0  0  0  0  0  0  0  0  0  0  0  0  # atno 17343 bound_to 10162
  156.5087  130.8162  151.3160 LP  0  0  0  0  0  0  0  0  0  0  0  0  # atno 17370 bound_to 10713
  157.7438  130.9921  150.2624 LP  0  0  0  0  0  0  0  0  0  0  0  0  # atno 17371 bound_to 10713
  141.2161  133.7531  156.9495 LP  0  0  0  0  0  0  0  0  0  0  0  0  # atno 17394 bound_to 11000
  140.1274  134.9378  157.2290 LP  0  0  0  0  0  0  0  0  0  0  0  0  # atno 17395 bound_to 11000

$$$$
