AV-unprocessed.smi:25|AV-procd|sdf|179|dock3
  -GOLD-   2262015443D 1   1.00000     0.00000
 Structure written by MMmdl.
 47 50  0  0  0  0  0  0  0  0  1 V2000
  150.0510  140.9402  155.6529 C   0  0  0  0  0  0  0  0  0  0  0  0
  150.0556  140.8200  157.1901 C   0  0  2  0  0  0  0  0  0  0  0  0
  149.6263  142.1441  157.8611 C   0  0  0  0  0  0  0  0  0  0  0  0
  150.8607  142.5720  158.5929 C   0  0  0  0  0  0  0  0  0  0  0  0
  151.0279  143.7780  159.2952 C   0  0  0  0  0  0  0  0  0  0  0  0
  152.2739  144.0309  159.9030 C   0  0  0  0  0  0  0  0  0  0  0  0
  153.3207  143.0898  159.7910 C   0  0  0  0  0  0  0  0  0  0  0  0
  153.1344  141.8836  159.0807 C   0  0  0  0  0  0  0  0  0  0  0  0
  151.8756  141.6223  158.4871 C   0  0  0  0  0  0  0  0  0  0  0  0
  151.4049  140.5136  157.7193 N   0  0  0  0  0  0  0  0  0  0  0  0
  151.9379  139.2690  157.5717 C   0  0  0  0  0  0  0  0  0  0  0  0
  153.0466  138.9950  158.0382 O   0  0  0  0  0  0  0  0  0  0  0  0
  151.1932  138.1659  156.7947 C   0  0  0  0  0  0  0  0  0  0  0  0
  149.8866  137.7947  157.3867 N   0  0  0  0  0  0  0  0  0  0  0  0
  148.7110  137.9957  156.6200 C   0  0  0  0  0  0  0  0  0  0  0  0
  148.7617  138.4777  155.4873 O   0  0  0  0  0  0  0  0  0  0  0  0
  147.4646  137.5853  157.2570 C   0  0  0  0  0  0  0  0  0  0  0  0
  146.3013  137.7316  156.6002 F   0  0  0  0  0  0  0  0  0  0  0  0
  147.4603  137.0553  158.4972 C   0  0  0  0  0  0  0  0  0  0  0  0
  148.6139  136.8697  159.2358 N   0  0  0  0  0  0  0  0  0  0  0  0
  148.5662  136.2560  160.6164 C   0  0  2  0  0  0  0  0  0  0  0  0
  147.8943  134.8785  160.5625 C   0  0  0  0  0  0  0  0  0  0  0  0
  146.4798  135.1987  160.9961 C   0  0  0  0  0  0  0  0  0  0  0  0
  146.7136  136.3277  161.9922 C   0  0  0  0  0  0  0  0  0  0  0  0
  147.7970  137.0751  161.4497 O   0  0  0  0  0  0  0  0  0  0  0  0
  149.8634  137.2217  158.6816 C   0  0  0  0  0  0  0  0  0  0  0  0
  150.9075  137.0222  159.3062 O   0  0  0  0  0  0  0  0  0  0  0  0
  149.0632  141.2235  155.2888 H   0  0  0  0  0  0  0  0  0  0  0  0
  150.3140  140.0004  155.1679 H   0  0  0  0  0  0  0  0  0  0  0  0
  150.7588  141.6978  155.3147 H   0  0  0  0  0  0  0  0  0  0  0  0
  149.3539  140.0383  157.4879 H   0  0  0  0  0  0  0  0  0  0  0  0
  149.3198  142.9063  157.1436 H   0  0  0  0  0  0  0  0  0  0  0  0
  148.8130  141.9882  158.5705 H   0  0  0  0  0  0  0  0  0  0  0  0
  150.2240  144.4962  159.3635 H   0  0  0  0  0  0  0  0  0  0  0  0
  152.4318  144.9502  160.4475 H   0  0  0  0  0  0  0  0  0  0  0  0
  154.2762  143.2974  160.2498 H   0  0  0  0  0  0  0  0  0  0  0  0
  153.9751  141.2174  159.0136 H   0  0  0  0  0  0  0  0  0  0  0  0
  151.0473  138.5070  155.7701 H   0  0  0  0  0  0  0  0  0  0  0  0
  151.8317  137.2846  156.7286 H   0  0  0  0  0  0  0  0  0  0  0  0
  146.5098  136.7625  158.9177 H   0  0  0  0  0  0  0  0  0  0  0  0
  149.5934  136.2309  160.9829 H   0  0  0  0  0  0  0  0  0  0  0  0
  147.9639  134.4187  159.5758 H   0  0  0  0  0  0  0  0  0  0  0  0
  148.3786  134.2271  161.2909 H   0  0  0  0  0  0  0  0  0  0  0  0
  145.8957  135.5569  160.1477 H   0  0  0  0  0  0  0  0  0  0  0  0
  145.9613  134.3448  161.4326 H   0  0  0  0  0  0  0  0  0  0  0  0
  145.8311  136.9501  162.1401 H   0  0  0  0  0  0  0  0  0  0  0  0
  147.0137  135.9246  162.9602 H   0  0  0  0  0  0  0  0  0  0  0  0
  1  2  1  0  0  0  0
  1 28  1  0  0  0  0
  1 29  1  0  0  0  0
  1 30  1  0  0  0  0
  2 10  1  0  0  0  0
  2  3  1  0  0  0  0
  2 31  1  0  0  0  0
  3  4  1  0  0  0  0
  3 32  1  0  0  0  0
  3 33  1  0  0  0  0
  4  9  2  0  0  0  0
  4  5  1  0  0  0  0
  5  6  2  0  0  0  0
  5 34  1  0  0  0  0
  6  7  1  0  0  0  0
  6 35  1  0  0  0  0
  7  8  2  0  0  0  0
  7 36  1  0  0  0  0
  8  9  1  0  0  0  0
  8 37  1  0  0  0  0
  9 10  1  0  0  0  0
 10 11  1  0  0  0  0
 11 12  2  0  0  0  0
 11 13  1  0  0  0  0
 13 14  1  0  0  0  0
 13 38  1  0  0  0  0
 13 39  1  0  0  0  0
 14 26  1  0  0  0  0
 14 15  1  0  0  0  0
 15 16  2  0  0  0  0
 15 17  1  0  0  0  0
 17 18  1  0  0  0  0
 17 19  2  0  0  0  0
 19 20  1  0  0  0  0
 19 40  1  0  0  0  0
 20 21  1  0  0  0  0
 20 26  1  0  0  0  0
 21 25  1  0  0  0  0
 21 22  1  0  0  0  0
 21 41  1  0  0  0  0
 22 23  1  0  0  0  0
 22 42  1  0  0  0  0
 22 43  1  0  0  0  0
 23 24  1  0  0  0  0
 23 44  1  0  0  0  0
 23 45  1  0  0  0  0
 24 25  1  0  0  0  0
 24 46  1  0  0  0  0
 24 47  1  0  0  0  0
 26 27  2  0  0  0  0
M  END
> <s_m_source_file>
AV-unprocessed.smi

> <i_m_source_file_index>
25

> <i_lp_mmshare_version>
43012

> <i_f3d_flags>
0

> <s_epik_input>
W2NIXTFbY0hdW2NIXVtjSF1jKGMxMilOKFtDQEhdKFtDSDNdKVtDSDJdMilDKD1PKVtDSDJdbjNjKD1PKWMoRilbY0hdbihjMz1PKVtDQEBIXTRbQ0gyXVtDSDJdW0NIMl1PNA==

> <s_epik_cmdline>
J2VwaWtfcHl0aG9uJywgJy1waCcsICc3LjAnLCAnLXRuJywgJzgnLCAnLW1hJywgJzIwMCcsICctbWV0YWxfYmluZGluZycsICctaW1hZScsICc8aW5maWxlLm1hZT4nLCAnLW9tYWUnLCAnPG91dGZpbGUubWFlPic=

> <r_lp_tautomer_probability>
1

> <r_epik_Ionization_Penalty>
1.67943e-06

> <r_epik_Ionization_Penalty_Charging>
3.79603e-09

> <r_epik_Ionization_Penalty_Neutral>
1.67563e-06

> <r_epik_State_Penalty>
-0

> <r_epik_Charging_Adjusted_Penalty>
3.79603e-09

> <i_epik_Tot_Q>
0

> <i_epik_Tot_abs_Q>
0

> <r_epik_Metal_State_Penalty>
-0

> <b_epik_Metal_Only>
0

> <s_epik_Chemistry_Notes>
This compound contains an acetal/aminal-like group ( X-CH(R)-Y where X, Y are N, S, or O) that may be acid/base labile, releasing an aldehyde.

> <s_lp_Force_Field>
OPLS_2005

> <r_lp_Energy>
56.1974

> <b_lp_Chiralities_Consistent>
1

> <s_lp_Variant>
AV-unprocessed.smi:25-1

> <Gold.Version>
5.8.1

> <Gold.Id.Protein>
6NUR|6NUR_protein|mol2

> <Gold.PLP.Fitness>
50.6685

> <Gold.PLP.PLP>
-40.4719

> <Gold.PLP.part.hbond>
-3.6948

> <Gold.PLP.part.metal>
0.0000

> <Gold.PLP.part.buried>
-6.1163

> <Gold.PLP.part.nonpolar>
-31.2412

> <Gold.PLP.part.repulsive>
0.0563

> <Gold.PLP.ligand.clash>
0.0000

> <Gold.PLP.ligand.torsion>
0.0295

> <Gold.PLP.Chemscore.Hbond>
3.4075

> <Gold.PLP.Chemscore.CHOScore>
0.0000

> <Gold.PLP.Chemscore.Metal>
0.0000

> <Gold.Chemscore.Hbonds>
donor molecule, donor type, donor heavy atom, donor atom, acceptor molecule, acceptor atom, score
      P1  H  6896  6908       L1    27  1.00
      P1  H  6931  6943       L1    25  0.95
      P1  H  6934  6947       L1    25  0.64
      P1  H  7997  8008       L1    12  0.78

> <Gold.PLP.Chemscore.Internal.Correction>
0.0329

> <Gold.Rescore>
     Score         DG    S(hbond)    S(metal)    S(lipo)     H(rot)  DE(clash)    DE(int)     intcor
     17.33     -21.54       2.55        0.00      98.24       1.55       0.00       4.21       ----

> <Gold.Chemscore.Fitness>
17.3278

> <Gold.Chemscore.DG>
-21.5357

> <Gold.Chemscore.ZeroCoef>
-5.4800

> <Gold.Chemscore.Hbond>
2.5530

> <Gold.Chemscore.Metal>
0.0000

> <Gold.Chemscore.Lipo>
98.2362

> <Gold.Chemscore.Internal_Hbond>
0.0000

> <Gold.Chemscore.DEClash>
0.0021

> <Gold.Chemscore.DEInternal>
4.2057

> <Gold.Chemscore.Rot>
1.5489

> <Gold.Chemscore.Internal.Correction>
   9.000000E+99

> <Gold.Chemscore.Hbonds>
donor molecule, donor type, donor heavy atom, donor atom, acceptor molecule, acceptor atom, score
      P1  H  6896  6908       L1    27  0.76
      P1  H  6931  6943       L1    25  0.21
      P1  H  6934  6947       L1    25  0.48
      P1  H  7997  8008       L1    12  0.60

> <Gold.Chemscore.Hbond.Weighted>
-8.5272

> <Gold.Chemscore.Metal.Weighted>
-0.0000

> <Gold.Chemscore.Lipo.Weighted>
-11.4936

> <Gold.Chemscore.Internal_Hbond.Weighted>
0.0000

> <Gold.Chemscore.DEClash.Weighted>
0.0021

> <Gold.Chemscore.DEInternal.Weighted>
4.2057

> <Gold.Chemscore.Rot.Weighted>
3.9651

> <Gold.Chemscore.Internal.Correction.Weighted>
   9.000000E+99

> <Gold.Protein.RotatedTorsions>
[ 6907 6896 6895 6894 ] final -148.68 input  -60.11 | X-H torsion
[ 7974 7965 7964 7962 ] final  -47.21 input  175.53 | X-H torsion
[ 8008 7997 7996 7995 ] final  -85.20 input   59.86 | X-H torsion
[ 10167 10162 10161 10158 ] final  -71.07 input  -65.29 | X-H torsion
[ 10718 10713 10712 10709 ] final   56.61 input   66.30 | X-H torsion
[ 10763 10752 10751 10750 ] final   58.33 input  -60.55 | X-H torsion
[ 11005 11000 10999 10996 ] final  -20.93 input  -57.11 | X-H torsion

> <Gold.Protein.ActiveResidues>
 VAL166  LYS551  ARG553  GLY616  TRP617  ASP618  TYR619  PRO620  LYS621  CYS622 
 ASP623  PHE694  ASN695  SER759  ASP760  ASP761  ALA762  ILE779  LEU786  VAL792 
 PHE793  MET794  SER795  GLU796  ALA797  LYS798  CYS799  TRP800  GLU811  SER814 

> <Gold.Protein.RotatedAtoms>
  151.1732  133.4771  159.2593 H   0  0  0  0  0  0  0  0  0  0  0  0  # atno 6907 bound_to 6896
  151.1334  135.0142  159.8603 H   0  0  0  0  0  0  0  0  0  0  0  0  # atno 6908 bound_to 6896
  152.5460  134.1633  159.8620 H   0  0  0  0  0  0  0  0  0  0  0  0  # atno 6909 bound_to 6896
  145.9640  140.7451  142.9443 H   0  0  0  0  0  0  0  0  0  0  0  0  # atno 7974 bound_to 7965
  154.6382  140.0594  156.9814 H   0  0  0  0  0  0  0  0  0  0  0  0  # atno 8008 bound_to 7997
  155.1559  140.3278  155.4403 H   0  0  0  0  0  0  0  0  0  0  0  0  # atno 8009 bound_to 7997
  156.2517  140.1939  156.6668 H   0  0  0  0  0  0  0  0  0  0  0  0  # atno 8010 bound_to 7997
  140.5302  143.2322  151.7275 H   0  0  0  0  0  0  0  0  0  0  0  0  # atno 10167 bound_to 10162
  157.5445  130.8721  149.8871 H   0  0  0  0  0  0  0  0  0  0  0  0  # atno 10718 bound_to 10713
  152.9868  135.5610  154.5534 H   0  0  0  0  0  0  0  0  0  0  0  0  # atno 10763 bound_to 10752
  154.4967  135.2795  155.1456 H   0  0  0  0  0  0  0  0  0  0  0  0  # atno 10764 bound_to 10752
  154.2903  135.6327  153.5435 H   0  0  0  0  0  0  0  0  0  0  0  0  # atno 10765 bound_to 10752
  140.8512  133.7855  155.9968 H   0  0  0  0  0  0  0  0  0  0  0  0  # atno 11005 bound_to 11000
  144.6821  140.2638  143.7315 LP  0  0  0  0  0  0  0  0  0  0  0  0  # atno 17320 bound_to 7965
  145.8000  139.1960  143.2053 LP  0  0  0  0  0  0  0  0  0  0  0  0  # atno 17321 bound_to 7965
  139.4952  144.4125  152.0065 LP  0  0  0  0  0  0  0  0  0  0  0  0  # atno 17342 bound_to 10162
  140.3227  144.3409  150.6005 LP  0  0  0  0  0  0  0  0  0  0  0  0  # atno 17343 bound_to 10162
  156.0524  130.3715  150.1170 LP  0  0  0  0  0  0  0  0  0  0  0  0  # atno 17370 bound_to 10713
  156.9347  130.9725  151.3527 LP  0  0  0  0  0  0  0  0  0  0  0  0  # atno 17371 bound_to 10713
  140.8788  134.2637  157.5154 LP  0  0  0  0  0  0  0  0  0  0  0  0  # atno 17394 bound_to 11000
  139.8704  134.9604  156.4364 LP  0  0  0  0  0  0  0  0  0  0  0  0  # atno 17395 bound_to 11000

$$$$
