AV-unprocessed.smi:2243|AV-procd|sdf|9066|dock8
  -GOLD-   2272012273D 1   1.00000     0.00000
 Structure written by MMmdl.
 34 35  0  0  0  0  0  0  0  0  1 V2000
  149.3204  135.0298  155.0251 C   0  0  0  0  0  0  0  0  0  0  0  0
  148.7848  136.4143  155.4279 C   0  0  2  0  0  0  0  0  0  0  0  0
  147.8396  136.8481  154.3977 N   0  0  0  0  0  0  0  0  0  0  0  0
  146.6214  137.3746  154.6002 C   0  0  0  0  0  0  0  0  0  0  0  0
  146.1704  137.5512  155.7362 O   0  0  0  0  0  0  0  0  0  0  0  0
  146.0256  137.6610  153.3804 N   0  0  0  0  0  0  0  0  0  0  0  0
  145.7784  136.7016  152.5430 C   0  0  0  0  0  0  0  0  0  0  0  0
  145.1918  136.8025  151.2916 N   0  0  0  0  0  0  0  0  0  0  0  0
  145.1221  135.5480  150.7516 C   0  0  0  0  0  0  0  0  0  0  0  0
  145.6436  134.6918  151.6253 C   0  0  0  0  0  0  0  0  0  0  0  0
  146.0553  135.3673  152.7342 O   0  0  0  0  0  0  0  0  0  0  0  0
  149.9030  137.4736  155.6196 C   0  0  0  0  0  0  0  0  0  0  0  0
  149.3532  138.9139  155.6617 C   0  0  0  0  0  0  0  0  0  0  0  0
  150.4900  139.9418  155.7819 C   0  0  0  0  0  0  0  0  0  0  0  0
  151.4015  139.7889  154.7013 O   0  0  0  0  0  0  0  0  0  0  0  0
  152.0327  138.5145  154.6943 C   0  0  0  0  0  0  0  0  0  0  0  0
  150.9822  137.4064  154.5173 C   0  0  0  0  0  0  0  0  0  0  0  0
  149.9202  134.5816  155.8165 H   0  0  0  0  0  0  0  0  0  0  0  0
  149.9368  135.0877  154.1274 H   0  0  0  0  0  0  0  0  0  0  0  0
  148.5014  134.3392  154.8208 H   0  0  0  0  0  0  0  0  0  0  0  0
  148.2668  136.2962  156.3811 H   0  0  0  0  0  0  0  0  0  0  0  0
  148.1396  136.7341  153.4402 H   0  0  0  0  0  0  0  0  0  0  0  0
  144.8593  137.6319  150.8213 H   0  0  0  0  0  0  0  0  0  0  0  0
  144.6943  135.3983  149.7714 H   0  0  0  0  0  0  0  0  0  0  0  0
  145.7876  133.6218  151.6082 H   0  0  0  0  0  0  0  0  0  0  0  0
  150.3938  137.2765  156.5742 H   0  0  0  0  0  0  0  0  0  0  0  0
  148.7765  139.1165  154.7581 H   0  0  0  0  0  0  0  0  0  0  0  0
  148.6733  139.0451  156.5028 H   0  0  0  0  0  0  0  0  0  0  0  0
  150.0835  140.9529  155.7571 H   0  0  0  0  0  0  0  0  0  0  0  0
  151.0139  139.8336  156.7330 H   0  0  0  0  0  0  0  0  0  0  0  0
  152.7493  138.4829  153.8736 H   0  0  0  0  0  0  0  0  0  0  0  0
  152.5989  138.3710  155.6158 H   0  0  0  0  0  0  0  0  0  0  0  0
  151.4859  136.4396  154.5253 H   0  0  0  0  0  0  0  0  0  0  0  0
  150.5148  137.5047  153.5367 H   0  0  0  0  0  0  0  0  0  0  0  0
  1  2  1  0  0  0  0
  1 18  1  0  0  0  0
  1 19  1  0  0  0  0
  1 20  1  0  0  0  0
  2  3  1  0  0  0  0
  2 12  1  0  0  0  0
  2 21  1  0  0  0  0
  3 22  1  0  0  0  0
  3  4  1  0  0  0  0
  4  6  1  0  0  0  0
  4  5  2  0  0  0  0
  6  7  2  0  0  0  0
  7 11  1  0  0  0  0
  7  8  1  0  0  0  0
  8 23  1  0  0  0  0
  8  9  1  0  0  0  0
  9 24  1  0  0  0  0
  9 10  2  0  0  0  0
 10 25  1  0  0  0  0
 10 11  1  0  0  0  0
 12 17  1  0  0  0  0
 12 13  1  0  0  0  0
 12 26  1  0  0  0  0
 13 14  1  0  0  0  0
 13 27  1  0  0  0  0
 13 28  1  0  0  0  0
 14 15  1  0  0  0  0
 14 29  1  0  0  0  0
 14 30  1  0  0  0  0
 15 16  1  0  0  0  0
 16 17  1  0  0  0  0
 16 31  1  0  0  0  0
 16 32  1  0  0  0  0
 17 33  1  0  0  0  0
 17 34  1  0  0  0  0
M  END
> <s_m_source_file>
AV-unprocessed.smi

> <i_m_source_file_index>
2243

> <i_lp_mmshare_version>
43012

> <i_f3d_flags>
0

> <s_epik_input>
W0NIMl0xW0NIMl1PW0NIMl1bQ0gyXVtDSF0xW0NASF0oW0NIM10pW05IXUMoPU8pW05IXWMybltjSF1bY0hdbzI=

> <s_epik_cmdline>
J2VwaWtfcHl0aG9uJywgJy1waCcsICc3LjAnLCAnLXRuJywgJzgnLCAnLW1hJywgJzIwMCcsICctbWV0YWxfYmluZGluZycsICctaW1hZScsICc8aW5maWxlLm1hZT4nLCAnLW9tYWUnLCAnPG91dGZpbGUubWFlPic=

> <r_lp_tautomer_probability>
0.107061

> <r_epik_Ionization_Penalty>
1.44639

> <r_epik_Ionization_Penalty_Charging>
1.44602

> <r_epik_Ionization_Penalty_Neutral>
0.000368208

> <r_epik_State_Penalty>
2.61815

> <r_epik_Charging_Adjusted_Penalty>
4.06418

> <i_epik_Tot_Q>
0

> <i_epik_Tot_abs_Q>
0

> <r_epik_Metal_State_Penalty>
3.54171

> <b_epik_Metal_Only>
0

> <s_lp_Force_Field>
OPLS_2005

> <r_lp_Energy>
34.6671

> <b_lp_Chiralities_Consistent>
1

> <s_lp_Variant>
AV-unprocessed.smi:2243-5

> <Gold.Version>
5.8.1

> <Gold.Id.Protein>
6NUR|6NUR_protein|mol2

> <Gold.PLP.Fitness>
32.2376

> <Gold.PLP.PLP>
-22.7176

> <Gold.PLP.part.hbond>
-3.0000

> <Gold.PLP.part.metal>
0.0000

> <Gold.PLP.part.buried>
-3.6943

> <Gold.PLP.part.nonpolar>
-17.2334

> <Gold.PLP.part.repulsive>
1.5984

> <Gold.PLP.ligand.clash>
0.0000

> <Gold.PLP.ligand.torsion>
1.0493

> <Gold.PLP.Chemscore.Hbond>
3.0000

> <Gold.PLP.Chemscore.CHOScore>
0.8677

> <Gold.PLP.Chemscore.Metal>
0.0000

> <Gold.Chemscore.Hbonds>
donor molecule, donor type, donor heavy atom, donor atom, acceptor molecule, acceptor atom, score
      L1  H     3    22       P1  7948  1.00
      L1  H     8    23       P1 10171  1.00
      P1  H  7989  7998       L1    15  1.00
      L1  C     9    24       P1  7921  0.63

> <Gold.PLP.Chemscore.Internal.Correction>
0.0156

> <Gold.Rescore>
     Score         DG    S(hbond)    S(metal)    S(lipo)     H(rot)  DE(clash)    DE(int)     intcor
     15.28     -17.58       2.97        0.00      47.60       1.32       0.05       2.26       ----

> <Gold.Chemscore.Fitness>
15.2760

> <Gold.Chemscore.DG>
-17.5845

> <Gold.Chemscore.ZeroCoef>
-5.4800

> <Gold.Chemscore.Hbond>
2.9683

> <Gold.Chemscore.Metal>
0.0000

> <Gold.Chemscore.Lipo>
47.6049

> <Gold.Chemscore.Internal_Hbond>
0.0000

> <Gold.Chemscore.DEClash>
0.0491

> <Gold.Chemscore.DEInternal>
2.2594

> <Gold.Chemscore.Rot>
1.3201

> <Gold.Chemscore.Internal.Correction>
   9.000000E+99

> <Gold.Chemscore.Hbonds>
donor molecule, donor type, donor heavy atom, donor atom, acceptor molecule, acceptor atom, score
      L1  H     3    22       P1  7948  1.00
      L1  H     8    23       P1 10171  0.99
      P1  H  7989  7998       L1    15  0.98

> <Gold.Chemscore.Hbond.Weighted>
-9.9141

> <Gold.Chemscore.Metal.Weighted>
-0.0000

> <Gold.Chemscore.Lipo.Weighted>
-5.5698

> <Gold.Chemscore.Internal_Hbond.Weighted>
0.0000

> <Gold.Chemscore.DEClash.Weighted>
0.0491

> <Gold.Chemscore.DEInternal.Weighted>
2.2594

> <Gold.Chemscore.Rot.Weighted>
3.3794

> <Gold.Chemscore.Internal.Correction.Weighted>
   9.000000E+99

> <Gold.Protein.RotatedTorsions>
[ 6907 6896 6895 6894 ] final   57.64 input  -60.11 | X-H torsion
[ 7974 7965 7964 7962 ] final   -2.43 input  175.53 | X-H torsion
[ 8008 7997 7996 7995 ] final  125.88 input   59.86 | X-H torsion
[ 10167 10162 10161 10158 ] final  128.74 input  -65.29 | X-H torsion
[ 10718 10713 10712 10709 ] final   13.64 input   66.30 | X-H torsion
[ 10763 10752 10751 10750 ] final  -79.16 input  -60.55 | X-H torsion
[ 11005 11000 10999 10996 ] final  -83.92 input  -57.11 | X-H torsion

> <Gold.Protein.ActiveResidues>
 VAL166  LYS551  ARG553  GLY616  TRP617  ASP618  TYR619  PRO620  LYS621  CYS622 
 ASP623  PHE694  ASN695  SER759  ASP760  ASP761  ALA762  ILE779  LEU786  VAL792 
 PHE793  MET794  SER795  GLU796  ALA797  LYS798  CYS799  TRP800  GLU811  SER814 

> <Gold.Protein.RotatedAtoms>
  152.3750  134.6677  160.0162 H   0  0  0  0  0  0  0  0  0  0  0  0  # atno 6907 bound_to 6896
  151.6958  133.3305  159.3262 H   0  0  0  0  0  0  0  0  0  0  0  0  # atno 6908 bound_to 6896
  150.7702  134.6594  159.6376 H   0  0  0  0  0  0  0  0  0  0  0  0  # atno 6909 bound_to 6896
  146.2404  140.1569  142.8333 H   0  0  0  0  0  0  0  0  0  0  0  0  # atno 7974 bound_to 7965
  156.2847  140.2706  156.2021 H   0  0  0  0  0  0  0  0  0  0  0  0  # atno 8008 bound_to 7997
  155.0350  140.0386  157.2506 H   0  0  0  0  0  0  0  0  0  0  0  0  # atno 8009 bound_to 7997
  154.7322  140.2709  155.6451 H   0  0  0  0  0  0  0  0  0  0  0  0  # atno 8010 bound_to 7997
  139.5512  144.6814  151.4318 H   0  0  0  0  0  0  0  0  0  0  0  0  # atno 10167 bound_to 10162
  157.0276  130.6180  149.5730 H   0  0  0  0  0  0  0  0  0  0  0  0  # atno 10718 bound_to 10713
  154.5351  135.5705  153.6792 H   0  0  0  0  0  0  0  0  0  0  0  0  # atno 10763 bound_to 10752
  152.9949  135.6214  154.2577 H   0  0  0  0  0  0  0  0  0  0  0  0  # atno 10764 bound_to 10752
  154.2505  135.2859  155.2798 H   0  0  0  0  0  0  0  0  0  0  0  0  # atno 10765 bound_to 10752
  141.1654  133.7319  156.8791 H   0  0  0  0  0  0  0  0  0  0  0  0  # atno 11005 bound_to 11000
  145.0121  140.8723  143.5218 LP  0  0  0  0  0  0  0  0  0  0  0  0  # atno 17320 bound_to 7965
  145.1604  139.2462  143.5394 LP  0  0  0  0  0  0  0  0  0  0  0  0  # atno 17321 bound_to 7965
  140.6775  143.8157  150.7077 LP  0  0  0  0  0  0  0  0  0  0  0  0  # atno 17342 bound_to 10162
  140.1600  143.4283  152.2073 LP  0  0  0  0  0  0  0  0  0  0  0  0  # atno 17343 bound_to 10162
  156.0080  130.5169  150.7896 LP  0  0  0  0  0  0  0  0  0  0  0  0  # atno 17370 bound_to 10713
  157.5202  131.0931  151.0088 LP  0  0  0  0  0  0  0  0  0  0  0  0  # atno 17371 bound_to 10713
  140.1727  134.9088  157.2853 LP  0  0  0  0  0  0  0  0  0  0  0  0  # atno 17394 bound_to 11000
  140.2483  134.3713  155.7452 LP  0  0  0  0  0  0  0  0  0  0  0  0  # atno 17395 bound_to 11000

$$$$
