AV-unprocessed.smi:1824|AV-procd|sdf|7401|dock7
  -GOLD-   22720 9 73D 1   1.00000     0.00000
 Structure written by MMmdl.
 45 47  0  0  0  0  0  0  0  0  2 V2000
  146.9671  139.0058  152.4048 C   0  0  0  0  0  0  0  0  0  0  0  0
  147.3621  140.1770  153.3109 C   0  0  2  0  0  0  0  0  0  0  0  0
  148.6393  139.8787  154.1166 C   0  0  0  0  0  0  0  0  0  0  0  0
  148.9400  141.0008  155.0376 N   0  3  2  0  0  0  0  0  0  0  0  0
  150.2160  140.8409  155.7812 C   0  0  0  0  0  0  0  0  0  0  0  0
  150.2506  141.6603  157.0870 C   0  0  1  0  0  0  0  0  0  0  0  0
  150.6736  140.8180  158.1430 O   0  0  0  0  0  0  0  0  0  0  0  0
  151.2075  142.8635  156.9780 C   0  0  0  0  0  0  0  0  0  0  0  0
  151.2705  143.6413  158.2029 N   0  0  0  0  0  0  0  0  0  0  0  0
  150.6758  144.8254  158.4471 C   0  0  0  0  0  0  0  0  0  0  0  0
  150.8640  145.3660  159.6473 N   0  0  0  0  0  0  0  0  0  0  0  0
  151.6722  144.4215  160.2559 C   0  0  0  0  0  0  0  0  0  0  0  0
  152.2296  144.3910  161.5540 C   0  0  0  0  0  0  0  0  0  0  0  0
  153.0350  143.3072  161.9611 C   0  0  0  0  0  0  0  0  0  0  0  0
  153.5594  143.2928  163.2095 F   0  0  0  0  0  0  0  0  0  0  0  0
  153.2963  142.2396  161.0763 C   0  0  0  0  0  0  0  0  0  0  0  0
  154.0709  141.2027  161.4744 F   0  0  0  0  0  0  0  0  0  0  0  0
  152.7517  142.2477  159.7777 C   0  0  0  0  0  0  0  0  0  0  0  0
  151.9471  143.3303  159.3773 C   0  0  0  0  0  0  0  0  0  0  0  0
  147.7872  141.2509  155.9350 C   0  0  0  0  0  0  0  0  0  0  0  0
  146.4957  141.4916  155.1284 C   0  0  1  0  0  0  0  0  0  0  0  0
  146.4468  142.8682  154.4416 C   0  0  0  0  0  0  0  0  0  0  0  0
  146.2822  140.4206  154.2087 O   0  0  0  0  0  0  0  0  0  0  0  0
  147.7574  138.7792  151.6886 H   0  0  0  0  0  0  0  0  0  0  0  0
  146.0643  139.2381  151.8393 H   0  0  0  0  0  0  0  0  0  0  0  0
  146.7728  138.1040  152.9860 H   0  0  0  0  0  0  0  0  0  0  0  0
  147.5222  141.0515  152.6800 H   0  0  0  0  0  0  0  0  0  0  0  0
  148.5181  138.9581  154.6898 H   0  0  0  0  0  0  0  0  0  0  0  0
  149.4681  139.7175  153.4283 H   0  0  0  0  0  0  0  0  0  0  0  0
  150.3642  139.7889  156.0308 H   0  0  0  0  0  0  0  0  0  0  0  0
  151.0478  141.1185  155.1321 H   0  0  0  0  0  0  0  0  0  0  0  0
  149.2552  142.0321  157.3279 H   0  0  0  0  0  0  0  0  0  0  0  0
  151.5295  141.0978  158.4307 H   0  0  0  0  0  0  0  0  0  0  0  0
  152.2153  142.5310  156.7247 H   0  0  0  0  0  0  0  0  0  0  0  0
  150.8881  143.5251  156.1719 H   0  0  0  0  0  0  0  0  0  0  0  0
  150.0713  145.3199  157.7007 H   0  0  0  0  0  0  0  0  0  0  0  0
  152.0364  145.2030  162.2392 H   0  0  0  0  0  0  0  0  0  0  0  0
  152.9486  141.4307  159.0999 H   0  0  0  0  0  0  0  0  0  0  0  0
  147.6551  140.3892  156.5914 H   0  0  0  0  0  0  0  0  0  0  0  0
  147.9876  142.1095  156.5775 H   0  0  0  0  0  0  0  0  0  0  0  0
  145.6584  141.4599  155.8264 H   0  0  0  0  0  0  0  0  0  0  0  0
  146.4723  143.6697  155.1803 H   0  0  0  0  0  0  0  0  0  0  0  0
  145.5282  142.9818  153.8657 H   0  0  0  0  0  0  0  0  0  0  0  0
  147.2868  143.0254  153.7658 H   0  0  0  0  0  0  0  0  0  0  0  0
  149.0437  141.8314  154.4716 H   0  0  0  0  0  0  0  0  0  0  0  0
  1  2  1  0  0  0  0
  1 24  1  0  0  0  0
  1 25  1  0  0  0  0
  1 26  1  0  0  0  0
  2 23  1  0  0  0  0
  2  3  1  0  0  0  0
  2 27  1  0  0  0  0
  3  4  1  0  0  0  0
  3 28  1  0  0  0  0
  3 29  1  0  0  0  0
  4  5  1  0  0  0  0
  4 20  1  0  0  0  0
  4 45  1  0  0  0  0
  5  6  1  0  0  0  0
  5 30  1  0  0  0  0
  5 31  1  0  0  0  0
  6  7  1  0  0  0  0
  6  8  1  0  0  0  0
  6 32  1  0  0  0  0
  7 33  1  0  0  0  0
  8  9  1  0  0  0  0
  8 34  1  0  0  0  0
  8 35  1  0  0  0  0
  9 19  1  0  0  0  0
  9 10  1  0  0  0  0
 10 11  2  0  0  0  0
 10 36  1  0  0  0  0
 11 12  1  0  0  0  0
 12 19  2  0  0  0  0
 12 13  1  0  0  0  0
 13 14  2  0  0  0  0
 13 37  1  0  0  0  0
 14 15  1  0  0  0  0
 14 16  1  0  0  0  0
 16 17  1  0  0  0  0
 16 18  2  0  0  0  0
 18 19  1  0  0  0  0
 18 38  1  0  0  0  0
 20 21  1  0  0  0  0
 20 39  1  0  0  0  0
 20 40  1  0  0  0  0
 21 22  1  0  0  0  0
 21 23  1  0  0  0  0
 21 41  1  0  0  0  0
 22 42  1  0  0  0  0
 22 43  1  0  0  0  0
 22 44  1  0  0  0  0
M  CHG  1   4   1
M  END
> <s_m_source_file>
AV-unprocessed.smi

> <i_m_source_file_index>
1824

> <i_lp_mmshare_version>
43012

> <i_f3d_flags>
0

> <s_epik_input>
W0NIM11bQ0BASF0xW0NIMl1OKFtDSDJdW0NASF0oTzEpW0NIM10pW0NIMl1bQ0BIXShbT0hdKVtDSDJdbihbY0hdbjIpYyhjMjMpW2NIXWMoRiljKEYpW2NIXTM=

> <s_epik_cmdline>
J2VwaWtfcHl0aG9uJywgJy1waCcsICc3LjAnLCAnLXRuJywgJzgnLCAnLW1hJywgJzIwMCcsICctbWV0YWxfYmluZGluZycsICctaW1hZScsICc8aW5maWxlLm1hZT4nLCAnLW9tYWUnLCAnPG91dGZpbGUubWFlPic=

> <r_epik_Ionization_Penalty>
0.61967

> <r_epik_Ionization_Penalty_Charging>
0.608065

> <r_epik_Ionization_Penalty_Neutral>
0.0116057

> <r_epik_State_Penalty>
0.664205

> <r_epik_Charging_Adjusted_Penalty>
1.27227

> <i_epik_Tot_Q>
1

> <i_epik_Tot_abs_Q>
1

> <r_epik_Metal_State_Penalty>
0.654947

> <b_epik_Metal_Only>
0

> <s_lp_Force_Field>
OPLS_2005

> <r_lp_Energy>
23.0579

> <b_lp_Chiralities_Consistent>
1

> <s_lp_Variant>
AV-unprocessed.smi:1824-9

> <Gold.Version>
5.8.1

> <Gold.Id.Protein>
6NUR|6NUR_protein|mol2

> <Gold.PLP.Fitness>
53.3039

> <Gold.PLP.PLP>
-52.8999

> <Gold.PLP.part.hbond>
0.0000

> <Gold.PLP.part.metal>
0.0000

> <Gold.PLP.part.buried>
-4.8334

> <Gold.PLP.part.nonpolar>
-48.5039

> <Gold.PLP.part.repulsive>
0.7532

> <Gold.PLP.ligand.clash>
0.0000

> <Gold.PLP.ligand.torsion>
1.2120

> <Gold.PLP.Chemscore.Hbond>
0.0000

> <Gold.PLP.Chemscore.CHOScore>
0.9328

> <Gold.PLP.Chemscore.Metal>
0.0000

> <Gold.Chemscore.Hbonds>
donor molecule, donor type, donor heavy atom, donor atom, acceptor molecule, acceptor atom, score
      L1  C    10    36       P1  8028  0.22
      L1  C    10    36       P1  8029  0.45

> <Gold.PLP.Chemscore.Internal.Correction>
0.0296

> <Gold.Rescore>
     Score         DG    S(hbond)    S(metal)    S(lipo)     H(rot)  DE(clash)    DE(int)     intcor
     11.91     -14.05       0.00        0.00     124.13       2.33       0.72       1.42       ----

> <Gold.Chemscore.Fitness>
11.9089

> <Gold.Chemscore.DG>
-14.0508

> <Gold.Chemscore.ZeroCoef>
-5.4800

> <Gold.Chemscore.Hbond>
0.0000

> <Gold.Chemscore.Metal>
0.0000

> <Gold.Chemscore.Lipo>
124.1292

> <Gold.Chemscore.Internal_Hbond>
0.0000

> <Gold.Chemscore.DEClash>
0.7211

> <Gold.Chemscore.DEInternal>
1.4208

> <Gold.Chemscore.Rot>
2.3251

> <Gold.Chemscore.Internal.Correction>
   9.000000E+99

> <Gold.Chemscore.Hbond.Weighted>
-0.0000

> <Gold.Chemscore.Metal.Weighted>
-0.0000

> <Gold.Chemscore.Lipo.Weighted>
-14.5231

> <Gold.Chemscore.Internal_Hbond.Weighted>
0.0000

> <Gold.Chemscore.DEClash.Weighted>
0.7211

> <Gold.Chemscore.DEInternal.Weighted>
1.4208

> <Gold.Chemscore.Rot.Weighted>
5.9523

> <Gold.Chemscore.Internal.Correction.Weighted>
   9.000000E+99

> <Gold.Protein.RotatedTorsions>
[ 6907 6896 6895 6894 ] final  103.47 input  -60.11 | X-H torsion
[ 7974 7965 7964 7962 ] final  -20.85 input  175.53 | X-H torsion
[ 8008 7997 7996 7995 ] final   80.89 input   59.86 | X-H torsion
[ 10167 10162 10161 10158 ] final  -87.88 input  -65.29 | X-H torsion
[ 10718 10713 10712 10709 ] final -153.70 input   66.30 | X-H torsion
[ 10763 10752 10751 10750 ] final   22.14 input  -60.55 | X-H torsion
[ 11005 11000 10999 10996 ] final   74.50 input  -57.11 | X-H torsion

> <Gold.Protein.ActiveResidues>
 VAL166  LYS551  ARG553  GLY616  TRP617  ASP618  TYR619  PRO620  LYS621  CYS622 
 ASP623  PHE694  ASN695  SER759  ASP760  ASP761  ALA762  ILE779  LEU786  VAL792 
 PHE793  MET794  SER795  GLU796  ALA797  LYS798  CYS799  TRP800  GLU811  SER814 

> <Gold.Protein.RotatedAtoms>
  152.5294  133.9821  159.7811 H   0  0  0  0  0  0  0  0  0  0  0  0  # atno 6907 bound_to 6896
  151.0072  133.5991  159.2694 H   0  0  0  0  0  0  0  0  0  0  0  0  # atno 6908 bound_to 6896
  151.3078  135.0793  159.9315 H   0  0  0  0  0  0  0  0  0  0  0  0  # atno 6909 bound_to 6896
  146.1765  140.4259  142.8511 H   0  0  0  0  0  0  0  0  0  0  0  0  # atno 7974 bound_to 7965
  155.8896  140.3439  155.5947 H   0  0  0  0  0  0  0  0  0  0  0  0  # atno 8008 bound_to 7997
  155.7626  140.0834  157.2167 H   0  0  0  0  0  0  0  0  0  0  0  0  # atno 8009 bound_to 7997
  154.4032  140.1533  156.2837 H   0  0  0  0  0  0  0  0  0  0  0  0  # atno 8010 bound_to 7997
  140.3802  143.2752  151.9393 H   0  0  0  0  0  0  0  0  0  0  0  0  # atno 10167 bound_to 10162
  156.4893  130.8340  151.2563 H   0  0  0  0  0  0  0  0  0  0  0  0  # atno 10718 bound_to 10713
  153.0939  135.6654  153.9801 H   0  0  0  0  0  0  0  0  0  0  0  0  # atno 10763 bound_to 10752
  153.9390  135.2996  155.3444 H   0  0  0  0  0  0  0  0  0  0  0  0  # atno 10764 bound_to 10752
  154.7356  135.5103  153.9110 H   0  0  0  0  0  0  0  0  0  0  0  0  # atno 10765 bound_to 10752
  139.9388  134.7438  156.1156 H   0  0  0  0  0  0  0  0  0  0  0  0  # atno 11005 bound_to 11000
  144.8245  140.6606  143.6331 LP  0  0  0  0  0  0  0  0  0  0  0  0  # atno 17320 bound_to 7965
  145.4196  139.1566  143.4081 LP  0  0  0  0  0  0  0  0  0  0  0  0  # atno 17321 bound_to 7965
  139.4796  144.5826  151.7907 LP  0  0  0  0  0  0  0  0  0  0  0  0  # atno 17342 bound_to 10162
  140.4945  144.1260  150.5957 LP  0  0  0  0  0  0  0  0  0  0  0  0  # atno 17343 bound_to 10162
  157.7475  131.0019  150.2980 LP  0  0  0  0  0  0  0  0  0  0  0  0  # atno 17370 bound_to 10713
  156.3443  130.3820  149.7383 LP  0  0  0  0  0  0  0  0  0  0  0  0  # atno 17371 bound_to 10713
  141.1013  133.6676  156.2762 LP  0  0  0  0  0  0  0  0  0  0  0  0  # atno 17394 bound_to 11000
  140.6006  134.5558  157.5517 LP  0  0  0  0  0  0  0  0  0  0  0  0  # atno 17395 bound_to 11000

$$$$
