AV-unprocessed.smi:702|AV-procd|sdf|3425|dock1
  -GOLD-   22720 0403D 1   1.00000     0.00000
 Structure written by MMmdl.
 50 52  0  0  0  0  0  0  0  0  4 V2000
  146.7552  138.9516  151.4459 C   0  0  0  0  0  0  0  0  0  0  0  0
  146.3865  138.8996  152.9431 C   0  0  1  0  0  0  0  0  0  0  0  0
  146.3059  137.4872  153.3341 N   0  5  0  0  0  0  0  0  0  0  0  0
  145.4477  136.5739  152.8044 C   0  0  0  0  0  0  0  0  0  0  0  0
  144.2362  136.4645  153.0214 O   0  0  0  0  0  0  0  0  0  0  0  0
  146.0629  135.7412  151.9460 N   0  0  0  0  0  0  0  0  0  0  0  0
  145.5305  134.6297  151.2383 C   0  0  0  0  0  0  0  0  0  0  0  0
  146.4155  133.5814  150.9029 C   0  0  0  0  0  0  0  0  0  0  0  0
  145.9250  132.4492  150.2213 C   0  0  0  0  0  0  0  0  0  0  0  0
  144.6144  132.3698  149.9058 N   0  3  0  0  0  0  0  0  0  0  0  0
  143.7273  133.3378  150.2213 C   0  0  0  0  0  0  0  0  0  0  0  0
  144.1594  134.4932  150.9034 C   0  0  0  0  0  0  0  0  0  0  0  0
  147.3457  139.6962  153.9323 C   0  0  0  0  0  0  0  0  0  0  0  0
  146.7760  139.8748  155.3370 N   0  3  0  0  0  0  0  0  0  0  0  0
  145.5802  140.7578  155.5043 C   0  0  0  0  0  0  0  0  0  0  0  0
  145.3954  141.1286  156.9827 C   0  0  0  0  0  0  0  0  0  0  0  0
  145.2465  139.9429  157.7515 O   0  0  0  0  0  0  0  0  0  0  0  0
  146.3993  139.1155  157.6741 C   0  0  0  0  0  0  0  0  0  0  0  0
  146.6408  138.6776  156.2199 C   0  0  0  0  0  0  0  0  0  0  0  0
  148.7916  139.1164  153.9809 C   0  0  0  0  0  0  0  0  0  0  0  0
  149.6705  140.2229  154.5765 C   0  0  0  0  0  0  0  0  0  0  0  0
  148.9748  141.5341  154.1941 C   0  0  0  0  0  0  0  0  0  0  0  0
  147.7148  141.1192  153.4195 C   0  0  0  0  0  0  0  0  0  0  0  0
  146.7474  139.9673  151.0543 H   0  0  0  0  0  0  0  0  0  0  0  0
  146.0286  138.3933  150.8542 H   0  0  0  0  0  0  0  0  0  0  0  0
  147.7317  138.5144  151.2408 H   0  0  0  0  0  0  0  0  0  0  0  0
  145.4119  139.3842  153.0121 H   0  0  0  0  0  0  0  0  0  0  0  0
  147.0235  135.9709  151.7377 H   0  0  0  0  0  0  0  0  0  0  0  0
  147.4632  133.6452  151.1592 H   0  0  0  0  0  0  0  0  0  0  0  0
  146.5368  131.6104  149.9238 H   0  0  0  0  0  0  0  0  0  0  0  0
  142.7038  133.1579  149.9269 H   0  0  0  0  0  0  0  0  0  0  0  0
  143.4328  135.2462  151.1682 H   0  0  0  0  0  0  0  0  0  0  0  0
  145.6679  141.6719  154.9205 H   0  0  0  0  0  0  0  0  0  0  0  0
  144.6804  140.2480  155.1574 H   0  0  0  0  0  0  0  0  0  0  0  0
  146.2402  141.7151  157.3477 H   0  0  0  0  0  0  0  0  0  0  0  0
  144.5031  141.7423  157.1070 H   0  0  0  0  0  0  0  0  0  0  0  0
  147.2681  139.6447  158.0691 H   0  0  0  0  0  0  0  0  0  0  0  0
  146.2464  138.2410  158.3072 H   0  0  0  0  0  0  0  0  0  0  0  0
  145.8130  138.0489  155.8958 H   0  0  0  0  0  0  0  0  0  0  0  0
  147.5338  138.0589  156.2197 H   0  0  0  0  0  0  0  0  0  0  0  0
  148.8966  138.1616  154.4942 H   0  0  0  0  0  0  0  0  0  0  0  0
  149.1790  138.9346  152.9772 H   0  0  0  0  0  0  0  0  0  0  0  0
  149.7191  140.1282  155.6619 H   0  0  0  0  0  0  0  0  0  0  0  0
  150.6914  140.1727  154.1964 H   0  0  0  0  0  0  0  0  0  0  0  0
  148.7045  142.0886  155.0935 H   0  0  0  0  0  0  0  0  0  0  0  0
  149.6175  142.1782  153.5930 H   0  0  0  0  0  0  0  0  0  0  0  0
  147.9974  141.1158  152.3661 H   0  0  0  0  0  0  0  0  0  0  0  0
  146.9220  141.8603  153.5101 H   0  0  0  0  0  0  0  0  0  0  0  0
  147.5157  140.3941  155.7863 H   0  0  0  0  0  0  0  0  0  0  0  0
  144.2792  131.5415  149.4136 H   0  0  0  0  0  0  0  0  0  0  0  0
  1  2  1  0  0  0  0
  1 24  1  0  0  0  0
  1 25  1  0  0  0  0
  1 26  1  0  0  0  0
  2  3  1  0  0  0  0
  2 13  1  0  0  0  0
  2 27  1  0  0  0  0
  3  4  1  0  0  0  0
  4  5  2  0  0  0  0
  4  6  1  0  0  0  0
  6  7  1  0  0  0  0
  6 28  1  0  0  0  0
  7 12  1  0  0  0  0
  7  8  2  0  0  0  0
  8  9  1  0  0  0  0
  8 29  1  0  0  0  0
  9 10  2  0  0  0  0
  9 30  1  0  0  0  0
 10 11  1  0  0  0  0
 10 50  1  0  0  0  0
 11 12  2  0  0  0  0
 11 31  1  0  0  0  0
 12 32  1  0  0  0  0
 13 23  1  0  0  0  0
 13 14  1  0  0  0  0
 13 20  1  0  0  0  0
 14 19  1  0  0  0  0
 14 15  1  0  0  0  0
 14 49  1  0  0  0  0
 15 16  1  0  0  0  0
 15 33  1  0  0  0  0
 15 34  1  0  0  0  0
 16 17  1  0  0  0  0
 16 35  1  0  0  0  0
 16 36  1  0  0  0  0
 17 18  1  0  0  0  0
 18 19  1  0  0  0  0
 18 37  1  0  0  0  0
 18 38  1  0  0  0  0
 19 39  1  0  0  0  0
 19 40  1  0  0  0  0
 20 21  1  0  0  0  0
 20 41  1  0  0  0  0
 20 42  1  0  0  0  0
 21 22  1  0  0  0  0
 21 43  1  0  0  0  0
 21 44  1  0  0  0  0
 22 23  1  0  0  0  0
 22 45  1  0  0  0  0
 22 46  1  0  0  0  0
 23 47  1  0  0  0  0
 23 48  1  0  0  0  0
M  CHG  1   3  -1
M  CHG  1  10   1
M  CHG  1  14   1
M  END
> <s_m_source_file>
AV-unprocessed.smi

> <i_m_source_file_index>
702

> <i_lp_mmshare_version>
43012

> <i_f3d_flags>
0

> <s_epik_input>
W0NIMl0xW0NIMl1PW0NIMl1bQ0gyXU4xQzIoW0NIMl1bQ0gyXVtDSDJdW0NIMl0yKVtDQEhdKFtDSDNdKVtOSF1DKD1PKVtOSF1jM1tjSF1bY0hdbltjSF1bY0hdMw==

> <s_epik_cmdline>
J2VwaWtfcHl0aG9uJywgJy1waCcsICc3LjAnLCAnLXRuJywgJzgnLCAnLW1hJywgJzIwMCcsICctbWV0YWxfYmluZGluZycsICctaW1hZScsICc8aW5maWxlLm1hZT4nLCAnLW9tYWUnLCAnPG91dGZpbGUubWFlPic=

> <r_epik_Ionization_Penalty>
8.33674

> <r_epik_Ionization_Penalty_Charging>
8.33674

> <r_epik_Ionization_Penalty_Neutral>
3.60854e-06

> <r_epik_State_Penalty>
8.24268

> <r_epik_Charging_Adjusted_Penalty>
16.5794

> <i_epik_Tot_Q>
1

> <i_epik_Tot_abs_Q>
3

> <r_epik_Metal_State_Penalty>
4.24853

> <b_epik_Metal_Only>
1

> <s_lp_Force_Field>
OPLS_2005

> <r_lp_Energy>
61.2868

> <b_lp_Chiralities_Consistent>
1

> <s_lp_Variant>
AV-unprocessed.smi:702-10

> <Gold.Version>
5.8.1

> <Gold.Id.Protein>
6NUR|6NUR_protein|mol2

> <Gold.PLP.Fitness>
33.5271

> <Gold.PLP.PLP>
-32.4974

> <Gold.PLP.part.hbond>
-1.0000

> <Gold.PLP.part.metal>
0.0000

> <Gold.PLP.part.buried>
-0.6969

> <Gold.PLP.part.nonpolar>
-30.7178

> <Gold.PLP.part.repulsive>
0.4467

> <Gold.PLP.ligand.clash>
0.0000

> <Gold.PLP.ligand.torsion>
1.2142

> <Gold.PLP.Chemscore.Hbond>
1.0000

> <Gold.PLP.Chemscore.CHOScore>
0.0000

> <Gold.PLP.Chemscore.Metal>
0.0000

> <Gold.Chemscore.Hbonds>
donor molecule, donor type, donor heavy atom, donor atom, acceptor molecule, acceptor atom, score
      L1  H     6    28       P1  7948  1.00

> <Gold.PLP.Chemscore.Internal.Correction>
0.4580

> <Gold.Rescore>
     Score         DG    S(hbond)    S(metal)    S(lipo)     H(rot)  DE(clash)    DE(int)     intcor
     13.28     -15.89       0.98        0.00      92.76       1.45       0.12       2.49       ----

> <Gold.Chemscore.Fitness>
13.2751

> <Gold.Chemscore.DG>
-15.8877

> <Gold.Chemscore.ZeroCoef>
-5.4800

> <Gold.Chemscore.Hbond>
0.9782

> <Gold.Chemscore.Metal>
0.0000

> <Gold.Chemscore.Lipo>
92.7636

> <Gold.Chemscore.Internal_Hbond>
0.0000

> <Gold.Chemscore.DEClash>
0.1222

> <Gold.Chemscore.DEInternal>
2.4904

> <Gold.Chemscore.Rot>
1.4504

> <Gold.Chemscore.Internal.Correction>
   9.000000E+99

> <Gold.Chemscore.Hbonds>
donor molecule, donor type, donor heavy atom, donor atom, acceptor molecule, acceptor atom, score
      L1  H     6    28       P1  7948  1.00

> <Gold.Chemscore.Hbond.Weighted>
-3.2672

> <Gold.Chemscore.Metal.Weighted>
-0.0000

> <Gold.Chemscore.Lipo.Weighted>
-10.8533

> <Gold.Chemscore.Internal_Hbond.Weighted>
0.0000

> <Gold.Chemscore.DEClash.Weighted>
0.1222

> <Gold.Chemscore.DEInternal.Weighted>
2.4904

> <Gold.Chemscore.Rot.Weighted>
3.7129

> <Gold.Chemscore.Internal.Correction.Weighted>
   9.000000E+99

> <Gold.Protein.RotatedTorsions>
[ 6907 6896 6895 6894 ] final  100.75 input  -60.11 | X-H torsion
[ 7974 7965 7964 7962 ] final -105.52 input  175.53 | X-H torsion
[ 8008 7997 7996 7995 ] final   87.10 input   59.86 | X-H torsion
[ 10167 10162 10161 10158 ] final  -13.24 input  -65.29 | X-H torsion
[ 10718 10713 10712 10709 ] final -146.61 input   66.30 | X-H torsion
[ 10763 10752 10751 10750 ] final -143.07 input  -60.55 | X-H torsion
[ 11005 11000 10999 10996 ] final -155.43 input  -57.11 | X-H torsion

> <Gold.Protein.ActiveResidues>
 VAL166  LYS551  ARG553  GLY616  TRP617  ASP618  TYR619  PRO620  LYS621  CYS622 
 ASP623  PHE694  ASN695  SER759  ASP760  ASP761  ALA762  ILE779  LEU786  VAL792 
 PHE793  MET794  SER795  GLU796  ALA797  LYS798  CYS799  TRP800  GLU811  SER814 

> <Gold.Protein.RotatedAtoms>
  152.5365  134.0229  159.7989 H   0  0  0  0  0  0  0  0  0  0  0  0  # atno 6907 bound_to 6896
  151.0413  133.5696  159.2658 H   0  0  0  0  0  0  0  0  0  0  0  0  # atno 6908 bound_to 6896
  151.2665  135.0678  159.9171 H   0  0  0  0  0  0  0  0  0  0  0  0  # atno 6909 bound_to 6896
  145.2295  140.9165  143.3213 H   0  0  0  0  0  0  0  0  0  0  0  0  # atno 7974 bound_to 7965
  155.9711  140.3385  155.6577 H   0  0  0  0  0  0  0  0  0  0  0  0  # atno 8008 bound_to 7997
  155.6673  140.0723  157.2551 H   0  0  0  0  0  0  0  0  0  0  0  0  # atno 8009 bound_to 7997
  154.4167  140.1698  156.1828 H   0  0  0  0  0  0  0  0  0  0  0  0  # atno 8010 bound_to 7997
  140.7178  143.5447  150.9369 H   0  0  0  0  0  0  0  0  0  0  0  0  # atno 10167 bound_to 10162
  156.3971  130.7915  151.2122 H   0  0  0  0  0  0  0  0  0  0  0  0  # atno 10718 bound_to 10713
  154.8484  135.3478  154.6129 H   0  0  0  0  0  0  0  0  0  0  0  0  # atno 10763 bound_to 10752
  153.6737  135.6983  153.5143 H   0  0  0  0  0  0  0  0  0  0  0  0  # atno 10764 bound_to 10752
  153.2722  135.4289  155.0955 H   0  0  0  0  0  0  0  0  0  0  0  0  # atno 10765 bound_to 10752
  140.6865  134.4087  157.5223 H   0  0  0  0  0  0  0  0  0  0  0  0  # atno 11005 bound_to 11000
  144.9690  139.3900  143.6318 LP  0  0  0  0  0  0  0  0  0  0  0  0  # atno 17320 bound_to 7965
  146.3356  139.8779  142.8829 LP  0  0  0  0  0  0  0  0  0  0  0  0  # atno 17321 bound_to 7965
  139.9170  143.6651  152.3104 LP  0  0  0  0  0  0  0  0  0  0  0  0  # atno 17342 bound_to 10162
  139.7055  144.7629  151.1201 LP  0  0  0  0  0  0  0  0  0  0  0  0  # atno 17343 bound_to 10162
  157.7502  131.0298  150.4109 LP  0  0  0  0  0  0  0  0  0  0  0  0  # atno 17370 bound_to 10713
  156.4381  130.3986  149.6715 LP  0  0  0  0  0  0  0  0  0  0  0  0  # atno 17371 bound_to 10713
  139.8936  134.8727  156.2217 LP  0  0  0  0  0  0  0  0  0  0  0  0  # atno 17394 bound_to 11000
  141.0275  133.7007  156.1373 LP  0  0  0  0  0  0  0  0  0  0  0  0  # atno 17395 bound_to 11000

$$$$
