#       Name:                AV-unprocessed.smi:3032
#       Creating user name   scv26
#       Creation time:       Fri Mar 27 16:53:20 2020


#       File generated by GOLD software.
#

@<TRIPOS>MOLECULE
AV-unprocessed.smi:3032
    41    42     1
SMALL
NO_CHARGES


@<TRIPOS>ATOM
      1 ****        -3.2755   1.2275   1.1204 C.3            1 S1                 0.0000
      2 ****        -2.6392   0.2438   0.1280 C.3            1 S1                 0.0000
      3 ****        -3.2644   0.3751  -1.2740 C.3            1 S1                 0.0000
      4 ****        -2.6196  -0.5978  -2.2737 C.3            1 S1                 0.0000
      5 ****        -1.0970  -0.4020  -2.3367 C.3            1 S1                 0.0000
      6 ****        -0.4588  -0.5529  -0.9403 C.3            1 S1                 0.0000
      7 ****         1.0580  -0.3320  -0.9954 C.2            1 S1                 0.0000
      8 ****         1.5139   0.7315  -1.4159 O.2            1 S1                 0.0000
      9 ****         1.8260  -1.3358  -0.5418 N.am           1 S1                 0.0000
     10 ****         3.2804  -1.2944  -0.4054 C.3            1 S1                 0.0000
     11 ****         3.7196  -1.0039   1.0429 C.3            1 S1                 0.0000
     12 ****         3.1658   0.2683   1.6048 C.2            1 S1                 0.0000
     13 ****         3.6315   1.4921   1.3281 N.2            1 S1                 0.0000
     14 ****         2.8130   2.3682   2.0238 N.2            1 S1                 0.0000
     15 ****         1.9338   1.5875   2.6535 C.2            1 S1                 0.0000
     16 ****         2.1086   0.2798   2.4318 N.pl3          1 S1                 0.0000
     17 ****        -1.1109   0.4294   0.0563 C.3            1 S1                 0.0000
     18 ****         1.5738  -0.4989   2.7875 H              1 S1                 0.0000
     19 ****        -3.1000   2.2611   0.8208 H              1 S1                 0.0000
     20 ****        -2.8634   1.0968   2.1213 H              1 S1                 0.0000
     21 ****        -4.3536   1.0786   1.1861 H              1 S1                 0.0000
     22 ****        -2.8387  -0.7651   0.4920 H              1 S1                 0.0000
     23 ****        -4.3373   0.1875  -1.2235 H              1 S1                 0.0000
     24 ****        -3.1468   1.3973  -1.6363 H              1 S1                 0.0000
     25 ****        -2.8453  -1.6245  -1.9828 H              1 S1                 0.0000
     26 ****        -3.0539  -0.4542  -3.2634 H              1 S1                 0.0000
     27 ****        -0.6645  -1.1261  -3.0285 H              1 S1                 0.0000
     28 ****        -0.8800   0.5856  -2.7475 H              1 S1                 0.0000
     29 ****        -0.6465  -1.5694  -0.5897 H              1 S1                 0.0000
     30 ****         1.3639  -2.1753  -0.2238 H              1 S1                 0.0000
     31 ****         3.6800  -2.2580  -0.7211 H              1 S1                 0.0000
     32 ****         3.7112  -0.5527  -1.0800 H              1 S1                 0.0000
     33 ****         3.4214  -1.8307   1.6889 H              1 S1                 0.0000
     34 ****         4.8080  -0.9577   1.0918 H              1 S1                 0.0000
     35 ****         1.1496   1.9768   3.2859 H              1 S1                 0.0000
     36 ****        -0.8845   1.4576  -0.2313 H              1 S1                 0.0000
     37 ****        -0.6795   0.2879   1.0484 H              1 S1                 0.0000
     38 ****         0.8948   1.4543  -1.7228 LP             1 S1                 0.0000
     39 ****         2.5033   0.8724  -1.4506 LP             1 S1                 0.0000
     40 ****         4.4075   1.7256   0.7421 LP             1 S1                 0.0000
     41 ****         2.8694   3.3663   2.0482 LP             1 S1                 0.0000
@<TRIPOS>BOND
    1    1    2 1     
    2    1   19 1     
    3    1   20 1     
    4    1   21 1     
    5    2   17 1     
    6    2    3 1     
    7    2   22 1     
    8    3    4 1     
    9    3   23 1     
   10    3   24 1     
   11    4    5 1     
   12    4   25 1     
   13    4   26 1     
   14    5    6 1     
   15    5   27 1     
   16    5   28 1     
   17    6    7 1     
   18    6   17 1     
   19    6   29 1     
   20    7    8 2     
   21    7    9 am    
   22    9   10 1     
   23    9   30 1     
   24   10   11 1     
   25   10   31 1     
   26   10   32 1     
   27   11   12 1     
   28   11   33 1     
   29   11   34 1     
   30   12   16 1     
   31   12   13 2     
   32   13   14 1     
   33   14   15 2     
   34   15   16 1     
   35   15   35 1     
   36   16   18 1     
   37   17   36 1     
   38   17   37 1     
   39    8   38 1     
   40    8   39 1     
   41   13   40 1     
   42   14   41 1     
@<TRIPOS>SUBSTRUCTURE
      1 S1             1
@<TRIPOS>SET
LONE_PAIRS      STATIC     ATOMS    <user>   **** ""
4 38 39 40 41
DONOR_HYDROGENS      STATIC     ATOMS    <user>   **** ""
2 30 18
ATOM$BLUE        STATIC     ATOMS    COLORGROUP SYSTEM
4 38 39 40 41
ATOM$RED        STATIC     ATOMS    COLORGROUP SYSTEM
2 30 18
