AV-unprocessed.smi:581|AV-procd|sdf|2993|dock5
  -GOLD-   2262023493D 1   1.00000     0.00000
 Structure written by MMmdl.
 35 36  0  0  0  0  0  0  0  0  2 V2000
  149.1413  140.4702  155.7098 C   0  0  0  0  0  0  0  0  0  0  0  0
  150.4225  140.4098  156.5210 C   0  0  0  0  0  0  0  0  0  0  0  0
  150.6637  141.4713  157.3208 N   0  0  0  0  0  0  0  0  0  0  0  0
  151.7863  141.4683  158.0489 C   0  0  0  0  0  0  0  0  0  0  0  0
  152.0291  142.5770  158.8705 N   0  0  0  0  0  0  0  0  0  0  0  0
  151.5414  143.9179  158.5398 C   0  0  0  0  0  0  0  0  0  0  0  0
  151.1930  144.7004  159.8172 C   0  0  0  0  0  0  0  0  0  0  0  0
  152.3180  144.7301  160.6871 O   0  0  0  0  0  0  0  0  0  0  0  0
  152.7007  143.4220  161.0934 C   0  0  0  0  0  0  0  0  0  0  0  0
  153.1058  142.5923  159.8637 C   0  0  0  0  0  0  0  0  0  0  0  0
  152.6959  140.4859  158.0461 N   0  0  0  0  0  0  0  0  0  0  0  0
  152.4768  139.4133  157.2563 C   0  0  0  0  0  0  0  0  0  0  0  0
  153.4126  138.4200  157.2537 O   0  0  0  0  0  0  0  0  0  0  0  0
  151.3190  139.3167  156.4495 C   0  0  0  0  0  0  0  0  0  0  0  0
  151.0684  138.1118  155.5498 C   0  0  0  0  0  0  0  0  0  0  0  0
  150.4320  136.9371  156.3200 C   0  0  0  0  0  0  0  0  0  0  0  0
  151.4494  136.1183  157.1258 C   0  0  0  0  0  0  0  0  0  0  0  0
  152.4211  135.6607  156.4859 O   0  0  0  0  0  0  0  0  0  0  0  0
  151.2529  135.9495  158.3503 O   0  5  0  0  0  0  0  0  0  0  0  0
  153.9441  138.4231  156.4730 H   0  0  0  0  0  0  0  0  0  0  0  0
  149.3476  140.3027  154.6528 H   0  0  0  0  0  0  0  0  0  0  0  0
  148.6549  141.4419  155.8055 H   0  0  0  0  0  0  0  0  0  0  0  0
  148.4406  139.7083  156.0513 H   0  0  0  0  0  0  0  0  0  0  0  0
  150.6556  143.8889  157.9060 H   0  0  0  0  0  0  0  0  0  0  0  0
  152.3153  144.4421  157.9781 H   0  0  0  0  0  0  0  0  0  0  0  0
  150.9134  145.7233  159.5646 H   0  0  0  0  0  0  0  0  0  0  0  0
  150.3370  144.2532  160.3249 H   0  0  0  0  0  0  0  0  0  0  0  0
  153.5389  143.4977  161.7863 H   0  0  0  0  0  0  0  0  0  0  0  0
  151.8831  142.9421  161.6342 H   0  0  0  0  0  0  0  0  0  0  0  0
  153.9967  143.0193  159.4025 H   0  0  0  0  0  0  0  0  0  0  0  0
  153.3753  141.5916  160.1996 H   0  0  0  0  0  0  0  0  0  0  0  0
  152.0050  137.8017  155.0864 H   0  0  0  0  0  0  0  0  0  0  0  0
  150.4221  138.4124  154.7242 H   0  0  0  0  0  0  0  0  0  0  0  0
  149.6721  137.3094  157.0075 H   0  0  0  0  0  0  0  0  0  0  0  0
  149.9253  136.2684  155.6230 H   0  0  0  0  0  0  0  0  0  0  0  0
  1 21  1  0  0  0  0
  1 22  1  0  0  0  0
  1 23  1  0  0  0  0
  1  2  1  0  0  0  0
  2 14  2  0  0  0  0
  2  3  1  0  0  0  0
  3  4  2  0  0  0  0
  4  5  1  0  0  0  0
  4 11  1  0  0  0  0
  5 10  1  0  0  0  0
  5  6  1  0  0  0  0
  6  7  1  0  0  0  0
  6 24  1  0  0  0  0
  6 25  1  0  0  0  0
  7  8  1  0  0  0  0
  7 26  1  0  0  0  0
  7 27  1  0  0  0  0
  8  9  1  0  0  0  0
  9 10  1  0  0  0  0
  9 28  1  0  0  0  0
  9 29  1  0  0  0  0
 10 30  1  0  0  0  0
 10 31  1  0  0  0  0
 11 12  2  0  0  0  0
 12 13  1  0  0  0  0
 12 14  1  0  0  0  0
 13 20  1  0  0  0  0
 14 15  1  0  0  0  0
 15 16  1  0  0  0  0
 15 32  1  0  0  0  0
 15 33  1  0  0  0  0
 16 17  1  0  0  0  0
 16 34  1  0  0  0  0
 16 35  1  0  0  0  0
 17 18  2  0  0  0  0
 17 19  1  0  0  0  0
M  CHG  1  19  -1
M  END
> <s_m_source_file>
AV-unprocessed.smi

> <i_m_source_file_index>
581

> <i_lp_mmshare_version>
43012

> <i_f3d_flags>
0

> <s_epik_input>
W0NIMl0xW0NIMl1PW0NIMl1bQ0gyXU4xYyhuYzJbQ0gzXSlbbkhdYyg9TyljMltDSDJdW0NIMl1DKD1PKVtPSF0=

> <s_epik_cmdline>
J2VwaWtfcHl0aG9uJywgJy1waCcsICc3LjAnLCAnLXRuJywgJzgnLCAnLW1hJywgJzIwMCcsICctbWV0YWxfYmluZGluZycsICctaW1hZScsICc8aW5maWxlLm1hZT4nLCAnLW9tYWUnLCAnPG91dGZpbGUubWFlPic=

> <r_lp_tautomer_probability>
0.0131408

> <r_epik_Ionization_Penalty>
9.14148

> <r_epik_Ionization_Penalty_Charging>
0.00124504

> <r_epik_Ionization_Penalty_Neutral>
9.14023

> <r_epik_State_Penalty>
2.72329

> <r_epik_Charging_Adjusted_Penalty>
2.72453

> <i_epik_Tot_Q>
-1

> <i_epik_Tot_abs_Q>
1

> <r_epik_Metal_State_Penalty>
2.96989

> <b_epik_Metal_Only>
0

> <s_lp_Force_Field>
OPLS_2005

> <r_lp_Energy>
10.3836

> <b_lp_Chiralities_Consistent>
1

> <s_lp_Variant>
AV-unprocessed.smi:581-3

> <Gold.Version>
5.8.1

> <Gold.Id.Protein>
6NUR|6NUR_protein|mol2

> <Gold.PLP.Fitness>
44.1091

> <Gold.PLP.PLP>
-34.8187

> <Gold.PLP.part.hbond>
-2.7022

> <Gold.PLP.part.metal>
0.0000

> <Gold.PLP.part.buried>
-3.0372

> <Gold.PLP.part.nonpolar>
-29.3132

> <Gold.PLP.part.repulsive>
0.1920

> <Gold.PLP.ligand.clash>
0.0000

> <Gold.PLP.ligand.torsion>
0.6555

> <Gold.PLP.Chemscore.Hbond>
3.5040

> <Gold.PLP.Chemscore.CHOScore>
0.0000

> <Gold.PLP.Chemscore.Metal>
0.0000

> <Gold.Chemscore.Hbonds>
donor molecule, donor type, donor heavy atom, donor atom, acceptor molecule, acceptor atom, score
      P1  H  6896  6909       L1    19  0.74
      P1  H 10752 10763       L1    18  2.00

> <Gold.PLP.Chemscore.Internal.Correction>
0.0894

> <Gold.Rescore>
     Score         DG    S(hbond)    S(metal)    S(lipo)     H(rot)  DE(clash)    DE(int)     intcor
     13.00     -13.54       1.75        0.00      73.04       2.48       0.01       0.53       ----

> <Gold.Chemscore.Fitness>
12.9986

> <Gold.Chemscore.DG>
-13.5370

> <Gold.Chemscore.ZeroCoef>
-5.4800

> <Gold.Chemscore.Hbond>
1.7524

> <Gold.Chemscore.Metal>
0.0000

> <Gold.Chemscore.Lipo>
73.0418

> <Gold.Chemscore.Internal_Hbond>
0.0000

> <Gold.Chemscore.DEClash>
0.0126

> <Gold.Chemscore.DEInternal>
0.5258

> <Gold.Chemscore.Rot>
2.4774

> <Gold.Chemscore.Internal.Correction>
   9.000000E+99

> <Gold.Chemscore.Hbonds>
donor molecule, donor type, donor heavy atom, donor atom, acceptor molecule, acceptor atom, score
      P1  H  6896  6909       L1    19  0.38
      P1  H 10752 10763       L1    18  0.98

> <Gold.Chemscore.Hbond.Weighted>
-5.8531

> <Gold.Chemscore.Metal.Weighted>
-0.0000

> <Gold.Chemscore.Lipo.Weighted>
-8.5459

> <Gold.Chemscore.Internal_Hbond.Weighted>
0.0000

> <Gold.Chemscore.DEClash.Weighted>
0.0126

> <Gold.Chemscore.DEInternal.Weighted>
0.5258

> <Gold.Chemscore.Rot.Weighted>
6.3420

> <Gold.Chemscore.Internal.Correction.Weighted>
   9.000000E+99

> <Gold.Protein.RotatedTorsions>
[ 6907 6896 6895 6894 ] final   68.45 input  -60.11 | X-H torsion
[ 7974 7965 7964 7962 ] final  -58.95 input  175.53 | X-H torsion
[ 8008 7997 7996 7995 ] final   -8.61 input   59.86 | X-H torsion
[ 10167 10162 10161 10158 ] final -165.95 input  -65.29 | X-H torsion
[ 10718 10713 10712 10709 ] final  102.41 input   66.30 | X-H torsion
[ 10763 10752 10751 10750 ] final   93.28 input  -60.55 | X-H torsion
[ 11005 11000 10999 10996 ] final   54.82 input  -57.11 | X-H torsion

> <Gold.Protein.ActiveResidues>
 VAL166  LYS551  ARG553  GLY616  TRP617  ASP618  TYR619  PRO620  LYS621  CYS622 
 ASP623  PHE694  ASN695  SER759  ASP760  ASP761  ALA762  ILE779  LEU786  VAL792 
 PHE793  MET794  SER795  GLU796  ALA797  LYS798  CYS799  TRP800  GLU811  SER814 

> <Gold.Protein.RotatedAtoms>
  152.4621  134.5161  159.9768 H   0  0  0  0  0  0  0  0  0  0  0  0  # atno 6907 bound_to 6896
  151.5207  133.3461  159.2909 H   0  0  0  0  0  0  0  0  0  0  0  0  # atno 6908 bound_to 6896
  150.8588  134.7964  159.7129 H   0  0  0  0  0  0  0  0  0  0  0  0  # atno 6909 bound_to 6896
  145.8332  140.8466  143.0073 H   0  0  0  0  0  0  0  0  0  0  0  0  # atno 7974 bound_to 7965
  154.5725  140.2376  155.8171 H   0  0  0  0  0  0  0  0  0  0  0  0  # atno 8008 bound_to 7997
  156.2118  140.3024  155.9706 H   0  0  0  0  0  0  0  0  0  0  0  0  # atno 8009 bound_to 7997
  155.2687  140.0417  157.2995 H   0  0  0  0  0  0  0  0  0  0  0  0  # atno 8010 bound_to 7997
  139.6147  144.0743  152.1876 H   0  0  0  0  0  0  0  0  0  0  0  0  # atno 10167 bound_to 10162
  157.6803  131.0752  150.5400 H   0  0  0  0  0  0  0  0  0  0  0  0  # atno 10718 bound_to 10713
  153.2286  135.4331  155.0569 H   0  0  0  0  0  0  0  0  0  0  0  0  # atno 10763 bound_to 10752
  154.8285  135.3374  154.6821 H   0  0  0  0  0  0  0  0  0  0  0  0  # atno 10764 bound_to 10752
  153.7250  135.7014  153.5059 H   0  0  0  0  0  0  0  0  0  0  0  0  # atno 10765 bound_to 10752
  140.0656  134.5541  155.9103 H   0  0  0  0  0  0  0  0  0  0  0  0  # atno 11005 bound_to 11000
  144.6738  140.0703  143.7473 LP  0  0  0  0  0  0  0  0  0  0  0  0  # atno 17320 bound_to 7965
  145.9548  139.2759  143.1191 LP  0  0  0  0  0  0  0  0  0  0  0  0  # atno 17321 bound_to 7965
  140.0370  144.6037  150.7441 LP  0  0  0  0  0  0  0  0  0  0  0  0  # atno 17342 bound_to 10162
  140.7343  143.2727  151.3837 LP  0  0  0  0  0  0  0  0  0  0  0  0  # atno 17343 bound_to 10162
  156.5707  130.4279  149.6021 LP  0  0  0  0  0  0  0  0  0  0  0  0  # atno 17370 bound_to 10713
  156.2743  130.7035  151.1841 LP  0  0  0  0  0  0  0  0  0  0  0  0  # atno 17371 bound_to 10713
  141.1991  133.6605  156.5828 LP  0  0  0  0  0  0  0  0  0  0  0  0  # atno 17394 bound_to 11000
  140.3704  134.7611  157.4594 LP  0  0  0  0  0  0  0  0  0  0  0  0  # atno 17395 bound_to 11000

$$$$
