AV-unprocessed.smi:2969|AV-procd|sdf|11330|dock8
  -GOLD-   2272016243D 1   1.00000     0.00000
 Structure written by MMmdl.
 39 39  0  0  0  0  0  0  0  0  2 V2000
  148.0468  141.7308  154.2053 C   0  0  0  0  0  0  0  0  0  0  0  0
  147.5107  140.4727  154.9012 C   0  0  0  0  0  0  0  0  0  0  0  0
  147.7861  139.1577  154.1412 C   0  0  0  0  0  0  0  0  0  0  0  0
  148.9297  138.3977  154.6963 N   0  0  0  0  0  0  0  0  0  0  0  0
  148.6802  137.1479  155.3255 C   0  0  0  0  0  0  0  0  0  0  0  0
  147.3780  136.6739  155.3907 N   0  0  0  0  0  0  0  0  0  0  0  0
  149.7089  136.4395  155.8622 C   0  0  0  0  0  0  0  0  0  0  0  0
  149.5228  135.1925  156.4855 N   0  0  0  0  0  0  0  0  0  0  0  0
  149.7324  134.0014  155.6464 C   0  0  0  0  0  0  0  0  0  0  0  0
  148.6862  133.8773  154.5197 C   0  0  0  0  0  0  0  0  0  0  0  0
  148.9069  132.7213  153.7240 O   0  0  0  0  0  0  0  0  0  0  0  0
  149.0722  131.5271  154.4731 C   0  0  0  0  0  0  0  0  0  0  0  0
  149.2777  135.0708  157.8185 C   0  0  0  0  0  0  0  0  0  0  0  0
  149.2030  133.9663  158.3618 O   0  0  0  0  0  0  0  0  0  0  0  0
  149.0678  136.3239  158.6958 C   0  0  0  0  0  0  0  0  0  0  0  0
  150.1584  137.0889  158.6791 F   0  0  0  0  0  0  0  0  0  0  0  0
  148.0166  137.0213  158.2656 F   0  0  0  0  0  0  0  0  0  0  0  0
  148.8350  135.9535  159.9564 F   0  0  0  0  0  0  0  0  0  0  0  0
  151.0729  136.9662  155.7420 C   0  0  0  0  0  0  0  0  0  0  0  0
  152.0235  136.3248  156.1900 O   0  0  0  0  0  0  0  0  0  0  0  0
  151.2348  138.1667  155.1266 N   0  5  0  0  0  0  0  0  0  0  0  0
  150.2035  138.8936  154.6093 C   0  0  0  0  0  0  0  0  0  0  0  0
  150.3931  139.9850  154.0709 O   0  0  0  0  0  0  0  0  0  0  0  0
  147.7600  142.6281  154.7535 H   0  0  0  0  0  0  0  0  0  0  0  0
  147.6528  141.8185  153.1925 H   0  0  0  0  0  0  0  0  0  0  0  0
  149.1351  141.7188  154.1436 H   0  0  0  0  0  0  0  0  0  0  0  0
  147.9260  140.4190  155.9076 H   0  0  0  0  0  0  0  0  0  0  0  0
  146.4332  140.5792  155.0296 H   0  0  0  0  0  0  0  0  0  0  0  0
  146.8903  138.5363  154.1529 H   0  0  0  0  0  0  0  0  0  0  0  0
  147.9191  139.3812  153.0819 H   0  0  0  0  0  0  0  0  0  0  0  0
  146.6006  137.1897  155.0046 H   0  0  0  0  0  0  0  0  0  0  0  0
  147.1612  135.7788  155.8052 H   0  0  0  0  0  0  0  0  0  0  0  0
  150.7272  134.0337  155.1984 H   0  0  0  0  0  0  0  0  0  0  0  0
  149.7319  133.1145  156.2812 H   0  0  0  0  0  0  0  0  0  0  0  0
  147.6663  133.8852  154.9067 H   0  0  0  0  0  0  0  0  0  0  0  0
  148.7694  134.7378  153.8571 H   0  0  0  0  0  0  0  0  0  0  0  0
  149.1906  130.6856  153.7908 H   0  0  0  0  0  0  0  0  0  0  0  0
  148.2003  131.3292  155.0978 H   0  0  0  0  0  0  0  0  0  0  0  0
  149.9566  131.5627  155.1089 H   0  0  0  0  0  0  0  0  0  0  0  0
  1  2  1  0  0  0  0
  1 24  1  0  0  0  0
  1 25  1  0  0  0  0
  1 26  1  0  0  0  0
  2  3  1  0  0  0  0
  2 27  1  0  0  0  0
  2 28  1  0  0  0  0
  3  4  1  0  0  0  0
  3 29  1  0  0  0  0
  3 30  1  0  0  0  0
  4 22  1  0  0  0  0
  4  5  1  0  0  0  0
  5  6  1  0  0  0  0
  5  7  2  0  0  0  0
  6 31  1  0  0  0  0
  6 32  1  0  0  0  0
  7  8  1  0  0  0  0
  7 19  1  0  0  0  0
  8  9  1  0  0  0  0
  8 13  1  0  0  0  0
  9 10  1  0  0  0  0
  9 33  1  0  0  0  0
  9 34  1  0  0  0  0
 10 11  1  0  0  0  0
 10 35  1  0  0  0  0
 10 36  1  0  0  0  0
 11 12  1  0  0  0  0
 12 37  1  0  0  0  0
 12 38  1  0  0  0  0
 12 39  1  0  0  0  0
 13 14  2  0  0  0  0
 13 15  1  0  0  0  0
 15 16  1  0  0  0  0
 15 17  1  0  0  0  0
 15 18  1  0  0  0  0
 19 20  2  0  0  0  0
 19 21  1  0  0  0  0
 21 22  1  0  0  0  0
 22 23  2  0  0  0  0
M  CHG  1  21  -1
M  END
> <s_m_source_file>
AV-unprocessed.smi

> <i_m_source_file_index>
2969

> <i_lp_mmshare_version>
43012

> <i_f3d_flags>
0

> <s_epik_input>
W0NIM11bQ0gyXVtDSDJdbjFjKFtOSDJdKWMoYyg9TylbbkhdYzE9TylOKEMoPU8pQyhGKShGKUYpW0NIMl1bQ0gyXU9bQ0gzXQ==

> <s_epik_cmdline>
J2VwaWtfcHl0aG9uJywgJy1waCcsICc3LjAnLCAnLXRuJywgJzgnLCAnLW1hJywgJzIwMCcsICctbWV0YWxfYmluZGluZycsICctaW1hZScsICc8aW5maWxlLm1hZT4nLCAnLW9tYWUnLCAnPG91dGZpbGUubWFlPic=

> <r_lp_tautomer_probability>
1

> <r_epik_Ionization_Penalty>
4.29138

> <r_epik_Ionization_Penalty_Charging>
0.0262752

> <r_epik_Ionization_Penalty_Neutral>
4.26511

> <r_epik_State_Penalty>
4.26466

> <r_epik_Charging_Adjusted_Penalty>
4.29094

> <i_epik_Tot_Q>
-1

> <i_epik_Tot_abs_Q>
1

> <r_epik_Metal_State_Penalty>
0.502851

> <b_epik_Metal_Only>
1

> <s_epik_Chemistry_Notes>
This compound has an imine and may undergo hydrolysis.

> <s_lp_Force_Field>
OPLS_2005

> <r_lp_Energy>
42.256

> <b_lp_Chiralities_Consistent>
1

> <s_lp_Variant>
AV-unprocessed.smi:2969-2

> <Gold.Version>
5.8.1

> <Gold.Id.Protein>
6NUR|6NUR_protein|mol2

> <Gold.PLP.Fitness>
37.7166

> <Gold.PLP.PLP>
-29.4035

> <Gold.PLP.part.hbond>
-2.9789

> <Gold.PLP.part.metal>
0.0000

> <Gold.PLP.part.buried>
-6.0439

> <Gold.PLP.part.nonpolar>
-22.2438

> <Gold.PLP.part.repulsive>
0.9399

> <Gold.PLP.ligand.clash>
2.5693

> <Gold.PLP.ligand.torsion>
1.8836

> <Gold.PLP.Chemscore.Hbond>
3.0000

> <Gold.PLP.Chemscore.CHOScore>
0.0000

> <Gold.PLP.Chemscore.Metal>
0.0000

> <Gold.Chemscore.Hbonds>
donor molecule, donor type, donor heavy atom, donor atom, acceptor molecule, acceptor atom, score
      P1  H  6896  6908       L1    14  0.93
      P1  H  7989  7998       L1    23  1.00
      P1  H 10752 10765       L1    20  1.00

> <Gold.PLP.Chemscore.Internal.Correction>
5.6496

> <Gold.Rescore>
     Score         DG    S(hbond)    S(metal)    S(lipo)     H(rot)  DE(clash)    DE(int)     intcor
      5.62     -12.76       2.55        0.00      38.35       2.24       0.07       7.07       ----

> <Gold.Chemscore.Fitness>
5.6227

> <Gold.Chemscore.DG>
-12.7648

> <Gold.Chemscore.ZeroCoef>
-5.4800

> <Gold.Chemscore.Hbond>
2.5519

> <Gold.Chemscore.Metal>
0.0000

> <Gold.Chemscore.Lipo>
38.3524

> <Gold.Chemscore.Internal_Hbond>
0.0000

> <Gold.Chemscore.DEClash>
0.0744

> <Gold.Chemscore.DEInternal>
7.0677

> <Gold.Chemscore.Rot>
2.2366

> <Gold.Chemscore.Internal.Correction>
   9.000000E+99

> <Gold.Chemscore.Hbonds>
donor molecule, donor type, donor heavy atom, donor atom, acceptor molecule, acceptor atom, score
      P1  H  6896  6908       L1    14  0.49
      P1  H  7989  7998       L1    23  0.97
      P1  H 10752 10765       L1    20  0.98

> <Gold.Chemscore.Hbond.Weighted>
-8.5233

> <Gold.Chemscore.Metal.Weighted>
-0.0000

> <Gold.Chemscore.Lipo.Weighted>
-4.4872

> <Gold.Chemscore.Internal_Hbond.Weighted>
0.0000

> <Gold.Chemscore.DEClash.Weighted>
0.0744

> <Gold.Chemscore.DEInternal.Weighted>
7.0677

> <Gold.Chemscore.Rot.Weighted>
5.7257

> <Gold.Chemscore.Internal.Correction.Weighted>
   9.000000E+99

> <Gold.Protein.RotatedTorsions>
[ 6907 6896 6895 6894 ] final  113.47 input  -60.11 | X-H torsion
[ 7974 7965 7964 7962 ] final  -46.33 input  175.53 | X-H torsion
[ 8008 7997 7996 7995 ] final   98.90 input   59.86 | X-H torsion
[ 10167 10162 10161 10158 ] final  145.77 input  -65.29 | X-H torsion
[ 10718 10713 10712 10709 ] final   51.59 input   66.30 | X-H torsion
[ 10763 10752 10751 10750 ] final -148.13 input  -60.55 | X-H torsion
[ 11005 11000 10999 10996 ] final -123.61 input  -57.11 | X-H torsion

> <Gold.Protein.ActiveResidues>
 VAL166  LYS551  ARG553  GLY616  TRP617  ASP618  TYR619  PRO620  LYS621  CYS622 
 ASP623  PHE694  ASN695  SER759  ASP760  ASP761  ALA762  ILE779  LEU786  VAL792 
 PHE793  MET794  SER795  GLU796  ALA797  LYS798  CYS799  TRP800  GLU811  SER814 

> <Gold.Protein.RotatedAtoms>
  152.4859  133.8372  159.7133 H   0  0  0  0  0  0  0  0  0  0  0  0  # atno 6907 bound_to 6896
  150.8945  133.7189  159.2902 H   0  0  0  0  0  0  0  0  0  0  0  0  # atno 6908 bound_to 6896
  151.4651  135.1045  159.9788 H   0  0  0  0  0  0  0  0  0  0  0  0  # atno 6909 bound_to 6896
  145.9730  140.7363  142.9401 H   0  0  0  0  0  0  0  0  0  0  0  0  # atno 7974 bound_to 7965
  156.1051  140.3237  155.7995 H   0  0  0  0  0  0  0  0  0  0  0  0  # atno 8008 bound_to 7997
  155.4770  140.0551  157.2989 H   0  0  0  0  0  0  0  0  0  0  0  0  # atno 8009 bound_to 7997
  154.4722  140.2016  155.9981 H   0  0  0  0  0  0  0  0  0  0  0  0  # atno 8010 bound_to 7997
  139.4920  144.5878  151.6743 H   0  0  0  0  0  0  0  0  0  0  0  0  # atno 10167 bound_to 10162
  157.4995  130.8429  149.8300 H   0  0  0  0  0  0  0  0  0  0  0  0  # atno 10718 bound_to 10713
  154.8249  135.3342  154.6926 H   0  0  0  0  0  0  0  0  0  0  0  0  # atno 10763 bound_to 10752
  153.7554  135.6936  153.4941 H   0  0  0  0  0  0  0  0  0  0  0  0  # atno 10764 bound_to 10752
  153.2147  135.4469  155.0371 H   0  0  0  0  0  0  0  0  0  0  0  0  # atno 10765 bound_to 10752
  140.9906  134.0545  157.3659 H   0  0  0  0  0  0  0  0  0  0  0  0  # atno 11005 bound_to 11000
  144.6841  140.2781  143.7296 LP  0  0  0  0  0  0  0  0  0  0  0  0  # atno 17320 bound_to 7965
  145.7879  139.1915  143.2120 LP  0  0  0  0  0  0  0  0  0  0  0  0  # atno 17321 bound_to 7965
  140.5498  144.0444  150.6122 LP  0  0  0  0  0  0  0  0  0  0  0  0  # atno 17342 bound_to 10162
  140.3494  143.2972  152.0503 LP  0  0  0  0  0  0  0  0  0  0  0  0  # atno 17343 bound_to 10162
  156.0221  130.3792  150.1932 LP  0  0  0  0  0  0  0  0  0  0  0  0  # atno 17370 bound_to 10713
  157.0121  130.9954  151.3363 LP  0  0  0  0  0  0  0  0  0  0  0  0  # atno 17371 bound_to 10713
  139.8990  135.0157  156.7176 LP  0  0  0  0  0  0  0  0  0  0  0  0  # atno 17394 bound_to 11000
  140.7046  133.9276  155.8046 LP  0  0  0  0  0  0  0  0  0  0  0  0  # atno 17395 bound_to 11000

$$$$
