AV-unprocessed.smi:2159|AV-procd|sdf|8794|dock10
  -GOLD-   2272011573D 1   1.00000     0.00000
 Structure written by MMmdl.
 48 50  0  0  0  0  0  0  0  0  2 V2000
  151.7302  136.3940  156.5596 O   0  0  0  0  0  0  0  0  0  0  0  0
  150.5793  136.6882  156.8844 C   0  0  0  0  0  0  0  0  0  0  0  0
  150.2326  138.1159  157.3160 C   0  0  0  0  0  0  0  0  0  0  0  0
  150.9250  139.1885  156.4514 C   0  0  0  0  0  0  0  0  0  0  0  0
  151.2415  140.3832  157.2378 N   0  0  0  0  0  0  0  0  0  0  0  0
  151.8906  140.3648  158.4176 C   0  0  0  0  0  0  0  0  0  0  0  0
  152.3964  139.3907  158.9740 O   0  0  0  0  0  0  0  0  0  0  0  0
  151.8449  141.7588  159.0255 C   0  0  1  0  0  0  0  0  0  0  0  0
  152.9897  142.3306  159.8629 C   0  0  0  0  0  0  0  0  0  0  0  0
  152.5566  143.7549  160.3016 C   0  0  0  0  0  0  0  0  0  0  0  0
  152.0552  144.6532  159.1324 C   0  0  0  0  0  0  0  0  0  0  0  0
  151.0336  143.9565  158.1947 C   0  0  0  0  0  0  0  0  0  0  0  0
  151.6484  142.6158  157.7906 C   0  0  2  0  0  0  0  0  0  0  0  0
  150.9471  141.6410  156.8563 C   0  0  0  0  0  0  0  0  0  0  0  0
  150.2898  141.9872  155.8753 O   0  0  0  0  0  0  0  0  0  0  0  0
  149.5724  135.8010  156.8950 N   0  0  0  0  0  0  0  0  0  0  0  0
  149.6973  134.3959  156.5256 C   0  0  0  0  0  0  0  0  0  0  0  0
  149.8294  134.2210  155.0032 C   0  0  0  0  0  0  0  0  0  0  0  0
  148.7977  133.2620  154.4429 C   0  0  0  0  0  0  0  0  0  0  0  0
  148.6578  131.9410  154.9214 C   0  0  0  0  0  0  0  0  0  0  0  0
  147.6738  131.1041  154.3544 C   0  0  0  0  0  0  0  0  0  0  0  0
  146.8514  131.6050  153.3238 C   0  0  0  0  0  0  0  0  0  0  0  0
  147.0334  132.9327  152.8857 C   0  0  0  0  0  0  0  0  0  0  0  0
  147.9868  133.7034  153.4539 N   0  3  0  0  0  0  0  0  0  0  0  0
  149.1510  138.2533  157.2730 H   0  0  0  0  0  0  0  0  0  0  0  0
  150.5219  138.2346  158.3607 H   0  0  0  0  0  0  0  0  0  0  0  0
  151.8412  138.7901  156.0115 H   0  0  0  0  0  0  0  0  0  0  0  0
  150.2866  139.4594  155.6082 H   0  0  0  0  0  0  0  0  0  0  0  0
  150.9409  141.7721  159.6390 H   0  0  0  0  0  0  0  0  0  0  0  0
  153.1820  141.7059  160.7357 H   0  0  0  0  0  0  0  0  0  0  0  0
  153.9137  142.3686  159.2846 H   0  0  0  0  0  0  0  0  0  0  0  0
  151.7541  143.6638  161.0347 H   0  0  0  0  0  0  0  0  0  0  0  0
  153.3795  144.2481  160.8196 H   0  0  0  0  0  0  0  0  0  0  0  0
  151.6236  145.5718  159.5306 H   0  0  0  0  0  0  0  0  0  0  0  0
  152.9175  144.9613  158.5398 H   0  0  0  0  0  0  0  0  0  0  0  0
  150.0801  143.8095  158.7036 H   0  0  0  0  0  0  0  0  0  0  0  0
  150.8384  144.5749  157.3181 H   0  0  0  0  0  0  0  0  0  0  0  0
  152.6124  142.8179  157.3178 H   0  0  0  0  0  0  0  0  0  0  0  0
  148.6569  136.1235  157.1747 H   0  0  0  0  0  0  0  0  0  0  0  0
  150.5769  133.9881  157.0246 H   0  0  0  0  0  0  0  0  0  0  0  0
  148.8395  133.8375  156.9043 H   0  0  0  0  0  0  0  0  0  0  0  0
  149.7178  135.1818  154.4987 H   0  0  0  0  0  0  0  0  0  0  0  0
  150.8281  133.8591  154.7542 H   0  0  0  0  0  0  0  0  0  0  0  0
  149.2944  131.5717  155.7125 H   0  0  0  0  0  0  0  0  0  0  0  0
  147.5516  130.0900  154.7059 H   0  0  0  0  0  0  0  0  0  0  0  0
  146.0921  130.9800  152.8766 H   0  0  0  0  0  0  0  0  0  0  0  0
  146.4504  133.3980  152.1042 H   0  0  0  0  0  0  0  0  0  0  0  0
  148.1014  134.6615  153.1218 H   0  0  0  0  0  0  0  0  0  0  0  0
  1  2  2  0  0  0  0
  2  3  1  0  0  0  0
  2 16  1  0  0  0  0
  3  4  1  0  0  0  0
  3 25  1  0  0  0  0
  3 26  1  0  0  0  0
  4  5  1  0  0  0  0
  4 27  1  0  0  0  0
  4 28  1  0  0  0  0
  5 14  1  0  0  0  0
  5  6  1  0  0  0  0
  6  7  2  0  0  0  0
  6  8  1  0  0  0  0
  8 13  1  0  0  0  0
  8  9  1  0  0  0  0
  8 29  1  0  0  0  0
  9 10  1  0  0  0  0
  9 30  1  0  0  0  0
  9 31  1  0  0  0  0
 10 11  1  0  0  0  0
 10 32  1  0  0  0  0
 10 33  1  0  0  0  0
 11 12  1  0  0  0  0
 11 34  1  0  0  0  0
 11 35  1  0  0  0  0
 12 13  1  0  0  0  0
 12 36  1  0  0  0  0
 12 37  1  0  0  0  0
 13 14  1  0  0  0  0
 13 38  1  0  0  0  0
 14 15  2  0  0  0  0
 16 17  1  0  0  0  0
 16 39  1  0  0  0  0
 17 18  1  0  0  0  0
 17 40  1  0  0  0  0
 17 41  1  0  0  0  0
 18 19  1  0  0  0  0
 18 42  1  0  0  0  0
 18 43  1  0  0  0  0
 19 24  1  0  0  0  0
 19 20  2  0  0  0  0
 20 21  1  0  0  0  0
 20 44  1  0  0  0  0
 21 22  2  0  0  0  0
 21 45  1  0  0  0  0
 22 23  1  0  0  0  0
 22 46  1  0  0  0  0
 23 24  2  0  0  0  0
 23 47  1  0  0  0  0
 24 48  1  0  0  0  0
M  CHG  1  24   1
M  END
> <s_m_source_file>
AV-unprocessed.smi

> <i_m_source_file_index>
2159

> <i_lp_mmshare_version>
43012

> <i_f3d_flags>
0

> <s_epik_input>
bjFbY0hdW2NIXVtjSF1bY0hdYzFbQ0gyXVtDSDJdW05IXUMoPU8pW0NIMl1bQ0gyXU4oQzI9TylDKD1PKVtDQEhdKFtDQEBIXTIzKVtDSDJdW0NIMl1bQ0gyXVtDSDJdMw==

> <s_epik_cmdline>
J2VwaWtfcHl0aG9uJywgJy1waCcsICc3LjAnLCAnLXRuJywgJzgnLCAnLW1hJywgJzIwMCcsICctbWV0YWxfYmluZGluZycsICctaW1hZScsICc8aW5maWxlLm1hZT4nLCAnLW9tYWUnLCAnPG91dGZpbGUubWFlPic=

> <r_lp_tautomer_probability>
1

> <r_epik_Ionization_Penalty>
1.85146

> <r_epik_Ionization_Penalty_Charging>
1.85146

> <r_epik_Ionization_Penalty_Neutral>
2.95922e-08

> <r_epik_State_Penalty>
1.96899

> <r_epik_Charging_Adjusted_Penalty>
3.82044

> <i_epik_Tot_Q>
1

> <i_epik_Tot_abs_Q>
1

> <r_epik_Metal_State_Penalty>
1.99467

> <b_epik_Metal_Only>
0

> <s_lp_Force_Field>
OPLS_2005

> <r_lp_Energy>
36.2537

> <b_lp_Chiralities_Consistent>
1

> <s_lp_Variant>
AV-unprocessed.smi:2159-4

> <Gold.Version>
5.8.1

> <Gold.Id.Protein>
6NUR|6NUR_protein|mol2

> <Gold.PLP.Fitness>
50.2895

> <Gold.PLP.PLP>
-43.3449

> <Gold.PLP.part.hbond>
-2.0000

> <Gold.PLP.part.metal>
0.0000

> <Gold.PLP.part.buried>
-5.6923

> <Gold.PLP.part.nonpolar>
-36.4012

> <Gold.PLP.part.repulsive>
0.9726

> <Gold.PLP.ligand.clash>
0.0000

> <Gold.PLP.ligand.torsion>
1.0542

> <Gold.PLP.Chemscore.Hbond>
3.0000

> <Gold.PLP.Chemscore.CHOScore>
0.0000

> <Gold.PLP.Chemscore.Metal>
0.0000

> <Gold.Chemscore.Hbonds>
donor molecule, donor type, donor heavy atom, donor atom, acceptor molecule, acceptor atom, score
      L1  H    24    48       P1  7948  1.40
      P1  H 10752 10764       L1     1  0.42

> <Gold.PLP.Chemscore.Internal.Correction>
0.0530

> <Gold.Rescore>
     Score         DG    S(hbond)    S(metal)    S(lipo)     H(rot)  DE(clash)    DE(int)     intcor
     17.11     -18.97       1.90        0.00     106.88       2.10       0.05       1.80       ----

> <Gold.Chemscore.Fitness>
17.1135

> <Gold.Chemscore.DG>
-18.9722

> <Gold.Chemscore.ZeroCoef>
-5.4800

> <Gold.Chemscore.Hbond>
1.9022

> <Gold.Chemscore.Metal>
0.0000

> <Gold.Chemscore.Lipo>
106.8752

> <Gold.Chemscore.Internal_Hbond>
0.0000

> <Gold.Chemscore.DEClash>
0.0540

> <Gold.Chemscore.DEInternal>
1.8047

> <Gold.Chemscore.Rot>
2.0959

> <Gold.Chemscore.Internal.Correction>
   9.000000E+99

> <Gold.Chemscore.Hbonds>
donor molecule, donor type, donor heavy atom, donor atom, acceptor molecule, acceptor atom, score
      L1  H    24    48       P1  7948  0.52
      P1  H 10752 10764       L1     1  0.44

> <Gold.Chemscore.Hbond.Weighted>
-6.3533

> <Gold.Chemscore.Metal.Weighted>
-0.0000

> <Gold.Chemscore.Lipo.Weighted>
-12.5044

> <Gold.Chemscore.Internal_Hbond.Weighted>
0.0000

> <Gold.Chemscore.DEClash.Weighted>
0.0540

> <Gold.Chemscore.DEInternal.Weighted>
1.8047

> <Gold.Chemscore.Rot.Weighted>
5.3655

> <Gold.Chemscore.Internal.Correction.Weighted>
   9.000000E+99

> <Gold.Protein.RotatedTorsions>
[ 6907 6896 6895 6894 ] final -165.02 input  -60.11 | X-H torsion
[ 7974 7965 7964 7962 ] final  101.35 input  175.53 | X-H torsion
[ 8008 7997 7996 7995 ] final  161.64 input   59.86 | X-H torsion
[ 10167 10162 10161 10158 ] final  -83.42 input  -65.29 | X-H torsion
[ 10718 10713 10712 10709 ] final -140.73 input   66.30 | X-H torsion
[ 10763 10752 10751 10750 ] final  -26.15 input  -60.55 | X-H torsion
[ 11005 11000 10999 10996 ] final    4.01 input  -57.11 | X-H torsion

> <Gold.Protein.ActiveResidues>
 VAL166  LYS551  ARG553  GLY616  TRP617  ASP618  TYR619  PRO620  LYS621  CYS622 
 ASP623  PHE694  ASN695  SER759  ASP760  ASP761  ALA762  ILE779  LEU786  VAL792 
 PHE793  MET794  SER795  GLU796  ALA797  LYS798  CYS799  TRP800  GLU811  SER814 

> <Gold.Protein.RotatedAtoms>
  151.4210  133.3698  159.2755 H   0  0  0  0  0  0  0  0  0  0  0  0  # atno 6907 bound_to 6896
  150.9293  134.8710  159.7551 H   0  0  0  0  0  0  0  0  0  0  0  0  # atno 6908 bound_to 6896
  152.5020  134.4154  159.9514 H   0  0  0  0  0  0  0  0  0  0  0  0  # atno 6909 bound_to 6896
  145.3734  139.2393  143.3442 H   0  0  0  0  0  0  0  0  0  0  0  0  # atno 7974 bound_to 7965
  156.2089  140.1772  156.7739 H   0  0  0  0  0  0  0  0  0  0  0  0  # atno 8008 bound_to 7997
  154.5694  140.0685  156.8971 H   0  0  0  0  0  0  0  0  0  0  0  0  # atno 8009 bound_to 7997
  155.2701  140.3342  155.4268 H   0  0  0  0  0  0  0  0  0  0  0  0  # atno 8010 bound_to 7997
  140.4228  143.2578  151.8867 H   0  0  0  0  0  0  0  0  0  0  0  0  # atno 10167 bound_to 10162
  156.3258  130.7559  151.1666 H   0  0  0  0  0  0  0  0  0  0  0  0  # atno 10718 bound_to 10713
  153.7113  135.6950  153.5036 H   0  0  0  0  0  0  0  0  0  0  0  0  # atno 10763 bound_to 10752
  153.2270  135.4350  155.0552 H   0  0  0  0  0  0  0  0  0  0  0  0  # atno 10764 bound_to 10752
  154.8314  135.3475  154.6650 H   0  0  0  0  0  0  0  0  0  0  0  0  # atno 10765 bound_to 10752
  140.5867  133.9962  155.8071 H   0  0  0  0  0  0  0  0  0  0  0  0  # atno 11005 bound_to 11000
  146.2875  140.4389  142.8752 LP  0  0  0  0  0  0  0  0  0  0  0  0  # atno 17320 bound_to 7965
  144.8559  140.7070  143.6138 LP  0  0  0  0  0  0  0  0  0  0  0  0  # atno 17321 bound_to 7965
  139.4783  144.5419  151.8515 LP  0  0  0  0  0  0  0  0  0  0  0  0  # atno 17342 bound_to 10162
  140.4515  144.1849  150.5898 LP  0  0  0  0  0  0  0  0  0  0  0  0  # atno 17343 bound_to 10162
  157.7421  131.0495  150.5050 LP  0  0  0  0  0  0  0  0  0  0  0  0  # atno 17370 bound_to 10713
  156.5209  130.4161  149.6251 LP  0  0  0  0  0  0  0  0  0  0  0  0  # atno 17371 bound_to 10713
  141.0961  133.9841  157.3157 LP  0  0  0  0  0  0  0  0  0  0  0  0  # atno 17394 bound_to 11000
  139.9292  135.0200  156.8343 LP  0  0  0  0  0  0  0  0  0  0  0  0  # atno 17395 bound_to 11000

$$$$
