AV-unprocessed.smi:1843|AV-procd|sdf|7501|dock4
  -GOLD-   22720 9203D 1   1.00000     0.00000
 Structure written by MMmdl.
 37 39  0  0  0  0  0  0  0  0  1 V2000
  144.5801  136.3074  153.4367 O   0  0  0  0  0  0  0  0  0  0  0  0
  145.7503  136.2071  153.0672 C   0  0  0  0  0  0  0  0  0  0  0  0
  146.6888  137.1623  153.1892 N   0  0  0  0  0  0  0  0  0  0  0  0
  146.5581  138.4562  153.7599 C   0  0  0  0  0  0  0  0  0  0  0  0
  145.8553  138.7120  154.8719 N   0  0  0  0  0  0  0  0  0  0  0  0
  145.8905  140.0578  155.2089 N   0  0  0  0  0  0  0  0  0  0  0  0
  146.6177  140.7787  154.3471 C   0  0  0  0  0  0  0  0  0  0  0  0
  146.8006  142.2522  154.4985 C   0  0  0  0  0  0  0  0  0  0  0  0
  146.0492  143.0407  155.5489 C   0  0  0  0  0  0  0  0  0  0  0  0
  145.7073  143.2128  154.0908 C   0  0  0  0  0  0  0  0  0  0  0  0
  147.3311  139.8527  153.0302 S   0  0  0  0  0  0  0  0  0  0  0  0
  146.2494  135.1085  152.4820 N   0  0  0  0  0  0  0  0  0  0  0  0
  145.5013  133.8822  152.2109 C   0  0  1  0  0  0  0  0  0  0  0  0
  144.3789  134.1103  151.1767 C   0  0  0  0  0  0  0  0  0  0  0  0
  143.5959  132.8118  150.9206 C   0  0  0  0  0  0  0  0  0  0  0  0
  144.5272  131.6683  150.4860 C   0  0  0  0  0  0  0  0  0  0  0  0
  145.6654  131.4477  151.5002 C   0  0  0  0  0  0  0  0  0  0  0  0
  146.4527  132.7427  151.7810 C   0  0  1  0  0  0  0  0  0  0  0  0
  147.1811  133.0974  150.6193 O   0  0  0  0  0  0  0  0  0  0  0  0
  147.6060  136.9376  152.8331 H   0  0  0  0  0  0  0  0  0  0  0  0
  147.8305  142.5348  154.2895 H   0  0  0  0  0  0  0  0  0  0  0  0
  145.3256  142.5155  156.1690 H   0  0  0  0  0  0  0  0  0  0  0  0
  146.5796  143.8537  156.0399 H   0  0  0  0  0  0  0  0  0  0  0  0
  146.0090  144.1404  153.6089 H   0  0  0  0  0  0  0  0  0  0  0  0
  144.7669  142.7899  153.7425 H   0  0  0  0  0  0  0  0  0  0  0  0
  147.2204  135.1167  152.2076 H   0  0  0  0  0  0  0  0  0  0  0  0
  145.0319  133.5655  153.1447 H   0  0  0  0  0  0  0  0  0  0  0  0
  143.6930  134.8816  151.5287 H   0  0  0  0  0  0  0  0  0  0  0  0
  144.7994  134.4773  150.2395 H   0  0  0  0  0  0  0  0  0  0  0  0
  143.0649  132.5231  151.8285 H   0  0  0  0  0  0  0  0  0  0  0  0
  142.8343  132.9804  150.1588 H   0  0  0  0  0  0  0  0  0  0  0  0
  143.9537  130.7482  150.3687 H   0  0  0  0  0  0  0  0  0  0  0  0
  144.9470  131.8937  149.5049 H   0  0  0  0  0  0  0  0  0  0  0  0
  145.2402  131.0799  152.4349 H   0  0  0  0  0  0  0  0  0  0  0  0
  146.3373  130.6657  151.1446 H   0  0  0  0  0  0  0  0  0  0  0  0
  147.1760  132.5537  152.5753 H   0  0  0  0  0  0  0  0  0  0  0  0
  147.9669  132.5747  150.5861 H   0  0  0  0  0  0  0  0  0  0  0  0
  1  2  2  0  0  0  0
  2  3  1  0  0  0  0
  2 12  1  0  0  0  0
  3  4  1  0  0  0  0
  3 20  1  0  0  0  0
  4 11  1  0  0  0  0
  4  5  2  0  0  0  0
  5  6  1  0  0  0  0
  6  7  2  0  0  0  0
  7  8  1  0  0  0  0
  7 11  1  0  0  0  0
  8 10  1  0  0  0  0
  8  9  1  0  0  0  0
  8 21  1  0  0  0  0
  9 10  1  0  0  0  0
  9 22  1  0  0  0  0
  9 23  1  0  0  0  0
 10 24  1  0  0  0  0
 10 25  1  0  0  0  0
 12 13  1  0  0  0  0
 12 26  1  0  0  0  0
 13 18  1  0  0  0  0
 13 14  1  0  0  0  0
 13 27  1  0  0  0  0
 14 15  1  0  0  0  0
 14 28  1  0  0  0  0
 14 29  1  0  0  0  0
 15 16  1  0  0  0  0
 15 30  1  0  0  0  0
 15 31  1  0  0  0  0
 16 17  1  0  0  0  0
 16 32  1  0  0  0  0
 16 33  1  0  0  0  0
 17 18  1  0  0  0  0
 17 34  1  0  0  0  0
 17 35  1  0  0  0  0
 18 19  1  0  0  0  0
 18 36  1  0  0  0  0
 19 37  1  0  0  0  0
M  END
> <s_m_source_file>
AV-unprocessed.smi

> <i_m_source_file_index>
1843

> <i_lp_mmshare_version>
43012

> <i_f3d_flags>
0

> <s_epik_input>
W09IXVtDQEBIXTFbQ0gyXVtDSDJdW0NIMl1bQ0gyXVtDQEhdMVtOSF1DKD1PKVtOSF1jMm5uYyhzMilbQ0hdM1tDSDJdW0NIMl0z

> <s_epik_cmdline>
J2VwaWtfcHl0aG9uJywgJy1waCcsICc3LjAnLCAnLXRuJywgJzgnLCAnLW1hJywgJzIwMCcsICctbWV0YWxfYmluZGluZycsICctaW1hZScsICc8aW5maWxlLm1hZT4nLCAnLW9tYWUnLCAnPG91dGZpbGUubWFlPic=

> <r_lp_tautomer_probability>
1

> <r_epik_Ionization_Penalty>
0.000257313

> <r_epik_Ionization_Penalty_Charging>
0

> <r_epik_Ionization_Penalty_Neutral>
0.000257313

> <r_epik_State_Penalty>
-0

> <r_epik_Charging_Adjusted_Penalty>
0

> <i_epik_Tot_Q>
0

> <i_epik_Tot_abs_Q>
0

> <r_epik_Metal_State_Penalty>
0.147479

> <b_epik_Metal_Only>
0

> <s_lp_Force_Field>
OPLS_2005

> <r_lp_Energy>
11.0621

> <b_lp_Chiralities_Consistent>
1

> <s_lp_Variant>
AV-unprocessed.smi:1843-2

> <Gold.Version>
5.8.1

> <Gold.Id.Protein>
6NUR|6NUR_protein|mol2

> <Gold.PLP.Fitness>
38.4591

> <Gold.PLP.PLP>
-30.6917

> <Gold.PLP.part.hbond>
-3.1089

> <Gold.PLP.part.metal>
0.0000

> <Gold.PLP.part.buried>
-1.9412

> <Gold.PLP.part.nonpolar>
-26.3761

> <Gold.PLP.part.repulsive>
0.2983

> <Gold.PLP.ligand.clash>
0.0000

> <Gold.PLP.ligand.torsion>
0.6741

> <Gold.PLP.Chemscore.Hbond>
2.9913

> <Gold.PLP.Chemscore.CHOScore>
0.0000

> <Gold.PLP.Chemscore.Metal>
0.0000

> <Gold.Chemscore.Hbonds>
donor molecule, donor type, donor heavy atom, donor atom, acceptor molecule, acceptor atom, score
      L1  H     3    20       P1  7948  1.00
      L1  H    12    26       P1  7948  0.92
      L1  H    19    37       P1 10747  1.00

> <Gold.PLP.Chemscore.Internal.Correction>
0.1419

> <Gold.Rescore>
     Score         DG    S(hbond)    S(metal)    S(lipo)     H(rot)  DE(clash)    DE(int)     intcor
     17.91     -18.83       2.72        0.00      74.60       1.74       0.21       0.71       ----

> <Gold.Chemscore.Fitness>
17.9086

> <Gold.Chemscore.DG>
-18.8305

> <Gold.Chemscore.ZeroCoef>
-5.4800

> <Gold.Chemscore.Hbond>
2.7179

> <Gold.Chemscore.Metal>
0.0000

> <Gold.Chemscore.Lipo>
74.6013

> <Gold.Chemscore.Internal_Hbond>
0.0000

> <Gold.Chemscore.DEClash>
0.2112

> <Gold.Chemscore.DEInternal>
0.7107

> <Gold.Chemscore.Rot>
1.7404

> <Gold.Chemscore.Internal.Correction>
   9.000000E+99

> <Gold.Chemscore.Hbonds>
donor molecule, donor type, donor heavy atom, donor atom, acceptor molecule, acceptor atom, score
      L1  H     3    20       P1  7948  1.00
      L1  H    12    26       P1  7948  0.84
      L1  H    19    37       P1 10747  0.94

> <Gold.Chemscore.Hbond.Weighted>
-9.0777

> <Gold.Chemscore.Metal.Weighted>
-0.0000

> <Gold.Chemscore.Lipo.Weighted>
-8.7284

> <Gold.Chemscore.Internal_Hbond.Weighted>
0.0000

> <Gold.Chemscore.DEClash.Weighted>
0.2112

> <Gold.Chemscore.DEInternal.Weighted>
0.7107

> <Gold.Chemscore.Rot.Weighted>
4.4555

> <Gold.Chemscore.Internal.Correction.Weighted>
   9.000000E+99

> <Gold.Protein.RotatedTorsions>
[ 6907 6896 6895 6894 ] final   -3.35 input  -60.11 | X-H torsion
[ 7974 7965 7964 7962 ] final   28.66 input  175.53 | X-H torsion
[ 8008 7997 7996 7995 ] final  -67.67 input   59.86 | X-H torsion
[ 10167 10162 10161 10158 ] final   23.00 input  -65.29 | X-H torsion
[ 10718 10713 10712 10709 ] final  -17.00 input   66.30 | X-H torsion
[ 10763 10752 10751 10750 ] final  -97.01 input  -60.55 | X-H torsion
[ 11005 11000 10999 10996 ] final -162.36 input  -57.11 | X-H torsion

> <Gold.Protein.ActiveResidues>
 VAL166  LYS551  ARG553  GLY616  TRP617  ASP618  TYR619  PRO620  LYS621  CYS622 
 ASP623  PHE694  ASN695  SER759  ASP760  ASP761  ALA762  ILE779  LEU786  VAL792 
 PHE793  MET794  SER795  GLU796  ALA797  LYS798  CYS799  TRP800  GLU811  SER814 

> <Gold.Protein.RotatedAtoms>
  151.5152  135.1066  159.9864 H   0  0  0  0  0  0  0  0  0  0  0  0  # atno 6907 bound_to 6896
  152.4644  133.7887  159.6901 H   0  0  0  0  0  0  0  0  0  0  0  0  # atno 6908 bound_to 6896
  150.8621  133.7564  159.3014 H   0  0  0  0  0  0  0  0  0  0  0  0  # atno 6909 bound_to 6896
  146.1716  139.7026  142.8963 H   0  0  0  0  0  0  0  0  0  0  0  0  # atno 7974 bound_to 7965
  154.4815  140.0888  156.7389 H   0  0  0  0  0  0  0  0  0  0  0  0  # atno 8008 bound_to 7997
  155.4457  140.3455  155.4277 H   0  0  0  0  0  0  0  0  0  0  0  0  # atno 8009 bound_to 7997
  156.1199  140.1471  156.9208 H   0  0  0  0  0  0  0  0  0  0  0  0  # atno 8010 bound_to 7997
  140.5304  143.9852  150.6462 H   0  0  0  0  0  0  0  0  0  0  0  0  # atno 10167 bound_to 10162
  156.5796  130.4770  149.6326 H   0  0  0  0  0  0  0  0  0  0  0  0  # atno 10718 bound_to 10713
  154.7291  135.5062  153.8934 H   0  0  0  0  0  0  0  0  0  0  0  0  # atno 10763 bound_to 10752
  153.0932  135.6665  153.9822 H   0  0  0  0  0  0  0  0  0  0  0  0  # atno 10764 bound_to 10752
  153.9627  135.3046  155.3412 H   0  0  0  0  0  0  0  0  0  0  0  0  # atno 10765 bound_to 10752
  140.6101  134.4858  157.5214 H   0  0  0  0  0  0  0  0  0  0  0  0  # atno 11005 bound_to 11000
  145.4325  141.0416  143.2903 LP  0  0  0  0  0  0  0  0  0  0  0  0  # atno 17320 bound_to 7965
  144.8172  139.5856  143.7003 LP  0  0  0  0  0  0  0  0  0  0  0  0  # atno 17321 bound_to 7965
  140.3225  143.3128  152.0769 LP  0  0  0  0  0  0  0  0  0  0  0  0  # atno 17342 bound_to 10162
  139.4952  144.6564  151.6563 LP  0  0  0  0  0  0  0  0  0  0  0  0  # atno 17343 bound_to 10162
  156.2643  130.6980  151.1758 LP  0  0  0  0  0  0  0  0  0  0  0  0  # atno 17370 bound_to 10713
  157.7329  131.0595  150.5602 LP  0  0  0  0  0  0  0  0  0  0  0  0  # atno 17371 bound_to 10713
  139.9196  134.8176  156.1255 LP  0  0  0  0  0  0  0  0  0  0  0  0  # atno 17394 bound_to 11000
  141.0814  133.6753  156.2343 LP  0  0  0  0  0  0  0  0  0  0  0  0  # atno 17395 bound_to 11000

$$$$
