#       Name:                AV-unprocessed.smi:1531
#       Creating user name   scv26
#       Creation time:       Fri Mar 27 06:30:47 2020


#       File generated by GOLD software.
#

@<TRIPOS>MOLECULE
AV-unprocessed.smi:1531
    49    50     1
SMALL
NO_CHARGES


@<TRIPOS>ATOM
      1 ****        -2.8463   0.3979   2.6072 C.3            1 S1                 0.0000
      2 ****        -2.4127  -1.0648   2.4393 C.3            1 S1                 0.0000
      3 ****        -2.7630  -1.6745   1.0625 C.3            1 S1                 0.0000
      4 ****        -2.4558  -3.1878   1.0382 C.3            1 S1                 0.0000
      5 ****        -2.8451  -3.8306  -0.3022 C.3            1 S1                 0.0000
      6 ****        -2.1500  -3.1294  -1.4773 C.3            1 S1                 0.0000
      7 ****        -2.4529  -1.6221  -1.4778 C.3            1 S1                 0.0000
      8 ****        -2.0913  -0.9518  -0.1363 C.3            1 S1                 0.0000
      9 ****        -0.6375  -0.8905   0.0252 N.am           1 S1                 0.0000
     10 ****         0.1309   0.1897  -0.1740 C.2            1 S1                 0.0000
     11 ****        -0.3050   1.2847  -0.5301 O.2            1 S1                 0.0000
     12 ****         1.4242  -0.0851   0.0616 N.am           1 S1                 0.0000
     13 ****         2.5192   0.8129  -0.0040 C.2            1 S1                 0.0000
     14 ****         3.8762   0.4532   0.2026 C.2            1 S1                 0.0000
     15 ****         4.6735   1.5041   0.0851 N.2            1 S1                 0.0000
     16 ****         3.8478   2.5441  -0.1934 N.pl3          1 S1                 0.0000
     17 ****         4.4025   3.8723  -0.3860 C.3            1 S1                 0.0000
     18 ****         4.6334   4.1691  -1.8688 C.2            1 S1                 0.0000
     19 ****         3.5820   4.5884  -2.5786 N.am           1 S1                 0.0000
     20 ****         5.7479   4.0265  -2.3670 O.2            1 S1                 0.0000
     21 ****         2.5235   2.1560  -0.2537 C.2            1 S1                 0.0000
     22 ****        -2.6556   0.7416   3.6240 H              1 S1                 0.0000
     23 ****        -3.9119   0.5194   2.4110 H              1 S1                 0.0000
     24 ****        -2.3008   1.0585   1.9336 H              1 S1                 0.0000
     25 ****        -1.3430  -1.1509   2.6329 H              1 S1                 0.0000
     26 ****        -2.9012  -1.6524   3.2175 H              1 S1                 0.0000
     27 ****        -3.8417  -1.5706   0.9349 H              1 S1                 0.0000
     28 ****        -1.3950  -3.3554   1.2276 H              1 S1                 0.0000
     29 ****        -2.9917  -3.6889   1.8452 H              1 S1                 0.0000
     30 ****        -2.5857  -4.8896  -0.2960 H              1 S1                 0.0000
     31 ****        -3.9267  -3.7782  -0.4327 H              1 S1                 0.0000
     32 ****        -1.0731  -3.2914  -1.4169 H              1 S1                 0.0000
     33 ****        -2.4750  -3.5731  -2.4186 H              1 S1                 0.0000
     34 ****        -1.9246  -1.1352  -2.2985 H              1 S1                 0.0000
     35 ****        -3.5156  -1.4748  -1.6746 H              1 S1                 0.0000
     36 ****        -2.4889   0.0634  -0.1742 H              1 S1                 0.0000
     37 ****        -0.1835  -1.7442   0.3149 H              1 S1                 0.0000
     38 ****         1.6486  -1.0341   0.3229 H              1 S1                 0.0000
     39 ****         4.3011  -0.5139   0.4284 H              1 S1                 0.0000
     40 ****         3.7173   4.6057   0.0415 H              1 S1                 0.0000
     41 ****         5.3424   3.9562   0.1620 H              1 S1                 0.0000
     42 ****         3.6862   4.8004  -3.5605 H              1 S1                 0.0000
     43 ****         2.6851   4.6952  -2.1272 H              1 S1                 0.0000
     44 ****         1.7297   2.8579  -0.4626 H              1 S1                 0.0000
     45 ****        -1.2851   1.4055  -0.6876 LP             1 S1                 0.0000
     46 ****         0.3210   2.0533  -0.6618 LP             1 S1                 0.0000
     47 ****         5.6686   1.5263   0.1809 LP             1 S1                 0.0000
     48 ****         6.5118   3.7143  -1.8022 LP             1 S1                 0.0000
     49 ****         5.8907   4.2226  -3.3371 LP             1 S1                 0.0000
@<TRIPOS>BOND
    1    1    2 1     
    2    1   22 1     
    3    1   23 1     
    4    1   24 1     
    5    2    3 1     
    6    2   25 1     
    7    2   26 1     
    8    3    8 1     
    9    3    4 1     
   10    3   27 1     
   11    4    5 1     
   12    4   28 1     
   13    4   29 1     
   14    5    6 1     
   15    5   30 1     
   16    5   31 1     
   17    6    7 1     
   18    6   32 1     
   19    6   33 1     
   20    7    8 1     
   21    7   34 1     
   22    7   35 1     
   23    8    9 1     
   24    8   36 1     
   25    9   10 am    
   26    9   37 1     
   27   10   11 2     
   28   10   12 am    
   29   12   13 1     
   30   12   38 1     
   31   13   21 2     
   32   13   14 1     
   33   14   15 2     
   34   14   39 1     
   35   15   16 1     
   36   16   17 1     
   37   16   21 1     
   38   17   18 1     
   39   17   40 1     
   40   17   41 1     
   41   18   19 am    
   42   18   20 2     
   43   19   42 1     
   44   19   43 1     
   45   21   44 1     
   46   11   45 1     
   47   11   46 1     
   48   15   47 1     
   49   20   48 1     
   50   20   49 1     
@<TRIPOS>SUBSTRUCTURE
      1 S1             1
@<TRIPOS>SET
LONE_PAIRS      STATIC     ATOMS    <user>   **** ""
5 45 46 47 48 49
DONOR_HYDROGENS      STATIC     ATOMS    <user>   **** ""
4 37 38 42 43
ATOM$BLUE        STATIC     ATOMS    COLORGROUP SYSTEM
5 45 46 47 48 49
ATOM$RED        STATIC     ATOMS    COLORGROUP SYSTEM
4 37 38 42 43
