AV-unprocessed.smi:2664|AV-procd|sdf|10328|dock5
  -GOLD-   2272014343D 1   1.00000     0.00000
 Structure written by MMmdl.
 44 45  0  0  0  0  0  0  0  0  2 V2000
  145.1437  138.4217  153.1714 O   0  0  0  0  0  0  0  0  0  0  0  0
  146.1654  137.8972  152.7298 C   0  0  0  0  0  0  0  0  0  0  0  0
  147.3999  138.4243  152.8022 N   0  0  0  0  0  0  0  0  0  0  0  0
  147.8133  139.6337  153.4248 C   0  0  0  0  0  0  0  0  0  0  0  0
  149.0534  139.6287  154.1013 C   0  0  0  0  0  0  0  0  0  0  0  0
  149.4976  140.7994  154.7494 C   0  0  0  0  0  0  0  0  0  0  0  0
  148.7328  141.9118  154.7268 N   0  3  0  0  0  0  0  0  0  0  0  0
  147.5351  141.9616  154.1053 C   0  0  0  0  0  0  0  0  0  0  0  0
  147.0381  140.8217  153.4411 C   0  0  0  0  0  0  0  0  0  0  0  0
  146.1812  136.7183  152.0891 N   0  0  0  0  0  0  0  0  0  0  0  0
  145.0210  135.8593  151.8338 C   0  0  2  0  0  0  0  0  0  0  0  0
  144.3268  135.5394  153.1823 C   0  0  0  0  0  0  0  0  0  0  0  0
  142.9746  134.8099  153.0666 C   0  0  0  0  0  0  0  0  0  0  0  0
  142.4448  134.5399  154.3471 O   0  0  0  0  0  0  0  0  0  0  0  0
  145.4589  134.5914  151.0441 C   0  0  0  0  0  0  0  0  0  0  0  0
  144.2489  133.8079  150.4713 C   0  0  0  0  0  0  0  0  0  0  0  0
  144.6770  132.5524  149.6947 C   0  0  0  0  0  0  0  0  0  0  0  0
  145.5327  131.6241  150.5648 C   0  0  0  0  0  0  0  0  0  0  0  0
  146.7488  132.3750  151.1197 C   0  0  0  0  0  0  0  0  0  0  0  0
  146.3270  133.6326  151.8966 C   0  0  0  0  0  0  0  0  0  0  0  0
  148.1248  137.9184  152.3146 H   0  0  0  0  0  0  0  0  0  0  0  0
  149.6652  138.7383  154.1210 H   0  0  0  0  0  0  0  0  0  0  0  0
  150.4339  140.8777  155.2825 H   0  0  0  0  0  0  0  0  0  0  0  0
  147.0095  142.9037  154.1629 H   0  0  0  0  0  0  0  0  0  0  0  0
  146.0692  140.8795  152.9696 H   0  0  0  0  0  0  0  0  0  0  0  0
  147.0702  136.3759  151.7553 H   0  0  0  0  0  0  0  0  0  0  0  0
  144.2996  136.3926  151.2125 H   0  0  0  0  0  0  0  0  0  0  0  0
  144.9748  134.9250  153.8056 H   0  0  0  0  0  0  0  0  0  0  0  0
  144.1750  136.4686  153.7329 H   0  0  0  0  0  0  0  0  0  0  0  0
  142.2627  135.4357  152.5280 H   0  0  0  0  0  0  0  0  0  0  0  0
  143.0629  133.8806  152.5040 H   0  0  0  0  0  0  0  0  0  0  0  0
  142.6161  133.6352  154.5603 H   0  0  0  0  0  0  0  0  0  0  0  0
  146.0646  134.9209  150.1983 H   0  0  0  0  0  0  0  0  0  0  0  0
  143.5807  133.5211  151.2846 H   0  0  0  0  0  0  0  0  0  0  0  0
  143.6620  134.4350  149.8006 H   0  0  0  0  0  0  0  0  0  0  0  0
  143.7960  132.0180  149.3381 H   0  0  0  0  0  0  0  0  0  0  0  0
  145.2406  132.8457  148.8081 H   0  0  0  0  0  0  0  0  0  0  0  0
  144.9331  131.2332  151.3880 H   0  0  0  0  0  0  0  0  0  0  0  0
  145.8602  130.7630  149.9816 H   0  0  0  0  0  0  0  0  0  0  0  0
  147.3273  131.7157  151.7676 H   0  0  0  0  0  0  0  0  0  0  0  0
  147.4091  132.6580  150.2991 H   0  0  0  0  0  0  0  0  0  0  0  0
  147.2342  134.1287  152.2373 H   0  0  0  0  0  0  0  0  0  0  0  0
  145.7789  133.3394  152.7932 H   0  0  0  0  0  0  0  0  0  0  0  0
  149.0716  142.7483  155.2031 H   0  0  0  0  0  0  0  0  0  0  0  0
  1  2  2  0  0  0  0
  2  3  1  0  0  0  0
  2 10  1  0  0  0  0
  3  4  1  0  0  0  0
  3 21  1  0  0  0  0
  4  9  1  0  0  0  0
  4  5  2  0  0  0  0
  5  6  1  0  0  0  0
  5 22  1  0  0  0  0
  6  7  2  0  0  0  0
  6 23  1  0  0  0  0
  7  8  1  0  0  0  0
  7 44  1  0  0  0  0
  8  9  2  0  0  0  0
  8 24  1  0  0  0  0
  9 25  1  0  0  0  0
 10 11  1  0  0  0  0
 10 26  1  0  0  0  0
 11 12  1  0  0  0  0
 11 15  1  0  0  0  0
 11 27  1  0  0  0  0
 12 13  1  0  0  0  0
 12 28  1  0  0  0  0
 12 29  1  0  0  0  0
 13 14  1  0  0  0  0
 13 30  1  0  0  0  0
 13 31  1  0  0  0  0
 14 32  1  0  0  0  0
 15 20  1  0  0  0  0
 15 16  1  0  0  0  0
 15 33  1  0  0  0  0
 16 17  1  0  0  0  0
 16 34  1  0  0  0  0
 16 35  1  0  0  0  0
 17 18  1  0  0  0  0
 17 36  1  0  0  0  0
 17 37  1  0  0  0  0
 18 19  1  0  0  0  0
 18 38  1  0  0  0  0
 18 39  1  0  0  0  0
 19 20  1  0  0  0  0
 19 40  1  0  0  0  0
 19 41  1  0  0  0  0
 20 42  1  0  0  0  0
 20 43  1  0  0  0  0
M  CHG  1   7   1
M  END
> <s_m_source_file>
AV-unprocessed.smi

> <i_m_source_file_index>
2664

> <i_lp_mmshare_version>
43012

> <i_f3d_flags>
0

> <s_epik_input>
W2NIXTFbY0hdbltjSF1bY0hdYzFbTkhdQyg9TylbTkhdW0NASF0oW0NIMl1bQ0gyXVtPSF0pW0NIXTJbQ0gyXVtDSDJdW0NIMl1bQ0gyXVtDSDJdMg==

> <s_epik_cmdline>
J2VwaWtfcHl0aG9uJywgJy1waCcsICc3LjAnLCAnLXRuJywgJzgnLCAnLW1hJywgJzIwMCcsICctbWV0YWxfYmluZGluZycsICctaW1hZScsICc8aW5maWxlLm1hZT4nLCAnLW9tYWUnLCAnPG91dGZpbGUubWFlPic=

> <r_epik_Ionization_Penalty>
1.0085

> <r_epik_Ionization_Penalty_Charging>
1.00848

> <r_epik_Ionization_Penalty_Neutral>
2.14516e-05

> <r_epik_State_Penalty>
1.05769

> <r_epik_Charging_Adjusted_Penalty>
2.06617

> <i_epik_Tot_Q>
1

> <i_epik_Tot_abs_Q>
1

> <r_epik_Metal_State_Penalty>
1.15842

> <b_epik_Metal_Only>
0

> <s_lp_Force_Field>
OPLS_2005

> <r_lp_Energy>
27.8621

> <b_lp_Chiralities_Consistent>
1

> <s_lp_Variant>
AV-unprocessed.smi:2664-3

> <Gold.Version>
5.8.1

> <Gold.Id.Protein>
6NUR|6NUR_protein|mol2

> <Gold.PLP.Fitness>
50.0342

> <Gold.PLP.PLP>
-35.7821

> <Gold.PLP.part.hbond>
-4.9959

> <Gold.PLP.part.metal>
0.0000

> <Gold.PLP.part.buried>
-1.5069

> <Gold.PLP.part.nonpolar>
-33.5723

> <Gold.PLP.part.repulsive>
4.1777

> <Gold.PLP.ligand.clash>
0.0000

> <Gold.PLP.ligand.torsion>
0.4137

> <Gold.PLP.Chemscore.Hbond>
5.0000

> <Gold.PLP.Chemscore.CHOScore>
0.0000

> <Gold.PLP.Chemscore.Metal>
0.0000

> <Gold.Chemscore.Hbonds>
donor molecule, donor type, donor heavy atom, donor atom, acceptor molecule, acceptor atom, score
      L1  H     3    21       P1  7948  1.00
      L1  H     7    44       P1  8028  1.98
      L1  H    10    26       P1  7948  1.00
      L1  H    14    32       P1 10957  1.00

> <Gold.PLP.Chemscore.Internal.Correction>
0.0795

> <Gold.Rescore>
     Score         DG    S(hbond)    S(metal)    S(lipo)     H(rot)  DE(clash)    DE(int)     intcor
     19.69     -23.81       3.95        0.00      93.71       2.27       2.67       1.45       ----

> <Gold.Chemscore.Fitness>
19.6921

> <Gold.Chemscore.DG>
-23.8078

> <Gold.Chemscore.ZeroCoef>
-5.4800

> <Gold.Chemscore.Hbond>
3.9469

> <Gold.Chemscore.Metal>
0.0000

> <Gold.Chemscore.Lipo>
93.7137

> <Gold.Chemscore.Internal_Hbond>
0.0000

> <Gold.Chemscore.DEClash>
2.6652

> <Gold.Chemscore.DEInternal>
1.4506

> <Gold.Chemscore.Rot>
2.2731

> <Gold.Chemscore.Internal.Correction>
   9.000000E+99

> <Gold.Chemscore.Hbonds>
donor molecule, donor type, donor heavy atom, donor atom, acceptor molecule, acceptor atom, score
      L1  H     3    21       P1  7948  0.95
      L1  H     7    44       P1  8028  0.88
      L1  H    10    26       P1  7948  0.98
      L1  H    14    32       P1 10957  1.00

> <Gold.Chemscore.Hbond.Weighted>
-13.1825

> <Gold.Chemscore.Metal.Weighted>
-0.0000

> <Gold.Chemscore.Lipo.Weighted>
-10.9645

> <Gold.Chemscore.Internal_Hbond.Weighted>
0.0000

> <Gold.Chemscore.DEClash.Weighted>
2.6652

> <Gold.Chemscore.DEInternal.Weighted>
1.4506

> <Gold.Chemscore.Rot.Weighted>
5.8192

> <Gold.Chemscore.Internal.Correction.Weighted>
   9.000000E+99

> <Gold.Protein.RotatedTorsions>
[ 6907 6896 6895 6894 ] final   56.58 input  -60.11 | X-H torsion
[ 7974 7965 7964 7962 ] final   70.32 input  175.53 | X-H torsion
[ 8008 7997 7996 7995 ] final -129.21 input   59.86 | X-H torsion
[ 10167 10162 10161 10158 ] final  -90.56 input  -65.29 | X-H torsion
[ 10718 10713 10712 10709 ] final  -99.93 input   66.30 | X-H torsion
[ 10763 10752 10751 10750 ] final   35.39 input  -60.55 | X-H torsion
[ 11005 11000 10999 10996 ] final  146.31 input  -57.11 | X-H torsion

> <Gold.Protein.ActiveResidues>
 VAL166  LYS551  ARG553  GLY616  TRP617  ASP618  TYR619  PRO620  LYS621  CYS622 
 ASP623  PHE694  ASN695  SER759  ASP760  ASP761  ALA762  ILE779  LEU786  VAL792 
 PHE793  MET794  SER795  GLU796  ALA797  LYS798  CYS799  TRP800  GLU811  SER814 

> <Gold.Protein.RotatedAtoms>
  152.3649  134.6818  160.0194 H   0  0  0  0  0  0  0  0  0  0  0  0  # atno 6907 bound_to 6896
  151.7129  133.3307  159.3303 H   0  0  0  0  0  0  0  0  0  0  0  0  # atno 6908 bound_to 6896
  150.7631  134.6450  159.6302 H   0  0  0  0  0  0  0  0  0  0  0  0  # atno 6909 bound_to 6896
  145.7796  139.2881  143.1273 H   0  0  0  0  0  0  0  0  0  0  0  0  # atno 7974 bound_to 7965
  155.2755  140.0442  157.3011 H   0  0  0  0  0  0  0  0  0  0  0  0  # atno 8008 bound_to 7997
  154.5628  140.2351  155.8278 H   0  0  0  0  0  0  0  0  0  0  0  0  # atno 8009 bound_to 7997
  156.2061  140.3012  155.9637 H   0  0  0  0  0  0  0  0  0  0  0  0  # atno 8010 bound_to 7997
  140.3537  143.2878  151.9696 H   0  0  0  0  0  0  0  0  0  0  0  0  # atno 10167 bound_to 10162
  156.0148  130.5304  150.6742 H   0  0  0  0  0  0  0  0  0  0  0  0  # atno 10718 bound_to 10713
  153.0121  135.6334  154.1819 H   0  0  0  0  0  0  0  0  0  0  0  0  # atno 10763 bound_to 10752
  154.1561  135.2826  155.3123 H   0  0  0  0  0  0  0  0  0  0  0  0  # atno 10764 bound_to 10752
  154.6017  135.5585  153.7442 H   0  0  0  0  0  0  0  0  0  0  0  0  # atno 10765 bound_to 10752
  140.0783  134.9112  157.1458 H   0  0  0  0  0  0  0  0  0  0  0  0  # atno 11005 bound_to 11000
  146.0087  140.8455  142.9981 LP  0  0  0  0  0  0  0  0  0  0  0  0  # atno 17320 bound_to 7965
  144.6798  140.2459  143.7338 LP  0  0  0  0  0  0  0  0  0  0  0  0  # atno 17321 bound_to 7965
  139.4823  144.6054  151.7531 LP  0  0  0  0  0  0  0  0  0  0  0  0  # atno 17342 bound_to 10162
  140.5194  144.0902  150.6018 LP  0  0  0  0  0  0  0  0  0  0  0  0  # atno 17343 bound_to 10162
  157.4458  131.0867  151.0897 LP  0  0  0  0  0  0  0  0  0  0  0  0  # atno 17370 bound_to 10713
  157.1427  130.6150  149.5560 LP  0  0  0  0  0  0  0  0  0  0  0  0  # atno 17371 bound_to 10713
  140.3526  134.2582  155.7196 LP  0  0  0  0  0  0  0  0  0  0  0  0  # atno 17394 bound_to 11000
  141.2037  133.7904  157.0324 LP  0  0  0  0  0  0  0  0  0  0  0  0  # atno 17395 bound_to 11000

$$$$
