AV-unprocessed.smi:2829|AV-procd|sdf|10903|dock3
  -GOLD-   2272015353D 1   1.00000     0.00000
 Structure written by MMmdl.
 50 53  0  0  0  0  0  0  0  0  1 V2000
  146.2215  131.8813  152.3494 C   0  0  0  0  0  0  0  0  0  0  0  0
  145.3461  132.4743  151.2222 C   0  0  0  0  0  0  0  0  0  0  0  0
  146.2248  132.5757  149.9577 C   0  0  0  0  0  0  0  0  0  0  0  0
  144.1811  131.4935  150.9743 C   0  0  0  0  0  0  0  0  0  0  0  0
  144.7878  133.8634  151.5805 C   0  0  0  0  0  0  0  0  0  0  0  0
  145.0585  135.0252  150.8228 C   0  0  0  0  0  0  0  0  0  0  0  0
  144.4936  136.2360  151.2572 C   0  0  0  0  0  0  0  0  0  0  0  0
  143.6931  136.2257  152.4165 C   0  0  0  0  0  0  0  0  0  0  0  0
  143.1661  137.4853  152.7996 N   0  0  0  0  0  0  0  0  0  0  0  0
  142.1885  137.7460  153.6893 C   0  0  0  0  0  0  0  0  0  0  0  0
  141.5110  136.8921  154.2577 O   0  0  0  0  0  0  0  0  0  0  0  0
  141.9942  139.0569  153.9173 N   0  0  0  0  0  0  0  0  0  0  0  0
  141.0173  139.6665  154.8206 C   0  0  1  0  0  0  0  0  0  0  0  0
  140.7072  141.1283  154.4455 C   0  0  2  0  0  0  0  0  0  0  0  0
  141.0565  142.2381  155.4000 C   0  0  0  0  0  0  0  0  0  0  0  0
  139.7311  142.4984  156.1211 C   0  0  0  0  0  0  0  0  0  0  0  0
  138.9940  141.2876  155.9671 O   0  0  0  0  0  0  0  0  0  0  0  0
  139.2303  140.8089  154.6465 C   0  0  2  0  0  0  0  0  0  0  0  0
  139.5428  139.3123  154.5260 C   0  0  0  0  0  0  0  0  0  0  0  0
  139.0978  138.5379  153.2704 C   0  0  0  0  0  0  0  0  0  0  0  0
  138.7949  137.3314  154.1625 C   0  0  0  0  0  0  0  0  0  0  0  0
  138.7858  138.2757  155.3685 C   0  0  0  0  0  0  0  0  0  0  0  0
  143.4729  135.0722  153.0954 N   0  0  0  0  0  0  0  0  0  0  0  0
  144.0076  133.9176  152.6876 N   0  0  0  0  0  0  0  0  0  0  0  0
  146.6078  130.8991  152.0741 H   0  0  0  0  0  0  0  0  0  0  0  0
  145.6575  131.7530  153.2742 H   0  0  0  0  0  0  0  0  0  0  0  0
  147.0838  132.5135  152.5648 H   0  0  0  0  0  0  0  0  0  0  0  0
  147.0500  133.2736  150.1044 H   0  0  0  0  0  0  0  0  0  0  0  0
  145.6545  132.9192  149.0941 H   0  0  0  0  0  0  0  0  0  0  0  0
  146.6548  131.6090  149.6935 H   0  0  0  0  0  0  0  0  0  0  0  0
  144.5467  130.4940  150.7365 H   0  0  0  0  0  0  0  0  0  0  0  0
  143.5529  131.8118  150.1415 H   0  0  0  0  0  0  0  0  0  0  0  0
  143.5417  131.4093  151.8539 H   0  0  0  0  0  0  0  0  0  0  0  0
  145.6755  135.0163  149.9378 H   0  0  0  0  0  0  0  0  0  0  0  0
  144.6754  137.1506  150.7116 H   0  0  0  0  0  0  0  0  0  0  0  0
  143.6208  138.2884  152.3914 H   0  0  0  0  0  0  0  0  0  0  0  0
  142.5801  139.6980  153.4018 H   0  0  0  0  0  0  0  0  0  0  0  0
  141.2597  139.5704  155.8812 H   0  0  0  0  0  0  0  0  0  0  0  0
  140.9232  141.3459  153.3976 H   0  0  0  0  0  0  0  0  0  0  0  0
  141.8251  141.9187  156.1047 H   0  0  0  0  0  0  0  0  0  0  0  0
  141.4194  143.1314  154.8910 H   0  0  0  0  0  0  0  0  0  0  0  0
  139.8660  142.7561  157.1716 H   0  0  0  0  0  0  0  0  0  0  0  0
  139.1847  143.3097  155.6377 H   0  0  0  0  0  0  0  0  0  0  0  0
  138.5707  141.2335  153.8885 H   0  0  0  0  0  0  0  0  0  0  0  0
  138.1947  138.9539  152.8217 H   0  0  0  0  0  0  0  0  0  0  0  0
  139.8647  138.3627  152.5163 H   0  0  0  0  0  0  0  0  0  0  0  0
  137.8397  136.8469  153.9590 H   0  0  0  0  0  0  0  0  0  0  0  0
  139.6120  136.6102  154.1924 H   0  0  0  0  0  0  0  0  0  0  0  0
  139.3326  137.9051  156.2358 H   0  0  0  0  0  0  0  0  0  0  0  0
  137.7807  138.6050  155.6367 H   0  0  0  0  0  0  0  0  0  0  0  0
  1  2  1  0  0  0  0
  1 25  1  0  0  0  0
  1 26  1  0  0  0  0
  1 27  1  0  0  0  0
  2  3  1  0  0  0  0
  2  4  1  0  0  0  0
  2  5  1  0  0  0  0
  3 28  1  0  0  0  0
  3 29  1  0  0  0  0
  3 30  1  0  0  0  0
  4 31  1  0  0  0  0
  4 32  1  0  0  0  0
  4 33  1  0  0  0  0
  5 24  1  0  0  0  0
  5  6  2  0  0  0  0
  6  7  1  0  0  0  0
  6 34  1  0  0  0  0
  7  8  2  0  0  0  0
  7 35  1  0  0  0  0
  8  9  1  0  0  0  0
  8 23  1  0  0  0  0
  9 10  1  0  0  0  0
  9 36  1  0  0  0  0
 10 11  2  0  0  0  0
 10 12  1  0  0  0  0
 12 13  1  0  0  0  0
 12 37  1  0  0  0  0
 13 19  1  0  0  0  0
 13 14  1  0  0  0  0
 13 38  1  0  0  0  0
 14 18  1  0  0  0  0
 14 15  1  0  0  0  0
 14 39  1  0  0  0  0
 15 16  1  0  0  0  0
 15 40  1  0  0  0  0
 15 41  1  0  0  0  0
 16 17  1  0  0  0  0
 16 42  1  0  0  0  0
 16 43  1  0  0  0  0
 17 18  1  0  0  0  0
 18 19  1  0  0  0  0
 18 44  1  0  0  0  0
 19 22  1  0  0  0  0
 19 20  1  0  0  0  0
 20 21  1  0  0  0  0
 20 45  1  0  0  0  0
 20 46  1  0  0  0  0
 21 22  1  0  0  0  0
 21 47  1  0  0  0  0
 21 48  1  0  0  0  0
 22 49  1  0  0  0  0
 22 50  1  0  0  0  0
 23 24  2  0  0  0  0
M  END
> <s_m_source_file>
AV-unprocessed.smi

> <i_m_source_file_index>
2829

> <i_lp_mmshare_version>
43012

> <i_f3d_flags>
0

> <s_epik_input>
W0NIM11DKFtDSDNdKShbQ0gzXSljMVtjSF1bY0hdYyhubjEpW05IXUMoPU8pW05IXVtDQEBIXTJbQ0BIXShbQ0gyXVtDSDJdTzMpW0NAQEhdM0MyNFtDSDJdW0NIMl1bQ0gyXTQ=

> <s_epik_cmdline>
J2VwaWtfcHl0aG9uJywgJy1waCcsICc3LjAnLCAnLXRuJywgJzgnLCAnLW1hJywgJzIwMCcsICctbWV0YWxfYmluZGluZycsICctaW1hZScsICc8aW5maWxlLm1hZT4nLCAnLW9tYWUnLCAnPG91dGZpbGUubWFlPic=

> <r_lp_tautomer_probability>
1

> <r_epik_Ionization_Penalty>
0.011915

> <r_epik_Ionization_Penalty_Charging>
0

> <r_epik_Ionization_Penalty_Neutral>
0.011915

> <r_epik_State_Penalty>
0.00486223

> <r_epik_Charging_Adjusted_Penalty>
0.00486223

> <i_epik_Tot_Q>
0

> <i_epik_Tot_abs_Q>
0

> <r_epik_Metal_State_Penalty>
-0

> <b_epik_Metal_Only>
0

> <s_lp_Force_Field>
OPLS_2005

> <r_lp_Energy>
59.5844

> <b_lp_Chiralities_Consistent>
1

> <s_lp_Variant>
AV-unprocessed.smi:2829-6

> <Gold.Version>
5.8.1

> <Gold.Id.Protein>
6NUR|6NUR_protein|mol2

> <Gold.PLP.Fitness>
40.9679

> <Gold.PLP.PLP>
-36.3018

> <Gold.PLP.part.hbond>
-2.6774

> <Gold.PLP.part.metal>
0.0000

> <Gold.PLP.part.buried>
-1.0390

> <Gold.PLP.part.nonpolar>
-32.7534

> <Gold.PLP.part.repulsive>
0.3925

> <Gold.PLP.ligand.clash>
0.0000

> <Gold.PLP.ligand.torsion>
0.1987

> <Gold.PLP.Chemscore.Hbond>
1.6219

> <Gold.PLP.Chemscore.CHOScore>
0.0000

> <Gold.PLP.Chemscore.Metal>
0.0000

> <Gold.Chemscore.Hbonds>
donor molecule, donor type, donor heavy atom, donor atom, acceptor molecule, acceptor atom, score
      L1  H     9    36       P1 10175  0.59
      L1  H    12    37       P1 10175  1.00

> <Gold.PLP.Chemscore.Internal.Correction>
0.1977

> <Gold.Rescore>
     Score         DG    S(hbond)    S(metal)    S(lipo)     H(rot)  DE(clash)    DE(int)     intcor
     14.29     -19.31       1.57        0.00      98.66       1.16       2.29       2.73       ----

> <Gold.Chemscore.Fitness>
14.2923

> <Gold.Chemscore.DG>
-19.3078

> <Gold.Chemscore.ZeroCoef>
-5.4800

> <Gold.Chemscore.Hbond>
1.5744

> <Gold.Chemscore.Metal>
0.0000

> <Gold.Chemscore.Lipo>
98.6621

> <Gold.Chemscore.Internal_Hbond>
0.0000

> <Gold.Chemscore.DEClash>
2.2870

> <Gold.Chemscore.DEInternal>
2.7284

> <Gold.Chemscore.Rot>
1.1618

> <Gold.Chemscore.Internal.Correction>
   9.000000E+99

> <Gold.Chemscore.Hbonds>
donor molecule, donor type, donor heavy atom, donor atom, acceptor molecule, acceptor atom, score
      L1  H     9    36       P1 10175  0.59
      L1  H    12    37       P1 10175  0.96

> <Gold.Chemscore.Hbond.Weighted>
-5.2584

> <Gold.Chemscore.Metal.Weighted>
-0.0000

> <Gold.Chemscore.Lipo.Weighted>
-11.5435

> <Gold.Chemscore.Internal_Hbond.Weighted>
0.0000

> <Gold.Chemscore.DEClash.Weighted>
2.2870

> <Gold.Chemscore.DEInternal.Weighted>
2.7284

> <Gold.Chemscore.Rot.Weighted>
2.9741

> <Gold.Chemscore.Internal.Correction.Weighted>
   9.000000E+99

> <Gold.Protein.RotatedTorsions>
[ 6907 6896 6895 6894 ] final  -53.72 input  -60.11 | X-H torsion
[ 7974 7965 7964 7962 ] final   48.09 input  175.53 | X-H torsion
[ 8008 7997 7996 7995 ] final  132.01 input   59.86 | X-H torsion
[ 10167 10162 10161 10158 ] final  160.16 input  -65.29 | X-H torsion
[ 10718 10713 10712 10709 ] final  -40.53 input   66.30 | X-H torsion
[ 10763 10752 10751 10750 ] final -132.31 input  -60.55 | X-H torsion
[ 11005 11000 10999 10996 ] final   -4.54 input  -57.11 | X-H torsion

> <Gold.Protein.ActiveResidues>
 VAL166  LYS551  ARG553  GLY616  TRP617  ASP618  TYR619  PRO620  LYS621  CYS622 
 ASP623  PHE694  ASN695  SER759  ASP760  ASP761  ALA762  ILE779  LEU786  VAL792 
 PHE793  MET794  SER795  GLU796  ALA797  LYS798  CYS799  TRP800  GLU811  SER814 

> <Gold.Protein.RotatedAtoms>
  150.8401  134.7690  159.6925 H   0  0  0  0  0  0  0  0  0  0  0  0  # atno 6907 bound_to 6896
  152.4490  134.5430  159.9854 H   0  0  0  0  0  0  0  0  0  0  0  0  # atno 6908 bound_to 6896
  151.5572  133.3371  159.3000 H   0  0  0  0  0  0  0  0  0  0  0  0  # atno 6909 bound_to 6896
  146.0237  139.4681  142.9881 H   0  0  0  0  0  0  0  0  0  0  0  0  # atno 7974 bound_to 7965
  156.2977  140.2557  156.3019 H   0  0  0  0  0  0  0  0  0  0  0  0  # atno 8008 bound_to 7997
  154.9409  140.0396  157.2115 H   0  0  0  0  0  0  0  0  0  0  0  0  # atno 8009 bound_to 7997
  154.8127  140.2847  155.5846 H   0  0  0  0  0  0  0  0  0  0  0  0  # atno 8010 bound_to 7997
  139.4838  144.4661  151.8640 H   0  0  0  0  0  0  0  0  0  0  0  0  # atno 10167 bound_to 10162
  156.2803  130.4216  149.8343 H   0  0  0  0  0  0  0  0  0  0  0  0  # atno 10718 bound_to 10713
  154.8744  135.3802  154.4389 H   0  0  0  0  0  0  0  0  0  0  0  0  # atno 10763 bound_to 10752
  153.5076  135.7030  153.5803 H   0  0  0  0  0  0  0  0  0  0  0  0  # atno 10764 bound_to 10752
  153.4107  135.3925  155.2014 H   0  0  0  0  0  0  0  0  0  0  0  0  # atno 10765 bound_to 10752
  140.6814  133.9150  155.8557 H   0  0  0  0  0  0  0  0  0  0  0  0  # atno 11005 bound_to 11000
  145.7152  141.0093  143.1432 LP  0  0  0  0  0  0  0  0  0  0  0  0  # atno 17320 bound_to 7965
  144.7000  139.8804  143.7447 LP  0  0  0  0  0  0  0  0  0  0  0  0  # atno 17321 bound_to 7965
  140.4126  144.2349  150.5888 LP  0  0  0  0  0  0  0  0  0  0  0  0  # atno 17342 bound_to 10162
  140.4951  143.2335  151.8761 LP  0  0  0  0  0  0  0  0  0  0  0  0  # atno 17343 bound_to 10162
  156.5793  130.8459  151.3378 LP  0  0  0  0  0  0  0  0  0  0  0  0  # atno 17370 bound_to 10713
  157.7312  130.9697  150.1870 LP  0  0  0  0  0  0  0  0  0  0  0  0  # atno 17371 bound_to 10713
  141.0314  134.0750  157.4009 LP  0  0  0  0  0  0  0  0  0  0  0  0  # atno 17394 bound_to 11000
  139.8951  135.0139  156.6983 LP  0  0  0  0  0  0  0  0  0  0  0  0  # atno 17395 bound_to 11000

$$$$
