AV-unprocessed.smi:139|AV-procd|sdf|1182|dock5
  -GOLD-   2262018333D 1   1.00000     0.00000
 Structure written by MMmdl.
 50 53  0  0  0  0  0  0  0  0  1 V2000
  150.6133  137.6654  157.6935 O   0  0  0  0  0  0  0  0  0  0  0  0
  150.1212  138.4574  158.4981 C   0  0  0  0  0  0  0  0  0  0  0  0
  148.7243  138.2087  159.0840 C   0  0  0  0  0  0  0  0  0  0  0  0
  148.4245  136.7676  159.2278 N   0  0  0  0  0  0  0  0  0  0  0  0
  148.3776  135.9528  158.0691 C   0  0  0  0  0  0  0  0  0  0  0  0
  148.5674  136.4239  156.9470 O   0  0  0  0  0  0  0  0  0  0  0  0
  148.0971  134.5405  158.3038 C   0  0  0  0  0  0  0  0  0  0  0  0
  148.0123  133.6966  157.2614 F   0  0  0  0  0  0  0  0  0  0  0  0
  147.9191  134.0661  159.5539 C   0  0  0  0  0  0  0  0  0  0  0  0
  147.9916  134.8693  160.6766 N   0  0  0  0  0  0  0  0  0  0  0  0
  147.7943  134.2939  162.0598 C   0  0  1  0  0  0  0  0  0  0  0  0
  146.5518  134.9056  162.7181 C   0  0  0  0  0  0  0  0  0  0  0  0
  145.5090  133.8325  162.4880 C   0  0  0  0  0  0  0  0  0  0  0  0
  146.3516  132.5652  162.5622 C   0  0  0  0  0  0  0  0  0  0  0  0
  147.5877  132.9150  161.9494 O   0  0  0  0  0  0  0  0  0  0  0  0
  148.2333  136.2520  160.5325 C   0  0  0  0  0  0  0  0  0  0  0  0
  148.2759  136.9919  161.5182 O   0  0  0  0  0  0  0  0  0  0  0  0
  150.7466  139.5680  158.9158 N   0  0  0  0  0  0  0  0  0  0  0  0
  152.0950  139.9798  158.5343 C   0  0  2  0  0  0  0  0  0  0  0  0
  153.1308  138.9559  159.0409 C   0  0  0  0  0  0  0  0  0  0  0  0
  153.4856  139.1806  160.5137 C   0  0  0  0  0  0  0  0  0  0  0  0
  154.0787  140.5776  160.7313 C   0  0  0  0  0  0  0  0  0  0  0  0
  153.2897  141.6842  160.0474 C   0  0  0  0  0  0  0  0  0  0  0  0
  153.4992  143.0184  160.4555 C   0  0  0  0  0  0  0  0  0  0  0  0
  152.7966  144.0714  159.8402 C   0  0  0  0  0  0  0  0  0  0  0  0
  151.8782  143.7957  158.8109 C   0  0  0  0  0  0  0  0  0  0  0  0
  151.6653  142.4677  158.3969 C   0  0  0  0  0  0  0  0  0  0  0  0
  152.3684  141.4048  159.0048 C   0  0  0  0  0  0  0  0  0  0  0  0
  148.6341  138.7086  160.0504 H   0  0  0  0  0  0  0  0  0  0  0  0
  147.9970  138.7191  158.4514 H   0  0  0  0  0  0  0  0  0  0  0  0
  147.7105  133.0130  159.6700 H   0  0  0  0  0  0  0  0  0  0  0  0
  148.7177  134.4752  162.6119 H   0  0  0  0  0  0  0  0  0  0  0  0
  146.7481  135.0264  163.7841 H   0  0  0  0  0  0  0  0  0  0  0  0
  146.2918  135.8766  162.2946 H   0  0  0  0  0  0  0  0  0  0  0  0
  144.7031  133.8530  163.2219 H   0  0  0  0  0  0  0  0  0  0  0  0
  145.0705  133.9380  161.4951 H   0  0  0  0  0  0  0  0  0  0  0  0
  146.5376  132.2922  163.6020 H   0  0  0  0  0  0  0  0  0  0  0  0
  145.8834  131.7162  162.0637 H   0  0  0  0  0  0  0  0  0  0  0  0
  150.2615  140.1647  159.5701 H   0  0  0  0  0  0  0  0  0  0  0  0
  152.1522  139.9987  157.4441 H   0  0  0  0  0  0  0  0  0  0  0  0
  152.7844  137.9345  158.8770 H   0  0  0  0  0  0  0  0  0  0  0  0
  154.0438  139.0586  158.4532 H   0  0  0  0  0  0  0  0  0  0  0  0
  152.5843  139.0683  161.1174 H   0  0  0  0  0  0  0  0  0  0  0  0
  154.1855  138.4198  160.8603 H   0  0  0  0  0  0  0  0  0  0  0  0
  154.1504  140.7848  161.7998 H   0  0  0  0  0  0  0  0  0  0  0  0
  155.0960  140.6056  160.3391 H   0  0  0  0  0  0  0  0  0  0  0  0
  154.2041  143.2384  161.2440 H   0  0  0  0  0  0  0  0  0  0  0  0
  152.9629  145.0901  160.1580 H   0  0  0  0  0  0  0  0  0  0  0  0
  151.3372  144.6022  158.3386 H   0  0  0  0  0  0  0  0  0  0  0  0
  150.9568  142.2634  157.6073 H   0  0  0  0  0  0  0  0  0  0  0  0
  1  2  2  0  0  0  0
  2  3  1  0  0  0  0
  2 18  1  0  0  0  0
  3  4  1  0  0  0  0
  3 29  1  0  0  0  0
  3 30  1  0  0  0  0
  4 16  1  0  0  0  0
  4  5  1  0  0  0  0
  5  6  2  0  0  0  0
  5  7  1  0  0  0  0
  7  8  1  0  0  0  0
  7  9  2  0  0  0  0
  9 10  1  0  0  0  0
  9 31  1  0  0  0  0
 10 11  1  0  0  0  0
 10 16  1  0  0  0  0
 11 15  1  0  0  0  0
 11 12  1  0  0  0  0
 11 32  1  0  0  0  0
 12 13  1  0  0  0  0
 12 33  1  0  0  0  0
 12 34  1  0  0  0  0
 13 14  1  0  0  0  0
 13 35  1  0  0  0  0
 13 36  1  0  0  0  0
 14 15  1  0  0  0  0
 14 37  1  0  0  0  0
 14 38  1  0  0  0  0
 16 17  2  0  0  0  0
 18 19  1  0  0  0  0
 18 39  1  0  0  0  0
 19 28  1  0  0  0  0
 19 20  1  0  0  0  0
 19 40  1  0  0  0  0
 20 21  1  0  0  0  0
 20 41  1  0  0  0  0
 20 42  1  0  0  0  0
 21 22  1  0  0  0  0
 21 43  1  0  0  0  0
 21 44  1  0  0  0  0
 22 23  1  0  0  0  0
 22 45  1  0  0  0  0
 22 46  1  0  0  0  0
 23 28  2  0  0  0  0
 23 24  1  0  0  0  0
 24 25  2  0  0  0  0
 24 47  1  0  0  0  0
 25 26  1  0  0  0  0
 25 48  1  0  0  0  0
 26 27  2  0  0  0  0
 26 49  1  0  0  0  0
 27 28  1  0  0  0  0
 27 50  1  0  0  0  0
M  END
> <s_m_source_file>
AV-unprocessed.smi

> <i_m_source_file_index>
139

> <i_lp_mmshare_version>
43012

> <i_f3d_flags>
0

> <s_epik_input>
W2NIXTFbY0hdW2NIXVtjSF1jKGMxMilbQ0BASF0oW0NIMl1bQ0gyXVtDSDJdMilbTkhdQyg9TylbQ0gyXW4zYyg9TyljKEYpW2NIXW4oYzM9TylbQ0BASF00W0NIMl1bQ0gyXVtDSDJdTzQ=

> <s_epik_cmdline>
J2VwaWtfcHl0aG9uJywgJy1waCcsICc3LjAnLCAnLXRuJywgJzgnLCAnLW1hJywgJzIwMCcsICctbWV0YWxfYmluZGluZycsICctaW1hZScsICc8aW5maWxlLm1hZT4nLCAnLW9tYWUnLCAnPG91dGZpbGUubWFlPic=

> <r_lp_tautomer_probability>
1

> <r_epik_Ionization_Penalty>
3.261e-08

> <r_epik_Ionization_Penalty_Charging>
3.6725e-09

> <r_epik_Ionization_Penalty_Neutral>
2.89375e-08

> <r_epik_State_Penalty>
-0

> <r_epik_Charging_Adjusted_Penalty>
3.6725e-09

> <i_epik_Tot_Q>
0

> <i_epik_Tot_abs_Q>
0

> <r_epik_Metal_State_Penalty>
-0

> <b_epik_Metal_Only>
0

> <s_epik_Chemistry_Notes>
This compound contains an acetal/aminal-like group ( X-CH(R)-Y where X, Y are N, S, or O) that may be acid/base labile, releasing an aldehyde.

> <s_lp_Force_Field>
OPLS_2005

> <r_lp_Energy>
30.9445

> <b_lp_Chiralities_Consistent>
1

> <s_lp_Variant>
AV-unprocessed.smi:139-2

> <Gold.Version>
5.8.1

> <Gold.Id.Protein>
6NUR|6NUR_protein|mol2

> <Gold.PLP.Fitness>
51.6197

> <Gold.PLP.PLP>
-47.4867

> <Gold.PLP.part.hbond>
-2.0000

> <Gold.PLP.part.metal>
0.0000

> <Gold.PLP.part.buried>
-5.3116

> <Gold.PLP.part.nonpolar>
-41.4737

> <Gold.PLP.part.repulsive>
0.1690

> <Gold.PLP.ligand.clash>
0.0000

> <Gold.PLP.ligand.torsion>
0.4480

> <Gold.PLP.Chemscore.Hbond>
1.6640

> <Gold.PLP.Chemscore.CHOScore>
0.0000

> <Gold.PLP.Chemscore.Metal>
0.0000

> <Gold.Chemscore.Hbonds>
donor molecule, donor type, donor heavy atom, donor atom, acceptor molecule, acceptor atom, score
      P1  H  6931  6943       L1    17  0.96
      P1  H  6934  6947       L1    17  0.08

> <Gold.PLP.Chemscore.Internal.Correction>
0.0371

> <Gold.Rescore>
     Score         DG    S(hbond)    S(metal)    S(lipo)     H(rot)  DE(clash)    DE(int)     intcor
     16.14     -19.68       1.69        0.00     112.83       1.82       0.07       3.47       ----

> <Gold.Chemscore.Fitness>
16.1403

> <Gold.Chemscore.DG>
-19.6774

> <Gold.Chemscore.ZeroCoef>
-5.4800

> <Gold.Chemscore.Hbond>
1.6913

> <Gold.Chemscore.Metal>
0.0000

> <Gold.Chemscore.Lipo>
112.8278

> <Gold.Chemscore.Internal_Hbond>
0.0000

> <Gold.Chemscore.DEClash>
0.0665

> <Gold.Chemscore.DEInternal>
3.4706

> <Gold.Chemscore.Rot>
1.8174

> <Gold.Chemscore.Internal.Correction>
   9.000000E+99

> <Gold.Chemscore.Hbonds>
donor molecule, donor type, donor heavy atom, donor atom, acceptor molecule, acceptor atom, score
      P1  H  6931  6943       L1    17  0.91
      P1  H  6934  6947       L1    17  0.07

> <Gold.Chemscore.Hbond.Weighted>
-5.6490

> <Gold.Chemscore.Metal.Weighted>
-0.0000

> <Gold.Chemscore.Lipo.Weighted>
-13.2009

> <Gold.Chemscore.Internal_Hbond.Weighted>
0.0000

> <Gold.Chemscore.DEClash.Weighted>
0.0665

> <Gold.Chemscore.DEInternal.Weighted>
3.4706

> <Gold.Chemscore.Rot.Weighted>
4.6524

> <Gold.Chemscore.Internal.Correction.Weighted>
   9.000000E+99

> <Gold.Protein.RotatedTorsions>
[ 6907 6896 6895 6894 ] final  -38.96 input  -60.11 | X-H torsion
[ 7974 7965 7964 7962 ] final   96.81 input  175.53 | X-H torsion
[ 8008 7997 7996 7995 ] final  -86.01 input   59.86 | X-H torsion
[ 10167 10162 10161 10158 ] final  -66.53 input  -65.29 | X-H torsion
[ 10718 10713 10712 10709 ] final   15.69 input   66.30 | X-H torsion
[ 10763 10752 10751 10750 ] final  137.80 input  -60.55 | X-H torsion
[ 11005 11000 10999 10996 ] final  -97.19 input  -57.11 | X-H torsion

> <Gold.Protein.ActiveResidues>
 VAL166  LYS551  ARG553  GLY616  TRP617  ASP618  TYR619  PRO620  LYS621  CYS622 
 ASP623  PHE694  ASN695  SER759  ASP760  ASP761  ALA762  ILE779  LEU786  VAL792 
 PHE793  MET794  SER795  GLU796  ALA797  LYS798  CYS799  TRP800  GLU811  SER814 

> <Gold.Protein.RotatedAtoms>
  150.9960  134.9284  159.7926 H   0  0  0  0  0  0  0  0  0  0  0  0  # atno 6907 bound_to 6896
  152.5265  134.3217  159.9161 H   0  0  0  0  0  0  0  0  0  0  0  0  # atno 6908 bound_to 6896
  151.3223  133.3993  159.2690 H   0  0  0  0  0  0  0  0  0  0  0  0  # atno 6909 bound_to 6896
  145.4339  139.2308  143.3129 H   0  0  0  0  0  0  0  0  0  0  0  0  # atno 7974 bound_to 7965
  154.6471  140.0584  156.9912 H   0  0  0  0  0  0  0  0  0  0  0  0  # atno 8008 bound_to 7997
  155.1428  140.3267  155.4430 H   0  0  0  0  0  0  0  0  0  0  0  0  # atno 8009 bound_to 7997
  156.2558  140.1961  156.6543 H   0  0  0  0  0  0  0  0  0  0  0  0  # atno 8010 bound_to 7997
  140.5650  143.2314  151.6653 H   0  0  0  0  0  0  0  0  0  0  0  0  # atno 10167 bound_to 10162
  157.0571  130.6293  149.5779 H   0  0  0  0  0  0  0  0  0  0  0  0  # atno 10718 bound_to 10713
  153.8790  135.3046  155.3444 H   0  0  0  0  0  0  0  0  0  0  0  0  # atno 10763 bound_to 10752
  154.7770  135.4856  153.9768 H   0  0  0  0  0  0  0  0  0  0  0  0  # atno 10764 bound_to 10752
  153.1362  135.6814  153.9196 H   0  0  0  0  0  0  0  0  0  0  0  0  # atno 10765 bound_to 10752
  141.1387  133.8153  157.0673 H   0  0  0  0  0  0  0  0  0  0  0  0  # atno 11005 bound_to 11000
  146.2592  140.5079  142.8860 LP  0  0  0  0  0  0  0  0  0  0  0  0  # atno 17320 bound_to 7965
  144.8165  140.6477  143.6381 LP  0  0  0  0  0  0  0  0  0  0  0  0  # atno 17321 bound_to 7965
  139.5088  144.3597  152.0574 LP  0  0  0  0  0  0  0  0  0  0  0  0  # atno 17342 bound_to 10162
  140.2728  144.3945  150.6145 LP  0  0  0  0  0  0  0  0  0  0  0  0  # atno 17343 bound_to 10162
  155.9990  130.5065  150.7590 LP  0  0  0  0  0  0  0  0  0  0  0  0  # atno 17370 bound_to 10713
  157.4984  131.0916  151.0343 LP  0  0  0  0  0  0  0  0  0  0  0  0  # atno 17371 bound_to 10713
  140.0533  134.9794  157.1176 LP  0  0  0  0  0  0  0  0  0  0  0  0  # atno 17394 bound_to 11000
  140.3957  134.2137  155.7165 LP  0  0  0  0  0  0  0  0  0  0  0  0  # atno 17395 bound_to 11000

$$$$
