AV-unprocessed.smi:89|AV-procd|sdf|825|dock8
  -GOLD-   2262017233D 1   1.00000     0.00000
 Structure written by MMmdl.
 54 56  0  0  0  0  0  0  0  0  1 V2000
  150.5206  132.1615  156.5353 C   0  0  0  0  0  0  0  0  0  0  0  0
  150.1609  133.6237  156.8453 C   0  0  0  0  0  0  0  0  0  0  0  0
  148.7824  133.7968  157.3122 N   0  0  0  0  0  0  0  0  0  0  0  0
  147.7833  133.2795  156.5573 C   0  0  0  0  0  0  0  0  0  0  0  0
  146.5599  133.1793  157.1357 N   0  0  0  0  0  0  0  0  0  0  0  0
  145.5314  132.6756  156.4484 C   0  0  0  0  0  0  0  0  0  0  0  0
  145.5072  132.2293  155.1912 N   0  0  0  0  0  0  0  0  0  0  0  0
  146.7308  132.3443  154.5995 C   0  0  0  0  0  0  0  0  0  0  0  0
  147.9160  132.8498  155.2057 C   0  0  0  0  0  0  0  0  0  0  0  0
  148.9644  132.8114  154.2940 N   0  0  0  0  0  0  0  0  0  0  0  0
  148.4327  132.3040  153.2162 C   0  0  0  0  0  0  0  0  0  0  0  0
  147.0912  132.0095  153.3055 N   0  0  0  0  0  0  0  0  0  0  0  0
  146.2517  131.4457  152.2587 C   0  0  0  0  0  0  0  0  0  0  0  0
  146.1125  132.3426  151.0013 C   0  0  1  0  0  0  0  0  0  0  0  0
  147.3866  132.5212  150.4114 O   0  0  0  0  0  0  0  0  0  0  0  0
  145.1453  131.8019  149.9449 C   0  0  0  0  0  0  0  0  0  0  0  0
  143.8731  132.5952  150.2053 C   0  0  0  0  0  0  0  0  0  0  0  0
  144.3780  133.8832  150.5074 O   0  0  0  0  0  0  0  0  0  0  0  0
  145.5107  133.7191  151.3518 C   0  0  0  0  0  0  0  0  0  0  0  0
  148.4016  135.0046  158.0535 C   0  0  2  0  0  0  0  0  0  0  0  0
  149.4993  136.0809  157.9906 C   0  0  0  0  0  0  0  0  0  0  0  0
  147.9869  134.6949  159.5052 C   0  0  0  0  0  0  0  0  0  0  0  0
  147.8967  136.2299  160.5312 S   0  0  0  0  0  0  0  0  0  0  0  0
  149.2509  136.7934  160.6397 O   0  0  0  0  0  0  0  0  0  0  0  0
  146.8003  137.0643  160.0158 O   0  0  0  0  0  0  0  0  0  0  0  0
  147.4045  135.5729  162.1840 C   0  0  0  0  0  0  0  0  0  0  0  0
  147.0453  134.0834  162.1285 C   0  0  0  0  0  0  0  0  0  0  0  0
  151.5716  132.0756  156.2600 H   0  0  0  0  0  0  0  0  0  0  0  0
  149.9341  131.7614  155.7084 H   0  0  0  0  0  0  0  0  0  0  0  0
  150.3528  131.5257  157.4051 H   0  0  0  0  0  0  0  0  0  0  0  0
  150.8450  133.9870  157.6105 H   0  0  0  0  0  0  0  0  0  0  0  0
  150.3386  134.2474  155.9700 H   0  0  0  0  0  0  0  0  0  0  0  0
  144.5936  132.6245  156.9818 H   0  0  0  0  0  0  0  0  0  0  0  0
  149.0072  132.1380  152.3164 H   0  0  0  0  0  0  0  0  0  0  0  0
  146.6664  130.4756  151.9818 H   0  0  0  0  0  0  0  0  0  0  0  0
  145.2681  131.2441  152.6856 H   0  0  0  0  0  0  0  0  0  0  0  0
  147.7298  131.6732  150.1752 H   0  0  0  0  0  0  0  0  0  0  0  0
  145.5012  132.0357  148.9398 H   0  0  0  0  0  0  0  0  0  0  0  0
  144.9818  130.7264  149.9860 H   0  0  0  0  0  0  0  0  0  0  0  0
  143.2029  132.6146  149.3456 H   0  0  0  0  0  0  0  0  0  0  0  0
  143.3289  132.1979  151.0635 H   0  0  0  0  0  0  0  0  0  0  0  0
  145.1733  133.7510  152.3889 H   0  0  0  0  0  0  0  0  0  0  0  0
  146.2096  134.5449  151.2124 H   0  0  0  0  0  0  0  0  0  0  0  0
  147.5240  135.4402  157.5730 H   0  0  0  0  0  0  0  0  0  0  0  0
  149.1695  137.0020  158.4715 H   0  0  0  0  0  0  0  0  0  0  0  0
  149.7549  136.3249  156.9592 H   0  0  0  0  0  0  0  0  0  0  0  0
  150.4108  135.7557  158.4927 H   0  0  0  0  0  0  0  0  0  0  0  0
  147.0293  134.1795  159.5547 H   0  0  0  0  0  0  0  0  0  0  0  0
  148.7265  134.0413  159.9676 H   0  0  0  0  0  0  0  0  0  0  0  0
  148.2210  135.7533  162.8829 H   0  0  0  0  0  0  0  0  0  0  0  0
  146.5467  136.1514  162.5270 H   0  0  0  0  0  0  0  0  0  0  0  0
  146.7262  133.7283  163.1086 H   0  0  0  0  0  0  0  0  0  0  0  0
  147.8966  133.4772  161.8212 H   0  0  0  0  0  0  0  0  0  0  0  0
  146.2303  133.8991  161.4286 H   0  0  0  0  0  0  0  0  0  0  0  0
  1  2  1  0  0  0  0
  1 28  1  0  0  0  0
  1 29  1  0  0  0  0
  1 30  1  0  0  0  0
  2  3  1  0  0  0  0
  2 31  1  0  0  0  0
  2 32  1  0  0  0  0
  3  4  1  0  0  0  0
  3 20  1  0  0  0  0
  4  9  1  0  0  0  0
  4  5  2  0  0  0  0
  5  6  1  0  0  0  0
  6  7  2  0  0  0  0
  6 33  1  0  0  0  0
  7  8  1  0  0  0  0
  8 12  1  0  0  0  0
  8  9  2  0  0  0  0
  9 10  1  0  0  0  0
 10 11  2  0  0  0  0
 11 12  1  0  0  0  0
 11 34  1  0  0  0  0
 12 13  1  0  0  0  0
 13 14  1  0  0  0  0
 13 35  1  0  0  0  0
 13 36  1  0  0  0  0
 14 19  1  0  0  0  0
 14 15  1  0  0  0  0
 14 16  1  0  0  0  0
 15 37  1  0  0  0  0
 16 17  1  0  0  0  0
 16 38  1  0  0  0  0
 16 39  1  0  0  0  0
 17 18  1  0  0  0  0
 17 40  1  0  0  0  0
 17 41  1  0  0  0  0
 18 19  1  0  0  0  0
 19 42  1  0  0  0  0
 19 43  1  0  0  0  0
 20 21  1  0  0  0  0
 20 22  1  0  0  0  0
 20 44  1  0  0  0  0
 21 45  1  0  0  0  0
 21 46  1  0  0  0  0
 21 47  1  0  0  0  0
 22 23  1  0  0  0  0
 22 48  1  0  0  0  0
 22 49  1  0  0  0  0
 23 24  2  0  0  0  0
 23 25  2  0  0  0  0
 23 26  1  0  0  0  0
 26 27  1  0  0  0  0
 26 50  1  0  0  0  0
 26 51  1  0  0  0  0
 27 52  1  0  0  0  0
 27 53  1  0  0  0  0
 27 54  1  0  0  0  0
M  END
> <s_m_source_file>
AV-unprocessed.smi

> <i_m_source_file_index>
89

> <i_lp_mmshare_version>
43012

> <i_f3d_flags>
0

> <s_epik_input>
W0NIM11bQ0gyXVMoPU8pKD1PKVtDSDJdW0NAQEhdKFtDSDNdKU4oW0NIMl1bQ0gzXSljKG5bY0hdbjEpYyhjMTIpbltjSF1uMltDSDJdW0NAQF0zKFtPSF0pW0NIMl1bQ0gyXU9bQ0gyXTM=

> <s_epik_cmdline>
J2VwaWtfcHl0aG9uJywgJy1waCcsICc3LjAnLCAnLXRuJywgJzgnLCAnLW1hJywgJzIwMCcsICctbWV0YWxfYmluZGluZycsICctaW1hZScsICc8aW5maWxlLm1hZT4nLCAnLW9tYWUnLCAnPG91dGZpbGUubWFlPic=

> <r_lp_tautomer_probability>
1

> <r_epik_Ionization_Penalty>
0.00103773

> <r_epik_Ionization_Penalty_Charging>
0

> <r_epik_Ionization_Penalty_Neutral>
0.00103773

> <r_epik_State_Penalty>
0.000558914

> <r_epik_Charging_Adjusted_Penalty>
0.000558914

> <i_epik_Tot_Q>
0

> <i_epik_Tot_abs_Q>
0

> <r_epik_Metal_State_Penalty>
-0

> <b_epik_Metal_Only>
0

> <s_lp_Force_Field>
OPLS_2005

> <r_lp_Energy>
26.0666

> <b_lp_Chiralities_Consistent>
1

> <s_lp_Variant>
AV-unprocessed.smi:89-1

> <Gold.Version>
5.8.1

> <Gold.Id.Protein>
6NUR|6NUR_protein|mol2

> <Gold.PLP.Fitness>
47.2092

> <Gold.PLP.PLP>
-37.5202

> <Gold.PLP.part.hbond>
-2.7539

> <Gold.PLP.part.metal>
0.0000

> <Gold.PLP.part.buried>
-5.6773

> <Gold.PLP.part.nonpolar>
-30.8797

> <Gold.PLP.part.repulsive>
0.4403

> <Gold.PLP.ligand.clash>
0.0000

> <Gold.PLP.ligand.torsion>
1.2474

> <Gold.PLP.Chemscore.Hbond>
2.5513

> <Gold.PLP.Chemscore.CHOScore>
1.0000

> <Gold.PLP.Chemscore.Metal>
0.0000

> <Gold.Chemscore.Hbonds>
donor molecule, donor type, donor heavy atom, donor atom, acceptor molecule, acceptor atom, score
      L1  H    15    37       P1 10747  0.73
      P1  H  6931  6943       L1    24  0.74
      P1  H  6934  6947       L1    25  0.60
      L1  C    11    34       P1 10747  1.00

> <Gold.PLP.Chemscore.Internal.Correction>
1.5301

> <Gold.Rescore>
     Score         DG    S(hbond)    S(metal)    S(lipo)     H(rot)  DE(clash)    DE(int)     intcor
      5.33     -13.20       1.96        0.00      78.57       3.14       0.53       7.33       ----

> <Gold.Chemscore.Fitness>
5.3273

> <Gold.Chemscore.DG>
-13.1956

> <Gold.Chemscore.ZeroCoef>
-5.4800

> <Gold.Chemscore.Hbond>
1.9635

> <Gold.Chemscore.Metal>
0.0000

> <Gold.Chemscore.Lipo>
78.5683

> <Gold.Chemscore.Internal_Hbond>
0.0000

> <Gold.Chemscore.DEClash>
0.5340

> <Gold.Chemscore.DEInternal>
7.3343

> <Gold.Chemscore.Rot>
3.1386

> <Gold.Chemscore.Internal.Correction>
   9.000000E+99

> <Gold.Chemscore.Hbonds>
donor molecule, donor type, donor heavy atom, donor atom, acceptor molecule, acceptor atom, score
      L1  H    15    37       P1 10747  0.70
      P1  H  6931  6943       L1    24  0.37
      P1  H  6934  6947       L1    25  0.27

> <Gold.Chemscore.Hbond.Weighted>
-6.5581

> <Gold.Chemscore.Metal.Weighted>
-0.0000

> <Gold.Chemscore.Lipo.Weighted>
-9.1925

> <Gold.Chemscore.Internal_Hbond.Weighted>
0.0000

> <Gold.Chemscore.DEClash.Weighted>
0.5340

> <Gold.Chemscore.DEInternal.Weighted>
7.3343

> <Gold.Chemscore.Rot.Weighted>
8.0349

> <Gold.Chemscore.Internal.Correction.Weighted>
   9.000000E+99

> <Gold.Protein.RotatedTorsions>
[ 6907 6896 6895 6894 ] final -166.38 input  -60.11 | X-H torsion
[ 7974 7965 7964 7962 ] final   -6.99 input  175.53 | X-H torsion
[ 8008 7997 7996 7995 ] final  -31.68 input   59.86 | X-H torsion
[ 10167 10162 10161 10158 ] final  161.02 input  -65.29 | X-H torsion
[ 10718 10713 10712 10709 ] final  -18.09 input   66.30 | X-H torsion
[ 10763 10752 10751 10750 ] final  -36.90 input  -60.55 | X-H torsion
[ 11005 11000 10999 10996 ] final -150.33 input  -57.11 | X-H torsion

> <Gold.Protein.ActiveResidues>
 VAL166  LYS551  ARG553  GLY616  TRP617  ASP618  TYR619  PRO620  LYS621  CYS622 
 ASP623  PHE694  ASN695  SER759  ASP760  ASP761  ALA762  ILE779  LEU786  VAL792 
 PHE793  MET794  SER795  GLU796  ALA797  LYS798  CYS799  TRP800  GLU811  SER814 

> <Gold.Protein.RotatedAtoms>
  151.4427  133.3639  159.2783 H   0  0  0  0  0  0  0  0  0  0  0  0  # atno 6907 bound_to 6896
  150.9146  134.8565  159.7459 H   0  0  0  0  0  0  0  0  0  0  0  0  # atno 6908 bound_to 6896
  152.4950  134.4360  159.9580 H   0  0  0  0  0  0  0  0  0  0  0  0  # atno 6909 bound_to 6896
  146.2318  140.2253  142.8338 H   0  0  0  0  0  0  0  0  0  0  0  0  # atno 7974 bound_to 7965
  154.4205  140.1758  156.1606 H   0  0  0  0  0  0  0  0  0  0  0  0  # atno 8008 bound_to 7997
  155.9841  140.3375  155.6666 H   0  0  0  0  0  0  0  0  0  0  0  0  # atno 8009 bound_to 7997
  155.6461  140.0685  157.2593 H   0  0  0  0  0  0  0  0  0  0  0  0  # atno 8010 bound_to 7997
  139.4845  144.4577  151.8746 H   0  0  0  0  0  0  0  0  0  0  0  0  # atno 10167 bound_to 10162
  156.5644  130.4733  149.6392 H   0  0  0  0  0  0  0  0  0  0  0  0  # atno 10718 bound_to 10713
  153.8873  135.6815  153.4763 H   0  0  0  0  0  0  0  0  0  0  0  0  # atno 10763 bound_to 10752
  153.1200  135.4744  154.9177 H   0  0  0  0  0  0  0  0  0  0  0  0  # atno 10764 bound_to 10752
  154.7639  135.3219  154.8276 H   0  0  0  0  0  0  0  0  0  0  0  0  # atno 10765 bound_to 10752
  140.7414  134.3510  157.5146 H   0  0  0  0  0  0  0  0  0  0  0  0  # atno 11005 bound_to 11000
  144.9600  140.8265  143.5519 LP  0  0  0  0  0  0  0  0  0  0  0  0  # atno 17320 bound_to 7965
  145.2222  139.2153  143.5087 LP  0  0  0  0  0  0  0  0  0  0  0  0  # atno 17321 bound_to 7965
  140.4038  144.2458  150.5891 LP  0  0  0  0  0  0  0  0  0  0  0  0  # atno 17342 bound_to 10162
  140.5032  143.2312  151.8648 LP  0  0  0  0  0  0  0  0  0  0  0  0  # atno 17343 bound_to 10162
  156.2770  130.7049  151.1863 LP  0  0  0  0  0  0  0  0  0  0  0  0  # atno 17370 bound_to 10713
  157.7362  131.0565  150.5429 LP  0  0  0  0  0  0  0  0  0  0  0  0  # atno 17371 bound_to 10713
  139.8805  134.9083  156.2964 LP  0  0  0  0  0  0  0  0  0  0  0  0  # atno 17394 bound_to 11000
  140.9833  133.7253  156.0705 LP  0  0  0  0  0  0  0  0  0  0  0  0  # atno 17395 bound_to 11000

$$$$
