AV-unprocessed.smi:2126|AV-procd|sdf|8676|dock1
  -GOLD-   2272011423D 1   1.00000     0.00000
 Structure written by MMmdl.
 40 42  0  0  0  0  0  0  0  0  1 V2000
  144.8532  135.3912  150.7850 C   0  0  0  0  0  0  0  0  0  0  0  0
  145.3172  135.5001  152.1229 O   0  0  0  0  0  0  0  0  0  0  0  0
  145.9674  136.6585  152.4911 C   0  0  0  0  0  0  0  0  0  0  0  0
  146.1555  137.7733  151.6377 C   0  0  0  0  0  0  0  0  0  0  0  0
  146.8340  138.9176  152.0996 C   0  0  0  0  0  0  0  0  0  0  0  0
  147.3377  138.9810  153.4137 C   0  0  0  0  0  0  0  0  0  0  0  0
  147.9885  140.1393  153.7807 O   0  0  0  0  0  0  0  0  0  0  0  0
  148.8006  140.1146  154.9474 C   0  0  0  0  0  0  0  0  0  0  0  0
  149.6197  141.4118  155.0099 C   0  0  1  0  0  0  0  0  0  0  0  0
  148.9490  142.4057  154.2602 O   0  0  0  0  0  0  0  0  0  0  0  0
  149.8329  141.9034  156.4550 C   0  0  0  0  0  0  0  0  0  0  0  0
  151.0025  141.3089  157.0762 N   0  0  0  0  0  0  0  0  0  0  0  0
  151.6929  140.2331  156.6512 C   0  0  0  0  0  0  0  0  0  0  0  0
  152.7397  139.8548  157.3795 N   0  0  0  0  0  0  0  0  0  0  0  0
  152.7319  140.7991  158.3917 C   0  0  0  0  0  0  0  0  0  0  0  0
  153.5923  140.9631  159.5010 C   0  0  0  0  0  0  0  0  0  0  0  0
  153.3865  142.0176  160.4150 C   0  0  0  0  0  0  0  0  0  0  0  0
  152.3196  142.9220  160.2354 C   0  0  0  0  0  0  0  0  0  0  0  0
  151.4483  142.7784  159.1386 C   0  0  0  0  0  0  0  0  0  0  0  0
  151.6576  141.7252  158.2293 C   0  0  0  0  0  0  0  0  0  0  0  0
  147.1483  137.8669  154.2675 C   0  0  0  0  0  0  0  0  0  0  0  0
  146.4712  136.7221  153.8052 C   0  0  0  0  0  0  0  0  0  0  0  0
  144.3606  134.4280  150.6530 H   0  0  0  0  0  0  0  0  0  0  0  0
  145.6774  135.4407  150.0721 H   0  0  0  0  0  0  0  0  0  0  0  0
  144.1251  136.1689  150.5502 H   0  0  0  0  0  0  0  0  0  0  0  0
  145.7885  137.7763  150.6228 H   0  0  0  0  0  0  0  0  0  0  0  0
  146.9688  139.7586  151.4352 H   0  0  0  0  0  0  0  0  0  0  0  0
  148.1613  140.0410  155.8291 H   0  0  0  0  0  0  0  0  0  0  0  0
  149.4679  139.2510  154.9400 H   0  0  0  0  0  0  0  0  0  0  0  0
  150.5861  141.2420  154.5334 H   0  0  0  0  0  0  0  0  0  0  0  0
  149.1763  143.2518  154.6148 H   0  0  0  0  0  0  0  0  0  0  0  0
  149.9380  142.9893  156.4772 H   0  0  0  0  0  0  0  0  0  0  0  0
  148.9651  141.6620  157.0697 H   0  0  0  0  0  0  0  0  0  0  0  0
  151.4079  139.6947  155.7589 H   0  0  0  0  0  0  0  0  0  0  0  0
  154.4126  140.2764  159.6486 H   0  0  0  0  0  0  0  0  0  0  0  0
  154.0512  142.1333  161.2585 H   0  0  0  0  0  0  0  0  0  0  0  0
  152.1701  143.7264  160.9407 H   0  0  0  0  0  0  0  0  0  0  0  0
  150.6295  143.4684  158.9977 H   0  0  0  0  0  0  0  0  0  0  0  0
  147.5130  137.8639  155.2832 H   0  0  0  0  0  0  0  0  0  0  0  0
  146.3368  135.8815  154.4700 H   0  0  0  0  0  0  0  0  0  0  0  0
  1  2  1  0  0  0  0
  1 23  1  0  0  0  0
  1 24  1  0  0  0  0
  1 25  1  0  0  0  0
  2  3  1  0  0  0  0
  3 22  1  0  0  0  0
  3  4  2  0  0  0  0
  4  5  1  0  0  0  0
  4 26  1  0  0  0  0
  5  6  2  0  0  0  0
  5 27  1  0  0  0  0
  6  7  1  0  0  0  0
  6 21  1  0  0  0  0
  7  8  1  0  0  0  0
  8  9  1  0  0  0  0
  8 28  1  0  0  0  0
  8 29  1  0  0  0  0
  9 10  1  0  0  0  0
  9 11  1  0  0  0  0
  9 30  1  0  0  0  0
 10 31  1  0  0  0  0
 11 12  1  0  0  0  0
 11 32  1  0  0  0  0
 11 33  1  0  0  0  0
 12 20  1  0  0  0  0
 12 13  1  0  0  0  0
 13 14  2  0  0  0  0
 13 34  1  0  0  0  0
 14 15  1  0  0  0  0
 15 20  2  0  0  0  0
 15 16  1  0  0  0  0
 16 17  2  0  0  0  0
 16 35  1  0  0  0  0
 17 18  1  0  0  0  0
 17 36  1  0  0  0  0
 18 19  2  0  0  0  0
 18 37  1  0  0  0  0
 19 20  1  0  0  0  0
 19 38  1  0  0  0  0
 21 22  2  0  0  0  0
 21 39  1  0  0  0  0
 22 40  1  0  0  0  0
M  END
> <s_m_source_file>
AV-unprocessed.smi

> <i_m_source_file_index>
2126

> <i_lp_mmshare_version>
43012

> <i_f3d_flags>
0

> <s_epik_input>
W0NIM11PYzFbY0hdW2NIXWMoW2NIXVtjSF0xKU9bQ0gyXVtDQEhdKFtPSF0pW0NIMl1uKFtjSF1uMiljKGMyMylbY0hdW2NIXVtjSF1bY0hdMw==

> <s_epik_cmdline>
J2VwaWtfcHl0aG9uJywgJy1waCcsICc3LjAnLCAnLXRuJywgJzgnLCAnLW1hJywgJzIwMCcsICctbWV0YWxfYmluZGluZycsICctaW1hZScsICc8aW5maWxlLm1hZT4nLCAnLW9tYWUnLCAnPG91dGZpbGUubWFlPic=

> <r_lp_tautomer_probability>
1

> <r_epik_Ionization_Penalty>
0.0608933

> <r_epik_Ionization_Penalty_Charging>
0

> <r_epik_Ionization_Penalty_Neutral>
0.0608933

> <r_epik_State_Penalty>
0.0528196

> <r_epik_Charging_Adjusted_Penalty>
0.0528196

> <i_epik_Tot_Q>
0

> <i_epik_Tot_abs_Q>
0

> <r_epik_Metal_State_Penalty>
5.52429e-05

> <b_epik_Metal_Only>
0

> <s_lp_Force_Field>
OPLS_2005

> <r_lp_Energy>
17.4847

> <b_lp_Chiralities_Consistent>
1

> <s_lp_Variant>
AV-unprocessed.smi:2126-2

> <Gold.Version>
5.8.1

> <Gold.Id.Protein>
6NUR|6NUR_protein|mol2

> <Gold.PLP.Fitness>
44.7828

> <Gold.PLP.PLP>
-40.4652

> <Gold.PLP.part.hbond>
-3.0000

> <Gold.PLP.part.metal>
0.0000

> <Gold.PLP.part.buried>
0.9045

> <Gold.PLP.part.nonpolar>
-37.8726

> <Gold.PLP.part.repulsive>
0.4494

> <Gold.PLP.ligand.clash>
0.0000

> <Gold.PLP.ligand.torsion>
1.2421

> <Gold.PLP.Chemscore.Hbond>
2.1622

> <Gold.PLP.Chemscore.CHOScore>
0.0000

> <Gold.PLP.Chemscore.Metal>
0.0000

> <Gold.Chemscore.Hbonds>
donor molecule, donor type, donor heavy atom, donor atom, acceptor molecule, acceptor atom, score
      L1  H    10    31       P1  8028  1.00
      P1  H  7997  8010       L1    14  1.00
      P1  H  8011  8017       L1    10  0.15

> <Gold.PLP.Chemscore.Internal.Correction>
0.3150

> <Gold.Rescore>
     Score         DG    S(hbond)    S(metal)    S(lipo)     H(rot)  DE(clash)    DE(int)     intcor
     16.25     -18.45       1.79        0.00     114.68       2.51       0.92       1.28       ----

> <Gold.Chemscore.Fitness>
16.2512

> <Gold.Chemscore.DG>
-18.4473

> <Gold.Chemscore.ZeroCoef>
-5.4800

> <Gold.Chemscore.Hbond>
1.7878

> <Gold.Chemscore.Metal>
0.0000

> <Gold.Chemscore.Lipo>
114.6768

> <Gold.Chemscore.Internal_Hbond>
0.0000

> <Gold.Chemscore.DEClash>
0.9170

> <Gold.Chemscore.DEInternal>
1.2791

> <Gold.Chemscore.Rot>
2.5083

> <Gold.Chemscore.Internal.Correction>
   9.000000E+99

> <Gold.Chemscore.Hbonds>
donor molecule, donor type, donor heavy atom, donor atom, acceptor molecule, acceptor atom, score
      L1  H    10    31       P1  8028  0.98
      P1  H  7997  8010       L1    14  0.29
      P1  H  8011  8017       L1    10  0.04

> <Gold.Chemscore.Hbond.Weighted>
-5.9713

> <Gold.Chemscore.Metal.Weighted>
-0.0000

> <Gold.Chemscore.Lipo.Weighted>
-13.4172

> <Gold.Chemscore.Internal_Hbond.Weighted>
0.0000

> <Gold.Chemscore.DEClash.Weighted>
0.9170

> <Gold.Chemscore.DEInternal.Weighted>
1.2791

> <Gold.Chemscore.Rot.Weighted>
6.4212

> <Gold.Chemscore.Internal.Correction.Weighted>
   9.000000E+99

> <Gold.Protein.RotatedTorsions>
[ 6907 6896 6895 6894 ] final  -10.99 input  -60.11 | X-H torsion
[ 7974 7965 7964 7962 ] final  -88.13 input  175.53 | X-H torsion
[ 8008 7997 7996 7995 ] final   57.38 input   59.86 | X-H torsion
[ 10167 10162 10161 10158 ] final   -0.54 input  -65.29 | X-H torsion
[ 10718 10713 10712 10709 ] final  -48.36 input   66.30 | X-H torsion
[ 10763 10752 10751 10750 ] final  141.08 input  -60.55 | X-H torsion
[ 11005 11000 10999 10996 ] final  170.29 input  -57.11 | X-H torsion

> <Gold.Protein.ActiveResidues>
 VAL166  LYS551  ARG553  GLY616  TRP617  ASP618  TYR619  PRO620  LYS621  CYS622 
 ASP623  PHE694  ASN695  SER759  ASP760  ASP761  ALA762  ILE779  LEU786  VAL792 
 PHE793  MET794  SER795  GLU796  ALA797  LYS798  CYS799  TRP800  GLU811  SER814 

> <Gold.Protein.RotatedAtoms>
  151.3932  135.0959  159.9532 H   0  0  0  0  0  0  0  0  0  0  0  0  # atno 6907 bound_to 6896
  152.5073  133.8959  159.7427 H   0  0  0  0  0  0  0  0  0  0  0  0  # atno 6908 bound_to 6896
  150.9417  133.6592  159.2818 H   0  0  0  0  0  0  0  0  0  0  0  0  # atno 6909 bound_to 6896
  145.4573  140.9561  143.1989 H   0  0  0  0  0  0  0  0  0  0  0  0  # atno 7974 bound_to 7965
  155.5329  140.3482  155.4430 H   0  0  0  0  0  0  0  0  0  0  0  0  # atno 8008 bound_to 7997
  156.0706  140.1362  156.9860 H   0  0  0  0  0  0  0  0  0  0  0  0  # atno 8009 bound_to 7997
  154.4526  140.0966  156.6638 H   0  0  0  0  0  0  0  0  0  0  0  0  # atno 8010 bound_to 7997
  140.6772  143.6882  150.8049 H   0  0  0  0  0  0  0  0  0  0  0  0  # atno 10167 bound_to 10162
  156.1995  130.4155  149.9260 H   0  0  0  0  0  0  0  0  0  0  0  0  # atno 10718 bound_to 10713
  153.9333  135.2988  155.3445 H   0  0  0  0  0  0  0  0  0  0  0  0  # atno 10763 bound_to 10752
  154.7515  135.4978  153.9301 H   0  0  0  0  0  0  0  0  0  0  0  0  # atno 10764 bound_to 10752
  153.1080  135.6752  153.9656 H   0  0  0  0  0  0  0  0  0  0  0  0  # atno 10765 bound_to 10752
  140.3067  134.7550  157.3959 H   0  0  0  0  0  0  0  0  0  0  0  0  # atno 11005 bound_to 11000
  144.8024  139.6115  143.7066 LP  0  0  0  0  0  0  0  0  0  0  0  0  # atno 17320 bound_to 7965
  146.2471  139.6120  142.9452 LP  0  0  0  0  0  0  0  0  0  0  0  0  # atno 17321 bound_to 7965
  140.0577  143.5186  152.2643 LP  0  0  0  0  0  0  0  0  0  0  0  0  # atno 17342 bound_to 10162
  139.6071  144.7599  151.3036 LP  0  0  0  0  0  0  0  0  0  0  0  0  # atno 17343 bound_to 10162
  156.6974  130.8920  151.3595 LP  0  0  0  0  0  0  0  0  0  0  0  0  # atno 17370 bound_to 10713
  157.6977  130.9300  150.0693 LP  0  0  0  0  0  0  0  0  0  0  0  0  # atno 17371 bound_to 10713
  140.1060  134.5408  155.8308 LP  0  0  0  0  0  0  0  0  0  0  0  0  # atno 17394 bound_to 11000
  141.2117  133.6709  156.6600 LP  0  0  0  0  0  0  0  0  0  0  0  0  # atno 17395 bound_to 11000

$$$$
