AV-unprocessed.smi:2775|AV-procd|sdf|10688|dock6
  -GOLD-   2272015133D 1   1.00000     0.00000
 Structure written by MMmdl.
 42 45  0  0  0  0  0  0  0  0  1 V2000
  146.8129  130.6060  152.4803 C   0  0  0  0  0  0  0  0  0  0  0  0
  147.8477  131.3576  153.2965 C   0  0  0  0  0  0  0  0  0  0  0  0
  148.6854  130.5902  154.0273 N   0  0  0  0  0  0  0  0  0  0  0  0
  149.6229  131.2078  154.7745 C   0  0  0  0  0  0  0  0  0  0  0  0
  149.7771  132.6061  154.8233 C   0  0  0  0  0  0  0  0  0  0  0  0
  148.9125  133.4127  154.0453 C   0  0  0  0  0  0  0  0  0  0  0  0
  148.9700  134.8337  154.0260 N   0  0  0  0  0  0  0  0  0  0  0  0
  149.2818  135.6852  155.0227 C   0  0  0  0  0  0  0  0  0  0  0  0
  149.5217  135.3569  156.1824 O   0  0  0  0  0  0  0  0  0  0  0  0
  149.3314  136.9724  154.6401 N   0  0  0  0  0  0  0  0  0  0  0  0
  149.6409  138.1391  155.4783 C   0  0  2  0  0  0  0  0  0  0  0  0
  148.8230  139.3925  155.1360 C   0  0  2  0  0  0  0  0  0  0  0  0
  147.5104  139.6584  154.4924 C   0  0  0  0  0  0  0  0  0  0  0  0
  147.9438  140.9066  153.6825 C   0  0  0  0  0  0  0  0  0  0  0  0
  149.3848  140.9884  153.8228 O   0  0  0  0  0  0  0  0  0  0  0  0
  149.8021  139.6471  154.0014 C   0  0  1  0  0  0  0  0  0  0  0  0
  150.8325  139.0022  154.9437 C   0  0  0  0  0  0  0  0  0  0  0  0
  151.6997  139.8529  155.8862 C   0  0  0  0  0  0  0  0  0  0  0  0
  152.8174  138.8214  155.7056 C   0  0  0  0  0  0  0  0  0  0  0  0
  152.1248  138.3616  154.4185 C   0  0  0  0  0  0  0  0  0  0  0  0
  147.9135  132.7705  153.2766 C   0  0  0  0  0  0  0  0  0  0  0  0
  146.7971  133.6926  152.3257 Cl  0  0  0  0  0  0  0  0  0  0  0  0
  146.9341  130.8277  151.4197 H   0  0  0  0  0  0  0  0  0  0  0  0
  145.8063  130.8971  152.7813 H   0  0  0  0  0  0  0  0  0  0  0  0
  146.9056  129.5270  152.6109 H   0  0  0  0  0  0  0  0  0  0  0  0
  150.2686  130.5672  155.3568 H   0  0  0  0  0  0  0  0  0  0  0  0
  150.5408  133.0254  155.4594 H   0  0  0  0  0  0  0  0  0  0  0  0
  148.8605  135.2531  153.1141 H   0  0  0  0  0  0  0  0  0  0  0  0
  149.1369  137.1651  153.6681 H   0  0  0  0  0  0  0  0  0  0  0  0
  149.7073  137.9241  156.5459 H   0  0  0  0  0  0  0  0  0  0  0  0
  148.9601  140.1039  155.9587 H   0  0  0  0  0  0  0  0  0  0  0  0
  147.1924  138.8413  153.8438 H   0  0  0  0  0  0  0  0  0  0  0  0
  146.7205  139.8777  155.2105 H   0  0  0  0  0  0  0  0  0  0  0  0
  147.6691  140.8013  152.6322 H   0  0  0  0  0  0  0  0  0  0  0  0
  147.4858  141.8199  154.0631 H   0  0  0  0  0  0  0  0  0  0  0  0
  149.6150  139.0476  153.1055 H   0  0  0  0  0  0  0  0  0  0  0  0
  151.9515  140.8263  155.4623 H   0  0  0  0  0  0  0  0  0  0  0  0
  151.3239  139.9413  156.9060 H   0  0  0  0  0  0  0  0  0  0  0  0
  153.8116  139.2457  155.5622 H   0  0  0  0  0  0  0  0  0  0  0  0
  152.8118  138.0557  156.4829 H   0  0  0  0  0  0  0  0  0  0  0  0
  152.0892  137.2801  154.2866 H   0  0  0  0  0  0  0  0  0  0  0  0
  152.5115  138.8636  153.5304 H   0  0  0  0  0  0  0  0  0  0  0  0
  1  2  1  0  0  0  0
  1 23  1  0  0  0  0
  1 24  1  0  0  0  0
  1 25  1  0  0  0  0
  2 21  1  0  0  0  0
  2  3  2  0  0  0  0
  3  4  1  0  0  0  0
  4  5  2  0  0  0  0
  4 26  1  0  0  0  0
  5  6  1  0  0  0  0
  5 27  1  0  0  0  0
  6  7  1  0  0  0  0
  6 21  2  0  0  0  0
  7  8  1  0  0  0  0
  7 28  1  0  0  0  0
  8  9  2  0  0  0  0
  8 10  1  0  0  0  0
 10 11  1  0  0  0  0
 10 29  1  0  0  0  0
 11 17  1  0  0  0  0
 11 12  1  0  0  0  0
 11 30  1  0  0  0  0
 12 16  1  0  0  0  0
 12 13  1  0  0  0  0
 12 31  1  0  0  0  0
 13 14  1  0  0  0  0
 13 32  1  0  0  0  0
 13 33  1  0  0  0  0
 14 15  1  0  0  0  0
 14 34  1  0  0  0  0
 14 35  1  0  0  0  0
 15 16  1  0  0  0  0
 16 17  1  0  0  0  0
 16 36  1  0  0  0  0
 17 20  1  0  0  0  0
 17 18  1  0  0  0  0
 18 19  1  0  0  0  0
 18 37  1  0  0  0  0
 18 38  1  0  0  0  0
 19 20  1  0  0  0  0
 19 39  1  0  0  0  0
 19 40  1  0  0  0  0
 20 41  1  0  0  0  0
 20 42  1  0  0  0  0
 21 22  1  0  0  0  0
M  END
> <s_m_source_file>
AV-unprocessed.smi

> <i_m_source_file_index>
2775

> <i_lp_mmshare_version>
43012

> <i_f3d_flags>
0

> <s_epik_input>
W0NIM11jMW5bY0hdW2NIXWMoYzFDbClbTkhdQyg9TylbTkhdW0NAQEhdMltDQEhdKFtDSDJdW0NIMl1PMylbQ0BASF0zQzI0W0NIMl1bQ0gyXVtDSDJdNA==

> <s_epik_cmdline>
J2VwaWtfcHl0aG9uJywgJy1waCcsICc3LjAnLCAnLXRuJywgJzgnLCAnLW1hJywgJzIwMCcsICctbWV0YWxfYmluZGluZycsICctaW1hZScsICc8aW5maWxlLm1hZT4nLCAnLW9tYWUnLCAnPG91dGZpbGUubWFlPic=

> <r_epik_Ionization_Penalty>
0.01026

> <r_epik_Ionization_Penalty_Charging>
0

> <r_epik_Ionization_Penalty_Neutral>
0.01026

> <r_epik_State_Penalty>
0.00780685

> <r_epik_Charging_Adjusted_Penalty>
0.00780685

> <i_epik_Tot_Q>
0

> <i_epik_Tot_abs_Q>
0

> <r_epik_Metal_State_Penalty>
0.00767411

> <b_epik_Metal_Only>
0

> <s_lp_Force_Field>
OPLS_2005

> <r_lp_Energy>
81.865

> <b_lp_Chiralities_Consistent>
1

> <s_lp_Variant>
AV-unprocessed.smi:2775-1

> <Gold.Version>
5.8.1

> <Gold.Id.Protein>
6NUR|6NUR_protein|mol2

> <Gold.PLP.Fitness>
42.3042

> <Gold.PLP.PLP>
-34.7792

> <Gold.PLP.part.hbond>
-4.0000

> <Gold.PLP.part.metal>
0.0000

> <Gold.PLP.part.buried>
2.2300

> <Gold.PLP.part.nonpolar>
-33.4604

> <Gold.PLP.part.repulsive>
2.2491

> <Gold.PLP.ligand.clash>
0.0000

> <Gold.PLP.ligand.torsion>
0.4174

> <Gold.PLP.Chemscore.Hbond>
2.6812

> <Gold.PLP.Chemscore.CHOScore>
0.0000

> <Gold.PLP.Chemscore.Metal>
0.0000

> <Gold.Chemscore.Hbonds>
donor molecule, donor type, donor heavy atom, donor atom, acceptor molecule, acceptor atom, score
      L1  H     7    28       P1  7948  1.00
      L1  H    10    29       P1  7948  0.83
      P1  H  8011  8017       L1    15  0.78

> <Gold.PLP.Chemscore.Internal.Correction>
0.3163

> <Gold.Rescore>
     Score         DG    S(hbond)    S(metal)    S(lipo)     H(rot)  DE(clash)    DE(int)     intcor
     17.12     -21.83       2.26        0.00      97.15       1.00       3.64       1.07       ----

> <Gold.Chemscore.Fitness>
17.1221

> <Gold.Chemscore.DG>
-21.8324

> <Gold.Chemscore.ZeroCoef>
-5.4800

> <Gold.Chemscore.Hbond>
2.2594

> <Gold.Chemscore.Metal>
0.0000

> <Gold.Chemscore.Lipo>
97.1459

> <Gold.Chemscore.Internal_Hbond>
0.0000

> <Gold.Chemscore.DEClash>
3.6428

> <Gold.Chemscore.DEInternal>
1.0675

> <Gold.Chemscore.Rot>
1.0000

> <Gold.Chemscore.Internal.Correction>
   9.000000E+99

> <Gold.Chemscore.Hbonds>
donor molecule, donor type, donor heavy atom, donor atom, acceptor molecule, acceptor atom, score
      L1  H     7    28       P1  7948  0.48
      L1  H    10    29       P1  7948  0.77
      P1  H  8011  8017       L1    15  0.19

> <Gold.Chemscore.Hbond.Weighted>
-7.5464

> <Gold.Chemscore.Metal.Weighted>
-0.0000

> <Gold.Chemscore.Lipo.Weighted>
-11.3661

> <Gold.Chemscore.Internal_Hbond.Weighted>
0.0000

> <Gold.Chemscore.DEClash.Weighted>
3.6428

> <Gold.Chemscore.DEInternal.Weighted>
1.0675

> <Gold.Chemscore.Rot.Weighted>
2.5600

> <Gold.Chemscore.Internal.Correction.Weighted>
   9.000000E+99

> <Gold.Protein.RotatedTorsions>
[ 6907 6896 6895 6894 ] final  -34.17 input  -60.11 | X-H torsion
[ 7974 7965 7964 7962 ] final -101.78 input  175.53 | X-H torsion
[ 8008 7997 7996 7995 ] final   36.57 input   59.86 | X-H torsion
[ 10167 10162 10161 10158 ] final  -36.21 input  -65.29 | X-H torsion
[ 10718 10713 10712 10709 ] final  -18.73 input   66.30 | X-H torsion
[ 10763 10752 10751 10750 ] final  168.91 input  -60.55 | X-H torsion
[ 11005 11000 10999 10996 ] final  -76.92 input  -57.11 | X-H torsion

> <Gold.Protein.ActiveResidues>
 VAL166  LYS551  ARG553  GLY616  TRP617  ASP618  TYR619  PRO620  LYS621  CYS622 
 ASP623  PHE694  ASN695  SER759  ASP760  ASP761  ALA762  ILE779  LEU786  VAL792 
 PHE793  MET794  SER795  GLU796  ALA797  LYS798  CYS799  TRP800  GLU811  SER814 

> <Gold.Protein.RotatedAtoms>
  151.0561  134.9705  159.8235 H   0  0  0  0  0  0  0  0  0  0  0  0  # atno 6907 bound_to 6896
  152.5388  134.2477  159.8896 H   0  0  0  0  0  0  0  0  0  0  0  0  # atno 6908 bound_to 6896
  151.2494  133.4315  159.2644 H   0  0  0  0  0  0  0  0  0  0  0  0  # atno 6909 bound_to 6896
  145.2772  140.9316  143.2952 H   0  0  0  0  0  0  0  0  0  0  0  0  # atno 7974 bound_to 7965
  155.1895  140.3307  155.4361 H   0  0  0  0  0  0  0  0  0  0  0  0  # atno 8008 bound_to 7997
  156.2447  140.1912  156.6939 H   0  0  0  0  0  0  0  0  0  0  0  0  # atno 8009 bound_to 7997
  154.6215  140.0595  156.9607 H   0  0  0  0  0  0  0  0  0  0  0  0  # atno 8010 bound_to 7997
  140.7148  143.3424  151.2328 H   0  0  0  0  0  0  0  0  0  0  0  0  # atno 10167 bound_to 10162
  156.5555  130.4712  149.6431 H   0  0  0  0  0  0  0  0  0  0  0  0  # atno 10718 bound_to 10713
  154.3754  135.2753  155.2242 H   0  0  0  0  0  0  0  0  0  0  0  0  # atno 10763 bound_to 10752
  154.4371  135.5963  153.6109 H   0  0  0  0  0  0  0  0  0  0  0  0  # atno 10764 bound_to 10752
  152.9836  135.6010  154.3990 H   0  0  0  0  0  0  0  0  0  0  0  0  # atno 10765 bound_to 10752
  141.1657  133.7002  156.7741 H   0  0  0  0  0  0  0  0  0  0  0  0  # atno 11005 bound_to 11000
  144.9284  139.4328  143.6507 LP  0  0  0  0  0  0  0  0  0  0  0  0  # atno 17320 bound_to 7965
  146.3228  139.8182  142.8932 LP  0  0  0  0  0  0  0  0  0  0  0  0  # atno 17321 bound_to 7965
  139.6935  143.9652  152.2871 LP  0  0  0  0  0  0  0  0  0  0  0  0  # atno 17342 bound_to 10162
  139.9321  144.6735  150.8352 LP  0  0  0  0  0  0  0  0  0  0  0  0  # atno 17343 bound_to 10162
  156.2846  130.7090  151.1923 LP  0  0  0  0  0  0  0  0  0  0  0  0  # atno 17370 bound_to 10713
  157.7379  131.0547  150.5327 LP  0  0  0  0  0  0  0  0  0  0  0  0  # atno 17371 bound_to 10713
  140.2442  134.8590  157.3604 LP  0  0  0  0  0  0  0  0  0  0  0  0  # atno 17394 bound_to 11000
  140.1766  134.4542  155.7798 LP  0  0  0  0  0  0  0  0  0  0  0  0  # atno 17395 bound_to 11000

$$$$
