AV-unprocessed.smi:2717|AV-procd|sdf|10484|dock1
  -GOLD-   2272014523D 1   1.00000     0.00000
 Structure written by MMmdl.
 43 44  0  0  0  0  0  0  0  0  1 V2000
  149.0533  135.9215  160.1895 C   0  0  0  0  0  0  0  0  0  0  0  0
  147.9089  135.8808  159.1714 C   0  0  0  0  0  0  0  0  0  0  0  0
  148.3971  135.8513  157.7617 C   0  0  0  0  0  0  0  0  0  0  0  0
  149.3595  135.0302  157.3337 N   0  0  0  0  0  0  0  0  0  0  0  0
  149.6663  135.2163  155.9823 C   0  0  0  0  0  0  0  0  0  0  0  0
  150.7172  134.3684  155.3317 C   0  0  0  0  0  0  0  0  0  0  0  0
  150.1095  133.2412  154.4807 C   0  0  0  0  0  0  0  0  0  0  0  0
  149.1031  133.7498  153.5556 N   0  0  0  0  0  0  0  0  0  0  0  0
  147.9403  133.1435  153.2782 C   0  0  0  0  0  0  0  0  0  0  0  0
  147.5810  132.0778  153.7792 O   0  0  0  0  0  0  0  0  0  0  0  0
  147.2176  133.8364  152.3864 N   0  0  0  0  0  0  0  0  0  0  0  0
  145.9043  133.4462  151.8815 C   0  0  2  0  0  0  0  0  0  0  0  0
  145.9547  132.0357  151.2567 C   0  0  0  0  0  0  0  0  0  0  0  0
  144.5981  131.6403  150.6511 C   0  0  0  0  0  0  0  0  0  0  0  0
  144.1248  132.6808  149.6217 C   0  0  1  0  0  0  0  0  0  0  0  0
  142.8463  132.3227  149.1409 O   0  0  0  0  0  0  0  0  0  0  0  0
  144.0622  134.0850  150.2465 C   0  0  0  0  0  0  0  0  0  0  0  0
  145.4184  134.4833  150.8509 C   0  0  0  0  0  0  0  0  0  0  0  0
  148.9216  136.2060  155.3902 C   0  0  0  0  0  0  0  0  0  0  0  0
  147.8111  136.9435  156.5123 S   0  0  0  0  0  0  0  0  0  0  0  0
  148.6660  135.9385  161.2083 H   0  0  0  0  0  0  0  0  0  0  0  0
  149.6705  136.8098  160.0522 H   0  0  0  0  0  0  0  0  0  0  0  0
  149.6976  135.0474  160.0923 H   0  0  0  0  0  0  0  0  0  0  0  0
  147.2860  135.0029  159.3469 H   0  0  0  0  0  0  0  0  0  0  0  0
  147.2653  136.7513  159.3003 H   0  0  0  0  0  0  0  0  0  0  0  0
  151.3595  134.9891  154.7058 H   0  0  0  0  0  0  0  0  0  0  0  0
  151.3686  133.9415  156.0956 H   0  0  0  0  0  0  0  0  0  0  0  0
  150.8897  132.7111  153.9314 H   0  0  0  0  0  0  0  0  0  0  0  0
  149.6319  132.5049  155.1280 H   0  0  0  0  0  0  0  0  0  0  0  0
  149.3087  134.6232  153.0930 H   0  0  0  0  0  0  0  0  0  0  0  0
  147.6011  134.7007  152.0333 H   0  0  0  0  0  0  0  0  0  0  0  0
  145.1959  133.4378  152.7123 H   0  0  0  0  0  0  0  0  0  0  0  0
  146.7209  132.0020  150.4807 H   0  0  0  0  0  0  0  0  0  0  0  0
  146.2446  131.2998  152.0075 H   0  0  0  0  0  0  0  0  0  0  0  0
  144.6753  130.6576  150.1847 H   0  0  0  0  0  0  0  0  0  0  0  0
  143.8608  131.5475  151.4502 H   0  0  0  0  0  0  0  0  0  0  0  0
  144.8119  132.6919  148.7746 H   0  0  0  0  0  0  0  0  0  0  0  0
  142.2766  133.0733  149.2128 H   0  0  0  0  0  0  0  0  0  0  0  0
  143.7641  134.8173  149.4951 H   0  0  0  0  0  0  0  0  0  0  0  0
  143.2985  134.1111  151.0252 H   0  0  0  0  0  0  0  0  0  0  0  0
  145.3362  135.4652  151.3187 H   0  0  0  0  0  0  0  0  0  0  0  0
  146.1531  134.5826  150.0504 H   0  0  0  0  0  0  0  0  0  0  0  0
  148.9606  136.5471  154.3665 H   0  0  0  0  0  0  0  0  0  0  0  0
  1  2  1  0  0  0  0
  1 21  1  0  0  0  0
  1 22  1  0  0  0  0
  1 23  1  0  0  0  0
  2  3  1  0  0  0  0
  2 24  1  0  0  0  0
  2 25  1  0  0  0  0
  3 20  1  0  0  0  0
  3  4  2  0  0  0  0
  4  5  1  0  0  0  0
  5  6  1  0  0  0  0
  5 19  2  0  0  0  0
  6  7  1  0  0  0  0
  6 26  1  0  0  0  0
  6 27  1  0  0  0  0
  7  8  1  0  0  0  0
  7 28  1  0  0  0  0
  7 29  1  0  0  0  0
  8  9  1  0  0  0  0
  8 30  1  0  0  0  0
  9 10  2  0  0  0  0
  9 11  1  0  0  0  0
 11 12  1  0  0  0  0
 11 31  1  0  0  0  0
 12 18  1  0  0  0  0
 12 13  1  0  0  0  0
 12 32  1  0  0  0  0
 13 14  1  0  0  0  0
 13 33  1  0  0  0  0
 13 34  1  0  0  0  0
 14 15  1  0  0  0  0
 14 35  1  0  0  0  0
 14 36  1  0  0  0  0
 15 16  1  0  0  0  0
 15 17  1  0  0  0  0
 15 37  1  0  0  0  0
 16 38  1  0  0  0  0
 17 18  1  0  0  0  0
 17 39  1  0  0  0  0
 17 40  1  0  0  0  0
 18 41  1  0  0  0  0
 18 42  1  0  0  0  0
 19 20  1  0  0  0  0
 19 43  1  0  0  0  0
M  END
> <s_m_source_file>
AV-unprocessed.smi

> <i_m_source_file_index>
2717

> <i_lp_mmshare_version>
43012

> <i_f3d_flags>
0

> <s_epik_input>
W0NIM11bQ0gyXWMxbmMoW2NIXXMxKVtDSDJdW0NIMl1bTkhdQyg9TylbTkhdW0NAQEhdMltDSDJdW0NIMl1bQ0BASF0oW09IXSlbQ0gyXVtDSDJdMg==

> <s_epik_cmdline>
J2VwaWtfcHl0aG9uJywgJy1waCcsICc3LjAnLCAnLXRuJywgJzgnLCAnLW1hJywgJzIwMCcsICctbWV0YWxfYmluZGluZycsICctaW1hZScsICc8aW5maWxlLm1hZT4nLCAnLW9tYWUnLCAnPG91dGZpbGUubWFlPic=

> <r_epik_Ionization_Penalty>
0.00202099

> <r_epik_Ionization_Penalty_Charging>
0

> <r_epik_Ionization_Penalty_Neutral>
0.00202099

> <r_epik_State_Penalty>
0.00133629

> <r_epik_Charging_Adjusted_Penalty>
0.00133629

> <i_epik_Tot_Q>
0

> <i_epik_Tot_abs_Q>
0

> <r_epik_Metal_State_Penalty>
-0

> <b_epik_Metal_Only>
0

> <s_lp_Force_Field>
OPLS_2005

> <r_lp_Energy>
-3.71108

> <b_lp_Chiralities_Consistent>
1

> <s_lp_Variant>
AV-unprocessed.smi:2717-1

> <Gold.Version>
5.8.1

> <Gold.Id.Protein>
6NUR|6NUR_protein|mol2

> <Gold.PLP.Fitness>
44.7937

> <Gold.PLP.PLP>
-32.6130

> <Gold.PLP.part.hbond>
-4.9913

> <Gold.PLP.part.metal>
0.0000

> <Gold.PLP.part.buried>
-5.7939

> <Gold.PLP.part.nonpolar>
-22.9820

> <Gold.PLP.part.repulsive>
0.0643

> <Gold.PLP.ligand.clash>
0.0000

> <Gold.PLP.ligand.torsion>
0.5247

> <Gold.PLP.Chemscore.Hbond>
3.3862

> <Gold.PLP.Chemscore.CHOScore>
1.0000

> <Gold.PLP.Chemscore.Metal>
0.0000

> <Gold.Chemscore.Hbonds>
donor molecule, donor type, donor heavy atom, donor atom, acceptor molecule, acceptor atom, score
      L1  H     8    30       P1  7948  0.30
      L1  H    11    31       P1  7948  1.00
      L1  H    16    38       P1 10186  1.00
      P1  H 10785 10796       L1    16  0.47
      L1  C    19    43       P1  7948  1.00

> <Gold.PLP.Chemscore.Internal.Correction>
0.0715

> <Gold.Rescore>
     Score         DG    S(hbond)    S(metal)    S(lipo)     H(rot)  DE(clash)    DE(int)     intcor
     16.53     -16.97       2.79        0.00      66.90       2.21       0.01       0.43       ----

> <Gold.Chemscore.Fitness>
16.5262

> <Gold.Chemscore.DG>
-16.9687

> <Gold.Chemscore.ZeroCoef>
-5.4800

> <Gold.Chemscore.Hbond>
2.7888

> <Gold.Chemscore.Metal>
0.0000

> <Gold.Chemscore.Lipo>
66.9017

> <Gold.Chemscore.Internal_Hbond>
0.0000

> <Gold.Chemscore.DEClash>
0.0088

> <Gold.Chemscore.DEInternal>
0.4336

> <Gold.Chemscore.Rot>
2.2084

> <Gold.Chemscore.Internal.Correction>
   9.000000E+99

> <Gold.Chemscore.Hbonds>
donor molecule, donor type, donor heavy atom, donor atom, acceptor molecule, acceptor atom, score
      L1  H    11    31       P1  7948  0.62
      L1  H    16    38       P1 10186  1.00
      P1  H 10785 10796       L1    16  0.12

> <Gold.Chemscore.Hbond.Weighted>
-9.3147

> <Gold.Chemscore.Metal.Weighted>
-0.0000

> <Gold.Chemscore.Lipo.Weighted>
-7.8275

> <Gold.Chemscore.Internal_Hbond.Weighted>
0.0000

> <Gold.Chemscore.DEClash.Weighted>
0.0088

> <Gold.Chemscore.DEInternal.Weighted>
0.4336

> <Gold.Chemscore.Rot.Weighted>
5.6535

> <Gold.Chemscore.Internal.Correction.Weighted>
   9.000000E+99

> <Gold.Protein.RotatedTorsions>
[ 6907 6896 6895 6894 ] final   54.87 input  -60.11 | X-H torsion
[ 7974 7965 7964 7962 ] final  -56.75 input  175.53 | X-H torsion
[ 8008 7997 7996 7995 ] final  -28.42 input   59.86 | X-H torsion
[ 10167 10162 10161 10158 ] final  147.59 input  -65.29 | X-H torsion
[ 10718 10713 10712 10709 ] final   19.23 input   66.30 | X-H torsion
[ 10763 10752 10751 10750 ] final  174.86 input  -60.55 | X-H torsion
[ 11005 11000 10999 10996 ] final  -99.24 input  -57.11 | X-H torsion

> <Gold.Protein.ActiveResidues>
 VAL166  LYS551  ARG553  GLY616  TRP617  ASP618  TYR619  PRO620  LYS621  CYS622 
 ASP623  PHE694  ASN695  SER759  ASP760  ASP761  ALA762  ILE779  LEU786  VAL792 
 PHE793  MET794  SER795  GLU796  ALA797  LYS798  CYS799  TRP800  GLU811  SER814 

> <Gold.Protein.RotatedAtoms>
  152.3482  134.7042  160.0243 H   0  0  0  0  0  0  0  0  0  0  0  0  # atno 6907 bound_to 6896
  151.7405  133.3316  159.3372 H   0  0  0  0  0  0  0  0  0  0  0  0  # atno 6908 bound_to 6896
  150.7523  134.6215  159.6183 H   0  0  0  0  0  0  0  0  0  0  0  0  # atno 6909 bound_to 6896
  145.8591  140.8298  142.9946 H   0  0  0  0  0  0  0  0  0  0  0  0  # atno 7974 bound_to 7965
  154.4333  140.1845  156.1087 H   0  0  0  0  0  0  0  0  0  0  0  0  # atno 8008 bound_to 7997
  156.0235  140.3338  155.7038 H   0  0  0  0  0  0  0  0  0  0  0  0  # atno 8009 bound_to 7997
  155.5943  140.0634  157.2741 H   0  0  0  0  0  0  0  0  0  0  0  0  # atno 8010 bound_to 7997
  139.4887  144.5744  151.6994 H   0  0  0  0  0  0  0  0  0  0  0  0  # atno 10167 bound_to 10162
  157.1074  130.6494  149.5888 H   0  0  0  0  0  0  0  0  0  0  0  0  # atno 10718 bound_to 10713
  154.4597  135.2767  155.1722 H   0  0  0  0  0  0  0  0  0  0  0  0  # atno 10763 bound_to 10752
  154.3514  135.6149  153.5648 H   0  0  0  0  0  0  0  0  0  0  0  0  # atno 10764 bound_to 10752
  152.9854  135.5812  154.4957 H   0  0  0  0  0  0  0  0  0  0  0  0  # atno 10765 bound_to 10752
  141.1316  133.8306  157.0945 H   0  0  0  0  0  0  0  0  0  0  0  0  # atno 11005 bound_to 11000
  144.6727  140.1068  143.7457 LP  0  0  0  0  0  0  0  0  0  0  0  0  # atno 17320 bound_to 7965
  145.9269  139.2581  143.1348 LP  0  0  0  0  0  0  0  0  0  0  0  0  # atno 17321 bound_to 7965
  140.5337  144.0690  150.6062 LP  0  0  0  0  0  0  0  0  0  0  0  0  # atno 17342 bound_to 10162
  140.3689  143.2866  152.0301 LP  0  0  0  0  0  0  0  0  0  0  0  0  # atno 17343 bound_to 10162
  155.9858  130.4890  150.7051 LP  0  0  0  0  0  0  0  0  0  0  0  0  # atno 17370 bound_to 10713
  157.4588  131.0881  151.0768 LP  0  0  0  0  0  0  0  0  0  0  0  0  # atno 17371 bound_to 10713
  140.0372  134.9872  157.0893 LP  0  0  0  0  0  0  0  0  0  0  0  0  # atno 17394 bound_to 11000
  140.4192  134.1898  155.7164 LP  0  0  0  0  0  0  0  0  0  0  0  0  # atno 17395 bound_to 11000

$$$$
