AV-unprocessed.smi:447|AV-procd|sdf|2597|dock7
  -GOLD-   2262022593D 1   1.00000     0.00000
 Structure written by MMmdl.
 45 47  0  0  0  0  0  0  0  0  1 V2000
  154.6137  137.0233  160.3665 C   0  0  0  0  0  0  0  0  0  0  0  0
  153.2568  137.4207  159.7958 C   0  0  0  0  0  0  0  0  0  0  0  0
  152.2355  136.8557  160.1843 O   0  0  0  0  0  0  0  0  0  0  0  0
  153.2649  138.3968  158.8751 N   0  0  0  0  0  0  0  0  0  0  0  0
  152.0862  138.9507  158.2077 C   0  0  2  0  0  0  0  0  0  0  0  0
  152.2166  138.7570  156.6910 C   0  0  0  0  0  0  0  0  0  0  0  0
  151.9379  140.4083  158.5756 C   0  0  0  0  0  0  0  0  0  0  0  0
  152.8041  141.0393  159.3752 N   0  0  0  0  0  0  0  0  0  0  0  0
  152.3030  142.3240  159.4231 C   0  0  0  0  0  0  0  0  0  0  0  0
  152.7652  143.4651  160.1172 C   0  0  0  0  0  0  0  0  0  0  0  0
  152.0796  144.6927  160.0083 C   0  0  0  0  0  0  0  0  0  0  0  0
  150.9262  144.7969  159.2039 C   0  0  0  0  0  0  0  0  0  0  0  0
  150.4507  143.6721  158.5027 C   0  0  0  0  0  0  0  0  0  0  0  0
  151.1374  142.4484  158.6176 C   0  0  0  0  0  0  0  0  0  0  0  0
  150.9412  141.1839  158.0723 N   0  0  0  0  0  0  0  0  0  0  0  0
  149.8754  140.8201  157.1462 C   0  0  0  0  0  0  0  0  0  0  0  0
  150.1564  141.2770  155.7011 C   0  0  2  0  0  0  0  0  0  0  0  0
  150.3648  142.6747  155.6642 O   0  0  0  0  0  0  0  0  0  0  0  0
  149.0458  140.8377  154.7601 C   0  0  0  0  0  0  0  0  0  0  0  0
  148.8751  139.4690  154.4597 C   0  0  0  0  0  0  0  0  0  0  0  0
  147.8430  139.0555  153.5947 C   0  0  0  0  0  0  0  0  0  0  0  0
  146.9748  140.0078  153.0270 C   0  0  0  0  0  0  0  0  0  0  0  0
  147.1374  141.3740  153.3264 C   0  0  0  0  0  0  0  0  0  0  0  0
  148.1689  141.7879  154.1915 C   0  0  0  0  0  0  0  0  0  0  0  0
  155.1635  137.9048  160.6980 H   0  0  0  0  0  0  0  0  0  0  0  0
  155.2068  136.5082  159.6102 H   0  0  0  0  0  0  0  0  0  0  0  0
  154.4942  136.3558  161.2207 H   0  0  0  0  0  0  0  0  0  0  0  0
  154.1552  138.8046  158.6296 H   0  0  0  0  0  0  0  0  0  0  0  0
  151.2141  138.3947  158.5525 H   0  0  0  0  0  0  0  0  0  0  0  0
  151.3394  139.1418  156.1703 H   0  0  0  0  0  0  0  0  0  0  0  0
  152.3133  137.7012  156.4370 H   0  0  0  0  0  0  0  0  0  0  0  0
  153.0905  139.2775  156.2973 H   0  0  0  0  0  0  0  0  0  0  0  0
  153.6484  143.3952  160.7346 H   0  0  0  0  0  0  0  0  0  0  0  0
  152.4412  145.5584  160.5435 H   0  0  0  0  0  0  0  0  0  0  0  0
  150.4072  145.7410  159.1251 H   0  0  0  0  0  0  0  0  0  0  0  0
  149.5681  143.7483  157.8852 H   0  0  0  0  0  0  0  0  0  0  0  0
  149.7689  139.7348  157.1713 H   0  0  0  0  0  0  0  0  0  0  0  0
  148.9247  141.2151  157.5022 H   0  0  0  0  0  0  0  0  0  0  0  0
  151.0878  140.8195  155.3648 H   0  0  0  0  0  0  0  0  0  0  0  0
  149.5232  143.1040  155.6452 H   0  0  0  0  0  0  0  0  0  0  0  0
  149.5345  138.7307  154.8922 H   0  0  0  0  0  0  0  0  0  0  0  0
  147.7167  138.0071  153.3673 H   0  0  0  0  0  0  0  0  0  0  0  0
  146.1832  139.6907  152.3641 H   0  0  0  0  0  0  0  0  0  0  0  0
  146.4703  142.1049  152.8934 H   0  0  0  0  0  0  0  0  0  0  0  0
  148.2835  142.8380  154.4188 H   0  0  0  0  0  0  0  0  0  0  0  0
  1  2  1  0  0  0  0
  1 25  1  0  0  0  0
  1 26  1  0  0  0  0
  1 27  1  0  0  0  0
  2  3  2  0  0  0  0
  2  4  1  0  0  0  0
  4  5  1  0  0  0  0
  4 28  1  0  0  0  0
  5  6  1  0  0  0  0
  5  7  1  0  0  0  0
  5 29  1  0  0  0  0
  6 30  1  0  0  0  0
  6 31  1  0  0  0  0
  6 32  1  0  0  0  0
  7 15  1  0  0  0  0
  7  8  2  0  0  0  0
  8  9  1  0  0  0  0
  9 14  2  0  0  0  0
  9 10  1  0  0  0  0
 10 11  2  0  0  0  0
 10 33  1  0  0  0  0
 11 12  1  0  0  0  0
 11 34  1  0  0  0  0
 12 13  2  0  0  0  0
 12 35  1  0  0  0  0
 13 14  1  0  0  0  0
 13 36  1  0  0  0  0
 14 15  1  0  0  0  0
 15 16  1  0  0  0  0
 16 17  1  0  0  0  0
 16 37  1  0  0  0  0
 16 38  1  0  0  0  0
 17 18  1  0  0  0  0
 17 19  1  0  0  0  0
 17 39  1  0  0  0  0
 18 40  1  0  0  0  0
 19 24  1  0  0  0  0
 19 20  2  0  0  0  0
 20 21  1  0  0  0  0
 20 41  1  0  0  0  0
 21 22  2  0  0  0  0
 21 42  1  0  0  0  0
 22 23  1  0  0  0  0
 22 43  1  0  0  0  0
 23 24  2  0  0  0  0
 23 44  1  0  0  0  0
 24 45  1  0  0  0  0
M  END
> <s_m_source_file>
AV-unprocessed.smi

> <i_m_source_file_index>
447

> <i_lp_mmshare_version>
43012

> <i_f3d_flags>
0

> <s_epik_input>
W0NIM11DKD1PKVtOSF1bQ0BIXShbQ0gzXSljKG4xKW4oYyhjMTIpW2NIXVtjSF1bY0hdW2NIXTIpW0NIMl1bQ0BIXShbT0hdKWMzW2NIXVtjSF1bY0hdW2NIXVtjSF0z

> <s_epik_cmdline>
J2VwaWtfcHl0aG9uJywgJy1waCcsICc3LjAnLCAnLXRuJywgJzgnLCAnLW1hJywgJzIwMCcsICctbWV0YWxfYmluZGluZycsICctaW1hZScsICc8aW5maWxlLm1hZT4nLCAnLW9tYWUnLCAnPG91dGZpbGUubWFlPic=

> <r_epik_Ionization_Penalty>
0.13301

> <r_epik_Ionization_Penalty_Charging>
0

> <r_epik_Ionization_Penalty_Neutral>
0.13301

> <r_epik_State_Penalty>
0.122384

> <r_epik_Charging_Adjusted_Penalty>
0.122384

> <i_epik_Tot_Q>
0

> <i_epik_Tot_abs_Q>
0

> <r_epik_Metal_State_Penalty>
0.0997374

> <b_epik_Metal_Only>
0

> <s_lp_Force_Field>
OPLS_2005

> <r_lp_Energy>
7.61604

> <b_lp_Chiralities_Consistent>
1

> <s_lp_Variant>
AV-unprocessed.smi:447-1

> <Gold.Version>
5.8.1

> <Gold.Id.Protein>
6NUR|6NUR_protein|mol2

> <Gold.PLP.Fitness>
49.9641

> <Gold.PLP.PLP>
-45.8599

> <Gold.PLP.part.hbond>
-1.8949

> <Gold.PLP.part.metal>
0.0000

> <Gold.PLP.part.buried>
-4.5605

> <Gold.PLP.part.nonpolar>
-39.3576

> <Gold.PLP.part.repulsive>
0.0830

> <Gold.PLP.ligand.clash>
0.0000

> <Gold.PLP.ligand.torsion>
0.5058

> <Gold.PLP.Chemscore.Hbond>
1.6880

> <Gold.PLP.Chemscore.CHOScore>
0.0000

> <Gold.PLP.Chemscore.Metal>
0.0000

> <Gold.Chemscore.Hbonds>
donor molecule, donor type, donor heavy atom, donor atom, acceptor molecule, acceptor atom, score
      L1  H    18    40       P1  8028  0.77
      P1  H  6896  6908       L1     3  1.00

> <Gold.PLP.Chemscore.Internal.Correction>
0.0519

> <Gold.Rescore>
     Score         DG    S(hbond)    S(metal)    S(lipo)     H(rot)  DE(clash)    DE(int)     intcor
     19.28     -20.39       1.81        0.00     127.20       2.35       0.57       0.54       ----

> <Gold.Chemscore.Fitness>
19.2788

> <Gold.Chemscore.DG>
-20.3924

> <Gold.Chemscore.ZeroCoef>
-5.4800

> <Gold.Chemscore.Hbond>
1.8124

> <Gold.Chemscore.Metal>
0.0000

> <Gold.Chemscore.Lipo>
127.1977

> <Gold.Chemscore.Internal_Hbond>
0.0000

> <Gold.Chemscore.DEClash>
0.5735

> <Gold.Chemscore.DEInternal>
0.5400

> <Gold.Chemscore.Rot>
2.3528

> <Gold.Chemscore.Internal.Correction>
   9.000000E+99

> <Gold.Chemscore.Hbonds>
donor molecule, donor type, donor heavy atom, donor atom, acceptor molecule, acceptor atom, score
      L1  H    18    40       P1  8028  0.76
      P1  H  6896  6908       L1     3  1.00

> <Gold.Chemscore.Hbond.Weighted>
-6.0534

> <Gold.Chemscore.Metal.Weighted>
-0.0000

> <Gold.Chemscore.Lipo.Weighted>
-14.8821

> <Gold.Chemscore.Internal_Hbond.Weighted>
0.0000

> <Gold.Chemscore.DEClash.Weighted>
0.5735

> <Gold.Chemscore.DEInternal.Weighted>
0.5400

> <Gold.Chemscore.Rot.Weighted>
6.0231

> <Gold.Chemscore.Internal.Correction.Weighted>
   9.000000E+99

> <Gold.Protein.RotatedTorsions>
[ 6907 6896 6895 6894 ] final -105.64 input  -60.11 | X-H torsion
[ 7974 7965 7964 7962 ] final -176.76 input  175.53 | X-H torsion
[ 8008 7997 7996 7995 ] final   -3.80 input   59.86 | X-H torsion
[ 10167 10162 10161 10158 ] final   42.20 input  -65.29 | X-H torsion
[ 10718 10713 10712 10709 ] final    5.37 input   66.30 | X-H torsion
[ 10763 10752 10751 10750 ] final  112.56 input  -60.55 | X-H torsion
[ 11005 11000 10999 10996 ] final   33.29 input  -57.11 | X-H torsion

> <Gold.Protein.ActiveResidues>
 VAL166  LYS551  ARG553  GLY616  TRP617  ASP618  TYR619  PRO620  LYS621  CYS622 
 ASP623  PHE694  ASN695  SER759  ASP760  ASP761  ALA762  ILE779  LEU786  VAL792 
 PHE793  MET794  SER795  GLU796  ALA797  LYS798  CYS799  TRP800  GLU811  SER814 

> <Gold.Protein.RotatedAtoms>
  150.7347  134.0096  159.3664 H   0  0  0  0  0  0  0  0  0  0  0  0  # atno 6907 bound_to 6896
  151.8054  135.0694  160.0415 H   0  0  0  0  0  0  0  0  0  0  0  0  # atno 6908 bound_to 6896
  152.3111  133.5717  159.5717 H   0  0  0  0  0  0  0  0  0  0  0  0  # atno 6909 bound_to 6896
  144.7127  140.1122  143.6410 H   0  0  0  0  0  0  0  0  0  0  0  0  # atno 7974 bound_to 7965
  154.6211  140.2500  155.7549 H   0  0  0  0  0  0  0  0  0  0  0  0  # atno 8008 bound_to 7997
  156.2427  140.2926  156.0438 H   0  0  0  0  0  0  0  0  0  0  0  0  # atno 8009 bound_to 7997
  155.1896  140.0391  157.2888 H   0  0  0  0  0  0  0  0  0  0  0  0  # atno 8010 bound_to 7997
  140.3567  144.2280  150.6141 H   0  0  0  0  0  0  0  0  0  0  0  0  # atno 10167 bound_to 10162
  156.9065  130.5740  149.5647 H   0  0  0  0  0  0  0  0  0  0  0  0  # atno 10718 bound_to 10713
  153.4797  135.3682  155.2435 H   0  0  0  0  0  0  0  0  0  0  0  0  # atno 10763 bound_to 10752
  154.8755  135.3951  154.3715 H   0  0  0  0  0  0  0  0  0  0  0  0  # atno 10764 bound_to 10752
  153.4317  135.7082  153.6292 H   0  0  0  0  0  0  0  0  0  0  0  0  # atno 10765 bound_to 10752
  140.2647  134.3152  155.7846 H   0  0  0  0  0  0  0  0  0  0  0  0  # atno 11005 bound_to 11000
  145.9445  139.2691  143.1249 LP  0  0  0  0  0  0  0  0  0  0  0  0  # atno 17320 bound_to 7965
  145.9389  140.8994  143.0318 LP  0  0  0  0  0  0  0  0  0  0  0  0  # atno 17321 bound_to 7965
  140.5166  143.2276  151.8453 LP  0  0  0  0  0  0  0  0  0  0  0  0  # atno 17342 bound_to 10162
  139.4819  144.4886  151.9214 LP  0  0  0  0  0  0  0  0  0  0  0  0  # atno 17343 bound_to 10162
  156.0557  130.5619  150.9085 LP  0  0  0  0  0  0  0  0  0  0  0  0  # atno 17370 bound_to 10713
  157.5994  131.0942  150.8986 LP  0  0  0  0  0  0  0  0  0  0  0  0  # atno 17371 bound_to 10713
  141.2186  133.7430  156.9241 LP  0  0  0  0  0  0  0  0  0  0  0  0  # atno 17394 bound_to 11000
  140.1431  134.9280  157.2493 LP  0  0  0  0  0  0  0  0  0  0  0  0  # atno 17395 bound_to 11000

$$$$
