AV-unprocessed.smi:1807|AV-procd|sdf|7303|dock3
  -GOLD-   22720 8563D 1   1.00000     0.00000
 Structure written by MMmdl.
 44 45  0  0  0  0  0  0  0  0  1 V2000
  153.3218  141.4119  159.5384 C   0  0  0  0  0  0  0  0  0  0  0  0
  153.0038  142.9133  159.6448 C   0  0  2  0  0  0  0  0  0  0  0  0
  152.1474  143.2233  160.8900 C   0  0  0  0  0  0  0  0  0  0  0  0
  151.8867  144.7310  161.0348 C   0  0  0  0  0  0  0  0  0  0  0  0
  151.2365  145.3103  159.7696 C   0  0  0  0  0  0  0  0  0  0  0  0
  152.0797  145.0042  158.5191 C   0  0  0  0  0  0  0  0  0  0  0  0
  152.3618  143.4965  158.3591 C   0  0  2  0  0  0  0  0  0  0  0  0
  151.1250  142.7990  158.0009 N   0  0  0  0  0  0  0  0  0  0  0  0
  151.0305  141.5952  157.4155 C   0  0  0  0  0  0  0  0  0  0  0  0
  152.0083  140.9156  157.0982 O   0  0  0  0  0  0  0  0  0  0  0  0
  149.6054  141.1028  157.1518 C   0  0  0  0  0  0  0  0  0  0  0  0
  148.9270  141.9004  156.1395 N   0  0  0  0  0  0  0  0  0  0  0  0
  148.1170  141.2696  155.1897 C   0  0  0  0  0  0  0  0  0  0  0  0
  147.4338  141.9950  154.1763 C   0  0  0  0  0  0  0  0  0  0  0  0
  146.7831  141.0174  153.4783 C   0  0  0  0  0  0  0  0  0  0  0  0
  147.0868  139.8082  154.0737 N   0  0  0  0  0  0  0  0  0  0  0  0
  146.6441  138.4790  153.6928 C   0  0  0  0  0  0  0  0  0  0  0  0
  145.8784  138.5111  152.3689 C   0  0  0  0  0  0  0  0  0  0  0  0
  144.5916  138.1543  152.3989 N   0  0  0  0  0  0  0  0  0  0  0  0
  146.4409  138.8539  151.3314 O   0  0  0  0  0  0  0  0  0  0  0  0
  147.9100  139.9627  155.1343 N   0  0  0  0  0  0  0  0  0  0  0  0
  152.4154  140.8100  159.4690 H   0  0  0  0  0  0  0  0  0  0  0  0
  153.8766  141.0684  160.4116 H   0  0  0  0  0  0  0  0  0  0  0  0
  153.9307  141.2012  158.6587 H   0  0  0  0  0  0  0  0  0  0  0  0
  153.9596  143.4220  159.7797 H   0  0  0  0  0  0  0  0  0  0  0  0
  151.1965  142.6921  160.8301 H   0  0  0  0  0  0  0  0  0  0  0  0
  152.6469  142.8545  161.7865 H   0  0  0  0  0  0  0  0  0  0  0  0
  151.2479  144.9167  161.8988 H   0  0  0  0  0  0  0  0  0  0  0  0
  152.8280  145.2463  161.2298 H   0  0  0  0  0  0  0  0  0  0  0  0
  150.2343  144.8966  159.6514 H   0  0  0  0  0  0  0  0  0  0  0  0
  151.1117  146.3879  159.8771 H   0  0  0  0  0  0  0  0  0  0  0  0
  151.5821  145.3920  157.6293 H   0  0  0  0  0  0  0  0  0  0  0  0
  153.0277  145.5384  158.5912 H   0  0  0  0  0  0  0  0  0  0  0  0
  153.0804  143.3900  157.5445 H   0  0  0  0  0  0  0  0  0  0  0  0
  150.2628  143.2764  158.2205 H   0  0  0  0  0  0  0  0  0  0  0  0
  149.6411  140.0605  156.8301 H   0  0  0  0  0  0  0  0  0  0  0  0
  149.0404  141.1410  158.0840 H   0  0  0  0  0  0  0  0  0  0  0  0
  149.1148  142.8913  156.0845 H   0  0  0  0  0  0  0  0  0  0  0  0
  147.4246  143.0584  153.9882 H   0  0  0  0  0  0  0  0  0  0  0  0
  146.1378  141.0800  152.6146 H   0  0  0  0  0  0  0  0  0  0  0  0
  147.5094  137.8199  153.6033 H   0  0  0  0  0  0  0  0  0  0  0  0
  146.0154  138.0746  154.4875 H   0  0  0  0  0  0  0  0  0  0  0  0
  144.0436  138.1627  151.5510 H   0  0  0  0  0  0  0  0  0  0  0  0
  144.1699  137.8797  153.2744 H   0  0  0  0  0  0  0  0  0  0  0  0
  1  2  1  0  0  0  0
  1 22  1  0  0  0  0
  1 23  1  0  0  0  0
  1 24  1  0  0  0  0
  2  7  1  0  0  0  0
  2  3  1  0  0  0  0
  2 25  1  0  0  0  0
  3  4  1  0  0  0  0
  3 26  1  0  0  0  0
  3 27  1  0  0  0  0
  4  5  1  0  0  0  0
  4 28  1  0  0  0  0
  4 29  1  0  0  0  0
  5  6  1  0  0  0  0
  5 30  1  0  0  0  0
  5 31  1  0  0  0  0
  6  7  1  0  0  0  0
  6 32  1  0  0  0  0
  6 33  1  0  0  0  0
  7  8  1  0  0  0  0
  7 34  1  0  0  0  0
  8  9  1  0  0  0  0
  8 35  1  0  0  0  0
  9 10  2  0  0  0  0
  9 11  1  0  0  0  0
 11 12  1  0  0  0  0
 11 36  1  0  0  0  0
 11 37  1  0  0  0  0
 12 13  1  0  0  0  0
 12 38  1  0  0  0  0
 13 21  2  0  0  0  0
 13 14  1  0  0  0  0
 14 15  2  0  0  0  0
 14 39  1  0  0  0  0
 15 16  1  0  0  0  0
 15 40  1  0  0  0  0
 16 17  1  0  0  0  0
 16 21  1  0  0  0  0
 17 18  1  0  0  0  0
 17 41  1  0  0  0  0
 17 42  1  0  0  0  0
 18 19  1  0  0  0  0
 18 20  2  0  0  0  0
 19 43  1  0  0  0  0
 19 44  1  0  0  0  0
M  END
> <s_m_source_file>
AV-unprocessed.smi

> <i_m_source_file_index>
1807

> <i_lp_mmshare_version>
43012

> <i_f3d_flags>
0

> <s_epik_input>
W0NIM11bQ0BASF0xW0NIMl1bQ0gyXVtDSDJdW0NIMl1bQ0BIXTFbTkhdQyg9TylbQ0gyXVtOSF1jMltjSF1bY0hdbihuMilbQ0gyXUMoPU8pW05IMl0=

> <s_epik_cmdline>
J2VwaWtfcHl0aG9uJywgJy1waCcsICc3LjAnLCAnLXRuJywgJzgnLCAnLW1hJywgJzIwMCcsICctbWV0YWxfYmluZGluZycsICctaW1hZScsICc8aW5maWxlLm1hZT4nLCAnLW9tYWUnLCAnPG91dGZpbGUubWFlPic=

> <r_lp_tautomer_probability>
1

> <r_epik_Ionization_Penalty>
0.000167642

> <r_epik_Ionization_Penalty_Charging>
0

> <r_epik_Ionization_Penalty_Neutral>
0.000167642

> <r_epik_State_Penalty>
-0

> <r_epik_Charging_Adjusted_Penalty>
0

> <i_epik_Tot_Q>
0

> <i_epik_Tot_abs_Q>
0

> <r_epik_Metal_State_Penalty>
-0

> <b_epik_Metal_Only>
0

> <s_lp_Force_Field>
OPLS_2005

> <r_lp_Energy>
5.83979

> <b_lp_Chiralities_Consistent>
1

> <s_lp_Variant>
AV-unprocessed.smi:1807-3

> <Gold.Version>
5.8.1

> <Gold.Id.Protein>
6NUR|6NUR_protein|mol2

> <Gold.PLP.Fitness>
56.2591

> <Gold.PLP.PLP>
-46.5767

> <Gold.PLP.part.hbond>
-4.6783

> <Gold.PLP.part.metal>
0.0000

> <Gold.PLP.part.buried>
-5.4596

> <Gold.PLP.part.nonpolar>
-38.3963

> <Gold.PLP.part.repulsive>
1.0022

> <Gold.PLP.ligand.clash>
0.0000

> <Gold.PLP.ligand.torsion>
0.5208

> <Gold.PLP.Chemscore.Hbond>
3.2416

> <Gold.PLP.Chemscore.CHOScore>
0.3220

> <Gold.PLP.Chemscore.Metal>
0.0000

> <Gold.Chemscore.Hbonds>
donor molecule, donor type, donor heavy atom, donor atom, acceptor molecule, acceptor atom, score
      L1  H    12    38       P1  8028  1.00
      L1  H    19    43       P1 10171  1.00
      L1  C    15    40       P1 10175  0.75

> <Gold.PLP.Chemscore.Internal.Correction>
0.0332

> <Gold.Rescore>
     Score         DG    S(hbond)    S(metal)    S(lipo)     H(rot)  DE(clash)    DE(int)     intcor
     19.51     -21.21       3.02        0.00     106.02       2.64       0.79       0.92       ----

> <Gold.Chemscore.Fitness>
19.5052

> <Gold.Chemscore.DG>
-21.2104

> <Gold.Chemscore.ZeroCoef>
-5.4800

> <Gold.Chemscore.Hbond>
3.0170

> <Gold.Chemscore.Metal>
0.0000

> <Gold.Chemscore.Lipo>
106.0164

> <Gold.Chemscore.Internal_Hbond>
0.0000

> <Gold.Chemscore.DEClash>
0.7878

> <Gold.Chemscore.DEInternal>
0.9173

> <Gold.Chemscore.Rot>
2.6369

> <Gold.Chemscore.Internal.Correction>
   9.000000E+99

> <Gold.Chemscore.Hbonds>
donor molecule, donor type, donor heavy atom, donor atom, acceptor molecule, acceptor atom, score
      L1  H    12    38       P1  8028  0.99
      L1  H    19    43       P1 10171  0.95
      P1  H  7954  7966       L1    20  0.05

> <Gold.Chemscore.Hbond.Weighted>
-10.0768

> <Gold.Chemscore.Metal.Weighted>
-0.0000

> <Gold.Chemscore.Lipo.Weighted>
-12.4039

> <Gold.Chemscore.Internal_Hbond.Weighted>
0.0000

> <Gold.Chemscore.DEClash.Weighted>
0.7878

> <Gold.Chemscore.DEInternal.Weighted>
0.9173

> <Gold.Chemscore.Rot.Weighted>
6.7504

> <Gold.Chemscore.Internal.Correction.Weighted>
   9.000000E+99

> <Gold.Protein.RotatedTorsions>
[ 6907 6896 6895 6894 ] final  119.22 input  -60.11 | X-H torsion
[ 7974 7965 7964 7962 ] final -139.37 input  175.53 | X-H torsion
[ 8008 7997 7996 7995 ] final  -53.57 input   59.86 | X-H torsion
[ 10167 10162 10161 10158 ] final   31.84 input  -65.29 | X-H torsion
[ 10718 10713 10712 10709 ] final -102.27 input   66.30 | X-H torsion
[ 10763 10752 10751 10750 ] final   89.02 input  -60.55 | X-H torsion
[ 11005 11000 10999 10996 ] final  -56.22 input  -57.11 | X-H torsion

> <Gold.Protein.ActiveResidues>
 VAL166  LYS551  ARG553  GLY616  TRP617  ASP618  TYR619  PRO620  LYS621  CYS622 
 ASP623  PHE694  ASN695  SER759  ASP760  ASP761  ALA762  ILE779  LEU786  VAL792 
 PHE793  MET794  SER795  GLU796  ALA797  LYS798  CYS799  TRP800  GLU811  SER814 

> <Gold.Protein.RotatedAtoms>
  152.4488  133.7588  159.6734 H   0  0  0  0  0  0  0  0  0  0  0  0  # atno 6907 bound_to 6896
  150.8394  133.7950  159.3073 H   0  0  0  0  0  0  0  0  0  0  0  0  # atno 6908 bound_to 6896
  151.5580  135.1069  160.0017 H   0  0  0  0  0  0  0  0  0  0  0  0  # atno 6909 bound_to 6896
  144.8682  140.6326  143.5284 H   0  0  0  0  0  0  0  0  0  0  0  0  # atno 7974 bound_to 7965
  154.4137  140.1197  156.5175 H   0  0  0  0  0  0  0  0  0  0  0  0  # atno 8008 bound_to 7997
  155.6737  140.3496  155.4809 H   0  0  0  0  0  0  0  0  0  0  0  0  # atno 8009 bound_to 7997
  155.9611  140.1123  157.0884 H   0  0  0  0  0  0  0  0  0  0  0  0  # atno 8010 bound_to 7997
  140.4552  144.0989  150.6200 H   0  0  0  0  0  0  0  0  0  0  0  0  # atno 10167 bound_to 10162
  156.0223  130.5412  150.7083 H   0  0  0  0  0  0  0  0  0  0  0  0  # atno 10718 bound_to 10713
  153.1827  135.4486  155.0049 H   0  0  0  0  0  0  0  0  0  0  0  0  # atno 10763 bound_to 10752
  154.8041  135.3267  154.7479 H   0  0  0  0  0  0  0  0  0  0  0  0  # atno 10764 bound_to 10752
  153.7942  135.6968  153.4921 H   0  0  0  0  0  0  0  0  0  0  0  0  # atno 10765 bound_to 10752
  141.1110  133.6610  156.4587 H   0  0  0  0  0  0  0  0  0  0  0  0  # atno 11005 bound_to 11000
  145.4180  139.1568  143.4089 LP  0  0  0  0  0  0  0  0  0  0  0  0  # atno 17320 bound_to 7965
  146.2911  140.4289  142.8739 LP  0  0  0  0  0  0  0  0  0  0  0  0  # atno 17321 bound_to 7965
  140.4160  143.2634  151.9775 LP  0  0  0  0  0  0  0  0  0  0  0  0  # atno 17342 bound_to 10162
  139.4800  144.5874  151.7831 LP  0  0  0  0  0  0  0  0  0  0  0  0  # atno 17343 bound_to 10162
  157.4727  131.0895  151.0624 LP  0  0  0  0  0  0  0  0  0  0  0  0  # atno 17370 bound_to 10713
  157.1080  130.6009  149.5475 LP  0  0  0  0  0  0  0  0  0  0  0  0  # atno 17371 bound_to 10713
  140.4774  134.6696  157.5156 LP  0  0  0  0  0  0  0  0  0  0  0  0  # atno 17394 bound_to 11000
  140.0004  134.6845  155.9539 LP  0  0  0  0  0  0  0  0  0  0  0  0  # atno 17395 bound_to 11000

$$$$
