AV-unprocessed.smi:1858|AV-procd|sdf|7542|dock2
  -GOLD-   22720 9253D 1   1.00000     0.00000
 Structure written by MMmdl.
 48 49  0  0  0  0  0  0  0  0  1 V2000
  145.3647  135.7138  150.9485 C   0  0  0  0  0  0  0  0  0  0  0  0
  146.2579  134.7846  151.6223 N   0  0  0  0  0  0  0  0  0  0  0  0
  145.9696  133.4970  151.8819 C   0  0  0  0  0  0  0  0  0  0  0  0
  144.8988  132.9931  151.5408 O   0  0  0  0  0  0  0  0  0  0  0  0
  147.0224  132.7811  152.6081 C   0  0  0  0  0  0  0  0  0  0  0  0
  146.8686  131.3643  152.8744 C   0  0  0  0  0  0  0  0  0  0  0  0
  147.7970  130.6914  153.5830 C   0  0  0  0  0  0  0  0  0  0  0  0
  148.9944  131.3529  154.1112 C   0  0  0  0  0  0  0  0  0  0  0  0
  149.8299  130.7493  154.7842 O   0  0  0  0  0  0  0  0  0  0  0  0
  149.1188  132.6806  153.8097 N   0  0  0  0  0  0  0  0  0  0  0  0
  150.2500  133.4810  154.3026 C   0  0  0  0  0  0  0  0  0  0  0  0
  149.7636  134.5432  155.2927 C   0  0  0  0  0  0  0  0  0  0  0  0
  149.5825  134.2551  156.4752 O   0  0  0  0  0  0  0  0  0  0  0  0
  149.5388  135.7621  154.7790 N   0  0  0  0  0  0  0  0  0  0  0  0
  148.9477  136.8998  155.4780 C   0  0  0  0  0  0  0  0  0  0  0  0
  149.0144  138.1836  154.6125 C   0  0  0  0  0  0  0  0  0  0  0  0
  150.4047  138.6398  154.1268 C   0  0  0  0  0  0  0  0  0  0  0  0
  151.4142  139.0524  155.2134 C   0  0  0  0  0  0  0  0  0  0  0  0
  150.8520  139.9829  156.3074 C   0  0  0  0  0  0  0  0  0  0  0  0
  150.5252  139.2894  157.6463 C   0  0  0  0  0  0  0  0  0  0  0  0
  149.3351  138.3067  157.6555 C   0  0  0  0  0  0  0  0  0  0  0  0
  149.5853  136.9961  156.8829 C   0  0  0  0  0  0  0  0  0  0  0  0
  148.1422  133.3772  153.0703 C   0  0  0  0  0  0  0  0  0  0  0  0
  145.8324  136.6962  150.8839 H   0  0  0  0  0  0  0  0  0  0  0  0
  144.4282  135.8188  151.4974 H   0  0  0  0  0  0  0  0  0  0  0  0
  145.1412  135.3740  149.9366 H   0  0  0  0  0  0  0  0  0  0  0  0
  147.1498  135.1447  151.9295 H   0  0  0  0  0  0  0  0  0  0  0  0
  146.0041  130.8299  152.5073 H   0  0  0  0  0  0  0  0  0  0  0  0
  147.6562  129.6367  153.7684 H   0  0  0  0  0  0  0  0  0  0  0  0
  151.0111  132.8685  154.7883 H   0  0  0  0  0  0  0  0  0  0  0  0
  150.7590  133.9548  153.4611 H   0  0  0  0  0  0  0  0  0  0  0  0
  149.7380  135.8967  153.7986 H   0  0  0  0  0  0  0  0  0  0  0  0
  147.8890  136.6829  155.6319 H   0  0  0  0  0  0  0  0  0  0  0  0
  148.4048  138.0200  153.7232 H   0  0  0  0  0  0  0  0  0  0  0  0
  148.5097  139.0048  155.1181 H   0  0  0  0  0  0  0  0  0  0  0  0
  150.8500  137.8688  153.4990 H   0  0  0  0  0  0  0  0  0  0  0  0
  150.2552  139.4947  153.4665 H   0  0  0  0  0  0  0  0  0  0  0  0
  151.8834  138.1759  155.6571 H   0  0  0  0  0  0  0  0  0  0  0  0
  152.2318  139.5695  154.7097 H   0  0  0  0  0  0  0  0  0  0  0  0
  151.6135  140.7344  156.5190 H   0  0  0  0  0  0  0  0  0  0  0  0
  149.9950  140.5497  155.9427 H   0  0  0  0  0  0  0  0  0  0  0  0
  151.4170  138.7837  158.0193 H   0  0  0  0  0  0  0  0  0  0  0  0
  150.3126  140.0704  158.3771 H   0  0  0  0  0  0  0  0  0  0  0  0
  149.1588  138.0398  158.6982 H   0  0  0  0  0  0  0  0  0  0  0  0
  148.4146  138.7943  157.3357 H   0  0  0  0  0  0  0  0  0  0  0  0
  149.1779  136.1744  157.4736 H   0  0  0  0  0  0  0  0  0  0  0  0
  150.6543  136.7898  156.8438 H   0  0  0  0  0  0  0  0  0  0  0  0
  148.3692  134.4256  152.9381 H   0  0  0  0  0  0  0  0  0  0  0  0
  1  2  1  0  0  0  0
  1 24  1  0  0  0  0
  1 25  1  0  0  0  0
  1 26  1  0  0  0  0
  2  3  1  0  0  0  0
  2 27  1  0  0  0  0
  3  4  2  0  0  0  0
  3  5  1  0  0  0  0
  5 23  2  0  0  0  0
  5  6  1  0  0  0  0
  6  7  2  0  0  0  0
  6 28  1  0  0  0  0
  7  8  1  0  0  0  0
  7 29  1  0  0  0  0
  8  9  2  0  0  0  0
  8 10  1  0  0  0  0
 10 11  1  0  0  0  0
 10 23  1  0  0  0  0
 11 12  1  0  0  0  0
 11 30  1  0  0  0  0
 11 31  1  0  0  0  0
 12 13  2  0  0  0  0
 12 14  1  0  0  0  0
 14 15  1  0  0  0  0
 14 32  1  0  0  0  0
 15 22  1  0  0  0  0
 15 16  1  0  0  0  0
 15 33  1  0  0  0  0
 16 17  1  0  0  0  0
 16 34  1  0  0  0  0
 16 35  1  0  0  0  0
 17 18  1  0  0  0  0
 17 36  1  0  0  0  0
 17 37  1  0  0  0  0
 18 19  1  0  0  0  0
 18 38  1  0  0  0  0
 18 39  1  0  0  0  0
 19 20  1  0  0  0  0
 19 40  1  0  0  0  0
 19 41  1  0  0  0  0
 20 21  1  0  0  0  0
 20 42  1  0  0  0  0
 20 43  1  0  0  0  0
 21 22  1  0  0  0  0
 21 44  1  0  0  0  0
 21 45  1  0  0  0  0
 22 46  1  0  0  0  0
 22 47  1  0  0  0  0
 23 48  1  0  0  0  0
M  END
> <s_m_source_file>
AV-unprocessed.smi

> <i_m_source_file_index>
1858

> <i_lp_mmshare_version>
43012

> <i_f3d_flags>
0

> <s_epik_input>
W0NIM11bTkhdQyg9TyljMVtjSF1bY0hdYyg9TyluKFtjSF0xKVtDSDJdQyg9TylbTkhdW0NIXTJbQ0gyXVtDSDJdW0NIMl1bQ0gyXVtDSDJdW0NIMl1bQ0gyXTI=

> <s_epik_cmdline>
J2VwaWtfcHl0aG9uJywgJy1waCcsICc3LjAnLCAnLXRuJywgJzgnLCAnLW1hJywgJzIwMCcsICctbWV0YWxfYmluZGluZycsICctaW1hZScsICc8aW5maWxlLm1hZT4nLCAnLW9tYWUnLCAnPG91dGZpbGUubWFlPic=

> <r_lp_tautomer_probability>
1

> <r_epik_Ionization_Penalty>
3.70383e-07

> <r_epik_Ionization_Penalty_Charging>
5.00098e-08

> <r_epik_Ionization_Penalty_Neutral>
3.20374e-07

> <r_epik_State_Penalty>
-0

> <r_epik_Charging_Adjusted_Penalty>
5.00098e-08

> <i_epik_Tot_Q>
0

> <i_epik_Tot_abs_Q>
0

> <r_epik_Metal_State_Penalty>
-0

> <b_epik_Metal_Only>
0

> <s_lp_Force_Field>
OPLS_2005

> <r_lp_Energy>
33.6896

> <b_lp_Chiralities_Consistent>
1

> <s_lp_Variant>
AV-unprocessed.smi:1858-1

> <Gold.Version>
5.8.1

> <Gold.Id.Protein>
6NUR|6NUR_protein|mol2

> <Gold.PLP.Fitness>
41.6349

> <Gold.PLP.PLP>
-33.7639

> <Gold.PLP.part.hbond>
-2.0000

> <Gold.PLP.part.metal>
0.0000

> <Gold.PLP.part.buried>
-5.4599

> <Gold.PLP.part.nonpolar>
-27.5120

> <Gold.PLP.part.repulsive>
0.2108

> <Gold.PLP.ligand.clash>
0.0000

> <Gold.PLP.ligand.torsion>
0.5012

> <Gold.PLP.Chemscore.Hbond>
1.9357

> <Gold.PLP.Chemscore.CHOScore>
1.0000

> <Gold.PLP.Chemscore.Metal>
0.0000

> <Gold.Chemscore.Hbonds>
donor molecule, donor type, donor heavy atom, donor atom, acceptor molecule, acceptor atom, score
      L1  H     2    27       P1  7948  0.91
      L1  H    14    32       P1  7948  0.80
      L1  C    23    48       P1  7948  1.00

> <Gold.PLP.Chemscore.Internal.Correction>
0.0663

> <Gold.Rescore>
     Score         DG    S(hbond)    S(metal)    S(lipo)     H(rot)  DE(clash)    DE(int)     intcor
     11.90     -13.92       1.07        0.00      74.04       1.48       0.31       1.71       ----

> <Gold.Chemscore.Fitness>
11.9043

> <Gold.Chemscore.DG>
-13.9206

> <Gold.Chemscore.ZeroCoef>
-5.4800

> <Gold.Chemscore.Hbond>
1.0688

> <Gold.Chemscore.Metal>
0.0000

> <Gold.Chemscore.Lipo>
74.0397

> <Gold.Chemscore.Internal_Hbond>
0.0000

> <Gold.Chemscore.DEClash>
0.3086

> <Gold.Chemscore.DEInternal>
1.7076

> <Gold.Chemscore.Rot>
1.4812

> <Gold.Chemscore.Internal.Correction>
   9.000000E+99

> <Gold.Chemscore.Hbonds>
donor molecule, donor type, donor heavy atom, donor atom, acceptor molecule, acceptor atom, score
      L1  H     2    27       P1  7948  0.85
      L1  H    14    32       P1  7948  0.17

> <Gold.Chemscore.Hbond.Weighted>
-3.5699

> <Gold.Chemscore.Metal.Weighted>
-0.0000

> <Gold.Chemscore.Lipo.Weighted>
-8.6627

> <Gold.Chemscore.Internal_Hbond.Weighted>
0.0000

> <Gold.Chemscore.DEClash.Weighted>
0.3086

> <Gold.Chemscore.DEInternal.Weighted>
1.7076

> <Gold.Chemscore.Rot.Weighted>
3.7920

> <Gold.Chemscore.Internal.Correction.Weighted>
   9.000000E+99

> <Gold.Protein.RotatedTorsions>
[ 6907 6896 6895 6894 ] final   26.49 input  -60.11 | X-H torsion
[ 7974 7965 7964 7962 ] final  137.16 input  175.53 | X-H torsion
[ 8008 7997 7996 7995 ] final  -10.01 input   59.86 | X-H torsion
[ 10167 10162 10161 10158 ] final  161.59 input  -65.29 | X-H torsion
[ 10718 10713 10712 10709 ] final   -7.76 input   66.30 | X-H torsion
[ 10763 10752 10751 10750 ] final  -10.88 input  -60.55 | X-H torsion
[ 11005 11000 10999 10996 ] final  127.15 input  -57.11 | X-H torsion

> <Gold.Protein.ActiveResidues>
 VAL166  LYS551  ARG553  GLY616  TRP617  ASP618  TYR619  PRO620  LYS621  CYS622 
 ASP623  PHE694  ASN695  SER759  ASP760  ASP761  ALA762  ILE779  LEU786  VAL792 
 PHE793  MET794  SER795  GLU796  ALA797  LYS798  CYS799  TRP800  GLU811  SER814 

> <Gold.Protein.RotatedAtoms>
  151.9882  134.9993  160.0560 H   0  0  0  0  0  0  0  0  0  0  0  0  # atno 6907 bound_to 6896
  152.1633  133.4591  159.4880 H   0  0  0  0  0  0  0  0  0  0  0  0  # atno 6908 bound_to 6896
  150.6891  134.1962  159.4347 H   0  0  0  0  0  0  0  0  0  0  0  0  # atno 6909 bound_to 6896
  144.9494  139.4836  143.5533 H   0  0  0  0  0  0  0  0  0  0  0  0  # atno 7974 bound_to 7965
  154.5594  140.2340  155.8360 H   0  0  0  0  0  0  0  0  0  0  0  0  # atno 8008 bound_to 7997
  156.2016  140.3051  155.9498 H   0  0  0  0  0  0  0  0  0  0  0  0  # atno 8009 bound_to 7997
  155.2918  140.0427  157.3014 H   0  0  0  0  0  0  0  0  0  0  0  0  # atno 8010 bound_to 7997
  139.4851  144.4521  151.8816 H   0  0  0  0  0  0  0  0  0  0  0  0  # atno 10167 bound_to 10162
  156.7125  130.5126  149.5888 H   0  0  0  0  0  0  0  0  0  0  0  0  # atno 10718 bound_to 10713
  153.4756  135.7017  153.5968 H   0  0  0  0  0  0  0  0  0  0  0  0  # atno 10763 bound_to 10752
  153.4203  135.3827  155.2107 H   0  0  0  0  0  0  0  0  0  0  0  0  # atno 10764 bound_to 10752
  154.8723  135.3926  154.4199 H   0  0  0  0  0  0  0  0  0  0  0  0  # atno 10765 bound_to 10752
  139.9493  134.9625  156.8812 H   0  0  0  0  0  0  0  0  0  0  0  0  # atno 11005 bound_to 11000
  146.3315  139.8569  142.8863 LP  0  0  0  0  0  0  0  0  0  0  0  0  # atno 17320 bound_to 7965
  145.2867  141.0155  143.3686 LP  0  0  0  0  0  0  0  0  0  0  0  0  # atno 17321 bound_to 7965
  140.3979  144.2531  150.5895 LP  0  0  0  0  0  0  0  0  0  0  0  0  # atno 17342 bound_to 10162
  140.5085  143.2297  151.8571 LP  0  0  0  0  0  0  0  0  0  0  0  0  # atno 17343 bound_to 10162
  156.1651  130.6400  151.0768 LP  0  0  0  0  0  0  0  0  0  0  0  0  # atno 17370 bound_to 10713
  157.6930  131.0803  150.7051 LP  0  0  0  0  0  0  0  0  0  0  0  0  # atno 17371 bound_to 10713
  140.5759  134.0399  155.7446 LP  0  0  0  0  0  0  0  0  0  0  0  0  # atno 17394 bound_to 11000
  141.1151  133.9553  157.2837 LP  0  0  0  0  0  0  0  0  0  0  0  0  # atno 17395 bound_to 11000

$$$$
