AV-unprocessed.smi:114|AV-procd|sdf|1113|dock1
  -GOLD-   2262018233D 1   1.00000     0.00000
 Structure written by MMmdl.
 32 34  0  0  0  0  0  0  0  0  1 V2000
  153.0627  138.7614  154.8487 N   0  0  0  0  0  0  0  0  0  0  0  0
  151.8281  138.2560  154.7179 C   0  0  0  0  0  0  0  0  0  0  0  0
  151.6775  136.9114  154.7319 N   0  0  0  0  0  0  0  0  0  0  0  0
  150.4620  136.3664  154.6008 C   0  0  0  0  0  0  0  0  0  0  0  0
  150.4043  135.0142  154.6237 F   0  0  0  0  0  0  0  0  0  0  0  0
  149.2988  137.0080  154.4478 N   0  0  0  0  0  0  0  0  0  0  0  0
  149.4442  138.3648  154.4336 C   0  0  0  0  0  0  0  0  0  0  0  0
  150.6748  139.0633  154.5627 C   0  0  0  0  0  0  0  0  0  0  0  0
  150.4527  140.4320  154.5017 N   0  0  0  0  0  0  0  0  0  0  0  0
  149.1606  140.5323  154.3422 C   0  0  0  0  0  0  0  0  0  0  0  0
  148.4748  139.3387  154.2843 N   0  0  0  0  0  0  0  0  0  0  0  0
  146.9976  139.1538  154.0995 C   0  0  2  0  0  0  0  0  0  0  0  0
  146.5939  137.9665  154.7168 O   0  0  0  0  0  0  0  0  0  0  0  0
  146.0095  137.0768  153.7651 C   0  0  1  0  0  0  0  0  0  0  0  0
  144.9116  136.2409  154.4410 C   0  0  0  0  0  0  0  0  0  0  0  0
  145.4836  135.1379  155.1108 O   0  0  0  0  0  0  0  0  0  0  0  0
  145.4789  138.0260  152.6889 C   0  0  2  0  0  0  0  0  0  0  0  0
  145.2437  137.3875  151.4476 O   0  0  0  0  0  0  0  0  0  0  0  0
  146.5688  139.0864  152.6209 C   0  0  2  0  0  0  0  0  0  0  0  0
  147.6218  138.7386  151.7349 O   0  0  0  0  0  0  0  0  0  0  0  0
  146.5465  139.9932  154.6302 H   0  0  0  0  0  0  0  0  0  0  0  0
  146.7818  136.4370  153.3352 H   0  0  0  0  0  0  0  0  0  0  0  0
  144.5520  138.4889  153.0314 H   0  0  0  0  0  0  0  0  0  0  0  0
  146.1712  140.0537  152.3127 H   0  0  0  0  0  0  0  0  0  0  0  0
  153.1998  139.7619  154.8387 H   0  0  0  0  0  0  0  0  0  0  0  0
  153.8524  138.1413  154.9552 H   0  0  0  0  0  0  0  0  0  0  0  0
  148.6676  141.4897  154.2562 H   0  0  0  0  0  0  0  0  0  0  0  0
  144.3226  136.8428  155.1337 H   0  0  0  0  0  0  0  0  0  0  0  0
  144.2257  135.8461  153.6909 H   0  0  0  0  0  0  0  0  0  0  0  0
  144.9695  134.3689  154.9183 H   0  0  0  0  0  0  0  0  0  0  0  0
  144.7024  137.9516  150.9172 H   0  0  0  0  0  0  0  0  0  0  0  0
  148.3409  139.3353  151.8749 H   0  0  0  0  0  0  0  0  0  0  0  0
  1  2  1  0  0  0  0
  1 25  1  0  0  0  0
  1 26  1  0  0  0  0
  2  8  1  0  0  0  0
  2  3  2  0  0  0  0
  3  4  1  0  0  0  0
  4  5  1  0  0  0  0
  4  6  2  0  0  0  0
  6  7  1  0  0  0  0
  7 11  1  0  0  0  0
  7  8  2  0  0  0  0
  8  9  1  0  0  0  0
  9 10  2  0  0  0  0
 10 11  1  0  0  0  0
 10 27  1  0  0  0  0
 11 12  1  0  0  0  0
 12 21  1  0  0  0  0
 12 19  1  0  0  0  0
 12 13  1  0  0  0  0
 13 14  1  0  0  0  0
 14 22  1  0  0  0  0
 14 15  1  0  0  0  0
 14 17  1  0  0  0  0
 15 16  1  0  0  0  0
 15 28  1  0  0  0  0
 15 29  1  0  0  0  0
 16 30  1  0  0  0  0
 17 23  1  0  0  0  0
 17 18  1  0  0  0  0
 17 19  1  0  0  0  0
 18 31  1  0  0  0  0
 19 24  1  0  0  0  0
 19 20  1  0  0  0  0
 20 32  1  0  0  0  0
M  END
> <s_m_source_file>
AV-unprocessed.smi

> <i_m_source_file_index>
114

> <i_lp_mmshare_version>
43012

> <i_f3d_flags>
0

> <s_epik_input>
RmMobjEpbmMoW05IMl0pYyhjMTIpbltjSF1uMltDQEBIXTNPW0NASF0oW0NIMl1bT0hdKVtDQEBIXShbT0hdKVtDQEBIXTNbT0hd

> <s_epik_cmdline>
J2VwaWtfcHl0aG9uJywgJy1waCcsICc3LjAnLCAnLXRuJywgJzgnLCAnLW1hJywgJzIwMCcsICctbWV0YWxfYmluZGluZycsICctaW1hZScsICc8aW5maWxlLm1hZT4nLCAnLW9tYWUnLCAnPG91dGZpbGUubWFlPic=

> <r_lp_tautomer_probability>
1

> <r_epik_Ionization_Penalty>
1.13199e-05

> <r_epik_Ionization_Penalty_Charging>
0

> <r_epik_Ionization_Penalty_Neutral>
1.13199e-05

> <r_epik_State_Penalty>
-0

> <r_epik_Charging_Adjusted_Penalty>
0

> <i_epik_Tot_Q>
0

> <i_epik_Tot_abs_Q>
0

> <r_epik_Metal_State_Penalty>
-0

> <b_epik_Metal_Only>
0

> <s_epik_Chemistry_Notes>
This compound contains an acetal/aminal-like group ( X-CH(R)-Y where X, Y are N, S, or O) that may be acid/base labile, releasing an aldehyde.

> <s_lp_Force_Field>
OPLS_2005

> <r_lp_Energy>
45.5286

> <b_lp_Chiralities_Consistent>
1

> <s_lp_Variant>
AV-unprocessed.smi:114-7

> <Gold.Version>
5.8.1

> <Gold.Id.Protein>
6NUR|6NUR_protein|mol2

> <Gold.PLP.Fitness>
40.1803

> <Gold.PLP.PLP>
-27.6025

> <Gold.PLP.part.hbond>
-5.4504

> <Gold.PLP.part.metal>
0.0000

> <Gold.PLP.part.buried>
-3.7010

> <Gold.PLP.part.nonpolar>
-20.6556

> <Gold.PLP.part.repulsive>
2.4402

> <Gold.PLP.ligand.clash>
0.0000

> <Gold.PLP.ligand.torsion>
0.9371

> <Gold.PLP.Chemscore.Hbond>
4.8144

> <Gold.PLP.Chemscore.CHOScore>
0.0000

> <Gold.PLP.Chemscore.Metal>
0.0000

> <Gold.Chemscore.Hbonds>
donor molecule, donor type, donor heavy atom, donor atom, acceptor molecule, acceptor atom, score
      L1  H    18    31       P1 10171  0.98
      L1  H    20    32       P1  7957  0.83
      P1  H  7954  7966       L1    20  0.77
      P1  H  7989  7998       L1     9  1.00
      P1  H 10752 10764       L1     3  1.00

> <Gold.PLP.Chemscore.Internal.Correction>
0.0088

> <Gold.Rescore>
     Score         DG    S(hbond)    S(metal)    S(lipo)     H(rot)  DE(clash)    DE(int)     intcor
      6.60     -10.21       3.60        0.00      25.83       4.03       1.50       2.11       ----

> <Gold.Chemscore.Fitness>
6.6005

> <Gold.Chemscore.DG>
-10.2087

> <Gold.Chemscore.ZeroCoef>
-5.4800

> <Gold.Chemscore.Hbond>
3.5981

> <Gold.Chemscore.Metal>
0.0000

> <Gold.Chemscore.Lipo>
25.8303

> <Gold.Chemscore.Internal_Hbond>
0.0000

> <Gold.Chemscore.DEClash>
1.5027

> <Gold.Chemscore.DEInternal>
2.1055

> <Gold.Chemscore.Rot>
4.0277

> <Gold.Chemscore.Internal.Correction>
   9.000000E+99

> <Gold.Chemscore.Hbonds>
donor molecule, donor type, donor heavy atom, donor atom, acceptor molecule, acceptor atom, score
      L1  H    18    31       P1 10171  0.92
      L1  H    20    32       P1  7957  0.82
      P1  H  7954  7966       L1    20  0.19
      P1  H  7989  7998       L1     9  0.28
      P1  H 10752 10764       L1     3  0.68

> <Gold.Chemscore.Hbond.Weighted>
-12.0176

> <Gold.Chemscore.Metal.Weighted>
-0.0000

> <Gold.Chemscore.Lipo.Weighted>
-3.0221

> <Gold.Chemscore.Internal_Hbond.Weighted>
0.0000

> <Gold.Chemscore.DEClash.Weighted>
1.5027

> <Gold.Chemscore.DEInternal.Weighted>
2.1055

> <Gold.Chemscore.Rot.Weighted>
10.3110

> <Gold.Chemscore.Internal.Correction.Weighted>
   9.000000E+99

> <Gold.Protein.RotatedTorsions>
[ 6907 6896 6895 6894 ] final  117.87 input  -60.11 | X-H torsion
[ 7974 7965 7964 7962 ] final -107.37 input  175.53 | X-H torsion
[ 8008 7997 7996 7995 ] final    0.38 input   59.86 | X-H torsion
[ 10167 10162 10161 10158 ] final  -15.05 input  -65.29 | X-H torsion
[ 10718 10713 10712 10709 ] final   71.77 input   66.30 | X-H torsion
[ 10763 10752 10751 10750 ] final  -56.56 input  -60.55 | X-H torsion
[ 11005 11000 10999 10996 ] final  173.02 input  -57.11 | X-H torsion

> <Gold.Protein.ActiveResidues>
 VAL166  LYS551  ARG553  GLY616  TRP617  ASP618  TYR619  PRO620  LYS621  CYS622 
 ASP623  PHE694  ASN695  SER759  ASP760  ASP761  ALA762  ILE779  LEU786  VAL792 
 PHE793  MET794  SER795  GLU796  ALA797  LYS798  CYS799  TRP800  GLU811  SER814 

> <Gold.Protein.RotatedAtoms>
  152.4582  133.7767  159.6828 H   0  0  0  0  0  0  0  0  0  0  0  0  # atno 6907 bound_to 6896
  150.8516  133.7768  159.3030 H   0  0  0  0  0  0  0  0  0  0  0  0  # atno 6908 bound_to 6896
  151.5362  135.1071  159.9967 H   0  0  0  0  0  0  0  0  0  0  0  0  # atno 6909 bound_to 6896
  145.2062  140.9077  143.3341 H   0  0  0  0  0  0  0  0  0  0  0  0  # atno 7974 bound_to 7965
  154.6674  140.2604  155.7043 H   0  0  0  0  0  0  0  0  0  0  0  0  # atno 8008 bound_to 7997
  156.2645  140.2836  156.1092 H   0  0  0  0  0  0  0  0  0  0  0  0  # atno 8009 bound_to 7997
  155.1218  140.0377  157.2742 H   0  0  0  0  0  0  0  0  0  0  0  0  # atno 8010 bound_to 7997
  140.7212  143.5258  150.9578 H   0  0  0  0  0  0  0  0  0  0  0  0  # atno 10167 bound_to 10162
  157.6468  130.9545  150.0835 H   0  0  0  0  0  0  0  0  0  0  0  0  # atno 10718 bound_to 10713
  154.2086  135.6398  153.5108 H   0  0  0  0  0  0  0  0  0  0  0  0  # atno 10763 bound_to 10752
  152.9995  135.5468  154.6239 H   0  0  0  0  0  0  0  0  0  0  0  0  # atno 10764 bound_to 10752
  154.5670  135.2913  155.0837 H   0  0  0  0  0  0  0  0  0  0  0  0  # atno 10765 bound_to 10752
  140.3360  134.7317  157.4168 H   0  0  0  0  0  0  0  0  0  0  0  0  # atno 11005 bound_to 11000
  144.9900  139.3699  143.6219 LP  0  0  0  0  0  0  0  0  0  0  0  0  # atno 17320 bound_to 7965
  146.3407  139.9078  142.8785 LP  0  0  0  0  0  0  0  0  0  0  0  0  # atno 17321 bound_to 7965
  139.8977  143.6874  152.3136 LP  0  0  0  0  0  0  0  0  0  0  0  0  # atno 17342 bound_to 10162
  139.7213  144.7602  151.0951 LP  0  0  0  0  0  0  0  0  0  0  0  0  # atno 17343 bound_to 10162
  156.1804  130.3650  149.9043 LP  0  0  0  0  0  0  0  0  0  0  0  0  # atno 17370 bound_to 10713
  156.6996  130.8928  151.3598 LP  0  0  0  0  0  0  0  0  0  0  0  0  # atno 17371 bound_to 10713
  140.0821  134.5717  155.8530 LP  0  0  0  0  0  0  0  0  0  0  0  0  # atno 17394 bound_to 11000
  141.2051  133.6644  156.6161 LP  0  0  0  0  0  0  0  0  0  0  0  0  # atno 17395 bound_to 11000

$$$$
