#       Name:                AV-unprocessed.smi:1231
#       Creating user name   scv26
#       Creation time:       Fri Mar 27 04:24:01 2020


#       File generated by GOLD software.
#

@<TRIPOS>MOLECULE
AV-unprocessed.smi:1231
    48    49     1
SMALL
NO_CHARGES


@<TRIPOS>ATOM
      1 ****        -4.4698  -2.8063  -0.0880 C.3            1 S1                 0.0000
      2 ****        -3.9561  -1.9785   1.1035 C.3            1 S1                 0.0000
      3 ****        -2.4197  -1.8649   1.1583 C.3            1 S1                 0.0000
      4 ****        -1.9116  -0.9375   0.1197 N.4            1 S1                 1.0000
      5 ****        -0.4302  -0.8540   0.1123 C.3            1 S1                 0.0000
      6 ****         0.1218  -0.3645  -1.2404 C.3            1 S1                 0.0000
      7 ****         1.5796  -0.3248  -1.2416 N.am           1 S1                 0.0000
      8 ****         2.3182   0.6269  -0.6525 C.2            1 S1                 0.0000
      9 ****         1.8297   1.5746  -0.0360 O.2            1 S1                 0.0000
     10 ****         3.6326   0.4038  -0.8269 N.am           1 S1                 0.0000
     11 ****         4.7246   1.1728  -0.3432 C.ar           1 S1                 0.0000
     12 ****         6.0023   0.7029  -0.7231 C.ar           1 S1                 0.0000
     13 ****         7.1509   1.3964  -0.2949 C.ar           1 S1                 0.0000
     14 ****         6.9919   2.5420   0.5049 C.ar           1 S1                 0.0000
     15 ****         5.6847   2.9412   0.8397 C.ar           1 S1                 0.0000
     16 ****         4.5824   2.2786   0.4295 N.ar           1 S1                 0.0000
     17 ****        -2.5770   0.3821   0.2402 C.3            1 S1                 0.0000
     18 ****        -4.1052   0.2233   0.1491 C.3            1 S1                 0.0000
     19 ****        -4.8347   1.5551   0.3568 C.3            1 S1                 0.0000
     20 ****        -4.5491  -0.6812   1.1572 O.3            1 S1                 0.0000
     21 ****        -4.1040  -3.8319  -0.0316 H              1 S1                 0.0000
     22 ****        -4.1463  -2.4004  -1.0460 H              1 S1                 0.0000
     23 ****        -5.5593  -2.8469  -0.0919 H              1 S1                 0.0000
     24 ****        -4.2812  -2.4951   2.0070 H              1 S1                 0.0000
     25 ****        -2.1145  -1.4985   2.1400 H              1 S1                 0.0000
     26 ****        -1.9703  -2.8514   1.0365 H              1 S1                 0.0000
     27 ****        -0.0971  -0.2150   0.9317 H              1 S1                 0.0000
     28 ****        -0.0145  -1.8440   0.3070 H              1 S1                 0.0000
     29 ****        -0.1995  -1.0358  -2.0371 H              1 S1                 0.0000
     30 ****        -0.2604   0.6243  -1.4954 H              1 S1                 0.0000
     31 ****         2.0582  -1.0679  -1.7300 H              1 S1                 0.0000
     32 ****         3.8829  -0.4108  -1.3675 H              1 S1                 0.0000
     33 ****         6.1067  -0.1790  -1.3386 H              1 S1                 0.0000
     34 ****         8.1361   1.0547  -0.5761 H              1 S1                 0.0000
     35 ****         7.8484   3.1004   0.8525 H              1 S1                 0.0000
     36 ****         5.5192   3.8145   1.4529 H              1 S1                 0.0000
     37 ****        -2.3009   0.8442   1.1897 H              1 S1                 0.0000
     38 ****        -2.2388   1.0528  -0.5490 H              1 S1                 0.0000
     39 ****        -4.3757  -0.1594  -0.8353 H              1 S1                 0.0000
     40 ****        -4.5463   2.2837  -0.4012 H              1 S1                 0.0000
     41 ****        -4.6078   1.9820   1.3344 H              1 S1                 0.0000
     42 ****        -5.9151   1.4212   0.2947 H              1 S1                 0.0000
     43 ****        -2.1841  -1.3297  -0.7702 H              1 S1                 0.0000
     44 ****         0.8366   1.6609   0.0433 LP             1 S1                 0.0000
     45 ****         2.4261   2.2578   0.3853 LP             1 S1                 0.0000
     46 ****         3.6722   2.5990   0.6920 LP             1 S1                 0.0000
     47 ****        -4.3390  -0.2802   2.0488 LP             1 S1                 0.0000
     48 ****        -5.5391  -0.7880   1.0647 LP             1 S1                 0.0000
@<TRIPOS>BOND
    1    1    2 1     
    2    1   21 1     
    3    1   22 1     
    4    1   23 1     
    5    2   20 1     
    6    2    3 1     
    7    2   24 1     
    8    3    4 1     
    9    3   25 1     
   10    3   26 1     
   11    4    5 1     
   12    4   17 1     
   13    4   43 1     
   14    5    6 1     
   15    5   27 1     
   16    5   28 1     
   17    6    7 1     
   18    6   29 1     
   19    6   30 1     
   20    7    8 am    
   21    7   31 1     
   22    8    9 2     
   23    8   10 am    
   24   10   11 1     
   25   10   32 1     
   26   11   16 ar    
   27   11   12 ar    
   28   12   13 ar    
   29   12   33 1     
   30   13   14 ar    
   31   13   34 1     
   32   14   15 ar    
   33   14   35 1     
   34   15   16 ar    
   35   15   36 1     
   36   17   18 1     
   37   17   37 1     
   38   17   38 1     
   39   18   19 1     
   40   18   20 1     
   41   18   39 1     
   42   19   40 1     
   43   19   41 1     
   44   19   42 1     
   45    9   44 1     
   46    9   45 1     
   47   16   46 1     
   48   20   47 1     
   49   20   48 1     
@<TRIPOS>SUBSTRUCTURE
      1 S1             1
@<TRIPOS>SET
LONE_PAIRS      STATIC     ATOMS    <user>   **** ""
5 44 45 46 47 48
DONOR_HYDROGENS      STATIC     ATOMS    <user>   **** ""
3 43 31 32
ATOM$BLUE        STATIC     ATOMS    COLORGROUP SYSTEM
5 44 45 46 47 48
ATOM$RED        STATIC     ATOMS    COLORGROUP SYSTEM
3 43 31 32
