AV-unprocessed.smi:2632|AV-procd|sdf|10250|dock6
  -GOLD-   2272014263D 1   1.00000     0.00000
 Structure written by MMmdl.
 38 39  0  0  0  0  0  0  0  0  1 V2000
  147.7065  136.4157  160.4493 C   0  0  0  0  0  0  0  0  0  0  0  0
  147.7568  136.4880  159.0358 O   0  0  0  0  0  0  0  0  0  0  0  0
  149.0819  136.4311  158.5336 C   0  0  0  0  0  0  0  0  0  0  0  0
  149.0531  136.5208  156.9986 C   0  0  0  0  0  0  0  0  0  0  0  0
  150.0150  137.4679  156.4707 N   0  0  0  0  0  0  0  0  0  0  0  0
  149.9395  138.8481  156.6767 C   0  0  0  0  0  0  0  0  0  0  0  0
  148.9052  139.3609  157.4414 N   0  0  0  0  0  0  0  0  0  0  0  0
  150.8525  139.6882  156.1237 C   0  0  0  0  0  0  0  0  0  0  0  0
  150.8521  141.4578  156.2841 S   0  0  0  0  0  0  0  0  0  0  0  0
  151.5437  141.6480  157.8948 C   0  0  0  0  0  0  0  0  0  0  0  0
  151.6324  142.9285  158.4759 C   0  0  0  0  0  0  0  0  0  0  0  0
  152.1936  143.0800  159.7586 C   0  0  0  0  0  0  0  0  0  0  0  0
  152.6648  141.9526  160.4633 C   0  0  0  0  0  0  0  0  0  0  0  0
  153.2698  142.1208  161.8419 C   0  0  0  0  0  0  0  0  0  0  0  0
  152.5743  140.6722  159.8776 C   0  0  0  0  0  0  0  0  0  0  0  0
  152.0128  140.5194  158.5948 C   0  0  0  0  0  0  0  0  0  0  0  0
  151.9585  139.2066  155.2931 C   0  0  0  0  0  0  0  0  0  0  0  0
  152.8339  139.8912  154.7641 O   0  0  0  0  0  0  0  0  0  0  0  0
  151.9658  137.8234  155.1162 N   0  0  0  0  0  0  0  0  0  0  0  0
  151.0430  136.9291  155.6563 C   0  0  0  0  0  0  0  0  0  0  0  0
  151.1502  135.7279  155.4069 O   0  0  0  0  0  0  0  0  0  0  0  0
  152.7011  137.4364  154.5425 H   0  0  0  0  0  0  0  0  0  0  0  0
  146.6691  136.4587  160.7807 H   0  0  0  0  0  0  0  0  0  0  0  0
  148.2422  137.2489  160.9059 H   0  0  0  0  0  0  0  0  0  0  0  0
  148.1364  135.4810  160.8119 H   0  0  0  0  0  0  0  0  0  0  0  0
  149.6599  137.2637  158.9369 H   0  0  0  0  0  0  0  0  0  0  0  0
  149.5727  135.5115  158.8558 H   0  0  0  0  0  0  0  0  0  0  0  0
  149.2554  135.5550  156.5372 H   0  0  0  0  0  0  0  0  0  0  0  0
  148.0682  136.8123  156.6292 H   0  0  0  0  0  0  0  0  0  0  0  0
  148.2045  138.7617  157.8535 H   0  0  0  0  0  0  0  0  0  0  0  0
  148.8876  140.3299  157.7258 H   0  0  0  0  0  0  0  0  0  0  0  0
  151.2754  143.7960  157.9404 H   0  0  0  0  0  0  0  0  0  0  0  0
  152.2618  144.0637  160.1995 H   0  0  0  0  0  0  0  0  0  0  0  0
  153.2670  141.1788  162.3909 H   0  0  0  0  0  0  0  0  0  0  0  0
  152.7052  142.8511  162.4223 H   0  0  0  0  0  0  0  0  0  0  0  0
  154.3001  142.4678  161.7610 H   0  0  0  0  0  0  0  0  0  0  0  0
  152.9354  139.8036  160.4086 H   0  0  0  0  0  0  0  0  0  0  0  0
  151.9484  139.5377  158.1486 H   0  0  0  0  0  0  0  0  0  0  0  0
  1  2  1  0  0  0  0
  1 23  1  0  0  0  0
  1 24  1  0  0  0  0
  1 25  1  0  0  0  0
  2  3  1  0  0  0  0
  3  4  1  0  0  0  0
  3 26  1  0  0  0  0
  3 27  1  0  0  0  0
  4  5  1  0  0  0  0
  4 28  1  0  0  0  0
  4 29  1  0  0  0  0
  5 20  1  0  0  0  0
  5  6  1  0  0  0  0
  6  7  1  0  0  0  0
  6  8  2  0  0  0  0
  7 30  1  0  0  0  0
  7 31  1  0  0  0  0
  8  9  1  0  0  0  0
  8 17  1  0  0  0  0
  9 10  1  0  0  0  0
 10 16  1  0  0  0  0
 10 11  2  0  0  0  0
 11 12  1  0  0  0  0
 11 32  1  0  0  0  0
 12 13  2  0  0  0  0
 12 33  1  0  0  0  0
 13 14  1  0  0  0  0
 13 15  1  0  0  0  0
 14 34  1  0  0  0  0
 14 35  1  0  0  0  0
 14 36  1  0  0  0  0
 15 16  2  0  0  0  0
 15 37  1  0  0  0  0
 16 38  1  0  0  0  0
 17 18  2  0  0  0  0
 17 19  1  0  0  0  0
 19 22  1  0  0  0  0
 19 20  1  0  0  0  0
 20 21  2  0  0  0  0
M  END
> <s_m_source_file>
AV-unprocessed.smi

> <i_m_source_file_index>
2632

> <i_lp_mmshare_version>
43012

> <i_f3d_flags>
0

> <s_epik_input>
W0NIM11PW0NIMl1bQ0gyXW4xYyhbTkgyXSljKGMoPU8pW25IXWMxPU8pU2MyW2NIXVtjSF1jKFtDSDNdKVtjSF1bY0hdMg==

> <s_epik_cmdline>
J2VwaWtfcHl0aG9uJywgJy1waCcsICc3LjAnLCAnLXRuJywgJzgnLCAnLW1hJywgJzIwMCcsICctbWV0YWxfYmluZGluZycsICctaW1hZScsICc8aW5maWxlLm1hZT4nLCAnLW9tYWUnLCAnPG91dGZpbGUubWFlPic=

> <r_lp_tautomer_probability>
1

> <r_epik_Ionization_Penalty>
1.3786e-05

> <r_epik_Ionization_Penalty_Charging>
1.17844e-05

> <r_epik_Ionization_Penalty_Neutral>
2.00164e-06

> <r_epik_State_Penalty>
-0

> <r_epik_Charging_Adjusted_Penalty>
1.17844e-05

> <i_epik_Tot_Q>
0

> <i_epik_Tot_abs_Q>
0

> <r_epik_Metal_State_Penalty>
0.0115847

> <b_epik_Metal_Only>
0

> <s_epik_Chemistry_Notes>
This compound has an imine and may undergo hydrolysis.

> <s_lp_Force_Field>
OPLS_2005

> <r_lp_Energy>
18.7052

> <b_lp_Chiralities_Consistent>
1

> <s_lp_Variant>
AV-unprocessed.smi:2632-1

> <Gold.Version>
5.8.1

> <Gold.Id.Protein>
6NUR|6NUR_protein|mol2

> <Gold.PLP.Fitness>
42.5561

> <Gold.PLP.PLP>
-36.6139

> <Gold.PLP.part.hbond>
-3.0000

> <Gold.PLP.part.metal>
0.0000

> <Gold.PLP.part.buried>
-3.6649

> <Gold.PLP.part.nonpolar>
-29.9559

> <Gold.PLP.part.repulsive>
0.3898

> <Gold.PLP.ligand.clash>
0.0000

> <Gold.PLP.ligand.torsion>
0.6409

> <Gold.PLP.Chemscore.Hbond>
2.4000

> <Gold.PLP.Chemscore.CHOScore>
0.0000

> <Gold.PLP.Chemscore.Metal>
0.0000

> <Gold.Chemscore.Hbonds>
donor molecule, donor type, donor heavy atom, donor atom, acceptor molecule, acceptor atom, score
      P1  H  7989  7998       L1    18  0.36
      P1  H  7997  8009       L1    18  1.00
      P1  H 10752 10763       L1    21  1.00

> <Gold.PLP.Chemscore.Internal.Correction>
0.0240

> <Gold.Rescore>
     Score         DG    S(hbond)    S(metal)    S(lipo)     H(rot)  DE(clash)    DE(int)     intcor
     15.91     -16.63       1.78        0.00      88.52       2.02       0.03       0.68       ----

> <Gold.Chemscore.Fitness>
15.9143

> <Gold.Chemscore.DG>
-16.6268

> <Gold.Chemscore.ZeroCoef>
-5.4800

> <Gold.Chemscore.Hbond>
1.7834

> <Gold.Chemscore.Metal>
0.0000

> <Gold.Chemscore.Lipo>
88.5154

> <Gold.Chemscore.Internal_Hbond>
0.0000

> <Gold.Chemscore.DEClash>
0.0310

> <Gold.Chemscore.DEInternal>
0.6815

> <Gold.Chemscore.Rot>
2.0180

> <Gold.Chemscore.Internal.Correction>
   9.000000E+99

> <Gold.Chemscore.Hbonds>
donor molecule, donor type, donor heavy atom, donor atom, acceptor molecule, acceptor atom, score
      P1  H  7989  7998       L1    18  0.07
      P1  H  7997  8009       L1    18  0.88
      P1  H 10752 10763       L1    21  0.43

> <Gold.Chemscore.Hbond.Weighted>
-5.9567

> <Gold.Chemscore.Metal.Weighted>
-0.0000

> <Gold.Chemscore.Lipo.Weighted>
-10.3563

> <Gold.Chemscore.Internal_Hbond.Weighted>
0.0000

> <Gold.Chemscore.DEClash.Weighted>
0.0310

> <Gold.Chemscore.DEInternal.Weighted>
0.6815

> <Gold.Chemscore.Rot.Weighted>
5.1661

> <Gold.Chemscore.Internal.Correction.Weighted>
   9.000000E+99

> <Gold.Protein.RotatedTorsions>
[ 6907 6896 6895 6894 ] final   18.01 input  -60.11 | X-H torsion
[ 7974 7965 7964 7962 ] final  -90.81 input  175.53 | X-H torsion
[ 8008 7997 7996 7995 ] final -137.07 input   59.86 | X-H torsion
[ 10167 10162 10161 10158 ] final   67.09 input  -65.29 | X-H torsion
[ 10718 10713 10712 10709 ] final -165.88 input   66.30 | X-H torsion
[ 10763 10752 10751 10750 ] final   56.08 input  -60.55 | X-H torsion
[ 11005 11000 10999 10996 ] final  -20.44 input  -57.11 | X-H torsion

> <Gold.Protein.ActiveResidues>
 VAL166  LYS551  ARG553  GLY616  TRP617  ASP618  TYR619  PRO620  LYS621  CYS622 
 ASP623  PHE694  ASN695  SER759  ASP760  ASP761  ALA762  ILE779  LEU786  VAL792 
 PHE793  MET794  SER795  GLU796  ALA797  LYS798  CYS799  TRP800  GLU811  SER814 

> <Gold.Protein.RotatedAtoms>
  151.8585  135.0532  160.0466 H   0  0  0  0  0  0  0  0  0  0  0  0  # atno 6907 bound_to 6896
  152.2681  133.5353  159.5431 H   0  0  0  0  0  0  0  0  0  0  0  0  # atno 6908 bound_to 6896
  150.7141  134.0652  159.3887 H   0  0  0  0  0  0  0  0  0  0  0  0  # atno 6909 bound_to 6896
  145.4216  140.9551  143.2178 H   0  0  0  0  0  0  0  0  0  0  0  0  # atno 7974 bound_to 7965
  155.4057  140.0509  157.3034 H   0  0  0  0  0  0  0  0  0  0  0  0  # atno 8008 bound_to 7997
  154.4969  140.2142  155.9387 H   0  0  0  0  0  0  0  0  0  0  0  0  # atno 8009 bound_to 7997
  156.1418  140.3153  155.8512 H   0  0  0  0  0  0  0  0  0  0  0  0  # atno 8010 bound_to 7997
  140.0934  144.4968  150.7084 H   0  0  0  0  0  0  0  0  0  0  0  0  # atno 10167 bound_to 10162
  156.6599  130.9041  151.3027 H   0  0  0  0  0  0  0  0  0  0  0  0  # atno 10718 bound_to 10713
  152.9826  135.5688  154.5171 H   0  0  0  0  0  0  0  0  0  0  0  0  # atno 10763 bound_to 10752
  154.4666  135.2783  155.1676 H   0  0  0  0  0  0  0  0  0  0  0  0  # atno 10764 bound_to 10752
  154.3242  135.6263  153.5575 H   0  0  0  0  0  0  0  0  0  0  0  0  # atno 10765 bound_to 10752
  140.8465  133.7888  155.9918 H   0  0  0  0  0  0  0  0  0  0  0  0  # atno 11005 bound_to 11000
  144.8242  139.5739  143.6973 LP  0  0  0  0  0  0  0  0  0  0  0  0  # atno 17320 bound_to 7965
  146.2654  139.6507  142.9333 LP  0  0  0  0  0  0  0  0  0  0  0  0  # atno 17321 bound_to 7965
  140.7017  143.2439  151.4846 LP  0  0  0  0  0  0  0  0  0  0  0  0  # atno 17342 bound_to 10162
  139.5712  144.1924  152.1839 LP  0  0  0  0  0  0  0  0  0  0  0  0  # atno 17343 bound_to 10162
  157.7113  130.9444  150.1100 LP  0  0  0  0  0  0  0  0  0  0  0  0  # atno 17370 bound_to 10713
  156.2019  130.3661  149.8777 LP  0  0  0  0  0  0  0  0  0  0  0  0  # atno 17371 bound_to 10713
  140.8838  134.2579  157.5130 LP  0  0  0  0  0  0  0  0  0  0  0  0  # atno 17394 bound_to 11000
  139.8703  134.9628  156.4441 LP  0  0  0  0  0  0  0  0  0  0  0  0  # atno 17395 bound_to 11000

$$$$
