AV-unprocessed.smi:1450|AV-procd|sdf|5898|dock10
  -GOLD-   22720 5583D 1   1.00000     0.00000
 Structure written by MMmdl.
 31 32  0  0  0  0  0  0  0  0  1 V2000
  144.8024  136.3337  153.0446 O   0  0  0  0  0  0  0  0  0  0  0  0
  145.9575  136.2375  152.6313 C   0  0  0  0  0  0  0  0  0  0  0  0
  146.9045  137.1566  152.8668 N   0  0  0  0  0  0  0  0  0  0  0  0
  146.7044  138.3955  153.6114 C   0  0  0  0  0  0  0  0  0  0  0  0
  147.8772  139.3780  153.4267 C   0  0  1  0  0  0  0  0  0  0  0  0
  147.6275  140.7591  154.0184 C   0  0  0  0  0  0  0  0  0  0  0  0
  149.0001  141.2032  154.5376 C   0  0  0  0  0  0  0  0  0  0  0  0
  149.9057  140.1713  154.1686 O   0  0  0  0  0  0  0  0  0  0  0  0
  149.1763  138.9580  154.1105 C   0  0  0  0  0  0  0  0  0  0  0  0
  146.4453  135.2141  151.9094 N   0  0  0  0  0  0  0  0  0  0  0  0
  145.7649  134.0640  151.4242 C   0  0  0  0  0  0  0  0  0  0  0  0
  144.3568  134.0529  151.4969 C   0  0  0  0  0  0  0  0  0  0  0  0
  143.6538  132.9213  151.0420 C   0  0  0  0  0  0  0  0  0  0  0  0
  144.3917  131.8340  150.5363 C   0  0  0  0  0  0  0  0  0  0  0  0
  145.7396  131.8210  150.4720 N   0  0  0  0  0  0  0  0  0  0  0  0
  146.4077  132.9106  150.9087 C   0  0  0  0  0  0  0  0  0  0  0  0
  147.8295  136.9931  152.4970 H   0  0  0  0  0  0  0  0  0  0  0  0
  145.7666  138.8642  153.3087 H   0  0  0  0  0  0  0  0  0  0  0  0
  146.5931  138.1388  154.6654 H   0  0  0  0  0  0  0  0  0  0  0  0
  148.0824  139.5028  152.3622 H   0  0  0  0  0  0  0  0  0  0  0  0
  147.2309  141.4451  153.2690 H   0  0  0  0  0  0  0  0  0  0  0  0
  146.9143  140.7198  154.8432 H   0  0  0  0  0  0  0  0  0  0  0  0
  149.3148  142.1585  154.1169 H   0  0  0  0  0  0  0  0  0  0  0  0
  148.9853  141.2993  155.6241 H   0  0  0  0  0  0  0  0  0  0  0  0
  148.9940  138.5901  155.1217 H   0  0  0  0  0  0  0  0  0  0  0  0
  149.7182  138.1921  153.5551 H   0  0  0  0  0  0  0  0  0  0  0  0
  147.4352  135.2432  151.7142 H   0  0  0  0  0  0  0  0  0  0  0  0
  143.8185  134.9017  151.8931 H   0  0  0  0  0  0  0  0  0  0  0  0
  142.5751  132.8869  151.0808 H   0  0  0  0  0  0  0  0  0  0  0  0
  143.8861  130.9490  150.1792 H   0  0  0  0  0  0  0  0  0  0  0  0
  147.4817  132.8280  150.8544 H   0  0  0  0  0  0  0  0  0  0  0  0
  1  2  2  0  0  0  0
  2  3  1  0  0  0  0
  2 10  1  0  0  0  0
  3  4  1  0  0  0  0
  3 17  1  0  0  0  0
  4  5  1  0  0  0  0
  4 18  1  0  0  0  0
  4 19  1  0  0  0  0
  5  9  1  0  0  0  0
  5  6  1  0  0  0  0
  5 20  1  0  0  0  0
  6  7  1  0  0  0  0
  6 21  1  0  0  0  0
  6 22  1  0  0  0  0
  7  8  1  0  0  0  0
  7 23  1  0  0  0  0
  7 24  1  0  0  0  0
  8  9  1  0  0  0  0
  9 25  1  0  0  0  0
  9 26  1  0  0  0  0
 10 11  1  0  0  0  0
 10 27  1  0  0  0  0
 11 16  1  0  0  0  0
 11 12  2  0  0  0  0
 12 13  1  0  0  0  0
 12 28  1  0  0  0  0
 13 14  2  0  0  0  0
 13 29  1  0  0  0  0
 14 15  1  0  0  0  0
 14 30  1  0  0  0  0
 15 16  2  0  0  0  0
 16 31  1  0  0  0  0
M  END
> <s_m_source_file>
AV-unprocessed.smi

> <i_m_source_file_index>
1450

> <i_lp_mmshare_version>
43012

> <i_f3d_flags>
0

> <s_epik_input>
W2NIXTFuW2NIXVtjSF1bY0hdYzFbTkhdQyg9TylbTkhdW0NIMl1bQ0BASF0yW0NIMl1bQ0gyXU9bQ0gyXTI=

> <s_epik_cmdline>
J2VwaWtfcHl0aG9uJywgJy1waCcsICc3LjAnLCAnLXRuJywgJzgnLCAnLW1hJywgJzIwMCcsICctbWV0YWxfYmluZGluZycsICctaW1hZScsICc8aW5maWxlLm1hZT4nLCAnLW9tYWUnLCAnPG91dGZpbGUubWFlPic=

> <r_epik_Ionization_Penalty>
0.00478342

> <r_epik_Ionization_Penalty_Charging>
0

> <r_epik_Ionization_Penalty_Neutral>
0.00478342

> <r_epik_State_Penalty>
0.0034384

> <r_epik_Charging_Adjusted_Penalty>
0.0034384

> <i_epik_Tot_Q>
0

> <i_epik_Tot_abs_Q>
0

> <r_epik_Metal_State_Penalty>
-0

> <b_epik_Metal_Only>
0

> <s_lp_Force_Field>
OPLS_2005

> <r_lp_Energy>
21.9504

> <b_lp_Chiralities_Consistent>
1

> <s_lp_Variant>
AV-unprocessed.smi:1450-2

> <Gold.Version>
5.8.1

> <Gold.Id.Protein>
6NUR|6NUR_protein|mol2

> <Gold.PLP.Fitness>
38.4247

> <Gold.PLP.PLP>
-27.3748

> <Gold.PLP.part.hbond>
-2.8691

> <Gold.PLP.part.metal>
0.0000

> <Gold.PLP.part.buried>
-2.5430

> <Gold.PLP.part.nonpolar>
-23.0724

> <Gold.PLP.part.repulsive>
1.1236

> <Gold.PLP.ligand.clash>
0.0000

> <Gold.PLP.ligand.torsion>
0.1586

> <Gold.PLP.Chemscore.Hbond>
2.8080

> <Gold.PLP.Chemscore.CHOScore>
0.9803

> <Gold.PLP.Chemscore.Metal>
0.0000

> <Gold.Chemscore.Hbonds>
donor molecule, donor type, donor heavy atom, donor atom, acceptor molecule, acceptor atom, score
      L1  H     3    17       P1  7948  0.91
      L1  H    10    27       P1  7948  0.93
      P1  H  7989  7998       L1     8  0.88
      L1  C    16    31       P1 10747  1.00

> <Gold.PLP.Chemscore.Internal.Correction>
0.0023

> <Gold.Rescore>
     Score         DG    S(hbond)    S(metal)    S(lipo)     H(rot)  DE(clash)    DE(int)     intcor
     17.03     -18.86       2.69        0.00      64.63       1.24       0.32       1.51       ----

> <Gold.Chemscore.Fitness>
17.0331

> <Gold.Chemscore.DG>
-18.8617

> <Gold.Chemscore.ZeroCoef>
-5.4800

> <Gold.Chemscore.Hbond>
2.6923

> <Gold.Chemscore.Metal>
0.0000

> <Gold.Chemscore.Lipo>
64.6266

> <Gold.Chemscore.Internal_Hbond>
0.0000

> <Gold.Chemscore.DEClash>
0.3178

> <Gold.Chemscore.DEInternal>
1.5108

> <Gold.Chemscore.Rot>
1.2390

> <Gold.Chemscore.Internal.Correction>
   9.000000E+99

> <Gold.Chemscore.Hbonds>
donor molecule, donor type, donor heavy atom, donor atom, acceptor molecule, acceptor atom, score
      L1  H     3    17       P1  7948  0.86
      L1  H    10    27       P1  7948  0.84
      P1  H  7989  7998       L1     8  0.70

> <Gold.Chemscore.Hbond.Weighted>
-8.9922

> <Gold.Chemscore.Metal.Weighted>
-0.0000

> <Gold.Chemscore.Lipo.Weighted>
-7.5613

> <Gold.Chemscore.Internal_Hbond.Weighted>
0.0000

> <Gold.Chemscore.DEClash.Weighted>
0.3178

> <Gold.Chemscore.DEInternal.Weighted>
1.5108

> <Gold.Chemscore.Rot.Weighted>
3.1718

> <Gold.Chemscore.Internal.Correction.Weighted>
   9.000000E+99

> <Gold.Protein.RotatedTorsions>
[ 6907 6896 6895 6894 ] final -143.59 input  -60.11 | X-H torsion
[ 7974 7965 7964 7962 ] final  -76.05 input  175.53 | X-H torsion
[ 8008 7997 7996 7995 ] final   83.02 input   59.86 | X-H torsion
[ 10167 10162 10161 10158 ] final  102.35 input  -65.29 | X-H torsion
[ 10718 10713 10712 10709 ] final   90.75 input   66.30 | X-H torsion
[ 10763 10752 10751 10750 ] final   66.45 input  -60.55 | X-H torsion
[ 11005 11000 10999 10996 ] final -149.44 input  -57.11 | X-H torsion

> <Gold.Protein.ActiveResidues>
 VAL166  LYS551  ARG553  GLY616  TRP617  ASP618  TYR619  PRO620  LYS621  CYS622 
 ASP623  PHE694  ASN695  SER759  ASP760  ASP761  ALA762  ILE779  LEU786  VAL792 
 PHE793  MET794  SER795  GLU796  ALA797  LYS798  CYS799  TRP800  GLU811  SER814 

> <Gold.Protein.RotatedAtoms>
  151.1026  133.5232  159.2609 H   0  0  0  0  0  0  0  0  0  0  0  0  # atno 6907 bound_to 6896
  151.2057  135.0460  159.8900 H   0  0  0  0  0  0  0  0  0  0  0  0  # atno 6908 bound_to 6896
  152.5444  134.0848  159.8305 H   0  0  0  0  0  0  0  0  0  0  0  0  # atno 6909 bound_to 6896
  145.6180  140.9370  143.1154 H   0  0  0  0  0  0  0  0  0  0  0  0  # atno 7974 bound_to 7965
  155.9184  140.3423  155.6153 H   0  0  0  0  0  0  0  0  0  0  0  0  # atno 8008 bound_to 7997
  155.7303  140.0794  157.2310 H   0  0  0  0  0  0  0  0  0  0  0  0  # atno 8009 bound_to 7997
  154.4066  140.1589  156.2488 H   0  0  0  0  0  0  0  0  0  0  0  0  # atno 8010 bound_to 7997
  139.7357  144.7024  151.0652 H   0  0  0  0  0  0  0  0  0  0  0  0  # atno 10167 bound_to 10162
  157.6959  131.0382  150.3625 H   0  0  0  0  0  0  0  0  0  0  0  0  # atno 10718 bound_to 10713
  153.0140  135.5320  154.6825 H   0  0  0  0  0  0  0  0  0  0  0  0  # atno 10763 bound_to 10752
  154.5981  135.2865  155.0567 H   0  0  0  0  0  0  0  0  0  0  0  0  # atno 10764 bound_to 10752
  154.1634  135.6544  153.5044 H   0  0  0  0  0  0  0  0  0  0  0  0  # atno 10765 bound_to 10752
  140.7508  134.3409  157.5126 H   0  0  0  0  0  0  0  0  0  0  0  0  # atno 11005 bound_to 11000
  144.7243  139.7928  143.7371 LP  0  0  0  0  0  0  0  0  0  0  0  0  # atno 17320 bound_to 7965
  146.1453  139.4521  143.0083 LP  0  0  0  0  0  0  0  0  0  0  0  0  # atno 17321 bound_to 7965
  140.7778  143.4986  150.9800 LP  0  0  0  0  0  0  0  0  0  0  0  0  # atno 17342 bound_to 10162
  139.8675  143.7235  152.3169 LP  0  0  0  0  0  0  0  0  0  0  0  0  # atno 17343 bound_to 10162
  156.4060  130.3925  149.6925 LP  0  0  0  0  0  0  0  0  0  0  0  0  # atno 17370 bound_to 10713
  156.4226  130.7776  151.2794 LP  0  0  0  0  0  0  0  0  0  0  0  0  # atno 17371 bound_to 10713
  139.8788  134.9140  156.3098 LP  0  0  0  0  0  0  0  0  0  0  0  0  # atno 17394 bound_to 11000
  140.9753  133.7301  156.0593 LP  0  0  0  0  0  0  0  0  0  0  0  0  # atno 17395 bound_to 11000

$$$$
