AV-unprocessed.smi:3030|AV-procd|sdf|11536|dock3
  -GOLD-   2272016483D 1   1.00000     0.00000
 Structure written by MMmdl.
 52 53  0  0  0  0  0  0  0  0  1 V2000
  145.8987  143.2201  154.8363 C   0  0  0  0  0  0  0  0  0  0  0  0
  146.2666  142.4568  153.5590 C   0  0  0  0  0  0  0  0  0  0  0  0
  147.2817  141.4436  153.8086 N   0  0  0  0  0  0  0  0  0  0  0  0
  148.5487  141.7879  154.2677 C   0  0  0  0  0  0  0  0  0  0  0  0
  149.5478  140.9048  154.4581 C   0  0  0  0  0  0  0  0  0  0  0  0
  149.3162  139.4757  154.1658 C   0  0  0  0  0  0  0  0  0  0  0  0
  150.2066  138.6418  154.3300 O   0  0  0  0  0  0  0  0  0  0  0  0
  147.9637  139.1079  153.6690 C   0  0  0  0  0  0  0  0  0  0  0  0
  147.7504  137.7449  153.4035 N   0  0  0  0  0  0  0  0  0  0  0  0
  146.9321  136.8721  154.0192 C   0  0  0  0  0  0  0  0  0  0  0  0
  146.1694  137.1283  154.9505 O   0  0  0  0  0  0  0  0  0  0  0  0
  147.0455  135.6515  153.4770 N   0  0  0  0  0  0  0  0  0  0  0  0
  146.3142  134.4569  153.9030 C   0  0  1  0  0  0  0  0  0  0  0  0
  145.1259  134.1761  152.9587 C   0  0  0  0  0  0  0  0  0  0  0  0
  145.5774  133.7008  151.5665 C   0  0  2  0  0  0  0  0  0  0  0  0
  144.3765  133.4200  150.6521 C   0  0  0  0  0  0  0  0  0  0  0  0
  146.4821  132.4667  151.7061 C   0  0  0  0  0  0  0  0  0  0  0  0
  147.6861  132.7442  152.6196 C   0  0  0  0  0  0  0  0  0  0  0  0
  147.2635  133.2310  154.0290 C   0  0  1  0  0  0  0  0  0  0  0  0
  148.4854  133.4783  154.9675 C   0  0  0  0  0  0  0  0  0  0  0  0
  149.5989  134.2980  154.2875 C   0  0  0  0  0  0  0  0  0  0  0  0
  149.0947  132.1700  155.5082 C   0  0  0  0  0  0  0  0  0  0  0  0
  147.0473  140.0996  153.5251 C   0  0  0  0  0  0  0  0  0  0  0  0
  145.1368  143.9724  154.6322 H   0  0  0  0  0  0  0  0  0  0  0  0
  146.7669  143.7302  155.2551 H   0  0  0  0  0  0  0  0  0  0  0  0
  145.5048  142.5461  155.5975 H   0  0  0  0  0  0  0  0  0  0  0  0
  145.3766  141.9842  153.1417 H   0  0  0  0  0  0  0  0  0  0  0  0
  146.6264  143.1534  152.8008 H   0  0  0  0  0  0  0  0  0  0  0  0
  148.6771  142.8407  154.4736 H   0  0  0  0  0  0  0  0  0  0  0  0
  150.5157  141.2180  154.8207 H   0  0  0  0  0  0  0  0  0  0  0  0
  148.2921  137.3815  152.6326 H   0  0  0  0  0  0  0  0  0  0  0  0
  147.6953  135.5325  152.7136 H   0  0  0  0  0  0  0  0  0  0  0  0
  145.8835  134.6505  154.8862 H   0  0  0  0  0  0  0  0  0  0  0  0
  144.4898  133.4133  153.4096 H   0  0  0  0  0  0  0  0  0  0  0  0
  144.5030  135.0670  152.8661 H   0  0  0  0  0  0  0  0  0  0  0  0
  146.1603  134.4977  151.1024 H   0  0  0  0  0  0  0  0  0  0  0  0
  143.7461  132.6272  151.0559 H   0  0  0  0  0  0  0  0  0  0  0  0
  144.7035  133.1122  149.6585 H   0  0  0  0  0  0  0  0  0  0  0  0
  143.7572  134.3098  150.5336 H   0  0  0  0  0  0  0  0  0  0  0  0
  145.9076  131.6306  152.1077 H   0  0  0  0  0  0  0  0  0  0  0  0
  146.8368  132.1525  150.7238 H   0  0  0  0  0  0  0  0  0  0  0  0
  148.2644  131.8241  152.6870 H   0  0  0  0  0  0  0  0  0  0  0  0
  148.3379  133.4826  152.1508 H   0  0  0  0  0  0  0  0  0  0  0  0
  146.6770  132.4275  154.4777 H   0  0  0  0  0  0  0  0  0  0  0  0
  148.1488  134.0565  155.8289 H   0  0  0  0  0  0  0  0  0  0  0  0
  149.9227  133.8326  153.3561 H   0  0  0  0  0  0  0  0  0  0  0  0
  150.4732  134.3848  154.9332 H   0  0  0  0  0  0  0  0  0  0  0  0
  149.2806  135.3157  154.0651 H   0  0  0  0  0  0  0  0  0  0  0  0
  149.3861  131.5034  154.6960 H   0  0  0  0  0  0  0  0  0  0  0  0
  148.4015  131.6322  156.1544 H   0  0  0  0  0  0  0  0  0  0  0  0
  149.9836  132.3678  156.1080 H   0  0  0  0  0  0  0  0  0  0  0  0
  146.0385  139.9244  153.1879 H   0  0  0  0  0  0  0  0  0  0  0  0
  1  2  1  0  0  0  0
  1 24  1  0  0  0  0
  1 25  1  0  0  0  0
  1 26  1  0  0  0  0
  2  3  1  0  0  0  0
  2 27  1  0  0  0  0
  2 28  1  0  0  0  0
  3 23  1  0  0  0  0
  3  4  1  0  0  0  0
  4  5  2  0  0  0  0
  4 29  1  0  0  0  0
  5  6  1  0  0  0  0
  5 30  1  0  0  0  0
  6  7  2  0  0  0  0
  6  8  1  0  0  0  0
  8  9  1  0  0  0  0
  8 23  2  0  0  0  0
  9 10  1  0  0  0  0
  9 31  1  0  0  0  0
 10 11  2  0  0  0  0
 10 12  1  0  0  0  0
 12 13  1  0  0  0  0
 12 32  1  0  0  0  0
 13 19  1  0  0  0  0
 13 14  1  0  0  0  0
 13 33  1  0  0  0  0
 14 15  1  0  0  0  0
 14 34  1  0  0  0  0
 14 35  1  0  0  0  0
 15 16  1  0  0  0  0
 15 17  1  0  0  0  0
 15 36  1  0  0  0  0
 16 37  1  0  0  0  0
 16 38  1  0  0  0  0
 16 39  1  0  0  0  0
 17 18  1  0  0  0  0
 17 40  1  0  0  0  0
 17 41  1  0  0  0  0
 18 19  1  0  0  0  0
 18 42  1  0  0  0  0
 18 43  1  0  0  0  0
 19 20  1  0  0  0  0
 19 44  1  0  0  0  0
 20 21  1  0  0  0  0
 20 22  1  0  0  0  0
 20 45  1  0  0  0  0
 21 46  1  0  0  0  0
 21 47  1  0  0  0  0
 21 48  1  0  0  0  0
 22 49  1  0  0  0  0
 22 50  1  0  0  0  0
 22 51  1  0  0  0  0
 23 52  1  0  0  0  0
M  END
> <s_m_source_file>
AV-unprocessed.smi

> <i_m_source_file_index>
3030

> <i_lp_mmshare_version>
43012

> <i_f3d_flags>
0

> <s_epik_input>
W0NIM11bQ0gyXW4xW2NIXVtjSF1jKD1PKWMoW2NIXTEpW05IXUMoPU8pW05IXVtDQEBIXTJbQ0gyXVtDQEBIXShbQ0gzXSlbQ0gyXVtDSDJdW0NASF0yW0NIXShbQ0gzXSlbQ0gzXQ==

> <s_epik_cmdline>
J2VwaWtfcHl0aG9uJywgJy1waCcsICc3LjAnLCAnLXRuJywgJzgnLCAnLW1hJywgJzIwMCcsICctbWV0YWxfYmluZGluZycsICctaW1hZScsICc8aW5maWxlLm1hZT4nLCAnLW9tYWUnLCAnPG91dGZpbGUubWFlPic=

> <r_lp_tautomer_probability>
1

> <r_epik_Ionization_Penalty>
0.00147933

> <r_epik_Ionization_Penalty_Charging>
0.00145753

> <r_epik_Ionization_Penalty_Neutral>
2.17987e-05

> <r_epik_State_Penalty>
0.00097457

> <r_epik_Charging_Adjusted_Penalty>
0.0024321

> <i_epik_Tot_Q>
0

> <i_epik_Tot_abs_Q>
0

> <r_epik_Metal_State_Penalty>
-0

> <b_epik_Metal_Only>
0

> <s_lp_Force_Field>
OPLS_2005

> <r_lp_Energy>
8.95674

> <b_lp_Chiralities_Consistent>
1

> <s_lp_Variant>
AV-unprocessed.smi:3030-4

> <Gold.Version>
5.8.1

> <Gold.Id.Protein>
6NUR|6NUR_protein|mol2

> <Gold.PLP.Fitness>
47.4396

> <Gold.PLP.PLP>
-37.6762

> <Gold.PLP.part.hbond>
-2.0000

> <Gold.PLP.part.metal>
0.0000

> <Gold.PLP.part.buried>
-3.1095

> <Gold.PLP.part.nonpolar>
-33.3964

> <Gold.PLP.part.repulsive>
0.2311

> <Gold.PLP.ligand.clash>
0.0000

> <Gold.PLP.ligand.torsion>
1.1386

> <Gold.PLP.Chemscore.Hbond>
1.9920

> <Gold.PLP.Chemscore.CHOScore>
2.0000

> <Gold.PLP.Chemscore.Metal>
0.0000

> <Gold.Chemscore.Hbonds>
donor molecule, donor type, donor heavy atom, donor atom, acceptor molecule, acceptor atom, score
      L1  H     9    31       P1  7948  0.98
      L1  H    12    32       P1  7948  0.93
      L1  C     4    29       P1  8028  1.00
      L1  C    23    52       P1 10175  1.00

> <Gold.PLP.Chemscore.Internal.Correction>
0.0645

> <Gold.Rescore>
     Score         DG    S(hbond)    S(metal)    S(lipo)     H(rot)  DE(clash)    DE(int)     intcor
     16.63     -18.97       1.93        0.00      88.07       1.27       0.07       2.27       ----

> <Gold.Chemscore.Fitness>
16.6345

> <Gold.Chemscore.DG>
-18.9742

> <Gold.Chemscore.ZeroCoef>
-5.4800

> <Gold.Chemscore.Hbond>
1.9273

> <Gold.Chemscore.Metal>
0.0000

> <Gold.Chemscore.Lipo>
88.0734

> <Gold.Chemscore.Internal_Hbond>
0.0000

> <Gold.Chemscore.DEClash>
0.0679

> <Gold.Chemscore.DEInternal>
2.2717

> <Gold.Chemscore.Rot>
1.2685

> <Gold.Chemscore.Internal.Correction>
   9.000000E+99

> <Gold.Chemscore.Hbonds>
donor molecule, donor type, donor heavy atom, donor atom, acceptor molecule, acceptor atom, score
      L1  H     9    31       P1  7948  0.90
      L1  H    12    32       P1  7948  0.91

> <Gold.Chemscore.Hbond.Weighted>
-6.4370

> <Gold.Chemscore.Metal.Weighted>
-0.0000

> <Gold.Chemscore.Lipo.Weighted>
-10.3046

> <Gold.Chemscore.Internal_Hbond.Weighted>
0.0000

> <Gold.Chemscore.DEClash.Weighted>
0.0679

> <Gold.Chemscore.DEInternal.Weighted>
2.2717

> <Gold.Chemscore.Rot.Weighted>
3.2474

> <Gold.Chemscore.Internal.Correction.Weighted>
   9.000000E+99

> <Gold.Protein.RotatedTorsions>
[ 6907 6896 6895 6894 ] final   46.96 input  -60.11 | X-H torsion
[ 7974 7965 7964 7962 ] final  108.85 input  175.53 | X-H torsion
[ 8008 7997 7996 7995 ] final  -39.01 input   59.86 | X-H torsion
[ 10167 10162 10161 10158 ] final -109.30 input  -65.29 | X-H torsion
[ 10718 10713 10712 10709 ] final  120.30 input   66.30 | X-H torsion
[ 10763 10752 10751 10750 ] final  158.56 input  -60.55 | X-H torsion
[ 11005 11000 10999 10996 ] final  -92.26 input  -57.11 | X-H torsion

> <Gold.Protein.ActiveResidues>
 VAL166  LYS551  ARG553  GLY616  TRP617  ASP618  TYR619  PRO620  LYS621  CYS622 
 ASP623  PHE694  ASN695  SER759  ASP760  ASP761  ALA762  ILE779  LEU786  VAL792 
 PHE793  MET794  SER795  GLU796  ALA797  LYS798  CYS799  TRP800  GLU811  SER814 

> <Gold.Protein.RotatedAtoms>
  152.2625  134.8019  160.0427 H   0  0  0  0  0  0  0  0  0  0  0  0  # atno 6907 bound_to 6896
  151.8660  133.3461  159.3727 H   0  0  0  0  0  0  0  0  0  0  0  0  # atno 6908 bound_to 6896
  150.7122  134.5087  159.5641 H   0  0  0  0  0  0  0  0  0  0  0  0  # atno 6909 bound_to 6896
  145.2754  139.2652  143.3944 H   0  0  0  0  0  0  0  0  0  0  0  0  # atno 7974 bound_to 7965
  154.4029  140.1563  156.2793 H   0  0  0  0  0  0  0  0  0  0  0  0  # atno 8008 bound_to 7997
  155.8884  140.3440  155.5916 H   0  0  0  0  0  0  0  0  0  0  0  0  # atno 8009 bound_to 7997
  155.7587  140.0814  157.2156 H   0  0  0  0  0  0  0  0  0  0  0  0  # atno 8010 bound_to 7997
  140.1568  143.4153  152.1455 H   0  0  0  0  0  0  0  0  0  0  0  0  # atno 10167 bound_to 10162
  157.5901  131.1065  150.8015 H   0  0  0  0  0  0  0  0  0  0  0  0  # atno 10718 bound_to 10713
  154.2179  135.2783  155.2935 H   0  0  0  0  0  0  0  0  0  0  0  0  # atno 10763 bound_to 10752
  154.5726  135.5614  153.7112 H   0  0  0  0  0  0  0  0  0  0  0  0  # atno 10764 bound_to 10752
  153.0048  135.6325  154.2319 H   0  0  0  0  0  0  0  0  0  0  0  0  # atno 10765 bound_to 10752
  141.1526  133.7809  156.9996 H   0  0  0  0  0  0  0  0  0  0  0  0  # atno 11005 bound_to 11000
  146.3233  140.3207  142.8633 LP  0  0  0  0  0  0  0  0  0  0  0  0  # atno 17320 bound_to 7965
  144.9299  140.7963  143.5696 LP  0  0  0  0  0  0  0  0  0  0  0  0  # atno 17321 bound_to 7965
  139.5400  144.7247  151.4766 LP  0  0  0  0  0  0  0  0  0  0  0  0  # atno 17342 bound_to 10162
  140.6668  143.8380  150.6952 LP  0  0  0  0  0  0  0  0  0  0  0  0  # atno 17343 bound_to 10162
  156.8440  130.5057  149.5318 LP  0  0  0  0  0  0  0  0  0  0  0  0  # atno 17370 bound_to 10713
  156.0954  130.5928  150.9805 LP  0  0  0  0  0  0  0  0  0  0  0  0  # atno 17371 bound_to 10713
  140.0949  134.9570  157.1834 LP  0  0  0  0  0  0  0  0  0  0  0  0  # atno 17394 bound_to 11000
  140.3396  134.2719  155.7214 LP  0  0  0  0  0  0  0  0  0  0  0  0  # atno 17395 bound_to 11000

$$$$
