AV-unprocessed.smi:17|AV-procd|sdf|99|dock3
  -GOLD-   2262015243D 1   1.00000     0.00000
 Structure written by MMmdl.
 57 59  0  0  0  0  0  0  0  0  1 V2000
  147.0693  137.1741  162.7998 C   0  0  0  0  0  0  0  0  0  0  0  0
  147.9788  136.0499  162.2837 C   0  0  0  0  0  0  0  0  0  0  0  0
  147.4723  135.4460  161.0481 N   0  0  0  0  0  0  0  0  0  0  0  0
  147.6759  136.0976  159.8707 C   0  0  0  0  0  0  0  0  0  0  0  0
  146.6522  136.1409  158.9773 N   0  0  0  0  0  0  0  0  0  0  0  0
  146.7906  136.7818  157.8140 C   0  0  0  0  0  0  0  0  0  0  0  0
  147.8544  137.4324  157.3431 N   0  0  0  0  0  0  0  0  0  0  0  0
  148.8948  137.3785  158.2221 C   0  0  0  0  0  0  0  0  0  0  0  0
  148.8955  136.7356  159.4938 C   0  0  0  0  0  0  0  0  0  0  0  0
  150.1478  136.8757  160.0839 N   0  0  0  0  0  0  0  0  0  0  0  0
  150.8353  137.5774  159.2258 C   0  0  0  0  0  0  0  0  0  0  0  0
  150.1568  137.9289  158.0828 N   0  0  0  0  0  0  0  0  0  0  0  0
  150.6778  138.7055  156.9717 C   0  0  0  0  0  0  0  0  0  0  0  0
  150.5411  140.2345  157.1796 C   0  0  2  0  0  0  0  0  0  0  0  0
  151.0259  141.0521  155.9569 C   0  0  0  0  0  0  0  0  0  0  0  0
  150.4997  140.5395  154.7501 O   0  0  0  0  0  0  0  0  0  0  0  0
  151.2172  140.6936  158.4960 C   0  0  2  0  0  0  0  0  0  0  0  0
  151.2352  142.1962  158.7146 C   0  0  0  0  0  0  0  0  0  0  0  0
  152.3180  142.3486  159.7757 C   0  0  0  0  0  0  0  0  0  0  0  0
  153.2753  141.3373  159.4851 O   0  0  0  0  0  0  0  0  0  0  0  0
  152.7140  140.3768  158.5947 C   0  0  0  0  0  0  0  0  0  0  0  0
  146.7103  134.1923  161.0714 C   0  0  2  0  0  0  0  0  0  0  0  0
  146.2557  133.8446  162.4987 C   0  0  0  0  0  0  0  0  0  0  0  0
  147.4695  133.0191  160.4149 C   0  0  0  0  0  0  0  0  0  0  0  0
  146.4468  131.4833  160.2553 S   0  0  0  0  0  0  0  0  0  0  0  0
  147.2868  130.3170  161.4051 C   0  0  0  0  0  0  0  0  0  0  0  0
  145.1153  131.7676  160.8109 O   0  0  0  0  0  0  0  0  0  0  0  0
  146.5708  130.9526  158.8887 O   0  0  0  0  0  0  0  0  0  0  0  0
  147.4542  137.5823  163.7342 H   0  0  0  0  0  0  0  0  0  0  0  0
  146.0587  136.8112  162.9875 H   0  0  0  0  0  0  0  0  0  0  0  0
  147.0034  137.9944  162.0845 H   0  0  0  0  0  0  0  0  0  0  0  0
  148.9911  136.4260  162.1358 H   0  0  0  0  0  0  0  0  0  0  0  0
  148.0596  135.2856  163.0558 H   0  0  0  0  0  0  0  0  0  0  0  0
  145.9247  136.7733  157.1687 H   0  0  0  0  0  0  0  0  0  0  0  0
  151.8618  137.8628  159.4047 H   0  0  0  0  0  0  0  0  0  0  0  0
  151.7236  138.4273  156.8405 H   0  0  0  0  0  0  0  0  0  0  0  0
  150.1634  138.4012  156.0595 H   0  0  0  0  0  0  0  0  0  0  0  0
  149.4747  140.4418  157.2793 H   0  0  0  0  0  0  0  0  0  0  0  0
  150.7396  142.1001  156.0462 H   0  0  0  0  0  0  0  0  0  0  0  0
  152.1137  141.0449  155.8926 H   0  0  0  0  0  0  0  0  0  0  0  0
  150.0573  139.7254  154.9368 H   0  0  0  0  0  0  0  0  0  0  0  0
  150.7096  140.2345  159.3461 H   0  0  0  0  0  0  0  0  0  0  0  0
  151.5302  142.7141  157.8007 H   0  0  0  0  0  0  0  0  0  0  0  0
  150.2753  142.5967  159.0415 H   0  0  0  0  0  0  0  0  0  0  0  0
  152.7688  143.3411  159.7751 H   0  0  0  0  0  0  0  0  0  0  0  0
  151.9055  142.1632  160.7684 H   0  0  0  0  0  0  0  0  0  0  0  0
  152.9000  139.3619  158.9472 H   0  0  0  0  0  0  0  0  0  0  0  0
  153.2005  140.4899  157.6249 H   0  0  0  0  0  0  0  0  0  0  0  0
  145.8034  134.3104  160.4824 H   0  0  0  0  0  0  0  0  0  0  0  0
  145.6077  132.9681  162.4995 H   0  0  0  0  0  0  0  0  0  0  0  0
  145.6942  134.6666  162.9436 H   0  0  0  0  0  0  0  0  0  0  0  0
  147.1029  133.6283  163.1497 H   0  0  0  0  0  0  0  0  0  0  0  0
  147.8832  133.2739  159.4401 H   0  0  0  0  0  0  0  0  0  0  0  0
  148.3158  132.7523  161.0485 H   0  0  0  0  0  0  0  0  0  0  0  0
  146.7051  129.3980  161.4711 H   0  0  0  0  0  0  0  0  0  0  0  0
  147.3613  130.7663  162.3950 H   0  0  0  0  0  0  0  0  0  0  0  0
  148.2820  130.0786  161.0373 H   0  0  0  0  0  0  0  0  0  0  0  0
  1  2  1  0  0  0  0
  1 29  1  0  0  0  0
  1 30  1  0  0  0  0
  1 31  1  0  0  0  0
  2  3  1  0  0  0  0
  2 32  1  0  0  0  0
  2 33  1  0  0  0  0
  3  4  1  0  0  0  0
  3 22  1  0  0  0  0
  4  9  1  0  0  0  0
  4  5  2  0  0  0  0
  5  6  1  0  0  0  0
  6  7  2  0  0  0  0
  6 34  1  0  0  0  0
  7  8  1  0  0  0  0
  8 12  1  0  0  0  0
  8  9  2  0  0  0  0
  9 10  1  0  0  0  0
 10 11  2  0  0  0  0
 11 12  1  0  0  0  0
 11 35  1  0  0  0  0
 12 13  1  0  0  0  0
 13 14  1  0  0  0  0
 13 36  1  0  0  0  0
 13 37  1  0  0  0  0
 14 15  1  0  0  0  0
 14 17  1  0  0  0  0
 14 38  1  0  0  0  0
 15 16  1  0  0  0  0
 15 39  1  0  0  0  0
 15 40  1  0  0  0  0
 16 41  1  0  0  0  0
 17 21  1  0  0  0  0
 17 18  1  0  0  0  0
 17 42  1  0  0  0  0
 18 19  1  0  0  0  0
 18 43  1  0  0  0  0
 18 44  1  0  0  0  0
 19 20  1  0  0  0  0
 19 45  1  0  0  0  0
 19 46  1  0  0  0  0
 20 21  1  0  0  0  0
 21 47  1  0  0  0  0
 21 48  1  0  0  0  0
 22 23  1  0  0  0  0
 22 24  1  0  0  0  0
 22 49  1  0  0  0  0
 23 50  1  0  0  0  0
 23 51  1  0  0  0  0
 23 52  1  0  0  0  0
 24 25  1  0  0  0  0
 24 53  1  0  0  0  0
 24 54  1  0  0  0  0
 25 26  1  0  0  0  0
 25 27  2  0  0  0  0
 25 28  2  0  0  0  0
 26 55  1  0  0  0  0
 26 56  1  0  0  0  0
 26 57  1  0  0  0  0
M  END
> <s_m_source_file>
AV-unprocessed.smi

> <i_m_source_file_index>
17

> <i_lp_mmshare_version>
43012

> <i_f3d_flags>
0

> <s_epik_input>
W0NIM11TKD1PKSg9TylbQ0gyXVtDQEBIXShbQ0gzXSlOKFtDSDJdW0NIM10pYyhuW2NIXW4xKWMoYzEyKW5bY0hdbjJbQ0gyXVtDQEhdKFtDSDJdW09IXSlbQ0BASF0zW0NIMl1bQ0gyXU9bQ0gyXTM=

> <s_epik_cmdline>
J2VwaWtfcHl0aG9uJywgJy1waCcsICc3LjAnLCAnLXRuJywgJzgnLCAnLW1hJywgJzIwMCcsICctbWV0YWxfYmluZGluZycsICctaW1hZScsICc8aW5maWxlLm1hZT4nLCAnLW9tYWUnLCAnPG91dGZpbGUubWFlPic=

> <r_lp_tautomer_probability>
1

> <r_epik_Ionization_Penalty>
0.00119955

> <r_epik_Ionization_Penalty_Charging>
0

> <r_epik_Ionization_Penalty_Neutral>
0.00119955

> <r_epik_State_Penalty>
0.000665399

> <r_epik_Charging_Adjusted_Penalty>
0.000665399

> <i_epik_Tot_Q>
0

> <i_epik_Tot_abs_Q>
0

> <r_epik_Metal_State_Penalty>
-0

> <b_epik_Metal_Only>
0

> <s_lp_Force_Field>
OPLS_2005

> <r_lp_Energy>
33.2615

> <b_lp_Chiralities_Consistent>
1

> <s_lp_Variant>
AV-unprocessed.smi:17-1

> <Gold.Version>
5.8.1

> <Gold.Id.Protein>
6NUR|6NUR_protein|mol2

> <Gold.PLP.Fitness>
44.5757

> <Gold.PLP.PLP>
-41.3481

> <Gold.PLP.part.hbond>
-2.8510

> <Gold.PLP.part.metal>
0.0000

> <Gold.PLP.part.buried>
-3.5183

> <Gold.PLP.part.nonpolar>
-33.3175

> <Gold.PLP.part.repulsive>
0.0541

> <Gold.PLP.ligand.clash>
0.0000

> <Gold.PLP.ligand.torsion>
1.7765

> <Gold.PLP.Chemscore.Hbond>
1.9913

> <Gold.PLP.Chemscore.CHOScore>
0.0000

> <Gold.PLP.Chemscore.Metal>
0.0000

> <Gold.Chemscore.Hbonds>
donor molecule, donor type, donor heavy atom, donor atom, acceptor molecule, acceptor atom, score
      P1  H  6896  6909       L1    10  0.93
      P1  H  7989  7998       L1    16  0.99

> <Gold.PLP.Chemscore.Internal.Correction>
0.8070

> <Gold.Rescore>
     Score         DG    S(hbond)    S(metal)    S(lipo)     H(rot)  DE(clash)    DE(int)     intcor
      8.55     -10.24       0.98        0.00      89.35       3.51       0.18       1.51       ----

> <Gold.Chemscore.Fitness>
8.5452

> <Gold.Chemscore.DG>
-10.2359

> <Gold.Chemscore.ZeroCoef>
-5.4800

> <Gold.Chemscore.Hbond>
0.9813

> <Gold.Chemscore.Metal>
0.0000

> <Gold.Chemscore.Lipo>
89.3464

> <Gold.Chemscore.Internal_Hbond>
0.0000

> <Gold.Chemscore.DEClash>
0.1787

> <Gold.Chemscore.DEInternal>
1.5121

> <Gold.Chemscore.Rot>
3.5059

> <Gold.Chemscore.Internal.Correction>
   9.000000E+99

> <Gold.Chemscore.Hbonds>
donor molecule, donor type, donor heavy atom, donor atom, acceptor molecule, acceptor atom, score
      P1  H  6896  6909       L1    10  0.11
      P1  H  7989  7998       L1    16  0.62

> <Gold.Chemscore.Hbond.Weighted>
-3.2774

> <Gold.Chemscore.Metal.Weighted>
-0.0000

> <Gold.Chemscore.Lipo.Weighted>
-10.4535

> <Gold.Chemscore.Internal_Hbond.Weighted>
0.0000

> <Gold.Chemscore.DEClash.Weighted>
0.1787

> <Gold.Chemscore.DEInternal.Weighted>
1.5121

> <Gold.Chemscore.Rot.Weighted>
8.9750

> <Gold.Chemscore.Internal.Correction.Weighted>
   9.000000E+99

> <Gold.Protein.RotatedTorsions>
[ 6907 6896 6895 6894 ] final   83.54 input  -60.11 | X-H torsion
[ 7974 7965 7964 7962 ] final  158.05 input  175.53 | X-H torsion
[ 8008 7997 7996 7995 ] final  154.22 input   59.86 | X-H torsion
[ 10167 10162 10161 10158 ] final -105.40 input  -65.29 | X-H torsion
[ 10718 10713 10712 10709 ] final   17.47 input   66.30 | X-H torsion
[ 10763 10752 10751 10750 ] final   39.82 input  -60.55 | X-H torsion
[ 11005 11000 10999 10996 ] final  143.39 input  -57.11 | X-H torsion

> <Gold.Protein.ActiveResidues>
 VAL166  LYS551  ARG553  GLY616  TRP617  ASP618  TYR619  PRO620  LYS621  CYS622 
 ASP623  PHE694  ASN695  SER759  ASP760  ASP761  ALA762  ILE779  LEU786  VAL792 
 PHE793  MET794  SER795  GLU796  ALA797  LYS798  CYS799  TRP800  GLU811  SER814 

> <Gold.Protein.RotatedAtoms>
  152.5330  134.2880  159.9031 H   0  0  0  0  0  0  0  0  0  0  0  0  # atno 6907 bound_to 6896
  151.2832  133.4193  159.2636 H   0  0  0  0  0  0  0  0  0  0  0  0  # atno 6908 bound_to 6896
  151.0265  134.9523  159.8145 H   0  0  0  0  0  0  0  0  0  0  0  0  # atno 6909 bound_to 6896
  144.7868  139.7425  143.6238 H   0  0  0  0  0  0  0  0  0  0  0  0  # atno 7974 bound_to 7965
  156.2542  140.1972  156.6612 H   0  0  0  0  0  0  0  0  0  0  0  0  # atno 8008 bound_to 7997
  154.6463  140.0577  156.9929 H   0  0  0  0  0  0  0  0  0  0  0  0  # atno 8009 bound_to 7997
  155.1486  140.3249  155.4439 H   0  0  0  0  0  0  0  0  0  0  0  0  # atno 8010 bound_to 7997
  140.1989  143.3834  152.1146 H   0  0  0  0  0  0  0  0  0  0  0  0  # atno 10167 bound_to 10162
  157.0826  130.6394  149.5830 H   0  0  0  0  0  0  0  0  0  0  0  0  # atno 10718 bound_to 10713
  152.9955  135.6209  154.2527 H   0  0  0  0  0  0  0  0  0  0  0  0  # atno 10763 bound_to 10752
  154.2265  135.2794  155.2907 H   0  0  0  0  0  0  0  0  0  0  0  0  # atno 10764 bound_to 10752
  154.5485  135.5740  153.6959 H   0  0  0  0  0  0  0  0  0  0  0  0  # atno 10765 bound_to 10752
  140.0550  134.9235  157.1085 H   0  0  0  0  0  0  0  0  0  0  0  0  # atno 11005 bound_to 11000
  146.2103  139.5454  142.9685 LP  0  0  0  0  0  0  0  0  0  0  0  0  # atno 17320 bound_to 7965
  145.5901  141.0371  143.2075 LP  0  0  0  0  0  0  0  0  0  0  0  0  # atno 17321 bound_to 7965
  139.5225  144.7060  151.5353 LP  0  0  0  0  0  0  0  0  0  0  0  0  # atno 17342 bound_to 10162
  140.6404  143.8900  150.6686 LP  0  0  0  0  0  0  0  0  0  0  0  0  # atno 17343 bound_to 10162
  155.9919  130.4975  150.7319 LP  0  0  0  0  0  0  0  0  0  0  0  0  # atno 17370 bound_to 10713
  157.4787  131.0900  151.0561 LP  0  0  0  0  0  0  0  0  0  0  0  0  # atno 17371 bound_to 10713
  140.3858  134.2238  155.7168 LP  0  0  0  0  0  0  0  0  0  0  0  0  # atno 17394 bound_to 11000
  141.1948  133.8120  157.0742 LP  0  0  0  0  0  0  0  0  0  0  0  0  # atno 17395 bound_to 11000

$$$$
