AV-unprocessed.smi:749|AV-procd|sdf|3584|dock5
  -GOLD-   22720 0583D 1   1.00000     0.00000
 Structure written by MMmdl.
 43 44  0  0  0  0  0  0  0  0  1 V2000
  146.1130  131.6816  149.1234 C   0  0  0  0  0  0  0  0  0  0  0  0
  145.5245  132.5938  150.1054 N   0  0  0  0  0  0  0  0  0  0  0  0
  146.4899  133.4573  150.8033 C   0  0  0  0  0  0  0  0  0  0  0  0
  145.9257  134.1495  152.0590 C   0  0  1  0  0  0  0  0  0  0  0  0
  146.8061  135.2268  152.4984 N   0  0  0  0  0  0  0  0  0  0  0  0
  146.5637  136.0684  153.5171 C   0  0  0  0  0  0  0  0  0  0  0  0
  145.5413  136.0113  154.1984 O   0  0  0  0  0  0  0  0  0  0  0  0
  147.5101  137.0003  153.7577 N   0  0  0  0  0  0  0  0  0  0  0  0
  147.5764  138.0299  154.7389 C   0  0  0  0  0  0  0  0  0  0  0  0
  148.7900  138.7344  154.9573 C   0  0  0  0  0  0  0  0  0  0  0  0
  148.4657  139.6303  155.9399 C   0  0  0  0  0  0  0  0  0  0  0  0
  149.2389  140.6958  156.6657 C   0  0  0  0  0  0  0  0  0  0  0  0
  150.4219  140.0834  157.4419 C   0  0  0  0  0  0  0  0  0  0  0  0
  148.3230  141.4207  157.6696 C   0  0  0  0  0  0  0  0  0  0  0  0
  149.7974  141.7183  155.6580 C   0  0  0  0  0  0  0  0  0  0  0  0
  147.1561  139.4829  156.2861 O   0  0  0  0  0  0  0  0  0  0  0  0
  146.5936  138.4598  155.5156 N   0  0  0  0  0  0  0  0  0  0  0  0
  144.5347  134.7100  151.7578 C   0  0  0  0  0  0  0  0  0  0  0  0
  143.5861  133.5840  151.3305 C   0  0  0  0  0  0  0  0  0  0  0  0
  144.1800  132.6502  150.2651 C   0  0  0  0  0  0  0  0  0  0  0  0
  143.4055  131.9544  149.6074 O   0  0  0  0  0  0  0  0  0  0  0  0
  145.9097  130.6450  149.3958 H   0  0  0  0  0  0  0  0  0  0  0  0
  147.1949  131.7983  149.0488 H   0  0  0  0  0  0  0  0  0  0  0  0
  145.6984  131.8622  148.1306 H   0  0  0  0  0  0  0  0  0  0  0  0
  147.3714  132.8767  151.0799 H   0  0  0  0  0  0  0  0  0  0  0  0
  146.8254  134.2102  150.0881 H   0  0  0  0  0  0  0  0  0  0  0  0
  145.8301  133.4151  152.8615 H   0  0  0  0  0  0  0  0  0  0  0  0
  147.6714  135.3428  151.9899 H   0  0  0  0  0  0  0  0  0  0  0  0
  148.2938  136.9775  153.1215 H   0  0  0  0  0  0  0  0  0  0  0  0
  149.7456  138.6050  154.4715 H   0  0  0  0  0  0  0  0  0  0  0  0
  150.9902  140.8495  157.9707 H   0  0  0  0  0  0  0  0  0  0  0  0
  151.1135  139.5680  156.7742 H   0  0  0  0  0  0  0  0  0  0  0  0
  150.0801  139.3610  158.1842 H   0  0  0  0  0  0  0  0  0  0  0  0
  147.9108  140.7258  158.4023 H   0  0  0  0  0  0  0  0  0  0  0  0
  147.4836  141.9042  157.1686 H   0  0  0  0  0  0  0  0  0  0  0  0
  148.8641  142.1932  158.2173 H   0  0  0  0  0  0  0  0  0  0  0  0
  150.3705  142.4997  156.1583 H   0  0  0  0  0  0  0  0  0  0  0  0
  148.9981  142.2070  155.0995 H   0  0  0  0  0  0  0  0  0  0  0  0
  150.4573  141.2391  154.9336 H   0  0  0  0  0  0  0  0  0  0  0  0
  144.1313  135.2125  152.6380 H   0  0  0  0  0  0  0  0  0  0  0  0
  144.5939  135.4629  150.9701 H   0  0  0  0  0  0  0  0  0  0  0  0
  143.3314  132.9740  152.1981 H   0  0  0  0  0  0  0  0  0  0  0  0
  142.6507  134.0067  150.9623 H   0  0  0  0  0  0  0  0  0  0  0  0
  1  2  1  0  0  0  0
  1 22  1  0  0  0  0
  1 23  1  0  0  0  0
  1 24  1  0  0  0  0
  2 20  1  0  0  0  0
  2  3  1  0  0  0  0
  3  4  1  0  0  0  0
  3 25  1  0  0  0  0
  3 26  1  0  0  0  0
  4  5  1  0  0  0  0
  4 18  1  0  0  0  0
  4 27  1  0  0  0  0
  5  6  1  0  0  0  0
  5 28  1  0  0  0  0
  6  7  2  0  0  0  0
  6  8  1  0  0  0  0
  8  9  1  0  0  0  0
  8 29  1  0  0  0  0
  9 17  2  0  0  0  0
  9 10  1  0  0  0  0
 10 11  2  0  0  0  0
 10 30  1  0  0  0  0
 11 12  1  0  0  0  0
 11 16  1  0  0  0  0
 12 13  1  0  0  0  0
 12 14  1  0  0  0  0
 12 15  1  0  0  0  0
 13 31  1  0  0  0  0
 13 32  1  0  0  0  0
 13 33  1  0  0  0  0
 14 34  1  0  0  0  0
 14 35  1  0  0  0  0
 14 36  1  0  0  0  0
 15 37  1  0  0  0  0
 15 38  1  0  0  0  0
 15 39  1  0  0  0  0
 16 17  1  0  0  0  0
 18 19  1  0  0  0  0
 18 40  1  0  0  0  0
 18 41  1  0  0  0  0
 19 20  1  0  0  0  0
 19 42  1  0  0  0  0
 19 43  1  0  0  0  0
 20 21  2  0  0  0  0
M  END
> <s_m_source_file>
AV-unprocessed.smi

> <i_m_source_file_index>
749

> <i_lp_mmshare_version>
43012

> <i_f3d_flags>
0

> <s_epik_input>
Tz1DMVtDSDJdW0NIMl1bQ0BASF0oW0NIMl1OMVtDSDNdKVtOSF1DKD1PKVtOSF1jMltjSF1jKG9uMilDKFtDSDNdKShbQ0gzXSlbQ0gzXQ==

> <s_epik_cmdline>
J2VwaWtfcHl0aG9uJywgJy1waCcsICc3LjAnLCAnLXRuJywgJzgnLCAnLW1hJywgJzIwMCcsICctbWV0YWxfYmluZGluZycsICctaW1hZScsICc8aW5maWxlLm1hZT4nLCAnLW9tYWUnLCAnPG91dGZpbGUubWFlPic=

> <r_lp_tautomer_probability>
1

> <r_epik_Ionization_Penalty>
2.91905e-05

> <r_epik_Ionization_Penalty_Charging>
0

> <r_epik_Ionization_Penalty_Neutral>
2.91905e-05

> <r_epik_State_Penalty>
-0

> <r_epik_Charging_Adjusted_Penalty>
0

> <i_epik_Tot_Q>
0

> <i_epik_Tot_abs_Q>
0

> <r_epik_Metal_State_Penalty>
0.0102923

> <b_epik_Metal_Only>
0

> <s_lp_Force_Field>
OPLS_2005

> <r_lp_Energy>
15.3283

> <b_lp_Chiralities_Consistent>
1

> <s_lp_Variant>
AV-unprocessed.smi:749-1

> <Gold.Version>
5.8.1

> <Gold.Id.Protein>
6NUR|6NUR_protein|mol2

> <Gold.PLP.Fitness>
34.1455

> <Gold.PLP.PLP>
-25.6897

> <Gold.PLP.part.hbond>
-2.5989

> <Gold.PLP.part.metal>
0.0000

> <Gold.PLP.part.buried>
-2.3362

> <Gold.PLP.part.nonpolar>
-22.3917

> <Gold.PLP.part.repulsive>
0.8689

> <Gold.PLP.ligand.clash>
0.0000

> <Gold.PLP.ligand.torsion>
0.0586

> <Gold.PLP.Chemscore.Hbond>
2.8560

> <Gold.PLP.Chemscore.CHOScore>
0.0000

> <Gold.PLP.Chemscore.Metal>
0.0000

> <Gold.Chemscore.Hbonds>
donor molecule, donor type, donor heavy atom, donor atom, acceptor molecule, acceptor atom, score
      L1  H     5    28       P1  7948  0.92
      L1  H     8    29       P1  7948  0.93
      P1  H 10785 10796       L1    21  1.00

> <Gold.PLP.Chemscore.Internal.Correction>
0.0050

> <Gold.Rescore>
     Score         DG    S(hbond)    S(metal)    S(lipo)     H(rot)  DE(clash)    DE(int)     intcor
     15.31     -18.19       2.77        0.00      56.47       1.23       0.52       2.36       ----

> <Gold.Chemscore.Fitness>
15.3080

> <Gold.Chemscore.DG>
-18.1861

> <Gold.Chemscore.ZeroCoef>
-5.4800

> <Gold.Chemscore.Hbond>
2.7701

> <Gold.Chemscore.Metal>
0.0000

> <Gold.Chemscore.Lipo>
56.4690

> <Gold.Chemscore.Internal_Hbond>
0.0000

> <Gold.Chemscore.DEClash>
0.5225

> <Gold.Chemscore.DEInternal>
2.3556

> <Gold.Chemscore.Rot>
1.2317

> <Gold.Chemscore.Internal.Correction>
   9.000000E+99

> <Gold.Chemscore.Hbonds>
donor molecule, donor type, donor heavy atom, donor atom, acceptor molecule, acceptor atom, score
      L1  H     5    28       P1  7948  0.81
      L1  H     8    29       P1  7948  0.88
      P1  H 10785 10796       L1    21  0.92

> <Gold.Chemscore.Hbond.Weighted>
-9.2523

> <Gold.Chemscore.Metal.Weighted>
-0.0000

> <Gold.Chemscore.Lipo.Weighted>
-6.6069

> <Gold.Chemscore.Internal_Hbond.Weighted>
0.0000

> <Gold.Chemscore.DEClash.Weighted>
0.5225

> <Gold.Chemscore.DEInternal.Weighted>
2.3556

> <Gold.Chemscore.Rot.Weighted>
3.1531

> <Gold.Chemscore.Internal.Correction.Weighted>
   9.000000E+99

> <Gold.Protein.RotatedTorsions>
[ 6907 6896 6895 6894 ] final  -18.66 input  -60.11 | X-H torsion
[ 7974 7965 7964 7962 ] final   99.47 input  175.53 | X-H torsion
[ 8008 7997 7996 7995 ] final  -56.45 input   59.86 | X-H torsion
[ 10167 10162 10161 10158 ] final -166.90 input  -65.29 | X-H torsion
[ 10718 10713 10712 10709 ] final  149.94 input   66.30 | X-H torsion
[ 10763 10752 10751 10750 ] final -119.32 input  -60.55 | X-H torsion
[ 11005 11000 10999 10996 ] final  -96.12 input  -57.11 | X-H torsion

> <Gold.Protein.ActiveResidues>
 VAL166  LYS551  ARG553  GLY616  TRP617  ASP618  TYR619  PRO620  LYS621  CYS622 
 ASP623  PHE694  ASN695  SER759  ASP760  ASP761  ALA762  ILE779  LEU786  VAL792 
 PHE793  MET794  SER795  GLU796  ALA797  LYS798  CYS799  TRP800  GLU811  SER814 

> <Gold.Protein.RotatedAtoms>
  151.2748  135.0696  159.9147 H   0  0  0  0  0  0  0  0  0  0  0  0  # atno 6907 bound_to 6896
  152.5344  134.0092  159.7941 H   0  0  0  0  0  0  0  0  0  0  0  0  # atno 6908 bound_to 6896
  151.0336  133.5718  159.2689 H   0  0  0  0  0  0  0  0  0  0  0  0  # atno 6909 bound_to 6896
  145.3984  139.2351  143.3313 H   0  0  0  0  0  0  0  0  0  0  0  0  # atno 7974 bound_to 7965
  154.4230  140.1129  156.5639 H   0  0  0  0  0  0  0  0  0  0  0  0  # atno 8008 bound_to 7997
  155.6283  140.3495  155.4655 H   0  0  0  0  0  0  0  0  0  0  0  0  # atno 8009 bound_to 7997
  155.9969  140.1191  157.0575 H   0  0  0  0  0  0  0  0  0  0  0  0  # atno 8010 bound_to 7997
  139.6084  144.0864  152.1817 H   0  0  0  0  0  0  0  0  0  0  0  0  # atno 10167 bound_to 10162
  157.2898  131.0851  151.1470 H   0  0  0  0  0  0  0  0  0  0  0  0  # atno 10718 bound_to 10713
  154.8614  135.4242  154.2279 H   0  0  0  0  0  0  0  0  0  0  0  0  # atno 10763 bound_to 10752
  153.3270  135.6986  153.6986 H   0  0  0  0  0  0  0  0  0  0  0  0  # atno 10764 bound_to 10752
  153.6018  135.3535  155.2921 H   0  0  0  0  0  0  0  0  0  0  0  0  # atno 10765 bound_to 10752
  141.1421  133.8075  157.0528 H   0  0  0  0  0  0  0  0  0  0  0  0  # atno 11005 bound_to 11000
  146.2763  140.4678  142.8794 LP  0  0  0  0  0  0  0  0  0  0  0  0  # atno 17320 bound_to 7965
  144.8391  140.6828  143.6241 LP  0  0  0  0  0  0  0  0  0  0  0  0  # atno 17321 bound_to 7965
  140.0477  144.5957  150.7360 LP  0  0  0  0  0  0  0  0  0  0  0  0  # atno 17342 bound_to 10162
  140.7302  143.2680  151.3980 LP  0  0  0  0  0  0  0  0  0  0  0  0  # atno 17343 bound_to 10162
  157.2871  130.6778  149.6095 LP  0  0  0  0  0  0  0  0  0  0  0  0  # atno 17370 bound_to 10713
  155.9667  130.4432  150.5412 LP  0  0  0  0  0  0  0  0  0  0  0  0  # atno 17371 bound_to 10713
  140.0621  134.9749  157.1322 LP  0  0  0  0  0  0  0  0  0  0  0  0  # atno 17394 bound_to 11000
  140.3833  134.2263  155.7170 LP  0  0  0  0  0  0  0  0  0  0  0  0  # atno 17395 bound_to 11000

$$$$
