AV-unprocessed.smi:1087|AV-procd|sdf|4727|dock5
  -GOLD-   22720 3253D 1   1.00000     0.00000
 Structure written by MMmdl.
 46 47  0  0  0  0  0  0  0  0  1 V2000
  143.6241  133.1783  149.8842 C   0  0  0  0  0  0  0  0  0  0  0  0
  143.5109  132.0365  150.7187 O   0  0  0  0  0  0  0  0  0  0  0  0
  144.0291  132.2177  152.0306 C   0  0  0  0  0  0  0  0  0  0  0  0
  145.4007  131.5462  152.2558 C   0  0  0  0  0  0  0  0  0  0  0  0
  146.3138  132.2466  153.1613 N   0  0  0  0  0  0  0  0  0  0  0  0
  146.7684  133.5317  152.6243 C   0  0  0  0  0  0  0  0  0  0  0  0
  147.6966  134.2842  153.5931 C   0  0  0  0  0  0  0  0  0  0  0  0
  148.9185  133.4278  153.9708 C   0  0  0  0  0  0  0  0  0  0  0  0
  149.8213  134.1583  154.9875 C   0  0  0  0  0  0  0  0  0  0  0  0
  150.3292  135.4249  154.4717 N   0  0  0  0  0  0  0  0  0  0  0  0
  151.4091  136.0702  154.9364 C   0  0  0  0  0  0  0  0  0  0  0  0
  152.1231  135.6300  155.8382 O   0  0  0  0  0  0  0  0  0  0  0  0
  151.7324  137.4117  154.2640 C   0  0  0  0  0  0  0  0  0  0  0  0
  151.2815  138.5738  155.0471 N   0  0  0  0  0  0  0  0  0  0  0  0
  149.9643  139.0212  154.8488 C   0  0  0  0  0  0  0  0  0  0  0  0
  149.4862  140.0748  155.5261 C   0  0  0  0  0  0  0  0  0  0  0  0
  150.4099  140.7184  156.4696 C   0  0  0  0  0  0  0  0  0  0  0  0
  151.6118  140.3148  156.6508 N   0  0  0  0  0  0  0  0  0  0  0  0
  152.1125  139.2100  155.9362 C   0  0  0  0  0  0  0  0  0  0  0  0
  153.2685  138.8193  156.1018 O   0  0  0  0  0  0  0  0  0  0  0  0
  148.4306  132.0556  154.4784 C   0  0  0  0  0  0  0  0  0  0  0  0
  147.4733  131.4071  153.4651 C   0  0  0  0  0  0  0  0  0  0  0  0
  143.2468  132.9380  148.8902 H   0  0  0  0  0  0  0  0  0  0  0  0
  144.6643  133.4896  149.7791 H   0  0  0  0  0  0  0  0  0  0  0  0
  143.0426  134.0190  150.2621 H   0  0  0  0  0  0  0  0  0  0  0  0
  144.1185  133.2886  152.2165 H   0  0  0  0  0  0  0  0  0  0  0  0
  143.3070  131.8471  152.7596 H   0  0  0  0  0  0  0  0  0  0  0  0
  145.1917  130.5655  152.6852 H   0  0  0  0  0  0  0  0  0  0  0  0
  145.8950  131.3425  151.3062 H   0  0  0  0  0  0  0  0  0  0  0  0
  147.2783  133.3774  151.6720 H   0  0  0  0  0  0  0  0  0  0  0  0
  145.9154  134.1762  152.4199 H   0  0  0  0  0  0  0  0  0  0  0  0
  148.0212  135.2208  153.1387 H   0  0  0  0  0  0  0  0  0  0  0  0
  147.1394  134.5525  154.4918 H   0  0  0  0  0  0  0  0  0  0  0  0
  149.4965  133.2612  153.0604 H   0  0  0  0  0  0  0  0  0  0  0  0
  149.2807  134.3321  155.9195 H   0  0  0  0  0  0  0  0  0  0  0  0
  150.6769  133.5323  155.2427 H   0  0  0  0  0  0  0  0  0  0  0  0
  149.8053  135.8549  153.7234 H   0  0  0  0  0  0  0  0  0  0  0  0
  152.8093  137.4547  154.0962 H   0  0  0  0  0  0  0  0  0  0  0  0
  151.2844  137.4420  153.2687 H   0  0  0  0  0  0  0  0  0  0  0  0
  149.3862  138.4673  154.1235 H   0  0  0  0  0  0  0  0  0  0  0  0
  148.4869  140.4708  155.4204 H   0  0  0  0  0  0  0  0  0  0  0  0
  150.0015  141.5740  157.0134 H   0  0  0  0  0  0  0  0  0  0  0  0
  149.2759  131.3890  154.6518 H   0  0  0  0  0  0  0  0  0  0  0  0
  147.9233  132.1716  155.4372 H   0  0  0  0  0  0  0  0  0  0  0  0
  147.1383  130.4501  153.8669 H   0  0  0  0  0  0  0  0  0  0  0  0
  148.0172  131.1810  152.5464 H   0  0  0  0  0  0  0  0  0  0  0  0
  1  2  1  0  0  0  0
  1 23  1  0  0  0  0
  1 24  1  0  0  0  0
  1 25  1  0  0  0  0
  2  3  1  0  0  0  0
  3  4  1  0  0  0  0
  3 26  1  0  0  0  0
  3 27  1  0  0  0  0
  4  5  1  0  0  0  0
  4 28  1  0  0  0  0
  4 29  1  0  0  0  0
  5 22  1  0  0  0  0
  5  6  1  0  0  0  0
  6  7  1  0  0  0  0
  6 30  1  0  0  0  0
  6 31  1  0  0  0  0
  7  8  1  0  0  0  0
  7 32  1  0  0  0  0
  7 33  1  0  0  0  0
  8  9  1  0  0  0  0
  8 21  1  0  0  0  0
  8 34  1  0  0  0  0
  9 10  1  0  0  0  0
  9 35  1  0  0  0  0
  9 36  1  0  0  0  0
 10 11  1  0  0  0  0
 10 37  1  0  0  0  0
 11 12  2  0  0  0  0
 11 13  1  0  0  0  0
 13 14  1  0  0  0  0
 13 38  1  0  0  0  0
 13 39  1  0  0  0  0
 14 19  1  0  0  0  0
 14 15  1  0  0  0  0
 15 16  2  0  0  0  0
 15 40  1  0  0  0  0
 16 17  1  0  0  0  0
 16 41  1  0  0  0  0
 17 18  2  0  0  0  0
 17 42  1  0  0  0  0
 18 19  1  0  0  0  0
 19 20  2  0  0  0  0
 21 22  1  0  0  0  0
 21 43  1  0  0  0  0
 21 44  1  0  0  0  0
 22 45  1  0  0  0  0
 22 46  1  0  0  0  0
M  END
> <s_m_source_file>
AV-unprocessed.smi

> <i_m_source_file_index>
1087

> <i_lp_mmshare_version>
43012

> <i_f3d_flags>
0

> <s_epik_input>
W0NIM11PW0NIMl1bQ0gyXU4xW0NIMl1bQ0gyXVtDSF0oW0NIMl1bQ0gyXTEpW0NIMl1bTkhdQyg9TylbQ0gyXW4yW2NIXVtjSF1bY0hdbmMyPU8=

> <s_epik_cmdline>
J2VwaWtfcHl0aG9uJywgJy1waCcsICc3LjAnLCAnLXRuJywgJzgnLCAnLW1hJywgJzIwMCcsICctbWV0YWxfYmluZGluZycsICctaW1hZScsICc8aW5maWxlLm1hZT4nLCAnLW9tYWUnLCAnPG91dGZpbGUubWFlPic=

> <r_lp_tautomer_probability>
1

> <r_epik_Ionization_Penalty>
2.43401

> <r_epik_Ionization_Penalty_Charging>
1.64716e-08

> <r_epik_Ionization_Penalty_Neutral>
2.43401

> <r_epik_State_Penalty>
2.59428

> <r_epik_Charging_Adjusted_Penalty>
2.59428

> <i_epik_Tot_Q>
0

> <i_epik_Tot_abs_Q>
0

> <r_epik_Metal_State_Penalty>
2.59427

> <b_epik_Metal_Only>
0

> <s_lp_Force_Field>
OPLS_2005

> <r_lp_Energy>
30.2677

> <b_lp_Chiralities_Consistent>
1

> <s_lp_Variant>
AV-unprocessed.smi:1087-3

> <Gold.Version>
5.8.1

> <Gold.Id.Protein>
6NUR|6NUR_protein|mol2

> <Gold.PLP.Fitness>
50.3253

> <Gold.PLP.PLP>
-36.8453

> <Gold.PLP.part.hbond>
-5.3601

> <Gold.PLP.part.metal>
0.0000

> <Gold.PLP.part.buried>
5.3063

> <Gold.PLP.part.nonpolar>
-36.4644

> <Gold.PLP.part.repulsive>
0.4405

> <Gold.PLP.ligand.clash>
0.0000

> <Gold.PLP.ligand.torsion>
1.3708

> <Gold.PLP.Chemscore.Hbond>
3.7579

> <Gold.PLP.Chemscore.CHOScore>
1.6173

> <Gold.PLP.Chemscore.Metal>
0.0000

> <Gold.Chemscore.Hbonds>
donor molecule, donor type, donor heavy atom, donor atom, acceptor molecule, acceptor atom, score
      L1  H    10    37       P1  7948  0.78
      P1  H  7997  8010       L1    20  0.82
      P1  H 10752 10765       L1    12  0.45

> <Gold.PLP.Chemscore.Internal.Correction>
0.0959

> <Gold.Rescore>
     Score         DG    S(hbond)    S(metal)    S(lipo)     H(rot)  DE(clash)    DE(int)     intcor
     16.96     -20.31       3.38        0.00      82.16       2.37       2.02       1.33       ----

> <Gold.Chemscore.Fitness>
16.9590

> <Gold.Chemscore.DG>
-20.3087

> <Gold.Chemscore.ZeroCoef>
-5.4800

> <Gold.Chemscore.Hbond>
3.3800

> <Gold.Chemscore.Metal>
0.0000

> <Gold.Chemscore.Lipo>
82.1582

> <Gold.Chemscore.Internal_Hbond>
0.0000

> <Gold.Chemscore.DEClash>
2.0211

> <Gold.Chemscore.DEInternal>
1.3286

> <Gold.Chemscore.Rot>
2.3723

> <Gold.Chemscore.Internal.Correction>
   9.000000E+99

> <Gold.Chemscore.Hbonds>
donor molecule, donor type, donor heavy atom, donor atom, acceptor molecule, acceptor atom, score
      L1  H    10    37       P1  7948  0.11
      P1  H  7997  8010       L1    20  0.67
      P1  H 10752 10765       L1    12  0.10

> <Gold.Chemscore.Hbond.Weighted>
-11.2893

> <Gold.Chemscore.Metal.Weighted>
-0.0000

> <Gold.Chemscore.Lipo.Weighted>
-9.6125

> <Gold.Chemscore.Internal_Hbond.Weighted>
0.0000

> <Gold.Chemscore.DEClash.Weighted>
2.0211

> <Gold.Chemscore.DEInternal.Weighted>
1.3286

> <Gold.Chemscore.Rot.Weighted>
6.0731

> <Gold.Chemscore.Internal.Correction.Weighted>
   9.000000E+99

> <Gold.Protein.RotatedTorsions>
[ 6907 6896 6895 6894 ] final -110.40 input  -60.11 | X-H torsion
[ 7974 7965 7964 7962 ] final  165.76 input  175.53 | X-H torsion
[ 8008 7997 7996 7995 ] final   99.29 input   59.86 | X-H torsion
[ 10167 10162 10161 10158 ] final -110.07 input  -65.29 | X-H torsion
[ 10718 10713 10712 10709 ] final -146.91 input   66.30 | X-H torsion
[ 10763 10752 10751 10750 ] final -142.08 input  -60.55 | X-H torsion
[ 11005 11000 10999 10996 ] final   73.95 input  -57.11 | X-H torsion

> <Gold.Protein.ActiveResidues>
 VAL166  LYS551  ARG553  GLY616  TRP617  ASP618  TYR619  PRO620  LYS621  CYS622 
 ASP623  PHE694  ASN695  SER759  ASP760  ASP761  ALA762  ILE779  LEU786  VAL792 
 PHE793  MET794  SER795  GLU796  ALA797  LYS798  CYS799  TRP800  GLU811  SER814 

> <Gold.Protein.RotatedAtoms>
  150.7622  133.9388  159.3449 H   0  0  0  0  0  0  0  0  0  0  0  0  # atno 6907 bound_to 6896
  151.7294  135.0876  160.0307 H   0  0  0  0  0  0  0  0  0  0  0  0  # atno 6908 bound_to 6896
  152.3599  133.6247  159.6043 H   0  0  0  0  0  0  0  0  0  0  0  0  # atno 6909 bound_to 6896
  144.7489  139.8517  143.6373 H   0  0  0  0  0  0  0  0  0  0  0  0  # atno 7974 bound_to 7965
  156.1090  140.3231  155.8047 H   0  0  0  0  0  0  0  0  0  0  0  0  # atno 8008 bound_to 7997
  155.4705  140.0546  157.2997 H   0  0  0  0  0  0  0  0  0  0  0  0  # atno 8009 bound_to 7997
  154.4747  140.2027  155.9921 H   0  0  0  0  0  0  0  0  0  0  0  0  # atno 8010 bound_to 7997
  140.1484  143.4219  152.1512 H   0  0  0  0  0  0  0  0  0  0  0  0  # atno 10167 bound_to 10162
  156.4008  130.7933  151.2143 H   0  0  0  0  0  0  0  0  0  0  0  0  # atno 10718 bound_to 10713
  154.8522  135.3506  154.5971 H   0  0  0  0  0  0  0  0  0  0  0  0  # atno 10763 bound_to 10752
  153.6580  135.6991  153.5191 H   0  0  0  0  0  0  0  0  0  0  0  0  # atno 10764 bound_to 10752
  153.2840  135.4255  155.1063 H   0  0  0  0  0  0  0  0  0  0  0  0  # atno 10765 bound_to 10752
  139.9414  134.7391  156.1089 H   0  0  0  0  0  0  0  0  0  0  0  0  # atno 11005 bound_to 11000
  146.1411  139.4469  143.0108 LP  0  0  0  0  0  0  0  0  0  0  0  0  # atno 17320 bound_to 7965
  145.7016  141.0134  143.1501 LP  0  0  0  0  0  0  0  0  0  0  0  0  # atno 17321 bound_to 7965
  139.5437  144.7280  151.4650 LP  0  0  0  0  0  0  0  0  0  0  0  0  # atno 17342 bound_to 10162
  140.6717  143.8278  150.7008 LP  0  0  0  0  0  0  0  0  0  0  0  0  # atno 17343 bound_to 10162
  157.7504  131.0287  150.4061 LP  0  0  0  0  0  0  0  0  0  0  0  0  # atno 17370 bound_to 10713
  156.4341  130.3978  149.6741 LP  0  0  0  0  0  0  0  0  0  0  0  0  # atno 17371 bound_to 10713
  141.1050  133.6663  156.2843 LP  0  0  0  0  0  0  0  0  0  0  0  0  # atno 17394 bound_to 11000
  140.5941  134.5620  157.5505 LP  0  0  0  0  0  0  0  0  0  0  0  0  # atno 17395 bound_to 11000

$$$$
