AV-unprocessed.smi:43|AV-procd|sdf|392|dock2
  -GOLD-   2262016243D 1   1.00000     0.00000
 Structure written by MMmdl.
 25 26  0  0  0  0  0  0  0  0  2 V2000
  150.7322  142.4159  157.9759 C   0  0  0  0  0  0  0  0  0  0  0  0
  151.8405  141.4989  157.7824 N   0  0  0  0  0  0  0  0  0  0  0  0
  152.8350  141.4434  158.7035 N   0  0  0  0  0  0  0  0  0  0  0  0
  153.7078  140.5817  158.2686 N   0  0  0  0  0  0  0  0  0  0  0  0
  153.3221  140.0458  157.0563 N   0  0  0  0  0  0  0  0  0  0  0  0
  152.1592  140.6345  156.8026 C   0  0  0  0  0  0  0  0  0  0  0  0
  151.3643  140.4077  155.6722 N   0  0  0  0  0  0  0  0  0  0  0  0
  150.2206  141.1787  155.1949 C   0  0  0  0  0  0  0  0  0  0  0  0
  149.3056  140.1976  154.4742 C   0  0  1  0  0  0  0  0  0  0  0  0
  148.4208  140.8372  153.5784 O   0  0  0  0  0  0  0  0  0  0  0  0
  150.3057  139.3010  153.7714 C   0  0  0  0  0  0  0  0  0  0  0  0
  151.4800  139.2577  154.7647 C   0  0  1  0  0  0  0  0  0  0  0  0
  152.8362  139.2337  154.0434 C   0  0  0  0  0  0  0  0  0  0  0  0
  153.0475  138.2739  153.2707 O   0  0  0  0  0  0  0  0  0  0  0  0
  153.6338  140.1705  154.2729 O   0  5  0  0  0  0  0  0  0  0  0  0
  148.7357  139.6181  155.2019 H   0  0  0  0  0  0  0  0  0  0  0  0
  151.3903  138.3582  155.3756 H   0  0  0  0  0  0  0  0  0  0  0  0
  150.5221  142.9471  157.0478 H   0  0  0  0  0  0  0  0  0  0  0  0
  150.9778  143.1510  158.7433 H   0  0  0  0  0  0  0  0  0  0  0  0
  149.8467  141.8653  158.2926 H   0  0  0  0  0  0  0  0  0  0  0  0
  149.6854  141.6604  156.0123 H   0  0  0  0  0  0  0  0  0  0  0  0
  150.5798  141.9536  154.5157 H   0  0  0  0  0  0  0  0  0  0  0  0
  148.7106  140.6622  152.6962 H   0  0  0  0  0  0  0  0  0  0  0  0
  149.9014  138.3112  153.5580 H   0  0  0  0  0  0  0  0  0  0  0  0
  150.6053  139.7499  152.8220 H   0  0  0  0  0  0  0  0  0  0  0  0
  1  2  1  0  0  0  0
  1 18  1  0  0  0  0
  1 19  1  0  0  0  0
  1 20  1  0  0  0  0
  2  6  1  0  0  0  0
  2  3  1  0  0  0  0
  3  4  2  0  0  0  0
  4  5  1  0  0  0  0
  5  6  2  0  0  0  0
  6  7  1  0  0  0  0
  7 12  1  0  0  0  0
  7  8  1  0  0  0  0
  8  9  1  0  0  0  0
  8 21  1  0  0  0  0
  8 22  1  0  0  0  0
  9 16  1  0  0  0  0
  9 10  1  0  0  0  0
  9 11  1  0  0  0  0
 10 23  1  0  0  0  0
 11 12  1  0  0  0  0
 11 24  1  0  0  0  0
 11 25  1  0  0  0  0
 12 17  1  0  0  0  0
 12 13  1  0  0  0  0
 13 14  2  0  0  0  0
 13 15  1  0  0  0  0
M  CHG  1  15  -1
M  END
> <s_m_source_file>
AV-unprocessed.smi

> <i_m_source_file_index>
43

> <i_lp_mmshare_version>
43012

> <i_f3d_flags>
0

> <s_epik_input>
W0NIM11uMW5ubmMxTjJbQ0gyXVtDQEhdKFtPSF0pW0NIMl1bQ0BIXTJDKD1PKVtPSF0=

> <s_epik_cmdline>
J2VwaWtfcHl0aG9uJywgJy1waCcsICc3LjAnLCAnLXRuJywgJzgnLCAnLW1hJywgJzIwMCcsICctbWV0YWxfYmluZGluZycsICctaW1hZScsICc8aW5maWxlLm1hZT4nLCAnLW9tYWUnLCAnPG91dGZpbGUubWFlPic=

> <r_lp_tautomer_probability>
1

> <r_epik_Ionization_Penalty>
0.000193127

> <r_epik_Ionization_Penalty_Charging>
0.000192933

> <r_epik_Ionization_Penalty_Neutral>
1.93728e-07

> <r_epik_State_Penalty>
-0

> <r_epik_Charging_Adjusted_Penalty>
0.000192933

> <i_epik_Tot_Q>
-1

> <i_epik_Tot_abs_Q>
1

> <r_epik_Metal_State_Penalty>
-0

> <b_epik_Metal_Only>
0

> <s_lp_Force_Field>
OPLS_2005

> <r_lp_Energy>
21.006

> <b_lp_Chiralities_Consistent>
1

> <s_lp_Variant>
AV-unprocessed.smi:43-2

> <Gold.Version>
5.8.1

> <Gold.Id.Protein>
6NUR|6NUR_protein|mol2

> <Gold.PLP.Fitness>
42.7692

> <Gold.PLP.PLP>
-28.6843

> <Gold.PLP.part.hbond>
-6.1643

> <Gold.PLP.part.metal>
0.0000

> <Gold.PLP.part.buried>
-2.6780

> <Gold.PLP.part.nonpolar>
-20.0236

> <Gold.PLP.part.repulsive>
0.1809

> <Gold.PLP.ligand.clash>
0.0000

> <Gold.PLP.ligand.torsion>
0.1016

> <Gold.PLP.Chemscore.Hbond>
4.7600

> <Gold.PLP.Chemscore.CHOScore>
0.0000

> <Gold.PLP.Chemscore.Metal>
0.0000

> <Gold.Chemscore.Hbonds>
donor molecule, donor type, donor heavy atom, donor atom, acceptor molecule, acceptor atom, score
      L1  H    10    23       P1  7957  1.00
      P1  H  7997  8008       L1    15  1.38

> <Gold.PLP.Chemscore.Internal.Correction>
0.0081

> <Gold.Rescore>
     Score         DG    S(hbond)    S(metal)    S(lipo)     H(rot)  DE(clash)    DE(int)     intcor
     11.95     -15.13       2.85        0.00      38.19       1.69       0.45       2.74       ----

> <Gold.Chemscore.Fitness>
11.9482

> <Gold.Chemscore.DG>
-15.1349

> <Gold.Chemscore.ZeroCoef>
-5.4800

> <Gold.Chemscore.Hbond>
2.8474

> <Gold.Chemscore.Metal>
0.0000

> <Gold.Chemscore.Lipo>
38.1870

> <Gold.Chemscore.Internal_Hbond>
0.0000

> <Gold.Chemscore.DEClash>
0.4509

> <Gold.Chemscore.DEInternal>
2.7359

> <Gold.Chemscore.Rot>
1.6887

> <Gold.Chemscore.Internal.Correction>
   9.000000E+99

> <Gold.Chemscore.Hbonds>
donor molecule, donor type, donor heavy atom, donor atom, acceptor molecule, acceptor atom, score
      L1  H    10    23       P1  7957  1.00
      P1  H  7997  8008       L1    15  0.63

> <Gold.Chemscore.Hbond.Weighted>
-9.5102

> <Gold.Chemscore.Metal.Weighted>
-0.0000

> <Gold.Chemscore.Lipo.Weighted>
-4.4679

> <Gold.Chemscore.Internal_Hbond.Weighted>
0.0000

> <Gold.Chemscore.DEClash.Weighted>
0.4509

> <Gold.Chemscore.DEInternal.Weighted>
2.7359

> <Gold.Chemscore.Rot.Weighted>
4.3232

> <Gold.Chemscore.Internal.Correction.Weighted>
   9.000000E+99

> <Gold.Protein.RotatedTorsions>
[ 6907 6896 6895 6894 ] final  146.55 input  -60.11 | X-H torsion
[ 7974 7965 7964 7962 ] final -141.48 input  175.53 | X-H torsion
[ 8008 7997 7996 7995 ] final  -24.82 input   59.86 | X-H torsion
[ 10167 10162 10161 10158 ] final -166.57 input  -65.29 | X-H torsion
[ 10718 10713 10712 10709 ] final -127.91 input   66.30 | X-H torsion
[ 10763 10752 10751 10750 ] final  151.24 input  -60.55 | X-H torsion
[ 11005 11000 10999 10996 ] final   -2.15 input  -57.11 | X-H torsion

> <Gold.Protein.ActiveResidues>
 VAL166  LYS551  ARG553  GLY616  TRP617  ASP618  TYR619  PRO620  LYS621  CYS622 
 ASP623  PHE694  ASN695  SER759  ASP760  ASP761  ALA762  ILE779  LEU786  VAL792 
 PHE793  MET794  SER795  GLU796  ALA797  LYS798  CYS799  TRP800  GLU811  SER814 

> <Gold.Protein.RotatedAtoms>
  152.1664  133.4615  159.4886 H   0  0  0  0  0  0  0  0  0  0  0  0  # atno 6907 bound_to 6896
  150.6913  134.2007  159.4330 H   0  0  0  0  0  0  0  0  0  0  0  0  # atno 6908 bound_to 6896
  151.9912  134.9978  160.0612 H   0  0  0  0  0  0  0  0  0  0  0  0  # atno 6909 bound_to 6896
  144.8516  140.6074  143.5386 H   0  0  0  0  0  0  0  0  0  0  0  0  # atno 7974 bound_to 7965
  154.4509  140.1943  156.0523 H   0  0  0  0  0  0  0  0  0  0  0  0  # atno 8008 bound_to 7997
  156.0645  140.3292  155.7474 H   0  0  0  0  0  0  0  0  0  0  0  0  # atno 8009 bound_to 7997
  155.5360  140.0582  157.2870 H   0  0  0  0  0  0  0  0  0  0  0  0  # atno 8010 bound_to 7997
  139.6106  144.0823  152.1838 H   0  0  0  0  0  0  0  0  0  0  0  0  # atno 10167 bound_to 10162
  156.1901  130.6790  151.0414 H   0  0  0  0  0  0  0  0  0  0  0  0  # atno 10718 bound_to 10713
  154.1005  135.2846  155.3252 H   0  0  0  0  0  0  0  0  0  0  0  0  # atno 10763 bound_to 10752
  154.6558  135.5352  153.7961 H   0  0  0  0  0  0  0  0  0  0  0  0  # atno 10764 bound_to 10752
  153.0380  135.6521  154.1169 H   0  0  0  0  0  0  0  0  0  0  0  0  # atno 10765 bound_to 10752
  140.6552  133.9369  155.8403 H   0  0  0  0  0  0  0  0  0  0  0  0  # atno 11005 bound_to 11000
  145.4489  139.1526  143.3929 LP  0  0  0  0  0  0  0  0  0  0  0  0  # atno 17320 bound_to 7965
  146.2789  140.4614  142.8784 LP  0  0  0  0  0  0  0  0  0  0  0  0  # atno 17321 bound_to 7965
  140.0440  144.5985  150.7388 LP  0  0  0  0  0  0  0  0  0  0  0  0  # atno 17342 bound_to 10162
  140.7316  143.2696  151.3931 LP  0  0  0  0  0  0  0  0  0  0  0  0  # atno 17343 bound_to 10162
  157.6924  131.0805  150.7069 LP  0  0  0  0  0  0  0  0  0  0  0  0  # atno 17370 bound_to 10713
  156.7126  130.4656  149.5543 LP  0  0  0  0  0  0  0  0  0  0  0  0  # atno 17371 bound_to 10713
  141.0507  134.0489  157.3787 LP  0  0  0  0  0  0  0  0  0  0  0  0  # atno 17394 bound_to 11000
  139.9032  135.0171  156.7366 LP  0  0  0  0  0  0  0  0  0  0  0  0  # atno 17395 bound_to 11000

$$$$
