AV-unprocessed.smi:1139|AV-procd|sdf|4870|dock6
  -GOLD-   22720 3443D 1   1.00000     0.00000
 Structure written by MMmdl.
 43 44  0  0  0  0  0  0  0  0  2 V2000
  149.2823  141.3412  154.2990 C   0  0  0  0  0  0  0  0  0  0  0  0
  150.4004  140.6717  155.0454 C   0  0  0  0  0  0  0  0  0  0  0  0
  151.1606  141.3904  155.8539 N   0  0  0  0  0  0  0  0  0  0  0  0
  152.1025  140.5037  156.3841 O   0  0  0  0  0  0  0  0  0  0  0  0
  151.8714  139.2712  155.8644 C   0  0  0  0  0  0  0  0  0  0  0  0
  152.7823  138.1751  156.3035 C   0  0  0  0  0  0  0  0  0  0  0  0
  150.8056  139.3058  155.0080 C   0  0  0  0  0  0  0  0  0  0  0  0
  150.2085  138.1744  154.2118 C   0  0  0  0  0  0  0  0  0  0  0  0
  148.6968  138.1365  154.4329 C   0  0  0  0  0  0  0  0  0  0  0  0
  148.1946  138.7544  155.3714 O   0  0  0  0  0  0  0  0  0  0  0  0
  147.9827  137.3970  153.5723 N   0  0  0  0  0  0  0  0  0  0  0  0
  146.5412  137.1991  153.6579 C   0  0  0  0  0  0  0  0  0  0  0  0
  146.1619  135.6997  153.7317 C   0  0  1  0  0  0  0  0  0  0  0  0
  144.7861  135.5124  154.4109 C   0  0  0  0  0  0  0  0  0  0  0  0
  146.1696  135.0687  152.3796 N   0  3  0  0  0  0  0  0  0  0  0  0
  145.9035  133.6137  152.3434 C   0  0  0  0  0  0  0  0  0  0  0  0
  145.4846  133.3240  150.9070 C   0  0  0  0  0  0  0  0  0  0  0  0
  144.6708  134.5567  150.5317 C   0  0  0  0  0  0  0  0  0  0  0  0
  145.2572  135.6898  151.3853 C   0  0  0  0  0  0  0  0  0  0  0  0
  149.6326  141.7239  153.3404 H   0  0  0  0  0  0  0  0  0  0  0  0
  148.8711  142.1798  154.8621 H   0  0  0  0  0  0  0  0  0  0  0  0
  148.4660  140.6465  154.1018 H   0  0  0  0  0  0  0  0  0  0  0  0
  153.1755  137.6335  155.4432 H   0  0  0  0  0  0  0  0  0  0  0  0
  152.2516  137.4644  156.9369 H   0  0  0  0  0  0  0  0  0  0  0  0
  153.6272  138.5676  156.8697 H   0  0  0  0  0  0  0  0  0  0  0  0
  150.4001  138.2954  153.1448 H   0  0  0  0  0  0  0  0  0  0  0  0
  150.6493  137.2161  154.4890 H   0  0  0  0  0  0  0  0  0  0  0  0
  148.4736  136.9236  152.8276 H   0  0  0  0  0  0  0  0  0  0  0  0
  146.1602  137.7244  154.5356 H   0  0  0  0  0  0  0  0  0  0  0  0
  146.0934  137.6709  152.7824 H   0  0  0  0  0  0  0  0  0  0  0  0
  146.9139  135.1910  154.3377 H   0  0  0  0  0  0  0  0  0  0  0  0
  144.7782  135.9158  155.4232 H   0  0  0  0  0  0  0  0  0  0  0  0
  144.5089  134.4625  154.5013 H   0  0  0  0  0  0  0  0  0  0  0  0
  143.9979  136.0152  153.8494 H   0  0  0  0  0  0  0  0  0  0  0  0
  146.7767  133.0301  152.6366 H   0  0  0  0  0  0  0  0  0  0  0  0
  145.0839  133.3707  153.0221 H   0  0  0  0  0  0  0  0  0  0  0  0
  146.3676  133.2538  150.2700 H   0  0  0  0  0  0  0  0  0  0  0  0
  144.9216  132.3957  150.8071 H   0  0  0  0  0  0  0  0  0  0  0  0
  144.7111  134.7720  149.4636 H   0  0  0  0  0  0  0  0  0  0  0  0
  143.6247  134.4003  150.7980 H   0  0  0  0  0  0  0  0  0  0  0  0
  144.4473  136.2391  151.8679 H   0  0  0  0  0  0  0  0  0  0  0  0
  145.8201  136.3962  150.7744 H   0  0  0  0  0  0  0  0  0  0  0  0
  147.1020  135.1821  152.0079 H   0  0  0  0  0  0  0  0  0  0  0  0
  1  2  1  0  0  0  0
  1 20  1  0  0  0  0
  1 21  1  0  0  0  0
  1 22  1  0  0  0  0
  2  7  1  0  0  0  0
  2  3  2  0  0  0  0
  3  4  1  0  0  0  0
  4  5  1  0  0  0  0
  5  6  1  0  0  0  0
  5  7  2  0  0  0  0
  6 23  1  0  0  0  0
  6 24  1  0  0  0  0
  6 25  1  0  0  0  0
  7  8  1  0  0  0  0
  8  9  1  0  0  0  0
  8 26  1  0  0  0  0
  8 27  1  0  0  0  0
  9 10  2  0  0  0  0
  9 11  1  0  0  0  0
 11 12  1  0  0  0  0
 11 28  1  0  0  0  0
 12 13  1  0  0  0  0
 12 29  1  0  0  0  0
 12 30  1  0  0  0  0
 13 14  1  0  0  0  0
 13 15  1  0  0  0  0
 13 31  1  0  0  0  0
 14 32  1  0  0  0  0
 14 33  1  0  0  0  0
 14 34  1  0  0  0  0
 15 19  1  0  0  0  0
 15 16  1  0  0  0  0
 15 43  1  0  0  0  0
 16 17  1  0  0  0  0
 16 35  1  0  0  0  0
 16 36  1  0  0  0  0
 17 18  1  0  0  0  0
 17 37  1  0  0  0  0
 17 38  1  0  0  0  0
 18 19  1  0  0  0  0
 18 39  1  0  0  0  0
 18 40  1  0  0  0  0
 19 41  1  0  0  0  0
 19 42  1  0  0  0  0
M  CHG  1  15   1
M  END
> <s_m_source_file>
AV-unprocessed.smi

> <i_m_source_file_index>
1139

> <i_lp_mmshare_version>
43012

> <i_f3d_flags>
0

> <s_epik_input>
W0NIM11jMW5vYyhbQ0gzXSljMVtDSDJdQyg9TylbTkhdW0NIMl1bQ0BIXShbQ0gzXSlOMltDSDJdW0NIMl1bQ0gyXVtDSDJdMg==

> <s_epik_cmdline>
J2VwaWtfcHl0aG9uJywgJy1waCcsICc3LjAnLCAnLXRuJywgJzgnLCAnLW1hJywgJzIwMCcsICctbWV0YWxfYmluZGluZycsICctaW1hZScsICc8aW5maWxlLm1hZT4nLCAnLW9tYWUnLCAnPG91dGZpbGUubWFlPic=

> <r_epik_Ionization_Penalty>
0.0050436

> <r_epik_Ionization_Penalty_Charging>
0.0050435

> <r_epik_Ionization_Penalty_Neutral>
9.69799e-08

> <r_epik_State_Penalty>
0.00366867

> <r_epik_Charging_Adjusted_Penalty>
0.00871217

> <i_epik_Tot_Q>
1

> <i_epik_Tot_abs_Q>
1

> <r_epik_Metal_State_Penalty>
-0

> <b_epik_Metal_Only>
0

> <s_lp_Force_Field>
OPLS_2005

> <r_lp_Energy>
24.7849

> <b_lp_Chiralities_Consistent>
1

> <s_lp_Variant>
AV-unprocessed.smi:1139-2

> <Gold.Version>
5.8.1

> <Gold.Id.Protein>
6NUR|6NUR_protein|mol2

> <Gold.PLP.Fitness>
38.0049

> <Gold.PLP.PLP>
-30.0267

> <Gold.PLP.part.hbond>
-1.8793

> <Gold.PLP.part.metal>
0.0000

> <Gold.PLP.part.buried>
0.3640

> <Gold.PLP.part.nonpolar>
-26.6753

> <Gold.PLP.part.repulsive>
0.1875

> <Gold.PLP.ligand.clash>
0.0000

> <Gold.PLP.ligand.torsion>
0.5283

> <Gold.PLP.Chemscore.Hbond>
3.0000

> <Gold.PLP.Chemscore.CHOScore>
0.0000

> <Gold.PLP.Chemscore.Metal>
0.0000

> <Gold.Chemscore.Hbonds>
donor molecule, donor type, donor heavy atom, donor atom, acceptor molecule, acceptor atom, score
      L1  H    11    28       P1  7948  0.36
      L1  H    15    43       P1  7948  1.66

> <Gold.PLP.Chemscore.Internal.Correction>
0.0349

> <Gold.Rescore>
     Score         DG    S(hbond)    S(metal)    S(lipo)     H(rot)  DE(clash)    DE(int)     intcor
     14.27     -15.96       1.96        0.00      71.15       1.72       0.18       1.51       ----

> <Gold.Chemscore.Fitness>
14.2716

> <Gold.Chemscore.DG>
-15.9618

> <Gold.Chemscore.ZeroCoef>
-5.4800

> <Gold.Chemscore.Hbond>
1.9637

> <Gold.Chemscore.Metal>
0.0000

> <Gold.Chemscore.Lipo>
71.1520

> <Gold.Chemscore.Internal_Hbond>
0.0000

> <Gold.Chemscore.DEClash>
0.1775

> <Gold.Chemscore.DEInternal>
1.5127

> <Gold.Chemscore.Rot>
1.7195

> <Gold.Chemscore.Internal.Correction>
   9.000000E+99

> <Gold.Chemscore.Hbonds>
donor molecule, donor type, donor heavy atom, donor atom, acceptor molecule, acceptor atom, score
      L1  H    11    28       P1  7948  0.37
      L1  H    15    43       P1  7948  0.79

> <Gold.Chemscore.Hbond.Weighted>
-6.5588

> <Gold.Chemscore.Metal.Weighted>
-0.0000

> <Gold.Chemscore.Lipo.Weighted>
-8.3248

> <Gold.Chemscore.Internal_Hbond.Weighted>
0.0000

> <Gold.Chemscore.DEClash.Weighted>
0.1775

> <Gold.Chemscore.DEInternal.Weighted>
1.5127

> <Gold.Chemscore.Rot.Weighted>
4.4018

> <Gold.Chemscore.Internal.Correction.Weighted>
   9.000000E+99

> <Gold.Protein.RotatedTorsions>
[ 6907 6896 6895 6894 ] final   96.44 input  -60.11 | X-H torsion
[ 7974 7965 7964 7962 ] final -130.75 input  175.53 | X-H torsion
[ 8008 7997 7996 7995 ] final  159.71 input   59.86 | X-H torsion
[ 10167 10162 10161 10158 ] final  -82.93 input  -65.29 | X-H torsion
[ 10718 10713 10712 10709 ] final  -95.04 input   66.30 | X-H torsion
[ 10763 10752 10751 10750 ] final   11.64 input  -60.55 | X-H torsion
[ 11005 11000 10999 10996 ] final -132.68 input  -57.11 | X-H torsion

> <Gold.Protein.ActiveResidues>
 VAL166  LYS551  ARG553  GLY616  TRP617  ASP618  TYR619  PRO620  LYS621  CYS622 
 ASP623  PHE694  ASN695  SER759  ASP760  ASP761  ALA762  ILE779  LEU786  VAL792 
 PHE793  MET794  SER795  GLU796  ALA797  LYS798  CYS799  TRP800  GLU811  SER814 

> <Gold.Protein.RotatedAtoms>
  152.5435  134.0886  159.8266 H   0  0  0  0  0  0  0  0  0  0  0  0  # atno 6907 bound_to 6896
  151.0978  133.5259  159.2619 H   0  0  0  0  0  0  0  0  0  0  0  0  # atno 6908 bound_to 6896
  151.2025  135.0457  159.8932 H   0  0  0  0  0  0  0  0  0  0  0  0  # atno 6909 bound_to 6896
  144.9444  140.7275  143.4826 H   0  0  0  0  0  0  0  0  0  0  0  0  # atno 7974 bound_to 7965
  156.2221  140.1824  156.7452 H   0  0  0  0  0  0  0  0  0  0  0  0  # atno 8008 bound_to 7997
  154.5881  140.0655  156.9229 H   0  0  0  0  0  0  0  0  0  0  0  0  # atno 8009 bound_to 7997
  155.2384  140.3320  155.4297 H   0  0  0  0  0  0  0  0  0  0  0  0  # atno 8010 bound_to 7997
  140.4274  143.2561  151.8806 H   0  0  0  0  0  0  0  0  0  0  0  0  # atno 10167 bound_to 10162
  156.0037  130.5093  150.6017 H   0  0  0  0  0  0  0  0  0  0  0  0  # atno 10718 bound_to 10713
  153.1905  135.6841  153.8359 H   0  0  0  0  0  0  0  0  0  0  0  0  # atno 10763 bound_to 10752
  153.7659  135.3203  155.3345 H   0  0  0  0  0  0  0  0  0  0  0  0  # atno 10764 bound_to 10752
  154.8114  135.4714  154.0625 H   0  0  0  0  0  0  0  0  0  0  0  0  # atno 10765 bound_to 10752
  140.9148  134.1521  157.4361 H   0  0  0  0  0  0  0  0  0  0  0  0  # atno 11005 bound_to 11000
  145.2940  139.1873  143.4725 LP  0  0  0  0  0  0  0  0  0  0  0  0  # atno 17320 bound_to 7965
  146.3298  140.2921  142.8616 LP  0  0  0  0  0  0  0  0  0  0  0  0  # atno 17321 bound_to 7965
  139.4784  144.5372  151.8582 LP  0  0  0  0  0  0  0  0  0  0  0  0  # atno 17342 bound_to 10162
  140.4465  144.1914  150.5894 LP  0  0  0  0  0  0  0  0  0  0  0  0  # atno 17343 bound_to 10162
  157.3865  131.0789  151.1431 LP  0  0  0  0  0  0  0  0  0  0  0  0  # atno 17370 bound_to 10713
  157.2137  130.6449  149.5784 LP  0  0  0  0  0  0  0  0  0  0  0  0  # atno 17371 bound_to 10713
  139.8764  134.9949  156.5719 LP  0  0  0  0  0  0  0  0  0  0  0  0  # atno 17394 bound_to 11000
  140.8064  133.8464  155.8771 LP  0  0  0  0  0  0  0  0  0  0  0  0  # atno 17395 bound_to 11000

$$$$
