#       Name:                AV-unprocessed.smi:61
#       Creating user name   scv26
#       Creation time:       Thu Mar 26 16:49:20 2020


#       File generated by GOLD software.
#

@<TRIPOS>MOLECULE
AV-unprocessed.smi:61
    33    34     1
SMALL
NO_CHARGES


@<TRIPOS>ATOM
      1 ****        -3.6266   1.4407   0.8103 N.pl3          1 S1                 0.0000
      2 ****        -2.9106   0.5428   0.0569 C.ar           1 S1                 0.0000
      3 ****        -3.6078  -0.2175  -0.7879 N.ar           1 S1                 0.0000
      4 ****        -2.9023  -1.0998  -1.5272 C.ar           1 S1                 0.0000
      5 ****        -1.5018  -1.2124  -1.4140 C.ar           1 S1                 0.0000
      6 ****        -0.8637  -0.3567  -0.4848 C.ar           1 S1                 0.0000
      7 ****         0.5356  -0.4031  -0.3117 N.3            1 S1                 0.0000
      8 ****         1.3482  -0.5048  -1.5197 C.3            1 S1                 0.0000
      9 ****         2.5844   0.3705  -1.2838 C.3            1 S1                 0.0000
     10 ****         2.6887   0.4524   0.2360 C.3            1 S1                 0.0000
     11 ****         1.2178   0.4420   0.6671 C.3            1 S1                 0.0000
     12 ****         0.9673   0.0352   2.1369 C.3            1 S1                 0.0000
     13 ****         1.5571  -1.2110   2.4470 O.3            1 S1                 0.0000
     14 ****        -1.5903   0.5226   0.2480 N.ar           1 S1                 0.0000
     15 ****        -3.1556   2.0441   1.4685 H              1 S1                 0.0000
     16 ****        -4.6218   1.5415   0.6747 H              1 S1                 0.0000
     17 ****        -3.4585  -1.7220  -2.2127 H              1 S1                 0.0000
     18 ****        -0.9528  -1.9279  -2.0082 H              1 S1                 0.0000
     19 ****         1.6381  -1.5474  -1.6541 H              1 S1                 0.0000
     20 ****         0.8127  -0.1854  -2.4148 H              1 S1                 0.0000
     21 ****         3.4832  -0.0308  -1.7527 H              1 S1                 0.0000
     22 ****         2.4105   1.3677  -1.6908 H              1 S1                 0.0000
     23 ****         3.2178  -0.4259   0.6073 H              1 S1                 0.0000
     24 ****         3.2236   1.3384   0.5788 H              1 S1                 0.0000
     25 ****         0.8353   1.4548   0.5312 H              1 S1                 0.0000
     26 ****         1.4000   0.7847   2.7999 H              1 S1                 0.0000
     27 ****        -0.0956  -0.0082   2.3709 H              1 S1                 0.0000
     28 ****         1.3799  -1.4093   3.3538 H              1 S1                 0.0000
     29 ****        -4.6013  -0.1384  -0.8696 LP             1 S1                 0.0000
     30 ****         0.4841  -1.2895   0.1484 LP             1 S1                 0.0000
     31 ****         2.5450  -1.1628   2.2991 LP             1 S1                 0.0000
     32 ****         1.1671  -1.9234   1.8635 LP             1 S1                 0.0000
     33 ****        -1.1526   1.1336   0.9076 LP             1 S1                 0.0000
@<TRIPOS>BOND
    1    1    2 1     
    2    1   15 1     
    3    1   16 1     
    4    2   14 ar    
    5    2    3 ar    
    6    3    4 ar    
    7    4    5 ar    
    8    4   17 1     
    9    5    6 ar    
   10    5   18 1     
   11    6    7 1     
   12    6   14 ar    
   13    7   11 1     
   14    7    8 1     
   15    8    9 1     
   16    8   19 1     
   17    8   20 1     
   18    9   10 1     
   19    9   21 1     
   20    9   22 1     
   21   10   11 1     
   22   10   23 1     
   23   10   24 1     
   24   11   12 1     
   25   11   25 1     
   26   12   13 1     
   27   12   26 1     
   28   12   27 1     
   29   13   28 1     
   30    3   29 1     
   31    7   30 1     
   32   13   31 1     
   33   13   32 1     
   34   14   33 1     
@<TRIPOS>SUBSTRUCTURE
      1 S1             1
@<TRIPOS>SET
LONE_PAIRS      STATIC     ATOMS    <user>   **** ""
5 29 30 31 32 33
DONOR_HYDROGENS      STATIC     ATOMS    <user>   **** ""
3 15 16 28
ATOM$BLUE        STATIC     ATOMS    COLORGROUP SYSTEM
5 29 30 31 32 33
ATOM$RED        STATIC     ATOMS    COLORGROUP SYSTEM
3 15 16 28
