AV-unprocessed.smi:2079|AV-procd|sdf|8478|dock6
  -GOLD-   2272011183D 1   1.00000     0.00000
 Structure written by MMmdl.
 42 43  0  0  0  0  0  0  0  0  2 V2000
  151.4838  139.4761  158.1526 C   0  0  0  0  0  0  0  0  0  0  0  0
  151.1032  139.3838  156.7148 C   0  0  0  0  0  0  0  0  0  0  0  0
  149.9065  139.2093  156.0782 C   0  0  0  0  0  0  0  0  0  0  0  0
  150.2720  139.2074  154.7058 C   0  0  0  0  0  0  0  0  0  0  0  0
  149.2953  139.0400  153.6910 N   0  0  0  0  0  0  0  0  0  0  0  0
  147.9994  138.7220  153.8506 C   0  0  0  0  0  0  0  0  0  0  0  0
  147.4509  138.4966  154.9299 O   0  0  0  0  0  0  0  0  0  0  0  0
  147.3558  138.6744  152.6747 N   0  0  0  0  0  0  0  0  0  0  0  0
  145.9343  138.3856  152.5199 C   0  0  0  0  0  0  0  0  0  0  0  0
  145.5197  137.1310  153.3182 C   0  0  0  0  0  0  0  0  0  0  0  0
  145.9102  135.8494  152.6613 N   0  3  1  0  0  0  0  0  0  0  0  0
  146.1713  134.7678  153.6558 C   0  0  0  0  0  0  0  0  0  0  0  0
  146.6950  133.4859  152.9932 C   0  0  0  0  0  0  0  0  0  0  0  0
  145.7127  132.9881  151.9341 C   0  0  0  0  0  0  0  0  0  0  0  0
  145.4598  134.1038  150.9182 C   0  0  0  0  0  0  0  0  0  0  0  0
  144.9550  135.3976  151.5948 C   0  0  2  0  0  0  0  0  0  0  0  0
  144.7082  136.4584  150.5013 C   0  0  0  0  0  0  0  0  0  0  0  0
  151.5732  139.3704  154.5212 N   0  0  0  0  0  0  0  0  0  0  0  0
  152.1126  139.4836  155.8078 O   0  0  0  0  0  0  0  0  0  0  0  0
  150.6018  139.5902  158.7829 H   0  0  0  0  0  0  0  0  0  0  0  0
  152.1368  140.3315  158.3267 H   0  0  0  0  0  0  0  0  0  0  0  0
  152.0121  138.5767  158.4691 H   0  0  0  0  0  0  0  0  0  0  0  0
  148.9300  139.0980  156.5261 H   0  0  0  0  0  0  0  0  0  0  0  0
  149.6146  139.1943  152.7463 H   0  0  0  0  0  0  0  0  0  0  0  0
  147.8787  138.8716  151.8337 H   0  0  0  0  0  0  0  0  0  0  0  0
  145.3432  139.2503  152.8272 H   0  0  0  0  0  0  0  0  0  0  0  0
  145.7634  138.2502  151.4531 H   0  0  0  0  0  0  0  0  0  0  0  0
  145.9338  137.1670  154.3269 H   0  0  0  0  0  0  0  0  0  0  0  0
  144.4392  137.1765  153.4272 H   0  0  0  0  0  0  0  0  0  0  0  0
  146.9153  135.0819  154.3855 H   0  0  0  0  0  0  0  0  0  0  0  0
  145.2560  134.5549  154.2104 H   0  0  0  0  0  0  0  0  0  0  0  0
  147.6674  133.6764  152.5370 H   0  0  0  0  0  0  0  0  0  0  0  0
  146.8519  132.7138  153.7469 H   0  0  0  0  0  0  0  0  0  0  0  0
  146.1098  132.1035  151.4354 H   0  0  0  0  0  0  0  0  0  0  0  0
  144.7740  132.6912  152.4042 H   0  0  0  0  0  0  0  0  0  0  0  0
  146.3799  134.3097  150.3690 H   0  0  0  0  0  0  0  0  0  0  0  0
  144.7342  133.7578  150.1811 H   0  0  0  0  0  0  0  0  0  0  0  0
  143.9986  135.1795  152.0733 H   0  0  0  0  0  0  0  0  0  0  0  0
  144.1503  136.0336  149.6664 H   0  0  0  0  0  0  0  0  0  0  0  0
  145.6460  136.8478  150.1036 H   0  0  0  0  0  0  0  0  0  0  0  0
  144.1122  137.2967  150.8605 H   0  0  0  0  0  0  0  0  0  0  0  0
  146.7867  136.0292  152.1924 H   0  0  0  0  0  0  0  0  0  0  0  0
  1  2  1  0  0  0  0
  1 20  1  0  0  0  0
  1 21  1  0  0  0  0
  1 22  1  0  0  0  0
  2 19  1  0  0  0  0
  2  3  2  0  0  0  0
  3  4  1  0  0  0  0
  3 23  1  0  0  0  0
  4  5  1  0  0  0  0
  4 18  2  0  0  0  0
  5  6  1  0  0  0  0
  5 24  1  0  0  0  0
  6  7  2  0  0  0  0
  6  8  1  0  0  0  0
  8  9  1  0  0  0  0
  8 25  1  0  0  0  0
  9 10  1  0  0  0  0
  9 26  1  0  0  0  0
  9 27  1  0  0  0  0
 10 11  1  0  0  0  0
 10 28  1  0  0  0  0
 10 29  1  0  0  0  0
 11 16  1  0  0  0  0
 11 12  1  0  0  0  0
 11 42  1  0  0  0  0
 12 13  1  0  0  0  0
 12 30  1  0  0  0  0
 12 31  1  0  0  0  0
 13 14  1  0  0  0  0
 13 32  1  0  0  0  0
 13 33  1  0  0  0  0
 14 15  1  0  0  0  0
 14 34  1  0  0  0  0
 14 35  1  0  0  0  0
 15 16  1  0  0  0  0
 15 36  1  0  0  0  0
 15 37  1  0  0  0  0
 16 17  1  0  0  0  0
 16 38  1  0  0  0  0
 17 39  1  0  0  0  0
 17 40  1  0  0  0  0
 17 41  1  0  0  0  0
 18 19  1  0  0  0  0
M  CHG  1  11   1
M  END
> <s_m_source_file>
AV-unprocessed.smi

> <i_m_source_file_index>
2079

> <i_lp_mmshare_version>
43012

> <i_f3d_flags>
0

> <s_epik_input>
W0NIM11jMVtjSF1jKG5vMSlbTkhdQyg9TylbTkhdW0NIMl1bQ0gyXU4yW0NIMl1bQ0gyXVtDSDJdW0NIMl1bQ0BIXTJbQ0gzXQ==

> <s_epik_cmdline>
J2VwaWtfcHl0aG9uJywgJy1waCcsICc3LjAnLCAnLXRuJywgJzgnLCAnLW1hJywgJzIwMCcsICctbWV0YWxfYmluZGluZycsICctaW1hZScsICc8aW5maWxlLm1hZT4nLCAnLW9tYWUnLCAnPG91dGZpbGUubWFlPic=

> <r_epik_Ionization_Penalty>
0.00265971

> <r_epik_Ionization_Penalty_Charging>
0.00262393

> <r_epik_Ionization_Penalty_Neutral>
3.57846e-05

> <r_epik_State_Penalty>
0.00182566

> <r_epik_Charging_Adjusted_Penalty>
0.00444959

> <i_epik_Tot_Q>
1

> <i_epik_Tot_abs_Q>
1

> <r_epik_Metal_State_Penalty>
0.0216344

> <b_epik_Metal_Only>
0

> <s_lp_Force_Field>
OPLS_2005

> <r_lp_Energy>
17.1718

> <b_lp_Chiralities_Consistent>
1

> <s_lp_Variant>
AV-unprocessed.smi:2079-4

> <Gold.Version>
5.8.1

> <Gold.Id.Protein>
6NUR|6NUR_protein|mol2

> <Gold.PLP.Fitness>
46.6847

> <Gold.PLP.PLP>
-29.6046

> <Gold.PLP.part.hbond>
-6.0000

> <Gold.PLP.part.metal>
0.0000

> <Gold.PLP.part.buried>
-2.9409

> <Gold.PLP.part.nonpolar>
-21.7982

> <Gold.PLP.part.repulsive>
0.2757

> <Gold.PLP.ligand.clash>
0.0000

> <Gold.PLP.ligand.torsion>
0.4464

> <Gold.PLP.Chemscore.Hbond>
5.9840

> <Gold.PLP.Chemscore.CHOScore>
0.0000

> <Gold.PLP.Chemscore.Metal>
0.0000

> <Gold.Chemscore.Hbonds>
donor molecule, donor type, donor heavy atom, donor atom, acceptor molecule, acceptor atom, score
      L1  H     5    24       P1  7957  1.00
      L1  H     8    25       P1  7957  0.57
      L1  H    11    42       P1  7948  1.24
      P1  H  7989  7998       L1    18  1.00
      P1  H  7997  8010       L1    19  0.15

> <Gold.PLP.Chemscore.Internal.Correction>
0.0209

> <Gold.Rescore>
     Score         DG    S(hbond)    S(metal)    S(lipo)     H(rot)  DE(clash)    DE(int)     intcor
     17.74     -22.40       4.35        0.00      54.72       1.57       0.35       4.32       ----

> <Gold.Chemscore.Fitness>
17.7389

> <Gold.Chemscore.DG>
-22.4044

> <Gold.Chemscore.ZeroCoef>
-5.4800

> <Gold.Chemscore.Hbond>
4.3534

> <Gold.Chemscore.Metal>
0.0000

> <Gold.Chemscore.Lipo>
54.7216

> <Gold.Chemscore.Internal_Hbond>
0.0000

> <Gold.Chemscore.DEClash>
0.3494

> <Gold.Chemscore.DEInternal>
4.3162

> <Gold.Chemscore.Rot>
1.5697

> <Gold.Chemscore.Internal.Correction>
   9.000000E+99

> <Gold.Chemscore.Hbonds>
donor molecule, donor type, donor heavy atom, donor atom, acceptor molecule, acceptor atom, score
      L1  H     5    24       P1  7957  0.97
      L1  H     8    25       P1  7957  0.53
      L1  H    11    42       P1  7948  0.62
      P1  H  7989  7998       L1    18  0.36
      P1  H  7997  8010       L1    19  0.17

> <Gold.Chemscore.Hbond.Weighted>
-14.5405

> <Gold.Chemscore.Metal.Weighted>
-0.0000

> <Gold.Chemscore.Lipo.Weighted>
-6.4024

> <Gold.Chemscore.Internal_Hbond.Weighted>
0.0000

> <Gold.Chemscore.DEClash.Weighted>
0.3494

> <Gold.Chemscore.DEInternal.Weighted>
4.3162

> <Gold.Chemscore.Rot.Weighted>
4.0185

> <Gold.Chemscore.Internal.Correction.Weighted>
   9.000000E+99

> <Gold.Protein.RotatedTorsions>
[ 6907 6896 6895 6894 ] final   -5.65 input  -60.11 | X-H torsion
[ 7974 7965 7964 7962 ] final -173.15 input  175.53 | X-H torsion
[ 8008 7997 7996 7995 ] final   90.84 input   59.86 | X-H torsion
[ 10167 10162 10161 10158 ] final -107.76 input  -65.29 | X-H torsion
[ 10718 10713 10712 10709 ] final  117.72 input   66.30 | X-H torsion
[ 10763 10752 10751 10750 ] final  131.82 input  -60.55 | X-H torsion
[ 11005 11000 10999 10996 ] final  -72.58 input  -57.11 | X-H torsion

> <Gold.Protein.ActiveResidues>
 VAL166  LYS551  ARG553  GLY616  TRP617  ASP618  TYR619  PRO620  LYS621  CYS622 
 ASP623  PHE694  ASN695  SER759  ASP760  ASP761  ALA762  ILE779  LEU786  VAL792 
 PHE793  MET794  SER795  GLU796  ALA797  LYS798  CYS799  TRP800  GLU811  SER814 

> <Gold.Protein.RotatedAtoms>
  151.4782  135.1050  159.9770 H   0  0  0  0  0  0  0  0  0  0  0  0  # atno 6907 bound_to 6896
  152.4789  133.8203  159.7060 H   0  0  0  0  0  0  0  0  0  0  0  0  # atno 6908 bound_to 6896
  150.8847  133.7262  159.2948 H   0  0  0  0  0  0  0  0  0  0  0  0  # atno 6909 bound_to 6896
  144.7140  140.1665  143.6371 H   0  0  0  0  0  0  0  0  0  0  0  0  # atno 7974 bound_to 7965
  156.0167  140.3345  155.6996 H   0  0  0  0  0  0  0  0  0  0  0  0  # atno 8008 bound_to 7997
  155.6081  140.0662  157.2732 H   0  0  0  0  0  0  0  0  0  0  0  0  # atno 8009 bound_to 7997
  154.4301  140.1798  156.1231 H   0  0  0  0  0  0  0  0  0  0  0  0  # atno 8010 bound_to 7997
  140.1734  143.4024  152.1337 H   0  0  0  0  0  0  0  0  0  0  0  0  # atno 10167 bound_to 10162
  157.6078  131.1040  150.7655 H   0  0  0  0  0  0  0  0  0  0  0  0  # atno 10718 bound_to 10713
  153.7805  135.3169  155.3365 H   0  0  0  0  0  0  0  0  0  0  0  0  # atno 10763 bound_to 10752
  154.8163  135.4634  154.0655 H   0  0  0  0  0  0  0  0  0  0  0  0  # atno 10764 bound_to 10752
  153.1943  135.6913  153.8398 H   0  0  0  0  0  0  0  0  0  0  0  0  # atno 10765 bound_to 10752
  141.1610  133.6851  156.7080 H   0  0  0  0  0  0  0  0  0  0  0  0  # atno 11005 bound_to 11000
  145.8983  139.2415  143.1509 LP  0  0  0  0  0  0  0  0  0  0  0  0  # atno 17320 bound_to 7965
  145.9836  140.8662  143.0102 LP  0  0  0  0  0  0  0  0  0  0  0  0  # atno 17321 bound_to 7965
  139.5328  144.7177  151.4998 LP  0  0  0  0  0  0  0  0  0  0  0  0  # atno 17342 bound_to 10162
  140.6567  143.8584  150.6843 LP  0  0  0  0  0  0  0  0  0  0  0  0  # atno 17343 bound_to 10162
  156.8039  130.4930  149.5365 LP  0  0  0  0  0  0  0  0  0  0  0  0  # atno 17370 bound_to 10713
  156.1170  130.6082  151.0135 LP  0  0  0  0  0  0  0  0  0  0  0  0  # atno 17371 bound_to 10713
  140.2908  134.8242  157.4015 LP  0  0  0  0  0  0  0  0  0  0  0  0  # atno 17394 bound_to 11000
  140.1348  134.5048  155.8077 LP  0  0  0  0  0  0  0  0  0  0  0  0  # atno 17395 bound_to 11000

$$$$
