AV-unprocessed.smi:2807|AV-procd|sdf|10818|dock3
  -GOLD-   2272015253D 1   1.00000     0.00000
 Structure written by MMmdl.
 32 33  0  0  0  0  0  0  0  0  1 V2000
  151.8200  139.6644  154.7458 O   0  0  0  0  0  0  0  0  0  0  0  0
  151.0292  139.9211  155.6544 C   0  0  0  0  0  0  0  0  0  0  0  0
  149.7825  140.3731  155.4375 N   0  0  0  0  0  0  0  0  0  0  0  0
  149.1793  140.6283  154.1285 C   0  0  2  0  0  0  0  0  0  0  0  0
  148.0879  141.7119  154.2392 C   0  0  0  0  0  0  0  0  0  0  0  0
  146.8487  141.1490  153.5386 C   0  0  0  0  0  0  0  0  0  0  0  0
  146.9807  139.6373  153.6900 C   0  0  0  0  0  0  0  0  0  0  0  0
  148.4804  139.3838  153.5268 C   0  0  2  0  0  0  0  0  0  0  0  0
  148.8488  138.1434  154.1004 O   0  0  0  0  0  0  0  0  0  0  0  0
  151.4484  139.7334  157.1202 C   0  0  0  0  0  0  0  0  0  0  0  0
  150.5269  138.9993  157.7493 F   0  0  0  0  0  0  0  0  0  0  0  0
  152.5999  139.0586  157.1559 F   0  0  0  0  0  0  0  0  0  0  0  0
  151.6062  141.0881  157.8058 C   0  0  0  0  0  0  0  0  0  0  0  0
  152.1854  141.1894  159.0912 C   0  0  0  0  0  0  0  0  0  0  0  0
  152.3186  142.4643  159.6738 C   0  0  0  0  0  0  0  0  0  0  0  0
  151.8734  143.5892  158.9544 C   0  0  0  0  0  0  0  0  0  0  0  0
  151.3137  143.3883  157.6777 C   0  0  0  0  0  0  0  0  0  0  0  0
  151.1812  142.1705  157.1099 N   0  0  0  0  0  0  0  0  0  0  0  0
  149.2081  140.5647  156.2458 H   0  0  0  0  0  0  0  0  0  0  0  0
  149.9441  140.9717  153.4294 H   0  0  0  0  0  0  0  0  0  0  0  0
  147.8456  141.9098  155.2848 H   0  0  0  0  0  0  0  0  0  0  0  0
  148.4045  142.6589  153.8007 H   0  0  0  0  0  0  0  0  0  0  0  0
  145.9186  141.5342  153.9574 H   0  0  0  0  0  0  0  0  0  0  0  0
  146.8722  141.4137  152.4805 H   0  0  0  0  0  0  0  0  0  0  0  0
  146.6524  139.3441  154.6886 H   0  0  0  0  0  0  0  0  0  0  0  0
  146.3795  139.0869  152.9654 H   0  0  0  0  0  0  0  0  0  0  0  0
  148.7092  139.3406  152.4609 H   0  0  0  0  0  0  0  0  0  0  0  0
  149.2033  137.5922  153.4196 H   0  0  0  0  0  0  0  0  0  0  0  0
  152.5254  140.3119  159.6211 H   0  0  0  0  0  0  0  0  0  0  0  0
  152.7564  142.5772  160.6548 H   0  0  0  0  0  0  0  0  0  0  0  0
  151.9606  144.5821  159.3703 H   0  0  0  0  0  0  0  0  0  0  0  0
  150.9630  144.2282  157.0963 H   0  0  0  0  0  0  0  0  0  0  0  0
  1  2  2  0  0  0  0
  2  3  1  0  0  0  0
  2 10  1  0  0  0  0
  3  4  1  0  0  0  0
  3 19  1  0  0  0  0
  4  8  1  0  0  0  0
  4  5  1  0  0  0  0
  4 20  1  0  0  0  0
  5  6  1  0  0  0  0
  5 21  1  0  0  0  0
  5 22  1  0  0  0  0
  6  7  1  0  0  0  0
  6 23  1  0  0  0  0
  6 24  1  0  0  0  0
  7  8  1  0  0  0  0
  7 25  1  0  0  0  0
  7 26  1  0  0  0  0
  8  9  1  0  0  0  0
  8 27  1  0  0  0  0
  9 28  1  0  0  0  0
 10 11  1  0  0  0  0
 10 12  1  0  0  0  0
 10 13  1  0  0  0  0
 13 18  1  0  0  0  0
 13 14  2  0  0  0  0
 14 15  1  0  0  0  0
 14 29  1  0  0  0  0
 15 16  2  0  0  0  0
 15 30  1  0  0  0  0
 16 17  1  0  0  0  0
 16 31  1  0  0  0  0
 17 18  2  0  0  0  0
 17 32  1  0  0  0  0
M  END
> <s_m_source_file>
AV-unprocessed.smi

> <i_m_source_file_index>
2807

> <i_lp_mmshare_version>
43012

> <i_f3d_flags>
0

> <s_epik_input>
bjFbY0hdW2NIXVtjSF1bY0hdYzFDKEYpKEYpQyg9TylbTkhdW0NAQEhdMltDSDJdW0NIMl1bQ0gyXVtDQEhdMltPSF0=

> <s_epik_cmdline>
J2VwaWtfcHl0aG9uJywgJy1waCcsICc3LjAnLCAnLXRuJywgJzgnLCAnLW1hJywgJzIwMCcsICctbWV0YWxfYmluZGluZycsICctaW1hZScsICc8aW5maWxlLm1hZT4nLCAnLW9tYWUnLCAnPG91dGZpbGUubWFlPic=

> <r_lp_tautomer_probability>
1

> <r_epik_Ionization_Penalty>
4.08325e-05

> <r_epik_Ionization_Penalty_Charging>
0

> <r_epik_Ionization_Penalty_Neutral>
4.08325e-05

> <r_epik_State_Penalty>
-0

> <r_epik_Charging_Adjusted_Penalty>
0

> <i_epik_Tot_Q>
0

> <i_epik_Tot_abs_Q>
0

> <r_epik_Metal_State_Penalty>
0.034564

> <b_epik_Metal_Only>
0

> <s_lp_Force_Field>
OPLS_2005

> <r_lp_Energy>
28.2651

> <b_lp_Chiralities_Consistent>
1

> <s_lp_Variant>
AV-unprocessed.smi:2807-3

> <Gold.Version>
5.8.1

> <Gold.Id.Protein>
6NUR|6NUR_protein|mol2

> <Gold.PLP.Fitness>
39.2551

> <Gold.PLP.PLP>
-32.0750

> <Gold.PLP.part.hbond>
-2.0000

> <Gold.PLP.part.metal>
0.0000

> <Gold.PLP.part.buried>
-0.1605

> <Gold.PLP.part.nonpolar>
-30.5317

> <Gold.PLP.part.repulsive>
0.2204

> <Gold.PLP.ligand.clash>
0.0000

> <Gold.PLP.ligand.torsion>
0.9040

> <Gold.PLP.Chemscore.Hbond>
1.9913

> <Gold.PLP.Chemscore.CHOScore>
1.0000

> <Gold.PLP.Chemscore.Metal>
0.0000

> <Gold.Chemscore.Hbonds>
donor molecule, donor type, donor heavy atom, donor atom, acceptor molecule, acceptor atom, score
      L1  H     9    28       P1  7948  0.93
      P1  H  7989  7998       L1     1  1.00
      L1  C    17    32       P1  8028  0.97

> <Gold.PLP.Chemscore.Internal.Correction>
0.0143

> <Gold.Rescore>
     Score         DG    S(hbond)    S(metal)    S(lipo)     H(rot)  DE(clash)    DE(int)     intcor
     13.68     -16.06       1.78        0.00      84.48       2.05       0.25       2.13       ----

> <Gold.Chemscore.Fitness>
13.6798

> <Gold.Chemscore.DG>
-16.0564

> <Gold.Chemscore.ZeroCoef>
-5.4800

> <Gold.Chemscore.Hbond>
1.7751

> <Gold.Chemscore.Metal>
0.0000

> <Gold.Chemscore.Lipo>
84.4830

> <Gold.Chemscore.Internal_Hbond>
0.0000

> <Gold.Chemscore.DEClash>
0.2501

> <Gold.Chemscore.DEInternal>
2.1265

> <Gold.Chemscore.Rot>
2.0457

> <Gold.Chemscore.Internal.Correction>
   9.000000E+99

> <Gold.Chemscore.Hbonds>
donor molecule, donor type, donor heavy atom, donor atom, acceptor molecule, acceptor atom, score
      L1  H     9    28       P1  7948  0.85
      P1  H  7989  7998       L1     1  0.67

> <Gold.Chemscore.Hbond.Weighted>
-5.9289

> <Gold.Chemscore.Metal.Weighted>
-0.0000

> <Gold.Chemscore.Lipo.Weighted>
-9.8845

> <Gold.Chemscore.Internal_Hbond.Weighted>
0.0000

> <Gold.Chemscore.DEClash.Weighted>
0.2501

> <Gold.Chemscore.DEInternal.Weighted>
2.1265

> <Gold.Chemscore.Rot.Weighted>
5.2371

> <Gold.Chemscore.Internal.Correction.Weighted>
   9.000000E+99

> <Gold.Protein.RotatedTorsions>
[ 6907 6896 6895 6894 ] final  156.76 input  -60.11 | X-H torsion
[ 7974 7965 7964 7962 ] final  -73.85 input  175.53 | X-H torsion
[ 8008 7997 7996 7995 ] final    2.66 input   59.86 | X-H torsion
[ 10167 10162 10161 10158 ] final  157.10 input  -65.29 | X-H torsion
[ 10718 10713 10712 10709 ] final   69.05 input   66.30 | X-H torsion
[ 10763 10752 10751 10750 ] final   90.18 input  -60.55 | X-H torsion
[ 11005 11000 10999 10996 ] final  -76.72 input  -57.11 | X-H torsion

> <Gold.Protein.ActiveResidues>
 VAL166  LYS551  ARG553  GLY616  TRP617  ASP618  TYR619  PRO620  LYS621  CYS622 
 ASP623  PHE694  ASN695  SER759  ASP760  ASP761  ALA762  ILE779  LEU786  VAL792 
 PHE793  MET794  SER795  GLU796  ALA797  LYS798  CYS799  TRP800  GLU811  SER814 

> <Gold.Protein.RotatedAtoms>
  152.0250  133.3914  159.4273 H   0  0  0  0  0  0  0  0  0  0  0  0  # atno 6907 bound_to 6896
  150.6887  134.3584  159.4949 H   0  0  0  0  0  0  0  0  0  0  0  0  # atno 6908 bound_to 6896
  152.1363  134.9096  160.0607 H   0  0  0  0  0  0  0  0  0  0  0  0  # atno 6909 bound_to 6896
  145.6467  140.9295  143.1006 H   0  0  0  0  0  0  0  0  0  0  0  0  # atno 7974 bound_to 7965
  154.6943  140.2660  155.6781 H   0  0  0  0  0  0  0  0  0  0  0  0  # atno 8008 bound_to 7997
  156.2743  140.2785  156.1455 H   0  0  0  0  0  0  0  0  0  0  0  0  # atno 8009 bound_to 7997
  155.0853  140.0373  157.2642 H   0  0  0  0  0  0  0  0  0  0  0  0  # atno 8010 bound_to 7997
  139.4822  144.4948  151.8255 H   0  0  0  0  0  0  0  0  0  0  0  0  # atno 10167 bound_to 10162
  157.6324  130.9405  150.0461 H   0  0  0  0  0  0  0  0  0  0  0  0  # atno 10718 bound_to 10713
  153.1949  135.4443  155.0195 H   0  0  0  0  0  0  0  0  0  0  0  0  # atno 10763 bound_to 10752
  154.8112  135.3295  154.7301 H   0  0  0  0  0  0  0  0  0  0  0  0  # atno 10764 bound_to 10752
  153.7751  135.6981  153.4954 H   0  0  0  0  0  0  0  0  0  0  0  0  # atno 10765 bound_to 10752
  141.1656  133.6994  156.7711 H   0  0  0  0  0  0  0  0  0  0  0  0  # atno 11005 bound_to 11000
  144.7137  139.8274  143.7406 LP  0  0  0  0  0  0  0  0  0  0  0  0  # atno 17320 bound_to 7965
  146.1237  139.4259  143.0212 LP  0  0  0  0  0  0  0  0  0  0  0  0  # atno 17321 bound_to 7965
  140.4436  144.1952  150.5893 LP  0  0  0  0  0  0  0  0  0  0  0  0  # atno 17342 bound_to 10162
  140.4658  143.2431  151.9158 LP  0  0  0  0  0  0  0  0  0  0  0  0  # atno 17343 bound_to 10162
  156.1537  130.3643  149.9400 LP  0  0  0  0  0  0  0  0  0  0  0  0  # atno 17370 bound_to 10713
  156.7414  130.9081  151.3632 LP  0  0  0  0  0  0  0  0  0  0  0  0  # atno 17371 bound_to 10713
  140.2463  134.8575  157.3623 LP  0  0  0  0  0  0  0  0  0  0  0  0  # atno 17394 bound_to 11000
  140.1746  134.4565  155.7810 LP  0  0  0  0  0  0  0  0  0  0  0  0  # atno 17395 bound_to 11000

$$$$
