AV-unprocessed.smi:104|AV-procd|sdf|999|dock5
  -GOLD-   2262017583D 1   1.00000     0.00000
 Structure written by MMmdl.
 47 49  0  0  0  0  0  0  0  0  1 V2000
  150.0856  144.2017  159.4342 C   0  0  0  0  0  0  0  0  0  0  0  0
  151.2416  143.5601  158.6782 C   0  0  0  0  0  0  0  0  0  0  0  0
  152.0319  144.2344  158.0173 O   0  0  0  0  0  0  0  0  0  0  0  0
  151.2735  142.2276  158.8276 O   0  0  0  0  0  0  0  0  0  0  0  0
  152.0731  141.4452  157.9567 C   0  0  0  0  0  0  0  0  0  0  0  0
  152.4613  140.1395  158.6589 C   0  0  2  0  0  0  0  0  0  0  0  0
  153.1103  140.4287  159.8873 O   0  0  0  0  0  0  0  0  0  0  0  0
  153.9281  139.3610  160.2463 C   0  0  2  0  0  0  0  0  0  0  0  0
  155.1794  139.9321  160.8416 N   0  0  0  0  0  0  0  0  0  0  0  0
  155.7586  139.6721  162.0627 C   0  0  0  0  0  0  0  0  0  0  0  0
  155.0170  138.4277  163.2985 Br  0  0  0  0  0  0  0  0  0  0  0  0
  156.8615  140.3072  162.3461 N   0  0  0  0  0  0  0  0  0  0  0  0
  157.0726  141.0768  161.2086 C   0  0  0  0  0  0  0  0  0  0  0  0
  158.0737  142.0005  160.8159 C   0  0  0  0  0  0  0  0  0  0  0  0
  159.1153  142.3252  161.5945 N   0  0  0  0  0  0  0  0  0  0  0  0
  157.9752  142.5818  159.5973 N   0  0  0  0  0  0  0  0  0  0  0  0
  156.9461  142.2744  158.8008 C   0  0  0  0  0  0  0  0  0  0  0  0
  155.9339  141.4338  159.0298 N   0  0  0  0  0  0  0  0  0  0  0  0
  156.0323  140.8499  160.2605 C   0  0  0  0  0  0  0  0  0  0  0  0
  154.1974  138.5217  158.9789 C   0  0  2  0  0  0  0  0  0  0  0  0
  155.5880  138.3791  158.7023 O   0  0  0  0  0  0  0  0  0  0  0  0
  156.0171  137.4515  157.8322 C   0  0  0  0  0  0  0  0  0  0  0  0
  157.5108  137.5629  157.5590 C   0  0  0  0  0  0  0  0  0  0  0  0
  155.3250  136.5915  157.2877 O   0  0  0  0  0  0  0  0  0  0  0  0
  153.4984  139.3226  157.8886 C   0  0  1  0  0  0  0  0  0  0  0  0
  152.8721  138.4275  156.9780 O   0  0  0  0  0  0  0  0  0  0  0  0
  152.4717  138.8534  155.7685 C   0  0  0  0  0  0  0  0  0  0  0  0
  151.7963  137.7518  154.9631 C   0  0  0  0  0  0  0  0  0  0  0  0
  152.6077  139.9897  155.3152 O   0  0  0  0  0  0  0  0  0  0  0  0
  150.2741  144.1731  160.5075 H   0  0  0  0  0  0  0  0  0  0  0  0
  149.1561  143.6698  159.2305 H   0  0  0  0  0  0  0  0  0  0  0  0
  149.9602  145.2415  159.1320 H   0  0  0  0  0  0  0  0  0  0  0  0
  151.4968  141.2261  157.0568 H   0  0  0  0  0  0  0  0  0  0  0  0
  152.9650  141.9935  157.6499 H   0  0  0  0  0  0  0  0  0  0  0  0
  151.5820  139.5251  158.8622 H   0  0  0  0  0  0  0  0  0  0  0  0
  153.4614  138.7842  161.0440 H   0  0  0  0  0  0  0  0  0  0  0  0
  159.2120  141.9046  162.5076 H   0  0  0  0  0  0  0  0  0  0  0  0
  159.7988  142.9936  161.2695 H   0  0  0  0  0  0  0  0  0  0  0  0
  156.9307  142.7736  157.8431 H   0  0  0  0  0  0  0  0  0  0  0  0
  153.7148  137.5542  159.1270 H   0  0  0  0  0  0  0  0  0  0  0  0
  158.0785  137.3224  158.4580 H   0  0  0  0  0  0  0  0  0  0  0  0
  157.7645  138.5768  157.2491 H   0  0  0  0  0  0  0  0  0  0  0  0
  157.8077  136.8753  156.7667 H   0  0  0  0  0  0  0  0  0  0  0  0
  154.2197  139.9881  157.4105 H   0  0  0  0  0  0  0  0  0  0  0  0
  150.8628  137.4532  155.4399 H   0  0  0  0  0  0  0  0  0  0  0  0
  152.4464  136.8796  154.8946 H   0  0  0  0  0  0  0  0  0  0  0  0
  151.5742  138.0970  153.9531 H   0  0  0  0  0  0  0  0  0  0  0  0
  1  2  1  0  0  0  0
  1 30  1  0  0  0  0
  1 31  1  0  0  0  0
  1 32  1  0  0  0  0
  2  3  2  0  0  0  0
  2  4  1  0  0  0  0
  4  5  1  0  0  0  0
  5  6  1  0  0  0  0
  5 33  1  0  0  0  0
  5 34  1  0  0  0  0
  6 25  1  0  0  0  0
  6  7  1  0  0  0  0
  6 35  1  0  0  0  0
  7  8  1  0  0  0  0
  8  9  1  0  0  0  0
  8 20  1  0  0  0  0
  8 36  1  0  0  0  0
  9 19  1  0  0  0  0
  9 10  1  0  0  0  0
 10 11  1  0  0  0  0
 10 12  2  0  0  0  0
 12 13  1  0  0  0  0
 13 19  2  0  0  0  0
 13 14  1  0  0  0  0
 14 15  1  0  0  0  0
 14 16  2  0  0  0  0
 15 37  1  0  0  0  0
 15 38  1  0  0  0  0
 16 17  1  0  0  0  0
 17 18  2  0  0  0  0
 17 39  1  0  0  0  0
 18 19  1  0  0  0  0
 20 21  1  0  0  0  0
 20 25  1  0  0  0  0
 20 40  1  0  0  0  0
 21 22  1  0  0  0  0
 22 23  1  0  0  0  0
 22 24  2  0  0  0  0
 23 41  1  0  0  0  0
 23 42  1  0  0  0  0
 23 43  1  0  0  0  0
 25 26  1  0  0  0  0
 25 44  1  0  0  0  0
 26 27  1  0  0  0  0
 27 28  1  0  0  0  0
 27 29  2  0  0  0  0
 28 45  1  0  0  0  0
 28 46  1  0  0  0  0
 28 47  1  0  0  0  0
M  END
> <s_m_source_file>
AV-unprocessed.smi

> <i_m_source_file_index>
104

> <i_lp_mmshare_version>
43012

> <i_f3d_flags>
0

> <s_epik_input>
W0NIM11DKD1PKU9bQ0gyXVtDQEBIXTFPW0NASF0oW0NAQEhdKE9DKD1PKVtDSDNdKVtDQEhdMU9DKD1PKVtDSDNdKW4oYyhCciluMiljKGMyMyluW2NIXW5jM1tOSDJd

> <s_epik_cmdline>
J2VwaWtfcHl0aG9uJywgJy1waCcsICc3LjAnLCAnLXRuJywgJzgnLCAnLW1hJywgJzIwMCcsICctbWV0YWxfYmluZGluZycsICctaW1hZScsICc8aW5maWxlLm1hZT4nLCAnLW9tYWUnLCAnPG91dGZpbGUubWFlPic=

> <r_lp_tautomer_probability>
1

> <r_epik_Ionization_Penalty>
7.36622e-05

> <r_epik_Ionization_Penalty_Charging>
0

> <r_epik_Ionization_Penalty_Neutral>
7.36622e-05

> <r_epik_State_Penalty>
-0

> <r_epik_Charging_Adjusted_Penalty>
0

> <i_epik_Tot_Q>
0

> <i_epik_Tot_abs_Q>
0

> <r_epik_Metal_State_Penalty>
-0

> <b_epik_Metal_Only>
0

> <s_epik_Chemistry_Notes>
This compound has an ester and may undergo hydrolysis at high or low pH. This compound contains an acetal/aminal-like group ( X-CH(R)-Y where X, Y are N, S, or O) that may be acid/base labile, releasing an aldehyde.

> <s_lp_Force_Field>
OPLS_2005

> <r_lp_Energy>
16.6292

> <b_lp_Chiralities_Consistent>
1

> <s_lp_Variant>
AV-unprocessed.smi:104-7

> <Gold.Version>
5.8.1

> <Gold.Id.Protein>
6NUR|6NUR_protein|mol2

> <Gold.PLP.Fitness>
41.5740

> <Gold.PLP.PLP>
-32.9088

> <Gold.PLP.part.hbond>
-4.0000

> <Gold.PLP.part.metal>
0.0000

> <Gold.PLP.part.buried>
-3.0833

> <Gold.PLP.part.nonpolar>
-25.7748

> <Gold.PLP.part.repulsive>
0.0796

> <Gold.PLP.ligand.clash>
0.0000

> <Gold.PLP.ligand.torsion>
0.7720

> <Gold.PLP.Chemscore.Hbond>
3.3792

> <Gold.PLP.Chemscore.CHOScore>
0.0000

> <Gold.PLP.Chemscore.Metal>
0.0000

> <Gold.Chemscore.Hbonds>
donor molecule, donor type, donor heavy atom, donor atom, acceptor molecule, acceptor atom, score
      P1  H  7989  7998       L1    29  0.30
      P1  H  7997  8009       L1    18  0.15
      P1  H  7997  8010       L1    29  0.80

> <Gold.PLP.Chemscore.Internal.Correction>
0.0715

> <Gold.Rescore>
     Score         DG    S(hbond)    S(metal)    S(lipo)     H(rot)  DE(clash)    DE(int)     intcor
      6.70      -8.80       2.49        0.00      51.45       4.31       0.08       2.01       ----

> <Gold.Chemscore.Fitness>
6.7032

> <Gold.Chemscore.DG>
-8.7971

> <Gold.Chemscore.ZeroCoef>
-5.4800

> <Gold.Chemscore.Hbond>
2.4922

> <Gold.Chemscore.Metal>
0.0000

> <Gold.Chemscore.Lipo>
51.4452

> <Gold.Chemscore.Internal_Hbond>
0.0000

> <Gold.Chemscore.DEClash>
0.0810

> <Gold.Chemscore.DEInternal>
2.0130

> <Gold.Chemscore.Rot>
4.3070

> <Gold.Chemscore.Internal.Correction>
   9.000000E+99

> <Gold.Chemscore.Hbonds>
donor molecule, donor type, donor heavy atom, donor atom, acceptor molecule, acceptor atom, score
      P1  H  7989  7998       L1    29  0.30
      P1  H  7997  8009       L1    18  0.13
      P1  H  7997  8010       L1    29  0.12

> <Gold.Chemscore.Hbond.Weighted>
-8.3239

> <Gold.Chemscore.Metal.Weighted>
-0.0000

> <Gold.Chemscore.Lipo.Weighted>
-6.0191

> <Gold.Chemscore.Internal_Hbond.Weighted>
0.0000

> <Gold.Chemscore.DEClash.Weighted>
0.0810

> <Gold.Chemscore.DEInternal.Weighted>
2.0130

> <Gold.Chemscore.Rot.Weighted>
11.0259

> <Gold.Chemscore.Internal.Correction.Weighted>
   9.000000E+99

> <Gold.Protein.RotatedTorsions>
[ 6907 6896 6895 6894 ] final  132.03 input  -60.11 | X-H torsion
[ 7974 7965 7964 7962 ] final   43.07 input  175.53 | X-H torsion
[ 8008 7997 7996 7995 ] final  103.99 input   59.86 | X-H torsion
[ 10167 10162 10161 10158 ] final   41.02 input  -65.29 | X-H torsion
[ 10718 10713 10712 10709 ] final -133.48 input   66.30 | X-H torsion
[ 10763 10752 10751 10750 ] final   15.48 input  -60.55 | X-H torsion
[ 11005 11000 10999 10996 ] final  151.86 input  -57.11 | X-H torsion

> <Gold.Protein.ActiveResidues>
 VAL166  LYS551  ARG553  GLY616  TRP617  ASP618  TYR619  PRO620  LYS621  CYS622 
 ASP623  PHE694  ASN695  SER759  ASP760  ASP761  ALA762  ILE779  LEU786  VAL792 
 PHE793  MET794  SER795  GLU796  ALA797  LYS798  CYS799  TRP800  GLU811  SER814 

> <Gold.Protein.RotatedAtoms>
  152.3365  133.6018  159.5846 H   0  0  0  0  0  0  0  0  0  0  0  0  # atno 6907 bound_to 6896
  150.7453  133.9787  159.3578 H   0  0  0  0  0  0  0  0  0  0  0  0  # atno 6908 bound_to 6896
  151.7656  135.0800  160.0403 H   0  0  0  0  0  0  0  0  0  0  0  0  # atno 6909 bound_to 6896
  146.0686  139.5228  142.9612 H   0  0  0  0  0  0  0  0  0  0  0  0  # atno 7974 bound_to 7965
  156.1533  140.3155  155.8684 H   0  0  0  0  0  0  0  0  0  0  0  0  # atno 8008 bound_to 7997
  155.3928  140.0494  157.3057 H   0  0  0  0  0  0  0  0  0  0  0  0  # atno 8009 bound_to 7997
  154.5078  140.2153  155.9227 H   0  0  0  0  0  0  0  0  0  0  0  0  # atno 8010 bound_to 7997
  140.3684  144.2137  150.6134 H   0  0  0  0  0  0  0  0  0  0  0  0  # atno 10167 bound_to 10162
  156.2454  130.7121  151.0999 H   0  0  0  0  0  0  0  0  0  0  0  0  # atno 10718 bound_to 10713
  153.1522  135.6780  153.8866 H   0  0  0  0  0  0  0  0  0  0  0  0  # atno 10763 bound_to 10752
  153.8289  135.3120  155.3418 H   0  0  0  0  0  0  0  0  0  0  0  0  # atno 10764 bound_to 10752
  154.7870  135.4856  154.0055 H   0  0  0  0  0  0  0  0  0  0  0  0  # atno 10765 bound_to 10752
  140.1256  134.8835  157.2133 H   0  0  0  0  0  0  0  0  0  0  0  0  # atno 11005 bound_to 11000
  145.6432  141.0280  143.1800 LP  0  0  0  0  0  0  0  0  0  0  0  0  # atno 17320 bound_to 7965
  144.7218  139.8006  143.7379 LP  0  0  0  0  0  0  0  0  0  0  0  0  # atno 17321 bound_to 7965
  140.5058  143.2304  151.8610 LP  0  0  0  0  0  0  0  0  0  0  0  0  # atno 17342 bound_to 10162
  139.4806  144.5007  151.9064 LP  0  0  0  0  0  0  0  0  0  0  0  0  # atno 17343 bound_to 10162
  157.7192  131.0691  150.6203 LP  0  0  0  0  0  0  0  0  0  0  0  0  # atno 17370 bound_to 10713
  156.6279  130.4424  149.5797 LP  0  0  0  0  0  0  0  0  0  0  0  0  # atno 17371 bound_to 10713
  140.2908  134.3242  155.7316 LP  0  0  0  0  0  0  0  0  0  0  0  0  # atno 17394 bound_to 11000
  141.2160  133.7533  156.9501 LP  0  0  0  0  0  0  0  0  0  0  0  0  # atno 17395 bound_to 11000

$$$$
