AV-unprocessed.smi:1611|AV-procd|sdf|6474|dock2
  -GOLD-   22720 7133D 1   1.00000     0.00000
 Structure written by MMmdl.
 48 49  0  0  0  0  0  0  0  0  1 V2000
  152.2043  143.1304  159.9381 C   0  0  0  0  0  0  0  0  0  0  0  0
  151.9478  142.1892  158.7738 C   0  0  0  0  0  0  0  0  0  0  0  0
  151.2700  142.6773  157.6383 C   0  0  0  0  0  0  0  0  0  0  0  0
  151.0220  141.8352  156.5403 C   0  0  0  0  0  0  0  0  0  0  0  0
  151.4426  140.4917  156.5694 C   0  0  0  0  0  0  0  0  0  0  0  0
  151.1740  139.5961  155.3740 C   0  0  0  0  0  0  0  0  0  0  0  0
  152.1077  139.9875  157.7108 C   0  0  0  0  0  0  0  0  0  0  0  0
  152.5057  138.6756  157.7308 O   0  0  0  0  0  0  0  0  0  0  0  0
  151.4250  137.7538  157.7305 C   0  0  0  0  0  0  0  0  0  0  0  0
  150.6623  137.8813  159.0591 C   0  0  2  0  0  0  0  0  0  0  0  0
  151.1283  136.8514  159.9089 O   0  0  0  0  0  0  0  0  0  0  0  0
  149.1416  137.6863  158.8708 C   0  0  0  0  0  0  0  0  0  0  0  0
  148.5955  136.6856  159.7961 N   0  0  0  0  0  0  0  0  0  0  0  0
  148.1665  137.2104  160.9990 N   0  0  0  0  0  0  0  0  0  0  0  0
  147.6554  136.4586  161.9179 C   0  0  0  0  0  0  0  0  0  0  0  0
  147.2241  137.1409  163.1882 C   0  0  0  0  0  0  0  0  0  0  0  0
  147.5244  135.0233  161.6877 C   0  0  0  0  0  0  0  0  0  0  0  0
  146.9147  134.1880  162.8055 C   0  0  0  0  0  0  0  0  0  0  0  0
  147.9525  134.5193  160.5033 C   0  0  0  0  0  0  0  0  0  0  0  0
  147.8702  133.1289  160.1913 C   0  0  0  0  0  0  0  0  0  0  0  0
  147.8121  131.9968  159.9566 N   0  0  0  0  0  0  0  0  0  0  0  0
  148.5309  135.3660  159.4574 C   0  0  0  0  0  0  0  0  0  0  0  0
  148.9217  134.9415  158.3689 O   0  0  0  0  0  0  0  0  0  0  0  0
  152.3791  140.8394  158.8111 C   0  0  0  0  0  0  0  0  0  0  0  0
  153.1270  140.3073  160.0262 C   0  0  0  0  0  0  0  0  0  0  0  0
  151.6834  144.0789  159.8043 H   0  0  0  0  0  0  0  0  0  0  0  0
  153.2702  143.3426  160.0260 H   0  0  0  0  0  0  0  0  0  0  0  0
  151.8586  142.6912  160.8741 H   0  0  0  0  0  0  0  0  0  0  0  0
  150.9400  143.7053  157.6014 H   0  0  0  0  0  0  0  0  0  0  0  0
  150.5072  142.2261  155.6750 H   0  0  0  0  0  0  0  0  0  0  0  0
  152.0453  138.9808  155.1479 H   0  0  0  0  0  0  0  0  0  0  0  0
  150.9409  140.1833  154.4855 H   0  0  0  0  0  0  0  0  0  0  0  0
  150.3303  138.9368  155.5780 H   0  0  0  0  0  0  0  0  0  0  0  0
  150.7664  138.0097  156.8993 H   0  0  0  0  0  0  0  0  0  0  0  0
  151.7607  136.7286  157.5633 H   0  0  0  0  0  0  0  0  0  0  0  0
  150.8709  138.8550  159.5041 H   0  0  0  0  0  0  0  0  0  0  0  0
  150.6392  136.8866  160.7167 H   0  0  0  0  0  0  0  0  0  0  0  0
  148.6216  138.6310  159.0394 H   0  0  0  0  0  0  0  0  0  0  0  0
  148.9148  137.4268  157.8345 H   0  0  0  0  0  0  0  0  0  0  0  0
  147.7288  136.7074  164.0516 H   0  0  0  0  0  0  0  0  0  0  0  0
  146.1491  137.0367  163.3368 H   0  0  0  0  0  0  0  0  0  0  0  0
  147.4532  138.2077  163.1750 H   0  0  0  0  0  0  0  0  0  0  0  0
  146.8053  133.1405  162.5256 H   0  0  0  0  0  0  0  0  0  0  0  0
  145.9232  134.5595  163.0665 H   0  0  0  0  0  0  0  0  0  0  0  0
  147.5424  134.2266  163.6964 H   0  0  0  0  0  0  0  0  0  0  0  0
  153.6224  139.3580  159.8241 H   0  0  0  0  0  0  0  0  0  0  0  0
  152.4349  140.1573  160.8550 H   0  0  0  0  0  0  0  0  0  0  0  0
  153.8997  141.0064  160.3452 H   0  0  0  0  0  0  0  0  0  0  0  0
  1  2  1  0  0  0  0
  1 26  1  0  0  0  0
  1 27  1  0  0  0  0
  1 28  1  0  0  0  0
  2 24  1  0  0  0  0
  2  3  2  0  0  0  0
  3  4  1  0  0  0  0
  3 29  1  0  0  0  0
  4  5  2  0  0  0  0
  4 30  1  0  0  0  0
  5  6  1  0  0  0  0
  5  7  1  0  0  0  0
  6 31  1  0  0  0  0
  6 32  1  0  0  0  0
  6 33  1  0  0  0  0
  7  8  1  0  0  0  0
  7 24  2  0  0  0  0
  8  9  1  0  0  0  0
  9 10  1  0  0  0  0
  9 34  1  0  0  0  0
  9 35  1  0  0  0  0
 10 11  1  0  0  0  0
 10 12  1  0  0  0  0
 10 36  1  0  0  0  0
 11 37  1  0  0  0  0
 12 13  1  0  0  0  0
 12 38  1  0  0  0  0
 12 39  1  0  0  0  0
 13 22  1  0  0  0  0
 13 14  1  0  0  0  0
 14 15  2  0  0  0  0
 15 16  1  0  0  0  0
 15 17  1  0  0  0  0
 16 40  1  0  0  0  0
 16 41  1  0  0  0  0
 16 42  1  0  0  0  0
 17 18  1  0  0  0  0
 17 19  2  0  0  0  0
 18 43  1  0  0  0  0
 18 44  1  0  0  0  0
 18 45  1  0  0  0  0
 19 20  1  0  0  0  0
 19 22  1  0  0  0  0
 20 21  3  0  0  0  0
 22 23  2  0  0  0  0
 24 25  1  0  0  0  0
 25 46  1  0  0  0  0
 25 47  1  0  0  0  0
 25 48  1  0  0  0  0
M  END
> <s_m_source_file>
AV-unprocessed.smi

> <i_m_source_file_index>
1611

> <i_lp_mmshare_version>
43012

> <i_f3d_flags>
0

> <s_epik_input>
W0NIM11jMVtjSF1bY0hdYyhbQ0gzXSljKGMxW0NIM10pT1tDSDJdW0NASF0oW09IXSlbQ0gyXW4ybmMoW0NIM10pYyhbQ0gzXSljKEMjTiljMj1P

> <s_epik_cmdline>
J2VwaWtfcHl0aG9uJywgJy1waCcsICc3LjAnLCAnLXRuJywgJzgnLCAnLW1hJywgJzIwMCcsICctbWV0YWxfYmluZGluZycsICctaW1hZScsICc8aW5maWxlLm1hZT4nLCAnLW9tYWUnLCAnPG91dGZpbGUubWFlPic=

> <r_lp_tautomer_probability>
1

> <r_epik_Ionization_Penalty>
1.17331e-07

> <r_epik_Ionization_Penalty_Charging>
1.57223e-10

> <r_epik_Ionization_Penalty_Neutral>
1.17174e-07

> <r_epik_State_Penalty>
-0

> <r_epik_Charging_Adjusted_Penalty>
1.57223e-10

> <i_epik_Tot_Q>
0

> <i_epik_Tot_abs_Q>
0

> <r_epik_Metal_State_Penalty>
-0

> <b_epik_Metal_Only>
0

> <s_lp_Force_Field>
OPLS_2005

> <r_lp_Energy>
36.6232

> <b_lp_Chiralities_Consistent>
1

> <s_lp_Variant>
AV-unprocessed.smi:1611-1

> <Gold.Version>
5.8.1

> <Gold.Id.Protein>
6NUR|6NUR_protein|mol2

> <Gold.PLP.Fitness>
52.1329

> <Gold.PLP.PLP>
-46.5441

> <Gold.PLP.part.hbond>
-4.0000

> <Gold.PLP.part.metal>
0.0000

> <Gold.PLP.part.buried>
-3.9254

> <Gold.PLP.part.nonpolar>
-39.2327

> <Gold.PLP.part.repulsive>
0.0000

> <Gold.PLP.ligand.clash>
0.0000

> <Gold.PLP.ligand.torsion>
1.6313

> <Gold.PLP.Chemscore.Hbond>
2.9154

> <Gold.PLP.Chemscore.CHOScore>
0.0000

> <Gold.PLP.Chemscore.Metal>
0.0000

> <Gold.Chemscore.Hbonds>
donor molecule, donor type, donor heavy atom, donor atom, acceptor molecule, acceptor atom, score
      P1  H  6896  6907       L1    11  0.90
      P1  H  6896  6909       L1    23  0.23
      P1  H  6931  6943       L1    14  0.96
      P1  H  6934  6947       L1    14  0.62

> <Gold.PLP.Chemscore.Internal.Correction>
0.1049

> <Gold.Rescore>
     Score         DG    S(hbond)    S(metal)    S(lipo)     H(rot)  DE(clash)    DE(int)     intcor
     16.56     -20.97       2.24        0.00     118.26       2.27       0.83       3.58       ----

> <Gold.Chemscore.Fitness>
16.5647

> <Gold.Chemscore.DG>
-20.9750

> <Gold.Chemscore.ZeroCoef>
-5.4800

> <Gold.Chemscore.Hbond>
2.2369

> <Gold.Chemscore.Metal>
0.0000

> <Gold.Chemscore.Lipo>
118.2604

> <Gold.Chemscore.Internal_Hbond>
0.0000

> <Gold.Chemscore.DEClash>
0.8346

> <Gold.Chemscore.DEInternal>
3.5757

> <Gold.Chemscore.Rot>
2.2706

> <Gold.Chemscore.Internal.Correction>
   9.000000E+99

> <Gold.Chemscore.Hbonds>
donor molecule, donor type, donor heavy atom, donor atom, acceptor molecule, acceptor atom, score
      P1  H  6896  6907       L1    11  0.17
      P1  H  6896  6909       L1    23  0.02
      P1  H  6931  6943       L1    14  0.27
      P1  H  6934  6947       L1    14  0.43

> <Gold.Chemscore.Hbond.Weighted>
-7.4712

> <Gold.Chemscore.Metal.Weighted>
-0.0000

> <Gold.Chemscore.Lipo.Weighted>
-13.8365

> <Gold.Chemscore.Internal_Hbond.Weighted>
0.0000

> <Gold.Chemscore.DEClash.Weighted>
0.8346

> <Gold.Chemscore.DEInternal.Weighted>
3.5757

> <Gold.Chemscore.Rot.Weighted>
5.8127

> <Gold.Chemscore.Internal.Correction.Weighted>
   9.000000E+99

> <Gold.Protein.RotatedTorsions>
[ 6907 6896 6895 6894 ] final    8.60 input  -60.11 | X-H torsion
[ 7974 7965 7964 7962 ] final  161.11 input  175.53 | X-H torsion
[ 8008 7997 7996 7995 ] final  162.88 input   59.86 | X-H torsion
[ 10167 10162 10161 10158 ] final  160.07 input  -65.29 | X-H torsion
[ 10718 10713 10712 10709 ] final   77.35 input   66.30 | X-H torsion
[ 10763 10752 10751 10750 ] final   98.51 input  -60.55 | X-H torsion
[ 11005 11000 10999 10996 ] final   65.94 input  -57.11 | X-H torsion

> <Gold.Protein.ActiveResidues>
 VAL166  LYS551  ARG553  GLY616  TRP617  ASP618  TYR619  PRO620  LYS621  CYS622 
 ASP623  PHE694  ASN695  SER759  ASP760  ASP761  ALA762  ILE779  LEU786  VAL792 
 PHE793  MET794  SER795  GLU796  ALA797  LYS798  CYS799  TRP800  GLU811  SER814 

> <Gold.Protein.RotatedAtoms>
  151.7087  135.0917  160.0263 H   0  0  0  0  0  0  0  0  0  0  0  0  # atno 6907 bound_to 6896
  152.3675  133.6372  159.6070 H   0  0  0  0  0  0  0  0  0  0  0  0  # atno 6908 bound_to 6896
  150.7649  133.9240  159.3448 H   0  0  0  0  0  0  0  0  0  0  0  0  # atno 6909 bound_to 6896
  144.7702  139.7852  143.6300 H   0  0  0  0  0  0  0  0  0  0  0  0  # atno 7974 bound_to 7965
  156.1999  140.1738  156.7922 H   0  0  0  0  0  0  0  0  0  0  0  0  # atno 8008 bound_to 7997
  154.5578  140.0705  156.8801 H   0  0  0  0  0  0  0  0  0  0  0  0  # atno 8009 bound_to 7997
  155.2906  140.3355  155.4255 H   0  0  0  0  0  0  0  0  0  0  0  0  # atno 8010 bound_to 7997
  139.4837  144.4669  151.8629 H   0  0  0  0  0  0  0  0  0  0  0  0  # atno 10167 bound_to 10162
  157.6707  130.9817  150.1629 H   0  0  0  0  0  0  0  0  0  0  0  0  # atno 10718 bound_to 10713
  153.2899  135.4146  155.1157 H   0  0  0  0  0  0  0  0  0  0  0  0  # atno 10763 bound_to 10752
  154.8517  135.3516  154.5995 H   0  0  0  0  0  0  0  0  0  0  0  0  # atno 10764 bound_to 10752
  153.6417  135.7056  153.5297 H   0  0  0  0  0  0  0  0  0  0  0  0  # atno 10765 bound_to 10752
  139.9863  134.6663  156.0171 H   0  0  0  0  0  0  0  0  0  0  0  0  # atno 11005 bound_to 11000
  146.1843  139.5050  142.9846 LP  0  0  0  0  0  0  0  0  0  0  0  0  # atno 17320 bound_to 7965
  145.6347  141.0297  143.1844 LP  0  0  0  0  0  0  0  0  0  0  0  0  # atno 17321 bound_to 7965
  140.4135  144.2337  150.5888 LP  0  0  0  0  0  0  0  0  0  0  0  0  # atno 17342 bound_to 10162
  140.4943  143.2337  151.8773 LP  0  0  0  0  0  0  0  0  0  0  0  0  # atno 17343 bound_to 10162
  156.2401  130.3690  149.8347 LP  0  0  0  0  0  0  0  0  0  0  0  0  # atno 17370 bound_to 10713
  156.6149  130.8602  151.3462 LP  0  0  0  0  0  0  0  0  0  0  0  0  # atno 17371 bound_to 10713
  141.1527  133.6546  156.4064 LP  0  0  0  0  0  0  0  0  0  0  0  0  # atno 17394 bound_to 11000
  140.4997  134.6498  157.5243 LP  0  0  0  0  0  0  0  0  0  0  0  0  # atno 17395 bound_to 11000

$$$$
