AV-unprocessed.smi:2171|AV-procd|sdf|8828|dock9
  -GOLD-   2272012 23D 1   1.00000     0.00000
 Structure written by MMmdl.
 39 41  0  0  0  0  0  0  0  0  2 V2000
  148.9517  140.7514  157.4507 O   0  0  0  0  0  0  0  0  0  0  0  0
  149.1994  141.9426  157.2667 C   0  0  0  0  0  0  0  0  0  0  0  0
  149.1509  142.9238  158.4407 C   0  0  0  0  0  0  0  0  0  0  0  0
  150.4724  143.4226  158.7814 N   0  0  0  0  0  0  0  0  0  0  0  0
  150.8973  144.7318  158.8747 C   0  0  0  0  0  0  0  0  0  0  0  0
  152.2187  144.7073  159.2179 C   0  0  0  0  0  0  0  0  0  0  0  0
  152.5171  143.3194  159.3160 C   0  0  0  0  0  0  0  0  0  0  0  0
  151.4704  142.5532  159.0541 N   0  0  0  0  0  0  0  0  0  0  0  0
  149.5067  142.4543  156.0640 N   0  0  0  0  0  0  0  0  0  0  0  0
  149.6232  141.6875  154.8277 C   0  0  2  0  0  0  0  0  0  0  0  0
  148.2571  141.3162  154.2240 C   0  0  0  0  0  0  0  0  0  0  0  0
  148.4349  139.8954  153.6534 C   0  0  0  0  0  0  0  0  0  0  0  0
  149.8597  139.5690  153.8533 N   0  3  2  0  0  0  0  0  0  0  0  0
  150.2201  138.1361  153.9206 C   0  0  0  0  0  0  0  0  0  0  0  0
  151.7513  138.0023  154.0440 C   0  0  0  0  0  0  0  0  0  0  0  0
  152.3049  138.8336  155.2193 C   0  0  0  0  0  0  0  0  0  0  0  0
  151.8192  140.2941  155.1463 C   0  0  0  0  0  0  0  0  0  0  0  0
  150.2846  140.3234  155.0425 C   0  0  1  0  0  0  0  0  0  0  0  0
  148.5076  143.7669  158.1860 H   0  0  0  0  0  0  0  0  0  0  0  0
  148.7158  142.4415  159.3177 H   0  0  0  0  0  0  0  0  0  0  0  0
  150.2319  145.5623  158.6901 H   0  0  0  0  0  0  0  0  0  0  0  0
  152.8727  145.5519  159.3765 H   0  0  0  0  0  0  0  0  0  0  0  0
  153.4562  142.8492  159.5676 H   0  0  0  0  0  0  0  0  0  0  0  0
  149.6933  143.4451  156.0076 H   0  0  0  0  0  0  0  0  0  0  0  0
  150.1853  142.2501  154.0791 H   0  0  0  0  0  0  0  0  0  0  0  0
  147.4728  141.3117  154.9827 H   0  0  0  0  0  0  0  0  0  0  0  0
  147.9615  142.0294  153.4537 H   0  0  0  0  0  0  0  0  0  0  0  0
  147.8076  139.1915  154.2027 H   0  0  0  0  0  0  0  0  0  0  0  0
  148.1687  139.8342  152.5979 H   0  0  0  0  0  0  0  0  0  0  0  0
  149.7253  137.6678  154.7728 H   0  0  0  0  0  0  0  0  0  0  0  0
  149.8688  137.6269  153.0226 H   0  0  0  0  0  0  0  0  0  0  0  0
  152.0268  136.9543  154.1649 H   0  0  0  0  0  0  0  0  0  0  0  0
  152.2181  138.3376  153.1169 H   0  0  0  0  0  0  0  0  0  0  0  0
  151.9794  138.3901  156.1612 H   0  0  0  0  0  0  0  0  0  0  0  0
  153.3947  138.8000  155.2226 H   0  0  0  0  0  0  0  0  0  0  0  0
  152.1519  140.8390  156.0300 H   0  0  0  0  0  0  0  0  0  0  0  0
  152.2646  140.7925  154.2842 H   0  0  0  0  0  0  0  0  0  0  0  0
  149.8516  139.8506  155.9274 H   0  0  0  0  0  0  0  0  0  0  0  0
  150.3578  139.9683  153.0704 H   0  0  0  0  0  0  0  0  0  0  0  0
  1  2  2  0  0  0  0
  2  3  1  0  0  0  0
  2  9  1  0  0  0  0
  3  4  1  0  0  0  0
  3 19  1  0  0  0  0
  3 20  1  0  0  0  0
  4  8  1  0  0  0  0
  4  5  1  0  0  0  0
  5  6  2  0  0  0  0
  5 21  1  0  0  0  0
  6  7  1  0  0  0  0
  6 22  1  0  0  0  0
  7  8  2  0  0  0  0
  7 23  1  0  0  0  0
  9 10  1  0  0  0  0
  9 24  1  0  0  0  0
 10 18  1  0  0  0  0
 10 11  1  0  0  0  0
 10 25  1  0  0  0  0
 11 12  1  0  0  0  0
 11 26  1  0  0  0  0
 11 27  1  0  0  0  0
 12 13  1  0  0  0  0
 12 28  1  0  0  0  0
 12 29  1  0  0  0  0
 13 18  1  0  0  0  0
 13 14  1  0  0  0  0
 13 39  1  0  0  0  0
 14 15  1  0  0  0  0
 14 30  1  0  0  0  0
 14 31  1  0  0  0  0
 15 16  1  0  0  0  0
 15 32  1  0  0  0  0
 15 33  1  0  0  0  0
 16 17  1  0  0  0  0
 16 34  1  0  0  0  0
 16 35  1  0  0  0  0
 17 18  1  0  0  0  0
 17 36  1  0  0  0  0
 17 37  1  0  0  0  0
 18 38  1  0  0  0  0
M  CHG  1  13   1
M  END
> <s_m_source_file>
AV-unprocessed.smi

> <i_m_source_file_index>
2171

> <i_lp_mmshare_version>
43012

> <i_f3d_flags>
0

> <s_epik_input>
bjFbY0hdW2NIXVtjSF1uMVtDSDJdQyg9TylbTkhdW0NASF0oW0NIMl1bQ0gyXTIpW0NAQEhdKE4yMylbQ0gyXVtDSDJdW0NIMl1bQ0gyXTM=

> <s_epik_cmdline>
J2VwaWtfcHl0aG9uJywgJy1waCcsICc3LjAnLCAnLXRuJywgJzgnLCAnLW1hJywgJzIwMCcsICctbWV0YWxfYmluZGluZycsICctaW1hZScsICc8aW5maWxlLm1hZT4nLCAnLW9tYWUnLCAnPG91dGZpbGUubWFlPic=

> <r_lp_tautomer_probability>
1

> <r_epik_Ionization_Penalty>
0.00204179

> <r_epik_Ionization_Penalty_Charging>
0.00203239

> <r_epik_Ionization_Penalty_Neutral>
9.40205e-06

> <r_epik_State_Penalty>
0.00138983

> <r_epik_Charging_Adjusted_Penalty>
0.00342221

> <i_epik_Tot_Q>
1

> <i_epik_Tot_abs_Q>
1

> <r_epik_Metal_State_Penalty>
-0

> <b_epik_Metal_Only>
0

> <s_lp_Force_Field>
OPLS_2005

> <r_lp_Energy>
34.6158

> <b_lp_Chiralities_Consistent>
1

> <s_lp_Variant>
AV-unprocessed.smi:2171-3

> <Gold.Version>
5.8.1

> <Gold.Id.Protein>
6NUR|6NUR_protein|mol2

> <Gold.PLP.Fitness>
42.7310

> <Gold.PLP.PLP>
-35.3087

> <Gold.PLP.part.hbond>
-1.9407

> <Gold.PLP.part.metal>
0.0000

> <Gold.PLP.part.buried>
1.8119

> <Gold.PLP.part.nonpolar>
-35.6637

> <Gold.PLP.part.repulsive>
0.2514

> <Gold.PLP.ligand.clash>
0.0000

> <Gold.PLP.ligand.torsion>
0.3684

> <Gold.PLP.Chemscore.Hbond>
1.7166

> <Gold.PLP.Chemscore.CHOScore>
1.0000

> <Gold.PLP.Chemscore.Metal>
0.0000

> <Gold.Chemscore.Hbonds>
donor molecule, donor type, donor heavy atom, donor atom, acceptor molecule, acceptor atom, score
      L1  H     9    24       P1  8028  0.74
      L1  H    13    39       P1  7957  0.48
      L1  C     5    21       P1  8029  0.48

> <Gold.PLP.Chemscore.Internal.Correction>
0.0095

> <Gold.Rescore>
     Score         DG    S(hbond)    S(metal)    S(lipo)     H(rot)  DE(clash)    DE(int)     intcor
     15.32     -19.29       1.73        0.00     100.05       1.44       1.90       2.06       ----

> <Gold.Chemscore.Fitness>
15.3237

> <Gold.Chemscore.DG>
-19.2896

> <Gold.Chemscore.ZeroCoef>
-5.4800

> <Gold.Chemscore.Hbond>
1.7342

> <Gold.Chemscore.Metal>
0.0000

> <Gold.Chemscore.Lipo>
100.0531

> <Gold.Chemscore.Internal_Hbond>
0.0000

> <Gold.Chemscore.DEClash>
1.9038

> <Gold.Chemscore.DEInternal>
2.0621

> <Gold.Chemscore.Rot>
1.4410

> <Gold.Chemscore.Internal.Correction>
   9.000000E+99

> <Gold.Chemscore.Hbonds>
donor molecule, donor type, donor heavy atom, donor atom, acceptor molecule, acceptor atom, score
      L1  H     9    24       P1  8028  0.70
      L1  H    13    39       P1  7957  0.45

> <Gold.Chemscore.Hbond.Weighted>
-5.7923

> <Gold.Chemscore.Metal.Weighted>
-0.0000

> <Gold.Chemscore.Lipo.Weighted>
-11.7062

> <Gold.Chemscore.Internal_Hbond.Weighted>
0.0000

> <Gold.Chemscore.DEClash.Weighted>
1.9038

> <Gold.Chemscore.DEInternal.Weighted>
2.0621

> <Gold.Chemscore.Rot.Weighted>
3.6889

> <Gold.Chemscore.Internal.Correction.Weighted>
   9.000000E+99

> <Gold.Protein.RotatedTorsions>
[ 6907 6896 6895 6894 ] final   83.53 input  -60.11 | X-H torsion
[ 7974 7965 7964 7962 ] final    1.00 input  175.53 | X-H torsion
[ 8008 7997 7996 7995 ] final  -65.63 input   59.86 | X-H torsion
[ 10167 10162 10161 10158 ] final  107.51 input  -65.29 | X-H torsion
[ 10718 10713 10712 10709 ] final  -71.36 input   66.30 | X-H torsion
[ 10763 10752 10751 10750 ] final   98.94 input  -60.55 | X-H torsion
[ 11005 11000 10999 10996 ] final -123.88 input  -57.11 | X-H torsion

> <Gold.Protein.ActiveResidues>
 VAL166  LYS551  ARG553  GLY616  TRP617  ASP618  TYR619  PRO620  LYS621  CYS622 
 ASP623  PHE694  ASN695  SER759  ASP760  ASP761  ALA762  ILE779  LEU786  VAL792 
 PHE793  MET794  SER795  GLU796  ALA797  LYS798  CYS799  TRP800  GLU811  SER814 

> <Gold.Protein.RotatedAtoms>
  152.5329  134.2882  159.9032 H   0  0  0  0  0  0  0  0  0  0  0  0  # atno 6907 bound_to 6896
  151.2835  133.4192  159.2636 H   0  0  0  0  0  0  0  0  0  0  0  0  # atno 6908 bound_to 6896
  151.0263  134.9522  159.8144 H   0  0  0  0  0  0  0  0  0  0  0  0  # atno 6909 bound_to 6896
  146.2438  140.1053  142.8346 H   0  0  0  0  0  0  0  0  0  0  0  0  # atno 7974 bound_to 7965
  154.4683  140.0929  156.7079 H   0  0  0  0  0  0  0  0  0  0  0  0  # atno 8008 bound_to 7997
  155.4794  140.3467  155.4319 H   0  0  0  0  0  0  0  0  0  0  0  0  # atno 8009 bound_to 7997
  156.0996  140.1418  156.9474 H   0  0  0  0  0  0  0  0  0  0  0  0  # atno 8010 bound_to 7997
  139.6921  144.7106  151.1330 H   0  0  0  0  0  0  0  0  0  0  0  0  # atno 10167 bound_to 10162
  156.0366  130.4350  150.2432 H   0  0  0  0  0  0  0  0  0  0  0  0  # atno 10718 bound_to 10713
  153.2952  135.4131  155.1203 H   0  0  0  0  0  0  0  0  0  0  0  0  # atno 10763 bound_to 10752
  154.8533  135.3528  154.5927 H   0  0  0  0  0  0  0  0  0  0  0  0  # atno 10764 bound_to 10752
  153.6350  135.7059  153.5320 H   0  0  0  0  0  0  0  0  0  0  0  0  # atno 10765 bound_to 10752
  140.9884  134.0574  157.3683 H   0  0  0  0  0  0  0  0  0  0  0  0  # atno 11005 bound_to 11000
  145.0533  140.9034  143.4982 LP  0  0  0  0  0  0  0  0  0  0  0  0  # atno 17320 bound_to 7965
  145.1155  139.2728  143.5615 LP  0  0  0  0  0  0  0  0  0  0  0  0  # atno 17321 bound_to 7965
  140.7686  143.5544  150.9169 LP  0  0  0  0  0  0  0  0  0  0  0  0  # atno 17342 bound_to 10162
  139.9222  143.6593  152.3094 LP  0  0  0  0  0  0  0  0  0  0  0  0  # atno 17343 bound_to 10162
  157.0530  131.0068  151.3247 LP  0  0  0  0  0  0  0  0  0  0  0  0  # atno 17370 bound_to 10713
  157.5126  130.7948  149.7722 LP  0  0  0  0  0  0  0  0  0  0  0  0  # atno 17371 bound_to 10713
  139.8981  135.0153  156.7132 LP  0  0  0  0  0  0  0  0  0  0  0  0  # atno 17394 bound_to 11000
  140.7078  133.9250  155.8065 LP  0  0  0  0  0  0  0  0  0  0  0  0  # atno 17395 bound_to 11000

$$$$
