AV-unprocessed.smi:1644|AV-procd|sdf|6593|dock4
  -GOLD-   22720 7293D 1   1.00000     0.00000
 Structure written by MMmdl.
 48 50  0  0  0  0  0  0  0  0  2 V2000
  157.2417  137.7992  153.9787 C   0  0  0  0  0  0  0  0  0  0  0  0
  157.1555  136.4298  154.6616 C   0  0  0  0  0  0  0  0  0  0  0  0
  157.3412  136.5178  156.1853 C   0  0  0  0  0  0  0  0  0  0  0  0
  156.0775  137.0042  156.9265 C   0  0  1  0  0  0  0  0  0  0  0  0
  155.0753  135.9612  157.0091 N   0  5  0  0  0  0  0  0  0  0  0  0
  154.8045  135.7210  158.3129 C   0  0  0  0  0  0  0  0  0  0  0  0
  154.0056  134.8976  158.7575 O   0  0  0  0  0  0  0  0  0  0  0  0
  155.5465  136.5085  159.1138 N   0  0  0  0  0  0  0  0  0  0  0  0
  155.5326  136.4723  160.5804 C   0  0  0  0  0  0  0  0  0  0  0  0
  155.6454  137.8883  161.1822 C   0  0  2  0  0  0  0  0  0  0  0  0
  156.3567  137.8053  162.4022 O   0  0  0  0  0  0  0  0  0  0  0  0
  154.2622  138.5042  161.4668 C   0  0  0  0  0  0  0  0  0  0  0  0
  153.7633  139.2800  160.3452 N   0  0  0  0  0  0  0  0  0  0  0  0
  153.6011  138.8539  159.0782 C   0  0  0  0  0  0  0  0  0  0  0  0
  153.1330  139.7312  158.1953 N   0  0  0  0  0  0  0  0  0  0  0  0
  152.9764  140.8598  158.9816 C   0  0  0  0  0  0  0  0  0  0  0  0
  152.5156  142.1519  158.6473 C   0  0  0  0  0  0  0  0  0  0  0  0
  152.4368  143.1691  159.6250 C   0  0  0  0  0  0  0  0  0  0  0  0
  151.9376  144.5448  159.2201 C   0  0  0  0  0  0  0  0  0  0  0  0
  152.8204  142.8992  160.9633 C   0  0  0  0  0  0  0  0  0  0  0  0
  152.7415  143.9750  162.0319 C   0  0  0  0  0  0  0  0  0  0  0  0
  153.2848  141.6141  161.3140 C   0  0  0  0  0  0  0  0  0  0  0  0
  153.3595  140.6106  160.3320 C   0  0  0  0  0  0  0  0  0  0  0  0
  156.3484  137.2951  158.3887 C   0  0  0  0  0  0  0  0  0  0  0  0
  157.1751  138.1104  158.7994 O   0  0  0  0  0  0  0  0  0  0  0  0
  157.1130  137.7043  152.9003 H   0  0  0  0  0  0  0  0  0  0  0  0
  158.2100  138.2674  154.1582 H   0  0  0  0  0  0  0  0  0  0  0  0
  156.4686  138.4730  154.3485 H   0  0  0  0  0  0  0  0  0  0  0  0
  156.1898  135.9761  154.4369 H   0  0  0  0  0  0  0  0  0  0  0  0
  157.9120  135.7706  154.2345 H   0  0  0  0  0  0  0  0  0  0  0  0
  157.6556  135.5474  156.5741 H   0  0  0  0  0  0  0  0  0  0  0  0
  158.1643  137.2039  156.3905 H   0  0  0  0  0  0  0  0  0  0  0  0
  155.6966  137.9141  156.4610 H   0  0  0  0  0  0  0  0  0  0  0  0
  154.5934  136.0150  160.8961 H   0  0  0  0  0  0  0  0  0  0  0  0
  156.3116  135.8150  160.9707 H   0  0  0  0  0  0  0  0  0  0  0  0
  156.1892  138.5452  160.5014 H   0  0  0  0  0  0  0  0  0  0  0  0
  155.7505  137.9597  163.1116 H   0  0  0  0  0  0  0  0  0  0  0  0
  153.5378  137.7169  161.6789 H   0  0  0  0  0  0  0  0  0  0  0  0
  154.2968  139.1416  162.3513 H   0  0  0  0  0  0  0  0  0  0  0  0
  153.8429  137.8418  158.7879 H   0  0  0  0  0  0  0  0  0  0  0  0
  152.2225  142.3559  157.6279 H   0  0  0  0  0  0  0  0  0  0  0  0
  150.9989  144.7727  159.7251 H   0  0  0  0  0  0  0  0  0  0  0  0
  151.7646  144.6041  158.1454 H   0  0  0  0  0  0  0  0  0  0  0  0
  152.6676  145.3110  159.4812 H   0  0  0  0  0  0  0  0  0  0  0  0
  153.0134  143.5824  163.0121 H   0  0  0  0  0  0  0  0  0  0  0  0
  151.7290  144.3732  162.1012 H   0  0  0  0  0  0  0  0  0  0  0  0
  153.4215  144.7943  161.7980 H   0  0  0  0  0  0  0  0  0  0  0  0
  153.5875  141.3956  162.3275 H   0  0  0  0  0  0  0  0  0  0  0  0
  1  2  1  0  0  0  0
  1 26  1  0  0  0  0
  1 27  1  0  0  0  0
  1 28  1  0  0  0  0
  2  3  1  0  0  0  0
  2 29  1  0  0  0  0
  2 30  1  0  0  0  0
  3  4  1  0  0  0  0
  3 31  1  0  0  0  0
  3 32  1  0  0  0  0
  4 24  1  0  0  0  0
  4  5  1  0  0  0  0
  4 33  1  0  0  0  0
  5  6  1  0  0  0  0
  6  7  2  0  0  0  0
  6  8  1  0  0  0  0
  8  9  1  0  0  0  0
  8 24  1  0  0  0  0
  9 10  1  0  0  0  0
  9 34  1  0  0  0  0
  9 35  1  0  0  0  0
 10 11  1  0  0  0  0
 10 12  1  0  0  0  0
 10 36  1  0  0  0  0
 11 37  1  0  0  0  0
 12 13  1  0  0  0  0
 12 38  1  0  0  0  0
 12 39  1  0  0  0  0
 13 23  1  0  0  0  0
 13 14  1  0  0  0  0
 14 15  2  0  0  0  0
 14 40  1  0  0  0  0
 15 16  1  0  0  0  0
 16 23  2  0  0  0  0
 16 17  1  0  0  0  0
 17 18  2  0  0  0  0
 17 41  1  0  0  0  0
 18 19  1  0  0  0  0
 18 20  1  0  0  0  0
 19 42  1  0  0  0  0
 19 43  1  0  0  0  0
 19 44  1  0  0  0  0
 20 21  1  0  0  0  0
 20 22  2  0  0  0  0
 21 45  1  0  0  0  0
 21 46  1  0  0  0  0
 21 47  1  0  0  0  0
 22 23  1  0  0  0  0
 22 48  1  0  0  0  0
 24 25  2  0  0  0  0
M  CHG  1   5  -1
M  END
> <s_m_source_file>
AV-unprocessed.smi

> <i_m_source_file_index>
1644

> <i_lp_mmshare_version>
43012

> <i_f3d_flags>
0

> <s_epik_input>
W0NIM11bQ0gyXVtDSDJdW0NAQEhdMVtOSF1DKD1PKU4oQzE9TylbQ0gyXVtDQEhdKFtPSF0pW0NIMl1uKFtjSF1uMiljKGMyMylbY0hdYyhbQ0gzXSljKFtjSF0zKVtDSDNd

> <s_epik_cmdline>
J2VwaWtfcHl0aG9uJywgJy1waCcsICc3LjAnLCAnLXRuJywgJzgnLCAnLW1hJywgJzIwMCcsICctbWV0YWxfYmluZGluZycsICctaW1hZScsICc8aW5maWxlLm1hZT4nLCAnLW9tYWUnLCAnPG91dGZpbGUubWFlPic=

> <r_lp_tautomer_probability>
1

> <r_epik_Ionization_Penalty>
5.95212

> <r_epik_Ionization_Penalty_Charging>
5.84419

> <r_epik_Ionization_Penalty_Neutral>
0.107924

> <r_epik_State_Penalty>
5.94088

> <r_epik_Charging_Adjusted_Penalty>
11.7851

> <i_epik_Tot_Q>
-1

> <i_epik_Tot_abs_Q>
1

> <r_epik_Metal_State_Penalty>
1.99095

> <b_epik_Metal_Only>
1

> <s_lp_Force_Field>
OPLS_2005

> <r_lp_Energy>
18.6255

> <b_lp_Chiralities_Consistent>
1

> <s_lp_Variant>
AV-unprocessed.smi:1644-10

> <Gold.Version>
5.8.1

> <Gold.Id.Protein>
6NUR|6NUR_protein|mol2

> <Gold.PLP.Fitness>
50.4931

> <Gold.PLP.PLP>
-41.6149

> <Gold.PLP.part.hbond>
-3.0000

> <Gold.PLP.part.metal>
0.0000

> <Gold.PLP.part.buried>
-5.7825

> <Gold.PLP.part.nonpolar>
-32.3032

> <Gold.PLP.part.repulsive>
0.0916

> <Gold.PLP.ligand.clash>
0.0000

> <Gold.PLP.ligand.torsion>
1.2999

> <Gold.PLP.Chemscore.Hbond>
3.7737

> <Gold.PLP.Chemscore.CHOScore>
0.0000

> <Gold.PLP.Chemscore.Metal>
0.0000

> <Gold.Chemscore.Hbonds>
donor molecule, donor type, donor heavy atom, donor atom, acceptor molecule, acceptor atom, score
      P1  H  6896  6908       L1     7  0.90
      P1  H  7997  8010       L1    15  1.00
      P1  H 10752 10764       L1     5  2.00

> <Gold.PLP.Chemscore.Internal.Correction>
0.1570

> <Gold.Rescore>
     Score         DG    S(hbond)    S(metal)    S(lipo)     H(rot)  DE(clash)    DE(int)     intcor
     18.06     -21.75       2.57        0.00     123.55       2.65       0.02       3.66       ----

> <Gold.Chemscore.Fitness>
18.0650

> <Gold.Chemscore.DG>
-21.7495

> <Gold.Chemscore.ZeroCoef>
-5.4800

> <Gold.Chemscore.Hbond>
2.5733

> <Gold.Chemscore.Metal>
0.0000

> <Gold.Chemscore.Lipo>
123.5466

> <Gold.Chemscore.Internal_Hbond>
0.0000

> <Gold.Chemscore.DEClash>
0.0237

> <Gold.Chemscore.DEInternal>
3.6608

> <Gold.Chemscore.Rot>
2.6486

> <Gold.Chemscore.Internal.Correction>
   9.000000E+99

> <Gold.Chemscore.Hbonds>
donor molecule, donor type, donor heavy atom, donor atom, acceptor molecule, acceptor atom, score
      P1  H  6896  6908       L1     7  0.88
      P1  H  7997  8010       L1    15  0.54
      P1  H 10752 10764       L1     5  0.95

> <Gold.Chemscore.Hbond.Weighted>
-8.5949

> <Gold.Chemscore.Metal.Weighted>
-0.0000

> <Gold.Chemscore.Lipo.Weighted>
-14.4550

> <Gold.Chemscore.Internal_Hbond.Weighted>
0.0000

> <Gold.Chemscore.DEClash.Weighted>
0.0237

> <Gold.Chemscore.DEInternal.Weighted>
3.6608

> <Gold.Chemscore.Rot.Weighted>
6.7804

> <Gold.Chemscore.Internal.Correction.Weighted>
   9.000000E+99

> <Gold.Protein.RotatedTorsions>
[ 6907 6896 6895 6894 ] final  -28.88 input  -60.11 | X-H torsion
[ 7974 7965 7964 7962 ] final  140.22 input  175.53 | X-H torsion
[ 8008 7997 7996 7995 ] final   49.52 input   59.86 | X-H torsion
[ 10167 10162 10161 10158 ] final  -18.75 input  -65.29 | X-H torsion
[ 10718 10713 10712 10709 ] final -162.03 input   66.30 | X-H torsion
[ 10763 10752 10751 10750 ] final   40.14 input  -60.55 | X-H torsion
[ 11005 11000 10999 10996 ] final  -87.52 input  -57.11 | X-H torsion

> <Gold.Protein.ActiveResidues>
 VAL166  LYS551  ARG553  GLY616  TRP617  ASP618  TYR619  PRO620  LYS621  CYS622 
 ASP623  PHE694  ASN695  SER759  ASP760  ASP761  ALA762  ILE779  LEU786  VAL792 
 PHE793  MET794  SER795  GLU796  ALA797  LYS798  CYS799  TRP800  GLU811  SER814 

> <Gold.Protein.RotatedAtoms>
  151.1269  135.0109  159.8564 H   0  0  0  0  0  0  0  0  0  0  0  0  # atno 6907 bound_to 6896
  152.5450  134.1656  159.8586 H   0  0  0  0  0  0  0  0  0  0  0  0  # atno 6908 bound_to 6896
  151.1719  133.4733  159.2627 H   0  0  0  0  0  0  0  0  0  0  0  0  # atno 6909 bound_to 6896
  144.9207  139.5172  143.5665 H   0  0  0  0  0  0  0  0  0  0  0  0  # atno 7974 bound_to 7965
  155.4036  140.3439  155.4258 H   0  0  0  0  0  0  0  0  0  0  0  0  # atno 8008 bound_to 7997
  156.1489  140.1565  156.8834 H   0  0  0  0  0  0  0  0  0  0  0  0  # atno 8009 bound_to 7997
  154.5035  140.0808  156.7828 H   0  0  0  0  0  0  0  0  0  0  0  0  # atno 8010 bound_to 7997
  140.7262  143.4885  151.0022 H   0  0  0  0  0  0  0  0  0  0  0  0  # atno 10167 bound_to 10162
  156.6046  130.8825  151.2922 H   0  0  0  0  0  0  0  0  0  0  0  0  # atno 10718 bound_to 10713
  152.9945  135.6200  154.2578 H   0  0  0  0  0  0  0  0  0  0  0  0  # atno 10763 bound_to 10752
  154.2315  135.2792  155.2890 H   0  0  0  0  0  0  0  0  0  0  0  0  # atno 10764 bound_to 10752
  154.5446  135.5751  153.6927 H   0  0  0  0  0  0  0  0  0  0  0  0  # atno 10765 bound_to 10752
  141.1615  133.7516  156.9319 H   0  0  0  0  0  0  0  0  0  0  0  0  # atno 11005 bound_to 11000
  146.3203  139.8084  142.8951 LP  0  0  0  0  0  0  0  0  0  0  0  0  # atno 17320 bound_to 7965
  145.3301  141.0264  143.3451 LP  0  0  0  0  0  0  0  0  0  0  0  0  # atno 17321 bound_to 7965
  139.8588  143.7341  152.3174 LP  0  0  0  0  0  0  0  0  0  0  0  0  # atno 17342 bound_to 10162
  139.7549  144.7523  151.0450 LP  0  0  0  0  0  0  0  0  0  0  0  0  # atno 17343 bound_to 10162
  157.7270  130.9638  150.1682 LP  0  0  0  0  0  0  0  0  0  0  0  0  # atno 17370 bound_to 10713
  156.2441  130.3694  149.8305 LP  0  0  0  0  0  0  0  0  0  0  0  0  # atno 17371 bound_to 10713
  140.1381  134.9312  157.2429 LP  0  0  0  0  0  0  0  0  0  0  0  0  # atno 17394 bound_to 11000
  140.2870  134.3284  155.7326 LP  0  0  0  0  0  0  0  0  0  0  0  0  # atno 17395 bound_to 11000

$$$$
