AV-unprocessed.smi:2934|AV-procd|sdf|11254|dock4
  -GOLD-   2272016143D 1   1.00000     0.00000
 Structure written by MMmdl.
 43 44  0  0  0  0  0  0  0  0  1 V2000
  154.5823  140.9785  160.1649 C   0  0  0  0  0  0  0  0  0  0  0  0
  153.2828  140.8014  159.5076 N   0  0  0  0  0  0  0  0  0  0  0  0
  152.7520  139.5494  159.4588 C   0  0  0  0  0  0  0  0  0  0  0  0
  153.1471  138.6250  160.1725 O   0  0  0  0  0  0  0  0  0  0  0  0
  151.7304  139.3929  158.5963 N   0  0  0  0  0  0  0  0  0  0  0  0
  150.9747  138.1627  158.3926 C   0  0  0  0  0  0  0  0  0  0  0  0
  149.4748  138.3672  158.6829 C   0  0  0  0  0  0  0  0  0  0  0  0
  148.7279  137.0549  158.9394 C   0  0  0  0  0  0  0  0  0  0  0  0
  149.1259  135.9982  158.4481 O   0  0  0  0  0  0  0  0  0  0  0  0
  147.6365  137.1399  159.7155 N   0  0  0  0  0  0  0  0  0  0  0  0
  146.7668  136.0218  160.0721 C   0  0  0  0  0  0  0  0  0  0  0  0
  145.8181  136.3934  161.2293 C   0  0  0  0  0  0  0  0  0  0  0  0
  146.3475  135.6551  162.4583 C   0  0  0  0  0  0  0  0  0  0  0  0
  146.9600  134.3798  161.8886 C   0  0  0  0  0  0  0  0  0  0  0  0
  147.5950  134.8200  160.5677 C   0  0  0  0  0  0  0  0  0  0  0  0
  152.6735  141.9591  158.9302 C   0  0  0  0  0  0  0  0  0  0  0  0
  153.2292  143.2183  159.2631 C   0  0  0  0  0  0  0  0  0  0  0  0
  152.6770  144.3879  158.7064 C   0  0  0  0  0  0  0  0  0  0  0  0
  151.5866  144.2703  157.8265 C   0  0  0  0  0  0  0  0  0  0  0  0
  151.0989  142.9815  157.5422 C   0  0  0  0  0  0  0  0  0  0  0  0
  151.6255  141.8582  158.0739 N   0  0  0  0  0  0  0  0  0  0  0  0
  154.9701  141.9906  160.0429 H   0  0  0  0  0  0  0  0  0  0  0  0
  155.3303  140.3027  159.7467 H   0  0  0  0  0  0  0  0  0  0  0  0
  154.5004  140.7800  161.2344 H   0  0  0  0  0  0  0  0  0  0  0  0
  151.4595  140.1904  158.0390 H   0  0  0  0  0  0  0  0  0  0  0  0
  151.1200  137.8563  157.3558 H   0  0  0  0  0  0  0  0  0  0  0  0
  151.3855  137.3647  159.0139 H   0  0  0  0  0  0  0  0  0  0  0  0
  149.3426  139.0165  159.5490 H   0  0  0  0  0  0  0  0  0  0  0  0
  149.0080  138.8745  157.8370 H   0  0  0  0  0  0  0  0  0  0  0  0
  147.3842  138.0470  160.0803 H   0  0  0  0  0  0  0  0  0  0  0  0
  146.1803  135.7238  159.2007 H   0  0  0  0  0  0  0  0  0  0  0  0
  145.7377  137.4677  161.4009 H   0  0  0  0  0  0  0  0  0  0  0  0
  144.8150  136.0321  160.9990 H   0  0  0  0  0  0  0  0  0  0  0  0
  147.1228  136.2518  162.9407 H   0  0  0  0  0  0  0  0  0  0  0  0
  145.5703  135.4560  163.1969 H   0  0  0  0  0  0  0  0  0  0  0  0
  147.6783  133.9186  162.5670 H   0  0  0  0  0  0  0  0  0  0  0  0
  146.1718  133.6514  161.6926 H   0  0  0  0  0  0  0  0  0  0  0  0
  147.6173  134.0085  159.8396 H   0  0  0  0  0  0  0  0  0  0  0  0
  148.6301  135.1132  160.7519 H   0  0  0  0  0  0  0  0  0  0  0  0
  154.0658  143.2920  159.9428 H   0  0  0  0  0  0  0  0  0  0  0  0
  153.0839  145.3580  158.9508 H   0  0  0  0  0  0  0  0  0  0  0  0
  151.1366  145.1446  157.3797 H   0  0  0  0  0  0  0  0  0  0  0  0
  150.2642  142.8479  156.8701 H   0  0  0  0  0  0  0  0  0  0  0  0
  1  2  1  0  0  0  0
  1 22  1  0  0  0  0
  1 23  1  0  0  0  0
  1 24  1  0  0  0  0
  2  3  1  0  0  0  0
  2 16  1  0  0  0  0
  3  4  2  0  0  0  0
  3  5  1  0  0  0  0
  5  6  1  0  0  0  0
  5 25  1  0  0  0  0
  6  7  1  0  0  0  0
  6 26  1  0  0  0  0
  6 27  1  0  0  0  0
  7  8  1  0  0  0  0
  7 28  1  0  0  0  0
  7 29  1  0  0  0  0
  8  9  2  0  0  0  0
  8 10  1  0  0  0  0
 10 11  1  0  0  0  0
 10 30  1  0  0  0  0
 11 15  1  0  0  0  0
 11 12  1  0  0  0  0
 11 31  1  0  0  0  0
 12 13  1  0  0  0  0
 12 32  1  0  0  0  0
 12 33  1  0  0  0  0
 13 14  1  0  0  0  0
 13 34  1  0  0  0  0
 13 35  1  0  0  0  0
 14 15  1  0  0  0  0
 14 36  1  0  0  0  0
 14 37  1  0  0  0  0
 15 38  1  0  0  0  0
 15 39  1  0  0  0  0
 16 21  1  0  0  0  0
 16 17  2  0  0  0  0
 17 18  1  0  0  0  0
 17 40  1  0  0  0  0
 18 19  2  0  0  0  0
 18 41  1  0  0  0  0
 19 20  1  0  0  0  0
 19 42  1  0  0  0  0
 20 21  2  0  0  0  0
 20 43  1  0  0  0  0
M  END
> <s_m_source_file>
AV-unprocessed.smi

> <i_m_source_file_index>
2934

> <i_lp_mmshare_version>
43012

> <i_f3d_flags>
0

> <s_epik_input>
bjFbY0hdW2NIXVtjSF1bY0hdYzFOKFtDSDNdKUMoPU8pW05IXVtDSDJdW0NIMl1DKD1PKVtOSF1bQ0hdMltDSDJdW0NIMl1bQ0gyXVtDSDJdMg==

> <s_epik_cmdline>
J2VwaWtfcHl0aG9uJywgJy1waCcsICc3LjAnLCAnLXRuJywgJzgnLCAnLW1hJywgJzIwMCcsICctbWV0YWxfYmluZGluZycsICctaW1hZScsICc8aW5maWxlLm1hZT4nLCAnLW9tYWUnLCAnPG91dGZpbGUubWFlPic=

> <r_epik_Ionization_Penalty>
0.404648

> <r_epik_Ionization_Penalty_Charging>
0

> <r_epik_Ionization_Penalty_Neutral>
0.404648

> <r_epik_State_Penalty>
0.40421

> <r_epik_Charging_Adjusted_Penalty>
0.40421

> <i_epik_Tot_Q>
0

> <i_epik_Tot_abs_Q>
0

> <r_epik_Metal_State_Penalty>
0.238116

> <b_epik_Metal_Only>
0

> <s_lp_Force_Field>
OPLS_2005

> <r_lp_Energy>
32.7735

> <b_lp_Chiralities_Consistent>
1

> <s_lp_Variant>
AV-unprocessed.smi:2934-1

> <Gold.Version>
5.8.1

> <Gold.Id.Protein>
6NUR|6NUR_protein|mol2

> <Gold.PLP.Fitness>
45.2103

> <Gold.PLP.PLP>
-42.0607

> <Gold.PLP.part.hbond>
-1.0000

> <Gold.PLP.part.metal>
0.0000

> <Gold.PLP.part.buried>
-5.8849

> <Gold.PLP.part.nonpolar>
-36.5091

> <Gold.PLP.part.repulsive>
0.3162

> <Gold.PLP.ligand.clash>
0.0000

> <Gold.PLP.ligand.torsion>
0.7576

> <Gold.PLP.Chemscore.Hbond>
1.0000

> <Gold.PLP.Chemscore.CHOScore>
0.4826

> <Gold.PLP.Chemscore.Metal>
0.0000

> <Gold.Chemscore.Hbonds>
donor molecule, donor type, donor heavy atom, donor atom, acceptor molecule, acceptor atom, score
      P1  H  6896  6909       L1     9  0.11
      L1  C    20    43       P1  8028  0.73

> <Gold.PLP.Chemscore.Internal.Correction>
0.2171

> <Gold.Rescore>
     Score         DG    S(hbond)    S(metal)    S(lipo)     H(rot)  DE(clash)    DE(int)     intcor
     14.07     -16.41       1.00        0.00     102.60       1.72       0.01       2.33       ----

> <Gold.Chemscore.Fitness>
14.0708

> <Gold.Chemscore.DG>
-16.4069

> <Gold.Chemscore.ZeroCoef>
-5.4800

> <Gold.Chemscore.Hbond>
0.9974

> <Gold.Chemscore.Metal>
0.0000

> <Gold.Chemscore.Lipo>
102.5984

> <Gold.Chemscore.Internal_Hbond>
0.0000

> <Gold.Chemscore.DEClash>
0.0109

> <Gold.Chemscore.DEInternal>
2.3252

> <Gold.Chemscore.Rot>
1.7220

> <Gold.Chemscore.Internal.Correction>
   9.000000E+99

> <Gold.Chemscore.Hbonds>
donor molecule, donor type, donor heavy atom, donor atom, acceptor molecule, acceptor atom, score
      P1  H  6896  6909       L1     9  0.13

> <Gold.Chemscore.Hbond.Weighted>
-3.3312

> <Gold.Chemscore.Metal.Weighted>
-0.0000

> <Gold.Chemscore.Lipo.Weighted>
-12.0040

> <Gold.Chemscore.Internal_Hbond.Weighted>
0.0000

> <Gold.Chemscore.DEClash.Weighted>
0.0109

> <Gold.Chemscore.DEInternal.Weighted>
2.3252

> <Gold.Chemscore.Rot.Weighted>
4.4083

> <Gold.Chemscore.Internal.Correction.Weighted>
   9.000000E+99

> <Gold.Protein.RotatedTorsions>
[ 6907 6896 6895 6894 ] final   67.62 input  -60.11 | X-H torsion
[ 7974 7965 7964 7962 ] final  142.71 input  175.53 | X-H torsion
[ 8008 7997 7996 7995 ] final   88.03 input   59.86 | X-H torsion
[ 10167 10162 10161 10158 ] final  -52.28 input  -65.29 | X-H torsion
[ 10718 10713 10712 10709 ] final -137.56 input   66.30 | X-H torsion
[ 10763 10752 10751 10750 ] final   79.56 input  -60.55 | X-H torsion
[ 11005 11000 10999 10996 ] final  -80.84 input  -57.11 | X-H torsion

> <Gold.Protein.ActiveResidues>
 VAL166  LYS551  ARG553  GLY616  TRP617  ASP618  TYR619  PRO620  LYS621  CYS622 
 ASP623  PHE694  ASN695  SER759  ASP760  ASP761  ALA762  ILE779  LEU786  VAL792 
 PHE793  MET794  SER795  GLU796  ALA797  LYS798  CYS799  TRP800  GLU811  SER814 

> <Gold.Protein.RotatedAtoms>
  152.4564  134.5282  159.9802 H   0  0  0  0  0  0  0  0  0  0  0  0  # atno 6907 bound_to 6896
  151.5341  133.3438  159.2931 H   0  0  0  0  0  0  0  0  0  0  0  0  # atno 6908 bound_to 6896
  150.8510  134.7865  159.7071 H   0  0  0  0  0  0  0  0  0  0  0  0  # atno 6909 bound_to 6896
  144.8984  139.5458  143.5765 H   0  0  0  0  0  0  0  0  0  0  0  0  # atno 7974 bound_to 7965
  155.9827  140.3376  155.6678 H   0  0  0  0  0  0  0  0  0  0  0  0  # atno 8008 bound_to 7997
  155.6527  140.0707  157.2599 H   0  0  0  0  0  0  0  0  0  0  0  0  # atno 8009 bound_to 7997
  154.4196  140.1723  156.1679 H   0  0  0  0  0  0  0  0  0  0  0  0  # atno 8010 bound_to 7997
  140.6545  143.2589  151.4625 H   0  0  0  0  0  0  0  0  0  0  0  0  # atno 10167 bound_to 10162
  156.2895  130.7367  151.1388 H   0  0  0  0  0  0  0  0  0  0  0  0  # atno 10718 bound_to 10713
  153.0962  135.4835  154.8783 H   0  0  0  0  0  0  0  0  0  0  0  0  # atno 10763 bound_to 10752
  154.7327  135.3064  154.8866 H   0  0  0  0  0  0  0  0  0  0  0  0  # atno 10764 bound_to 10752
  153.9497  135.6824  153.4797 H   0  0  0  0  0  0  0  0  0  0  0  0  # atno 10765 bound_to 10752
  141.1667  133.7169  156.8333 H   0  0  0  0  0  0  0  0  0  0  0  0  # atno 11005 bound_to 11000
  146.3094  139.7693  142.9031 LP  0  0  0  0  0  0  0  0  0  0  0  0  # atno 17320 bound_to 7965
  145.3660  141.0334  143.3258 LP  0  0  0  0  0  0  0  0  0  0  0  0  # atno 17321 bound_to 7965
  139.5766  144.1806  152.1911 LP  0  0  0  0  0  0  0  0  0  0  0  0  # atno 17342 bound_to 10162
  140.1118  144.5450  150.6920 LP  0  0  0  0  0  0  0  0  0  0  0  0  # atno 17343 bound_to 10162
  157.7338  131.0587  150.5556 LP  0  0  0  0  0  0  0  0  0  0  0  0  # atno 17370 bound_to 10713
  156.5671  130.4270  149.6036 LP  0  0  0  0  0  0  0  0  0  0  0  0  # atno 17371 bound_to 10713
  140.2035  134.8879  157.3196 LP  0  0  0  0  0  0  0  0  0  0  0  0  # atno 17394 bound_to 11000
  140.2162  134.4079  155.7588 LP  0  0  0  0  0  0  0  0  0  0  0  0  # atno 17395 bound_to 11000

$$$$
