#       Name:                AV-unprocessed.smi:2881
#       Creating user name   scv26
#       Creation time:       Fri Mar 27 15:52:39 2020


#       File generated by GOLD software.
#

@<TRIPOS>MOLECULE
AV-unprocessed.smi:2881
    45    47     1
SMALL
NO_CHARGES


@<TRIPOS>ATOM
      1 ****        -3.3143   3.1023  -1.5737 C.3            1 S1                 0.0000
      2 ****        -2.9123   1.6691  -1.4919 C.2            1 S1                 0.0000
      3 ****        -2.1584   0.8923  -2.3255 C.2            1 S1                 0.0000
      4 ****        -2.1301  -0.3844  -1.6900 C.2            1 S1                 0.0000
      5 ****        -1.4185  -1.6318  -2.1463 C.3            1 S1                 0.0000
      6 ****         0.0686  -1.5471  -1.7971 C.2            1 S1                 0.0000
      7 ****         0.9175  -1.5881  -2.6872 O.2            1 S1                 0.0000
      8 ****         0.3668  -1.4184  -0.4955 N.am           1 S1                 0.0000
      9 ****         1.7074  -1.2364   0.0565 C.3            1 S1                 0.0000
     10 ****         2.2984   0.1715  -0.2226 C.3            1 S1                 0.0000
     11 ****         1.2961   1.2851   0.1513 C.3            1 S1                 0.0000
     12 ****         1.2651   1.2040   1.6876 C.3            1 S1                 0.0000
     13 ****         2.2876   0.0892   1.9963 C.3            1 S1                 0.0000
     14 ****         3.3204   0.3186   0.8996 C.3            1 S1                 0.0000
     15 ****         1.7530  -1.3101   1.6109 C.3            1 S1                 0.0000
     16 ****         0.4714  -1.7435   2.3595 C.3            1 S1                 0.0000
     17 ****         0.2123  -3.1148   2.1417 O.3            1 S1                 0.0000
     18 ****        -2.8201  -0.3986  -0.5570 N.2            1 S1                 0.0000
     19 ****        -3.2887   0.8580  -0.4466 N.pl3          1 S1                 0.0000
     20 ****        -3.8584   1.1444   0.3368 H              1 S1                 0.0000
     21 ****        -3.0709   3.5202  -2.5507 H              1 S1                 0.0000
     22 ****        -2.7974   3.6921  -0.8166 H              1 S1                 0.0000
     23 ****        -4.3873   3.2152  -1.4177 H              1 S1                 0.0000
     24 ****        -1.6861   1.1924  -3.2492 H              1 S1                 0.0000
     25 ****        -1.8440  -2.5215  -1.6799 H              1 S1                 0.0000
     26 ****        -1.5333  -1.7593  -3.2234 H              1 S1                 0.0000
     27 ****        -0.3992  -1.4061   0.1623 H              1 S1                 0.0000
     28 ****         2.3647  -2.0051  -0.3540 H              1 S1                 0.0000
     29 ****         2.7081   0.2797  -1.2272 H              1 S1                 0.0000
     30 ****         1.6738   2.2575  -0.1675 H              1 S1                 0.0000
     31 ****         0.3102   1.1625  -0.2967 H              1 S1                 0.0000
     32 ****         1.5885   2.1514   2.1206 H              1 S1                 0.0000
     33 ****         0.2692   0.9946   2.0758 H              1 S1                 0.0000
     34 ****         2.6872   0.1350   3.0097 H              1 S1                 0.0000
     35 ****         4.1044  -0.4403   0.8728 H              1 S1                 0.0000
     36 ****         3.7840   1.3061   0.9385 H              1 S1                 0.0000
     37 ****         2.5315  -2.0256   1.8833 H              1 S1                 0.0000
     38 ****         0.5983  -1.5908   3.4314 H              1 S1                 0.0000
     39 ****        -0.4006  -1.1637   2.0574 H              1 S1                 0.0000
     40 ****        -0.5648  -3.3547   2.6233 H              1 S1                 0.0000
     41 ****         0.6362  -1.6771  -3.6427 LP             1 S1                 0.0000
     42 ****         1.8886  -1.5325  -2.4549 LP             1 S1                 0.0000
     43 ****         0.9880  -3.6592   2.4609 LP             1 S1                 0.0000
     44 ****         0.0684  -3.2798   1.1660 LP             1 S1                 0.0000
     45 ****        -2.9596  -1.1653   0.0697 LP             1 S1                 0.0000
@<TRIPOS>BOND
    1    1    2 1     
    2    1   21 1     
    3    1   22 1     
    4    1   23 1     
    5    2   19 1     
    6    2    3 2     
    7    3    4 1     
    8    3   24 1     
    9    4    5 1     
   10    4   18 2     
   11    5    6 1     
   12    5   25 1     
   13    5   26 1     
   14    6    7 2     
   15    6    8 am    
   16    8    9 1     
   17    8   27 1     
   18    9   15 1     
   19    9   10 1     
   20    9   28 1     
   21   10   14 1     
   22   10   11 1     
   23   10   29 1     
   24   11   12 1     
   25   11   30 1     
   26   11   31 1     
   27   12   13 1     
   28   12   32 1     
   29   12   33 1     
   30   13   14 1     
   31   13   15 1     
   32   13   34 1     
   33   14   35 1     
   34   14   36 1     
   35   15   16 1     
   36   15   37 1     
   37   16   17 1     
   38   16   38 1     
   39   16   39 1     
   40   17   40 1     
   41   18   19 1     
   42   19   20 1     
   43    7   41 1     
   44    7   42 1     
   45   17   43 1     
   46   17   44 1     
   47   18   45 1     
@<TRIPOS>SUBSTRUCTURE
      1 S1             1
@<TRIPOS>SET
LONE_PAIRS      STATIC     ATOMS    <user>   **** ""
5 41 42 43 44 45
DONOR_HYDROGENS      STATIC     ATOMS    <user>   **** ""
3 27 40 20
ATOM$BLUE        STATIC     ATOMS    COLORGROUP SYSTEM
5 41 42 43 44 45
ATOM$RED        STATIC     ATOMS    COLORGROUP SYSTEM
3 27 40 20
