AV-unprocessed.smi:1756|AV-procd|sdf|7074|dock8
  -GOLD-   22720 8293D 1   1.00000     0.00000
 Structure written by MMmdl.
 37 38  0  0  0  0  0  0  0  0  2 V2000
  154.1593  139.4291  158.4627 O   0  0  0  0  0  0  0  0  0  0  0  0
  153.1215  139.2487  159.0994 C   0  0  0  0  0  0  0  0  0  0  0  0
  152.0101  139.9750  158.9136 N   0  0  0  0  0  0  0  0  0  0  0  0
  151.8577  141.0635  157.9533 C   0  0  0  0  0  0  0  0  0  0  0  0
  151.4880  142.3928  158.6365 C   0  0  1  0  0  0  0  0  0  0  0  0
  152.4951  142.8291  159.7225 C   0  0  0  0  0  0  0  0  0  0  0  0
  152.1246  144.2060  160.2846 C   0  0  0  0  0  0  0  0  0  0  0  0
  151.9618  145.2080  159.1377 C   0  0  0  0  0  0  0  0  0  0  0  0
  150.9846  144.6595  158.0867 C   0  0  0  0  0  0  0  0  0  0  0  0
  151.4362  143.3917  157.6198 O   0  0  0  0  0  0  0  0  0  0  0  0
  152.9370  138.3393  160.0732 N   0  0  0  0  0  0  0  0  0  0  0  0
  153.8245  137.3746  160.5806 C   0  0  0  0  0  0  0  0  0  0  0  0
  154.0351  137.1253  161.9031 C   0  0  0  0  0  0  0  0  0  0  0  0
  154.9816  136.1183  162.3662 C   0  0  0  0  0  0  0  0  0  0  0  0
  155.1671  135.7472  163.8270 C   0  0  0  0  0  0  0  0  0  0  0  0
  154.3539  136.4561  164.6105 F   0  0  0  0  0  0  0  0  0  0  0  0
  154.8937  134.4556  164.0049 F   0  0  0  0  0  0  0  0  0  0  0  0
  156.4230  135.9639  164.2182 F   0  0  0  0  0  0  0  0  0  0  0  0
  155.6067  135.4662  161.3211 C   0  0  0  0  0  0  0  0  0  0  0  0
  155.4755  135.6690  159.9919 N   0  5  0  0  0  0  0  0  0  0  0  0
  154.5888  136.6141  159.5702 C   0  0  0  0  0  0  0  0  0  0  0  0
  154.4152  136.8445  158.3728 O   0  0  0  0  0  0  0  0  0  0  0  0
  151.2064  139.7610  159.4856 H   0  0  0  0  0  0  0  0  0  0  0  0
  152.7545  141.1832  157.3429 H   0  0  0  0  0  0  0  0  0  0  0  0
  151.0610  140.7777  157.2659 H   0  0  0  0  0  0  0  0  0  0  0  0
  150.4946  142.2937  159.0779 H   0  0  0  0  0  0  0  0  0  0  0  0
  152.5246  142.1032  160.5350 H   0  0  0  0  0  0  0  0  0  0  0  0
  153.4995  142.8642  159.2988 H   0  0  0  0  0  0  0  0  0  0  0  0
  151.1917  144.1336  160.8452 H   0  0  0  0  0  0  0  0  0  0  0  0
  152.8866  144.5481  160.9852 H   0  0  0  0  0  0  0  0  0  0  0  0
  151.6084  146.1659  159.5199 H   0  0  0  0  0  0  0  0  0  0  0  0
  152.9305  145.3933  158.6722 H   0  0  0  0  0  0  0  0  0  0  0  0
  149.9781  144.5708  158.4983 H   0  0  0  0  0  0  0  0  0  0  0  0
  150.9222  145.3437  157.2403 H   0  0  0  0  0  0  0  0  0  0  0  0
  152.0421  138.3602  160.5399 H   0  0  0  0  0  0  0  0  0  0  0  0
  153.5158  137.6842  162.6633 H   0  0  0  0  0  0  0  0  0  0  0  0
  156.3159  134.6556  161.5937 H   0  0  0  0  0  0  0  0  0  0  0  0
  1  2  2  0  0  0  0
  2  3  1  0  0  0  0
  2 11  1  0  0  0  0
  3  4  1  0  0  0  0
  3 23  1  0  0  0  0
  4  5  1  0  0  0  0
  4 24  1  0  0  0  0
  4 25  1  0  0  0  0
  5 10  1  0  0  0  0
  5  6  1  0  0  0  0
  5 26  1  0  0  0  0
  6  7  1  0  0  0  0
  6 27  1  0  0  0  0
  6 28  1  0  0  0  0
  7  8  1  0  0  0  0
  7 29  1  0  0  0  0
  7 30  1  0  0  0  0
  8  9  1  0  0  0  0
  8 31  1  0  0  0  0
  8 32  1  0  0  0  0
  9 10  1  0  0  0  0
  9 33  1  0  0  0  0
  9 34  1  0  0  0  0
 11 12  1  0  0  0  0
 11 35  1  0  0  0  0
 12 21  1  0  0  0  0
 12 13  2  0  0  0  0
 13 14  1  0  0  0  0
 13 36  1  0  0  0  0
 14 15  1  0  0  0  0
 14 19  2  0  0  0  0
 15 16  1  0  0  0  0
 15 17  1  0  0  0  0
 15 18  1  0  0  0  0
 19 20  1  0  0  0  0
 19 37  1  0  0  0  0
 20 21  1  0  0  0  0
 21 22  2  0  0  0  0
M  CHG  1  20  -1
M  END
> <s_m_source_file>
AV-unprocessed.smi

> <i_m_source_file_index>
1756

> <i_lp_mmshare_version>
43012

> <i_f3d_flags>
0

> <s_epik_input>
Tz1jMVtuSF1bY0hdYyhDKEYpKEYpRilbY0hdYzFbTkhdQyg9TylbTkhdW0NIMl1bQ0BASF0yW0NIMl1bQ0gyXVtDSDJdW0NIMl1PMg==

> <s_epik_cmdline>
J2VwaWtfcHl0aG9uJywgJy1waCcsICc3LjAnLCAnLXRuJywgJzgnLCAnLW1hJywgJzIwMCcsICctbWV0YWxfYmluZGluZycsICctaW1hZScsICc8aW5maWxlLm1hZT4nLCAnLW9tYWUnLCAnPG91dGZpbGUubWFlPic=

> <r_lp_tautomer_probability>
1

> <r_epik_Ionization_Penalty>
3.16985

> <r_epik_Ionization_Penalty_Charging>
0.174782

> <r_epik_Ionization_Penalty_Neutral>
2.99507

> <r_epik_State_Penalty>
2.99125

> <r_epik_Charging_Adjusted_Penalty>
3.16603

> <i_epik_Tot_Q>
-1

> <i_epik_Tot_abs_Q>
1

> <r_epik_Metal_State_Penalty>
0.453096

> <b_epik_Metal_Only>
1

> <s_lp_Force_Field>
OPLS_2005

> <r_lp_Energy>
20.8362

> <b_lp_Chiralities_Consistent>
1

> <s_lp_Variant>
AV-unprocessed.smi:1756-4

> <Gold.Version>
5.8.1

> <Gold.Id.Protein>
6NUR|6NUR_protein|mol2

> <Gold.PLP.Fitness>
41.6856

> <Gold.PLP.PLP>
-39.4809

> <Gold.PLP.part.hbond>
-1.0000

> <Gold.PLP.part.metal>
0.0000

> <Gold.PLP.part.buried>
-4.1737

> <Gold.PLP.part.nonpolar>
-35.0196

> <Gold.PLP.part.repulsive>
0.3320

> <Gold.PLP.ligand.clash>
0.0000

> <Gold.PLP.ligand.torsion>
0.4278

> <Gold.PLP.Chemscore.Hbond>
1.0000

> <Gold.PLP.Chemscore.CHOScore>
0.0000

> <Gold.PLP.Chemscore.Metal>
0.0000

> <Gold.Chemscore.Hbonds>
donor molecule, donor type, donor heavy atom, donor atom, acceptor molecule, acceptor atom, score
      P1  H  7997  8010       L1     1  1.00

> <Gold.PLP.Chemscore.Internal.Correction>
0.0604

> <Gold.Rescore>
     Score         DG    S(hbond)    S(metal)    S(lipo)     H(rot)  DE(clash)    DE(int)     intcor
     13.64     -16.83       1.00        0.00      97.46       1.32       0.01       3.18       ----

> <Gold.Chemscore.Fitness>
13.6413

> <Gold.Chemscore.DG>
-16.8309

> <Gold.Chemscore.ZeroCoef>
-5.4800

> <Gold.Chemscore.Hbond>
0.9998

> <Gold.Chemscore.Metal>
0.0000

> <Gold.Chemscore.Lipo>
97.4613

> <Gold.Chemscore.Internal_Hbond>
0.0000

> <Gold.Chemscore.DEClash>
0.0125

> <Gold.Chemscore.DEInternal>
3.1771

> <Gold.Chemscore.Rot>
1.3248

> <Gold.Chemscore.Internal.Correction>
   9.000000E+99

> <Gold.Chemscore.Hbonds>
donor molecule, donor type, donor heavy atom, donor atom, acceptor molecule, acceptor atom, score
      P1  H  7997  8010       L1     1  0.96

> <Gold.Chemscore.Hbond.Weighted>
-3.3395

> <Gold.Chemscore.Metal.Weighted>
-0.0000

> <Gold.Chemscore.Lipo.Weighted>
-11.4030

> <Gold.Chemscore.Internal_Hbond.Weighted>
0.0000

> <Gold.Chemscore.DEClash.Weighted>
0.0125

> <Gold.Chemscore.DEInternal.Weighted>
3.1771

> <Gold.Chemscore.Rot.Weighted>
3.3915

> <Gold.Chemscore.Internal.Correction.Weighted>
   9.000000E+99

> <Gold.Protein.RotatedTorsions>
[ 6907 6896 6895 6894 ] final  -52.27 input  -60.11 | X-H torsion
[ 7974 7965 7964 7962 ] final -122.18 input  175.53 | X-H torsion
[ 8008 7997 7996 7995 ] final    0.58 input   59.86 | X-H torsion
[ 10167 10162 10161 10158 ] final   72.72 input  -65.29 | X-H torsion
[ 10718 10713 10712 10709 ] final -134.98 input   66.30 | X-H torsion
[ 10763 10752 10751 10750 ] final  175.12 input  -60.55 | X-H torsion
[ 11005 11000 10999 10996 ] final -175.51 input  -57.11 | X-H torsion

> <Gold.Protein.ActiveResidues>
 VAL166  LYS551  ARG553  GLY616  TRP617  ASP618  TYR619  PRO620  LYS621  CYS622 
 ASP623  PHE694  ASN695  SER759  ASP760  ASP761  ALA762  ILE779  LEU786  VAL792 
 PHE793  MET794  SER795  GLU796  ALA797  LYS798  CYS799  TRP800  GLU811  SER814 

> <Gold.Protein.RotatedAtoms>
  150.8533  134.7864  159.7025 H   0  0  0  0  0  0  0  0  0  0  0  0  # atno 6907 bound_to 6896
  152.4592  134.5220  159.9795 H   0  0  0  0  0  0  0  0  0  0  0  0  # atno 6908 bound_to 6896
  151.5337  133.3406  159.2958 H   0  0  0  0  0  0  0  0  0  0  0  0  # atno 6909 bound_to 6896
  145.0323  140.8077  143.4316 H   0  0  0  0  0  0  0  0  0  0  0  0  # atno 7974 bound_to 7965
  154.6698  140.2609  155.7019 H   0  0  0  0  0  0  0  0  0  0  0  0  # atno 8008 bound_to 7997
  156.2654  140.2831  156.1124 H   0  0  0  0  0  0  0  0  0  0  0  0  # atno 8009 bound_to 7997
  155.1185  140.0376  157.2734 H   0  0  0  0  0  0  0  0  0  0  0  0  # atno 8010 bound_to 7997
  140.0322  144.5456  150.7498 H   0  0  0  0  0  0  0  0  0  0  0  0  # atno 10167 bound_to 10162
  156.2612  130.7211  151.1146 H   0  0  0  0  0  0  0  0  0  0  0  0  # atno 10718 bound_to 10713
  154.4633  135.2768  155.1697 H   0  0  0  0  0  0  0  0  0  0  0  0  # atno 10763 bound_to 10752
  154.3476  135.6157  153.5630 H   0  0  0  0  0  0  0  0  0  0  0  0  # atno 10764 bound_to 10752
  152.9857  135.5803  154.4999 H   0  0  0  0  0  0  0  0  0  0  0  0  # atno 10765 bound_to 10752
  140.4624  134.6242  157.4848 H   0  0  0  0  0  0  0  0  0  0  0  0  # atno 11005 bound_to 11000
  145.1755  139.2381  143.5320 LP  0  0  0  0  0  0  0  0  0  0  0  0  # atno 17320 bound_to 7965
  146.3500  140.1516  142.8592 LP  0  0  0  0  0  0  0  0  0  0  0  0  # atno 17321 bound_to 7965
  140.7297  143.2675  151.3996 LP  0  0  0  0  0  0  0  0  0  0  0  0  # atno 17342 bound_to 10162
  139.6068  144.1180  152.2258 LP  0  0  0  0  0  0  0  0  0  0  0  0  # atno 17343 bound_to 10162
  157.7251  131.0655  150.5966 LP  0  0  0  0  0  0  0  0  0  0  0  0  # atno 17370 bound_to 10713
  156.6054  130.4365  149.5880 LP  0  0  0  0  0  0  0  0  0  0  0  0  # atno 17371 bound_to 10713
  139.9937  134.6945  155.9646 LP  0  0  0  0  0  0  0  0  0  0  0  0  # atno 17394 bound_to 11000
  141.1615  133.6538  156.4334 LP  0  0  0  0  0  0  0  0  0  0  0  0  # atno 17395 bound_to 11000

$$$$
