AV-unprocessed.smi:3014|AV-procd|sdf|11469|dock7
  -GOLD-   2272016403D 1   1.00000     0.00000
 Structure written by MMmdl.
 45 46  0  0  0  0  0  0  0  0  1 V2000
  146.4003  132.8243  160.8032 C   0  0  0  0  0  0  0  0  0  0  0  0
  146.5629  134.3157  161.1302 C   0  0  1  0  0  0  0  0  0  0  0  0
  146.1102  134.6266  162.5697 C   0  0  0  0  0  0  0  0  0  0  0  0
  146.2791  136.1161  162.9074 C   0  0  0  0  0  0  0  0  0  0  0  0
  147.7258  136.5822  162.6746 C   0  0  0  0  0  0  0  0  0  0  0  0
  148.1981  136.2842  161.2407 C   0  0  2  0  0  0  0  0  0  0  0  0
  147.4485  137.1130  160.3596 O   0  0  0  0  0  0  0  0  0  0  0  0
  147.7331  136.9269  158.9781 C   0  0  0  0  0  0  0  0  0  0  0  0
  149.2440  136.9990  158.7482 C   0  0  0  0  0  0  0  0  0  0  0  0
  149.8616  135.9611  158.5107 O   0  0  0  0  0  0  0  0  0  0  0  0
  149.8069  138.2193  158.8389 N   0  0  0  0  0  0  0  0  0  0  0  0
  151.1732  138.5705  158.6861 C   0  0  0  0  0  0  0  0  0  0  0  0
  151.9423  137.7112  157.8723 C   0  0  0  0  0  0  0  0  0  0  0  0
  153.3015  138.0370  157.7007 C   0  0  0  0  0  0  0  0  0  0  0  0
  153.8509  139.1217  158.2836 N   0  0  0  0  0  0  0  0  0  0  0  0
  153.0518  139.8852  159.0388 C   0  0  0  0  0  0  0  0  0  0  0  0
  153.6168  141.0123  159.6424 N   0  0  0  0  0  0  0  0  0  0  0  0
  152.7859  142.1220  160.1006 C   0  0  0  0  0  0  0  0  0  0  0  0
  155.0603  141.1230  159.8332 C   0  0  0  0  0  0  0  0  0  0  0  0
  151.7513  139.6539  159.2598 N   0  0  0  0  0  0  0  0  0  0  0  0
  148.0142  134.7873  160.9080 C   0  0  0  0  0  0  0  0  0  0  0  0
  147.0202  132.2050  161.4525 H   0  0  0  0  0  0  0  0  0  0  0  0
  146.6851  132.6145  159.7719 H   0  0  0  0  0  0  0  0  0  0  0  0
  145.3650  132.5062  160.9293 H   0  0  0  0  0  0  0  0  0  0  0  0
  145.9194  134.8718  160.4466 H   0  0  0  0  0  0  0  0  0  0  0  0
  145.0668  134.3388  162.7034 H   0  0  0  0  0  0  0  0  0  0  0  0
  146.6875  134.0277  163.2755 H   0  0  0  0  0  0  0  0  0  0  0  0
  145.5986  136.7088  162.2947 H   0  0  0  0  0  0  0  0  0  0  0  0
  145.9944  136.2954  163.9445 H   0  0  0  0  0  0  0  0  0  0  0  0
  147.8120  137.6491  162.8829 H   0  0  0  0  0  0  0  0  0  0  0  0
  148.3839  136.0778  163.3831 H   0  0  0  0  0  0  0  0  0  0  0  0
  149.2548  136.5480  161.1706 H   0  0  0  0  0  0  0  0  0  0  0  0
  147.3750  135.9528  158.6427 H   0  0  0  0  0  0  0  0  0  0  0  0
  147.2454  137.6907  158.3723 H   0  0  0  0  0  0  0  0  0  0  0  0
  149.1770  138.9843  159.0326 H   0  0  0  0  0  0  0  0  0  0  0  0
  151.5142  136.8397  157.3988 H   0  0  0  0  0  0  0  0  0  0  0  0
  153.9501  137.4246  157.0920 H   0  0  0  0  0  0  0  0  0  0  0  0
  152.1847  142.5133  159.2792 H   0  0  0  0  0  0  0  0  0  0  0  0
  153.3841  142.9440  160.4936 H   0  0  0  0  0  0  0  0  0  0  0  0
  152.1134  141.7896  160.8919 H   0  0  0  0  0  0  0  0  0  0  0  0
  155.5701  141.1397  158.8694 H   0  0  0  0  0  0  0  0  0  0  0  0
  155.4361  140.2745  160.4060 H   0  0  0  0  0  0  0  0  0  0  0  0
  155.3321  142.0310  160.3714 H   0  0  0  0  0  0  0  0  0  0  0  0
  148.6810  134.2023  161.5428 H   0  0  0  0  0  0  0  0  0  0  0  0
  148.3245  134.5777  159.8850 H   0  0  0  0  0  0  0  0  0  0  0  0
  1  2  1  0  0  0  0
  1 22  1  0  0  0  0
  1 23  1  0  0  0  0
  1 24  1  0  0  0  0
  2 21  1  0  0  0  0
  2  3  1  0  0  0  0
  2 25  1  0  0  0  0
  3  4  1  0  0  0  0
  3 26  1  0  0  0  0
  3 27  1  0  0  0  0
  4  5  1  0  0  0  0
  4 28  1  0  0  0  0
  4 29  1  0  0  0  0
  5  6  1  0  0  0  0
  5 30  1  0  0  0  0
  5 31  1  0  0  0  0
  6  7  1  0  0  0  0
  6 21  1  0  0  0  0
  6 32  1  0  0  0  0
  7  8  1  0  0  0  0
  8  9  1  0  0  0  0
  8 33  1  0  0  0  0
  8 34  1  0  0  0  0
  9 10  2  0  0  0  0
  9 11  1  0  0  0  0
 11 12  1  0  0  0  0
 11 35  1  0  0  0  0
 12 20  1  0  0  0  0
 12 13  2  0  0  0  0
 13 14  1  0  0  0  0
 13 36  1  0  0  0  0
 14 15  2  0  0  0  0
 14 37  1  0  0  0  0
 15 16  1  0  0  0  0
 16 17  1  0  0  0  0
 16 20  2  0  0  0  0
 17 18  1  0  0  0  0
 17 19  1  0  0  0  0
 18 38  1  0  0  0  0
 18 39  1  0  0  0  0
 18 40  1  0  0  0  0
 19 41  1  0  0  0  0
 19 42  1  0  0  0  0
 19 43  1  0  0  0  0
 21 44  1  0  0  0  0
 21 45  1  0  0  0  0
M  END
> <s_m_source_file>
AV-unprocessed.smi

> <i_m_source_file_index>
3014

> <i_lp_mmshare_version>
43012

> <i_f3d_flags>
0

> <s_epik_input>
W0NIM11bQ0BASF0xW0NIMl1bQ0gyXVtDSDJdW0NASF0oW0NIMl0xKU9bQ0gyXUMoPU8pW05IXWMyW2NIXVtjSF1uYyhuMilOKFtDSDNdKVtDSDNd

> <s_epik_cmdline>
J2VwaWtfcHl0aG9uJywgJy1waCcsICc3LjAnLCAnLXRuJywgJzgnLCAnLW1hJywgJzIwMCcsICctbWV0YWxfYmluZGluZycsICctaW1hZScsICc8aW5maWxlLm1hZT4nLCAnLW9tYWUnLCAnPG91dGZpbGUubWFlPic=

> <r_lp_tautomer_probability>
1

> <r_epik_Ionization_Penalty>
0.000308195

> <r_epik_Ionization_Penalty_Charging>
0

> <r_epik_Ionization_Penalty_Neutral>
0.000308195

> <r_epik_State_Penalty>
-0

> <r_epik_Charging_Adjusted_Penalty>
0

> <i_epik_Tot_Q>
0

> <i_epik_Tot_abs_Q>
0

> <r_epik_Metal_State_Penalty>
-0

> <b_epik_Metal_Only>
0

> <s_lp_Force_Field>
OPLS_2005

> <r_lp_Energy>
6.78662

> <b_lp_Chiralities_Consistent>
1

> <s_lp_Variant>
AV-unprocessed.smi:3014-4

> <Gold.Version>
5.8.1

> <Gold.Id.Protein>
6NUR|6NUR_protein|mol2

> <Gold.PLP.Fitness>
41.9198

> <Gold.PLP.PLP>
-33.8969

> <Gold.PLP.part.hbond>
-3.1577

> <Gold.PLP.part.metal>
0.0000

> <Gold.PLP.part.buried>
-4.3543

> <Gold.PLP.part.nonpolar>
-26.3554

> <Gold.PLP.part.repulsive>
0.2198

> <Gold.PLP.ligand.clash>
0.0000

> <Gold.PLP.ligand.torsion>
0.5043

> <Gold.PLP.Chemscore.Hbond>
3.0000

> <Gold.PLP.Chemscore.CHOScore>
0.0000

> <Gold.PLP.Chemscore.Metal>
0.0000

> <Gold.Chemscore.Hbonds>
donor molecule, donor type, donor heavy atom, donor atom, acceptor molecule, acceptor atom, score
      P1  H  6896  6909       L1    10  1.00
      P1  H  6934  6947       L1     7  1.00
      P1  H  7997  8009       L1    15  1.00

> <Gold.PLP.Chemscore.Internal.Correction>
0.0315

> <Gold.Rescore>
     Score         DG    S(hbond)    S(metal)    S(lipo)     H(rot)  DE(clash)    DE(int)     intcor
     18.07     -20.22       2.55        0.00      84.48       1.43       0.23       1.92       ----

> <Gold.Chemscore.Fitness>
18.0656

> <Gold.Chemscore.DG>
-20.2150

> <Gold.Chemscore.ZeroCoef>
-5.4800

> <Gold.Chemscore.Hbond>
2.5493

> <Gold.Chemscore.Metal>
0.0000

> <Gold.Chemscore.Lipo>
84.4757

> <Gold.Chemscore.Internal_Hbond>
0.0000

> <Gold.Chemscore.DEClash>
0.2288

> <Gold.Chemscore.DEInternal>
1.9207

> <Gold.Chemscore.Rot>
1.4310

> <Gold.Chemscore.Internal.Correction>
   9.000000E+99

> <Gold.Chemscore.Hbonds>
donor molecule, donor type, donor heavy atom, donor atom, acceptor molecule, acceptor atom, score
      P1  H  6896  6909       L1    10  0.97
      P1  H  6934  6947       L1     7  0.79
      P1  H  7997  8009       L1    15  0.54

> <Gold.Chemscore.Hbond.Weighted>
-8.5146

> <Gold.Chemscore.Metal.Weighted>
-0.0000

> <Gold.Chemscore.Lipo.Weighted>
-9.8837

> <Gold.Chemscore.Internal_Hbond.Weighted>
0.0000

> <Gold.Chemscore.DEClash.Weighted>
0.2288

> <Gold.Chemscore.DEInternal.Weighted>
1.9207

> <Gold.Chemscore.Rot.Weighted>
3.6632

> <Gold.Chemscore.Internal.Correction.Weighted>
   9.000000E+99

> <Gold.Protein.RotatedTorsions>
[ 6907 6896 6895 6894 ] final   53.27 input  -60.11 | X-H torsion
[ 7974 7965 7964 7962 ] final -133.79 input  175.53 | X-H torsion
[ 8008 7997 7996 7995 ] final  149.97 input   59.86 | X-H torsion
[ 10167 10162 10161 10158 ] final  101.80 input  -65.29 | X-H torsion
[ 10718 10713 10712 10709 ] final   71.26 input   66.30 | X-H torsion
[ 10763 10752 10751 10750 ] final  -52.23 input  -60.55 | X-H torsion
[ 11005 11000 10999 10996 ] final -147.62 input  -57.11 | X-H torsion

> <Gold.Protein.ActiveResidues>
 VAL166  LYS551  ARG553  GLY616  TRP617  ASP618  TYR619  PRO620  LYS621  CYS622 
 ASP623  PHE694  ASN695  SER759  ASP760  ASP761  ALA762  ILE779  LEU786  VAL792 
 PHE793  MET794  SER795  GLU796  ALA797  LYS798  CYS799  TRP800  GLU811  SER814 

> <Gold.Protein.RotatedAtoms>
  152.3319  134.7248  160.0286 H   0  0  0  0  0  0  0  0  0  0  0  0  # atno 6907 bound_to 6896
  151.7662  133.3332  159.3439 H   0  0  0  0  0  0  0  0  0  0  0  0  # atno 6908 bound_to 6896
  150.7428  134.5993  159.6072 H   0  0  0  0  0  0  0  0  0  0  0  0  # atno 6909 bound_to 6896
  144.9161  140.6956  143.4994 H   0  0  0  0  0  0  0  0  0  0  0  0  # atno 7974 bound_to 7965
  156.2734  140.2087  156.5943 H   0  0  0  0  0  0  0  0  0  0  0  0  # atno 8008 bound_to 7997
  154.6957  140.0526  157.0432 H   0  0  0  0  0  0  0  0  0  0  0  0  # atno 8009 bound_to 7997
  155.0804  140.3186  155.4606 H   0  0  0  0  0  0  0  0  0  0  0  0  # atno 8010 bound_to 7997
  139.7406  144.7012  151.0581 H   0  0  0  0  0  0  0  0  0  0  0  0  # atno 10167 bound_to 10162
  157.6443  130.9519  150.0765 H   0  0  0  0  0  0  0  0  0  0  0  0  # atno 10718 bound_to 10713
  154.1394  135.6507  153.4939 H   0  0  0  0  0  0  0  0  0  0  0  0  # atno 10763 bound_to 10752
  153.0171  135.5312  154.6921 H   0  0  0  0  0  0  0  0  0  0  0  0  # atno 10764 bound_to 10752
  154.6178  135.2961  155.0331 H   0  0  0  0  0  0  0  0  0  0  0  0  # atno 10765 bound_to 10752
  140.7698  134.3202  157.5078 H   0  0  0  0  0  0  0  0  0  0  0  0  # atno 11005 bound_to 11000
  145.3373  139.1742  143.4505 LP  0  0  0  0  0  0  0  0  0  0  0  0  # atno 17320 bound_to 7965
  146.3182  140.3410  142.8648 LP  0  0  0  0  0  0  0  0  0  0  0  0  # atno 17321 bound_to 7965
  140.7785  143.4929  150.9869 LP  0  0  0  0  0  0  0  0  0  0  0  0  # atno 17342 bound_to 10162
  139.8618  143.7305  152.3173 LP  0  0  0  0  0  0  0  0  0  0  0  0  # atno 17343 bound_to 10162
  156.1754  130.3648  149.9108 LP  0  0  0  0  0  0  0  0  0  0  0  0  # atno 17370 bound_to 10713
  156.7073  130.8956  151.3606 LP  0  0  0  0  0  0  0  0  0  0  0  0  # atno 17371 bound_to 10713
  139.8757  134.9254  156.3373 LP  0  0  0  0  0  0  0  0  0  0  0  0  # atno 17394 bound_to 11000
  140.9584  133.7404  156.0368 LP  0  0  0  0  0  0  0  0  0  0  0  0  # atno 17395 bound_to 11000

$$$$
