#       Name:                AV-unprocessed.smi:1047
#       Creating user name   scv26
#       Creation time:       Fri Mar 27 03:08:12 2020


#       File generated by GOLD software.
#

@<TRIPOS>MOLECULE
AV-unprocessed.smi:1047
    62    64     1
SMALL
NO_CHARGES


@<TRIPOS>ATOM
      1 ****        -7.0361   2.7454  -0.7010 C.3            1 S1                 0.0000
      2 ****        -6.6292   2.9429   0.7663 C.3            1 S1                 0.0000
      3 ****        -5.1588   2.8959   0.9638 N.4            1 S1                 1.0000
      4 ****        -4.7458   3.5070   2.2492 C.3            1 S1                 0.0000
      5 ****        -3.2157   3.4792   2.3914 C.3            1 S1                 0.0000
      6 ****        -2.7555   2.1391   2.2783 O.3            1 S1                 0.0000
      7 ****        -3.0516   1.5718   1.0060 C.3            1 S1                 0.0000
      8 ****        -2.4396   0.1641   0.9594 C.3            1 S1                 0.0000
      9 ****        -0.9865   0.2263   0.8440 N.3            1 S1                 0.0000
     10 ****        -0.3494  -1.0887   0.8395 C.3            1 S1                 0.0000
     11 ****         1.1857  -0.9918   0.7795 C.3            1 S1                 0.0000
     12 ****         1.6744  -0.4688   1.9989 O.3            1 S1                 0.0000
     13 ****         1.7226  -0.1926  -0.4265 C.3            1 S1                 0.0000
     14 ****         3.1900  -0.1662  -0.4793 N.pl3          1 S1                 0.0000
     15 ****         4.0629   0.8020  -0.0887 C.2            1 S1                 0.0000
     16 ****         5.3209   0.3464  -0.3427 N.pl3          1 S1                 1.0000
     17 ****         5.2498  -0.9295  -0.9066 C.ar           1 S1                 0.0000
     18 ****         6.2504  -1.7952  -1.3320 C.ar           1 S1                 0.0000
     19 ****         5.8430  -3.0373  -1.8694 C.ar           1 S1                 0.0000
     20 ****         6.9113  -4.0063  -2.3468 C.3            1 S1                 0.0000
     21 ****         4.4682  -3.3767  -1.9640 C.ar           1 S1                 0.0000
     22 ****         4.0419  -4.7148  -2.5435 C.3            1 S1                 0.0000
     23 ****         3.4655  -2.4825  -1.5252 C.ar           1 S1                 0.0000
     24 ****         3.8847  -1.2631  -0.9992 C.ar           1 S1                 0.0000
     25 ****        -4.5831   1.5340   0.8326 C.3            1 S1                 0.0000
     26 ****        -8.1108   2.8838  -0.8206 H              1 S1                 0.0000
     27 ****        -6.7992   1.7447  -1.0612 H              1 S1                 0.0000
     28 ****        -6.5368   3.4663  -1.3493 H              1 S1                 0.0000
     29 ****        -6.9981   3.9187   1.0857 H              1 S1                 0.0000
     30 ****        -7.1174   2.2044   1.4039 H              1 S1                 0.0000
     31 ****        -5.0997   4.5372   2.3034 H              1 S1                 0.0000
     32 ****        -5.2069   2.9646   3.0765 H              1 S1                 0.0000
     33 ****        -2.7399   4.1076   1.6367 H              1 S1                 0.0000
     34 ****        -2.9215   3.8724   3.3647 H              1 S1                 0.0000
     35 ****        -2.6135   2.1838   0.2147 H              1 S1                 0.0000
     36 ****        -2.7298  -0.3942   1.8506 H              1 S1                 0.0000
     37 ****        -2.8436  -0.3796   0.1046 H              1 S1                 0.0000
     38 ****        -0.6081   0.7780   1.6081 H              1 S1                 0.0000
     39 ****        -0.6412  -1.6501   1.7283 H              1 S1                 0.0000
     40 ****        -0.7052  -1.6631  -0.0166 H              1 S1                 0.0000
     41 ****         1.5688  -2.0106   0.7140 H              1 S1                 0.0000
     42 ****         2.6178  -0.5208   1.9898 H              1 S1                 0.0000
     43 ****         1.3493  -0.6036  -1.3653 H              1 S1                 0.0000
     44 ****         1.3836   0.8433  -0.3855 H              1 S1                 0.0000
     45 ****         3.8048   1.7566   0.3471 H              1 S1                 0.0000
     46 ****         7.2950  -1.5304  -1.2561 H              1 S1                 0.0000
     47 ****         6.7703  -4.2433  -3.4016 H              1 S1                 0.0000
     48 ****         6.8709  -4.9333  -1.7745 H              1 S1                 0.0000
     49 ****         7.9112  -3.5867  -2.2314 H              1 S1                 0.0000
     50 ****         2.9586  -4.8351  -2.5157 H              1 S1                 0.0000
     51 ****         4.4821  -5.5365  -1.9784 H              1 S1                 0.0000
     52 ****         4.3600  -4.7987  -3.5828 H              1 S1                 0.0000
     53 ****         2.4189  -2.7393  -1.5970 H              1 S1                 0.0000
     54 ****        -5.0297   0.8758   1.5798 H              1 S1                 0.0000
     55 ****        -4.8230   1.1165  -0.1447 H              1 S1                 0.0000
     56 ****        -4.7490   3.4627   0.2349 H              1 S1                 0.0000
     57 ****         6.1639   0.8707  -0.1458 H              1 S1                 0.0000
     58 ****        -3.1953   1.5871   2.9868 LP             1 S1                 0.0000
     59 ****        -1.7648   2.1268   2.4132 LP             1 S1                 0.0000
     60 ****        -0.7869   0.6518  -0.0387 LP             1 S1                 0.0000
     61 ****         1.3142  -1.0030   2.7637 LP             1 S1                 0.0000
     62 ****         1.3898   0.4850   2.0953 LP             1 S1                 0.0000
@<TRIPOS>BOND
    1    1    2 1     
    2    1   26 1     
    3    1   27 1     
    4    1   28 1     
    5    2    3 1     
    6    2   29 1     
    7    2   30 1     
    8    3   25 1     
    9    3    4 1     
   10    3   56 1     
   11    4    5 1     
   12    4   31 1     
   13    4   32 1     
   14    5    6 1     
   15    5   33 1     
   16    5   34 1     
   17    6    7 1     
   18    7    8 1     
   19    7   25 1     
   20    7   35 1     
   21    8    9 1     
   22    8   36 1     
   23    8   37 1     
   24    9   10 1     
   25    9   38 1     
   26   10   11 1     
   27   10   39 1     
   28   10   40 1     
   29   11   12 1     
   30   11   13 1     
   31   11   41 1     
   32   12   42 1     
   33   13   14 1     
   34   13   43 1     
   35   13   44 1     
   36   14   24 1     
   37   14   15 1     
   38   15   16 2     
   39   15   45 1     
   40   16   17 1     
   41   16   57 1     
   42   17   24 ar    
   43   17   18 ar    
   44   18   19 ar    
   45   18   46 1     
   46   19   20 1     
   47   19   21 ar    
   48   20   47 1     
   49   20   48 1     
   50   20   49 1     
   51   21   22 1     
   52   21   23 ar    
   53   22   50 1     
   54   22   51 1     
   55   22   52 1     
   56   23   24 ar    
   57   23   53 1     
   58   25   54 1     
   59   25   55 1     
   60    6   58 1     
   61    6   59 1     
   62    9   60 1     
   63   12   61 1     
   64   12   62 1     
@<TRIPOS>SUBSTRUCTURE
      1 S1             1
@<TRIPOS>SET
LONE_PAIRS      STATIC     ATOMS    <user>   **** ""
5 58 59 60 61 62
DONOR_HYDROGENS      STATIC     ATOMS    <user>   **** ""
4 56 38 42 57
ATOM$BLUE        STATIC     ATOMS    COLORGROUP SYSTEM
5 58 59 60 61 62
ATOM$RED        STATIC     ATOMS    COLORGROUP SYSTEM
4 56 38 42 57
