#       Name:                AV-unprocessed.smi:239
#       Creating user name   scv26
#       Creation time:       Thu Mar 26 20:41:53 2020


#       File generated by GOLD software.
#

@<TRIPOS>MOLECULE
AV-unprocessed.smi:239
    64    68     1
SMALL
NO_CHARGES


@<TRIPOS>ATOM
      1 ****        -4.4689  -1.8675   3.4771 C.3            1 S1                 0.0000
      2 ****        -3.7693  -1.0464   2.3891 C.3            1 S1                 0.0000
      3 ****        -2.2423  -1.0060   2.5871 C.3            1 S1                 0.0000
      4 ****        -1.6265  -0.1193   1.6025 N.3            1 S1                 0.0000
      5 ****        -0.2749  -0.1461   1.4742 C.ar           1 S1                 0.0000
      6 ****         0.4909  -0.6733   2.4675 N.ar           1 S1                 0.0000
      7 ****         1.8223  -0.6948   2.3571 C.ar           1 S1                 0.0000
      8 ****         2.5833  -0.2545   1.3539 N.ar           1 S1                 0.0000
      9 ****         1.8228   0.2647   0.3482 C.ar           1 S1                 0.0000
     10 ****         0.4021   0.3592   0.3273 C.ar           1 S1                 0.0000
     11 ****        -0.0129   0.9391  -0.8661 N.2            1 S1                 0.0000
     12 ****         1.0974   1.1857  -1.5058 C.2            1 S1                 0.0000
     13 ****         2.2476   0.7996  -0.8557 N.pl3          1 S1                 0.0000
     14 ****         3.6130   0.9501  -1.3346 C.3            1 S1                 0.0000
     15 ****         4.1263  -0.2314  -2.1968 C.3            1 S1                 0.0000
     16 ****         5.4685   0.0929  -2.5125 O.3            1 S1                 0.0000
     17 ****         4.1139  -1.5804  -1.4454 C.3            1 S1                 0.0000
     18 ****         4.5427  -2.7466  -2.3542 C.3            1 S1                 0.0000
     19 ****         3.7122  -2.7949  -3.5088 O.3            1 S1                 0.0000
     20 ****         3.8137  -1.6259  -4.3137 C.3            1 S1                 0.0000
     21 ****         3.3436  -0.3948  -3.5177 C.3            1 S1                 0.0000
     22 ****        -2.2214   1.2129   1.5850 C.3            1 S1                 0.0000
     23 ****        -3.7458   1.1079   1.4028 C.3            1 S1                 0.0000
     24 ****        -4.4175   2.4635   1.4807 C.3            1 S1                 0.0000
     25 ****        -5.7254   2.7193   0.7686 C.3            1 S1                 0.0000
     26 ****        -4.4576   3.3741   0.2755 C.3            1 S1                 0.0000
     27 ****        -4.2811   0.2827   2.4335 O.3            1 S1                 0.0000
     28 ****        -4.1240  -2.9017   3.4710 H              1 S1                 0.0000
     29 ****        -5.5485  -1.8757   3.3249 H              1 S1                 0.0000
     30 ****        -4.2753  -1.4553   4.4679 H              1 S1                 0.0000
     31 ****        -4.0026  -1.4859   1.4177 H              1 S1                 0.0000
     32 ****        -2.0043  -0.6511   3.5911 H              1 S1                 0.0000
     33 ****        -1.8338  -2.0130   2.4908 H              1 S1                 0.0000
     34 ****         2.3531  -1.1255   3.1932 H              1 S1                 0.0000
     35 ****         1.1074   1.6514  -2.4806 H              1 S1                 0.0000
     36 ****         3.6689   1.8802  -1.9023 H              1 S1                 0.0000
     37 ****         4.2597   1.0881  -0.4665 H              1 S1                 0.0000
     38 ****         5.8319  -0.6060  -3.0346 H              1 S1                 0.0000
     39 ****         4.7529  -1.5345  -0.5627 H              1 S1                 0.0000
     40 ****         3.1079  -1.7944  -1.0847 H              1 S1                 0.0000
     41 ****         5.5892  -2.6547  -2.6483 H              1 S1                 0.0000
     42 ****         4.4496  -3.6906  -1.8171 H              1 S1                 0.0000
     43 ****         4.8384  -1.5011  -4.6667 H              1 S1                 0.0000
     44 ****         3.1908  -1.7562  -5.1987 H              1 S1                 0.0000
     45 ****         2.2821  -0.5221  -3.3067 H              1 S1                 0.0000
     46 ****         3.4302   0.5045  -4.1287 H              1 S1                 0.0000
     47 ****        -1.9892   1.7143   2.5257 H              1 S1                 0.0000
     48 ****        -1.8041   1.8283   0.7895 H              1 S1                 0.0000
     49 ****        -3.9706   0.6642   0.4309 H              1 S1                 0.0000
     50 ****        -4.2946   2.9585   2.4424 H              1 S1                 0.0000
     51 ****        -6.1417   1.9140   0.1664 H              1 S1                 0.0000
     52 ****        -6.4553   3.3491   1.2728 H              1 S1                 0.0000
     53 ****        -4.3427   4.4421   0.4491 H              1 S1                 0.0000
     54 ****        -4.0300   3.0035  -0.6543 H              1 S1                 0.0000
     55 ****        -1.8795  -0.5553   0.7388 LP             1 S1                 0.0000
     56 ****         0.0543  -1.0473   3.2858 LP             1 S1                 0.0000
     57 ****         3.5822  -0.2994   1.3410 LP             1 S1                 0.0000
     58 ****        -0.9487   1.1248  -1.1659 LP             1 S1                 0.0000
     59 ****         5.9977   0.1947  -1.6702 LP             1 S1                 0.0000
     60 ****         5.4959   0.9488  -3.0289 LP             1 S1                 0.0000
     61 ****         2.7621  -2.8979  -3.2143 LP             1 S1                 0.0000
     62 ****         3.9779  -3.5858  -4.0600 LP             1 S1                 0.0000
     63 ****        -4.0507   0.6857   3.3192 LP             1 S1                 0.0000
     64 ****        -5.2753   0.2471   2.3320 LP             1 S1                 0.0000
@<TRIPOS>BOND
    1    1    2 1     
    2    1   28 1     
    3    1   29 1     
    4    1   30 1     
    5    2   27 1     
    6    2    3 1     
    7    2   31 1     
    8    3    4 1     
    9    3   32 1     
   10    3   33 1     
   11    4    5 1     
   12    4   22 1     
   13    5   10 ar    
   14    5    6 ar    
   15    6    7 ar    
   16    7    8 ar    
   17    7   34 1     
   18    8    9 ar    
   19    9   13 1     
   20    9   10 ar    
   21   10   11 1     
   22   11   12 2     
   23   12   13 1     
   24   12   35 1     
   25   13   14 1     
   26   14   15 1     
   27   14   36 1     
   28   14   37 1     
   29   15   21 1     
   30   15   16 1     
   31   15   17 1     
   32   16   38 1     
   33   17   18 1     
   34   17   39 1     
   35   17   40 1     
   36   18   19 1     
   37   18   41 1     
   38   18   42 1     
   39   19   20 1     
   40   20   21 1     
   41   20   43 1     
   42   20   44 1     
   43   21   45 1     
   44   21   46 1     
   45   22   23 1     
   46   22   47 1     
   47   22   48 1     
   48   23   24 1     
   49   23   27 1     
   50   23   49 1     
   51   24   26 1     
   52   24   25 1     
   53   24   50 1     
   54   25   26 1     
   55   25   51 1     
   56   25   52 1     
   57   26   53 1     
   58   26   54 1     
   59    4   55 1     
   60    6   56 1     
   61    8   57 1     
   62   11   58 1     
   63   16   59 1     
   64   16   60 1     
   65   19   61 1     
   66   19   62 1     
   67   27   63 1     
   68   27   64 1     
@<TRIPOS>SUBSTRUCTURE
      1 S1             1
@<TRIPOS>SET
LONE_PAIRS      STATIC     ATOMS    <user>   **** ""
10 55 56 57 58 59 60 61 62 63 64
DONOR_HYDROGENS      STATIC     ATOMS    <user>   **** ""
1 38
ATOM$BLUE        STATIC     ATOMS    COLORGROUP SYSTEM
10 55 56 57 58 59 60 61 62 63 64
ATOM$RED        STATIC     ATOMS    COLORGROUP SYSTEM
1 38
