AV-unprocessed.smi:986|AV-procd|sdf|4320|dock10
  -GOLD-   22720 2223D 1   1.00000     0.00000
 Structure written by MMmdl.
 31 31  0  0  0  0  0  0  0  0  1 V2000
  148.6891  140.0310  154.7954 C   0  0  0  0  0  0  0  0  0  0  0  0
  148.0147  140.8340  153.6717 C   0  0  0  0  0  0  0  0  0  0  0  0
  146.8266  141.6499  154.1979 C   0  0  0  0  0  0  0  0  0  0  0  0
  147.5523  139.9439  152.6130 N   0  0  0  0  0  0  0  0  0  0  0  0
  146.6419  138.9626  152.7452 C   0  0  0  0  0  0  0  0  0  0  0  0
  146.0895  138.7052  153.8142 O   0  0  0  0  0  0  0  0  0  0  0  0
  146.2868  138.1298  151.5016 C   0  0  0  0  0  0  0  0  0  0  0  0
  146.4953  136.6910  151.6626 N   0  0  0  0  0  0  0  0  0  0  0  0
  145.5734  135.7416  151.4333 C   0  0  0  0  0  0  0  0  0  0  0  0
  144.4071  135.9867  151.1278 O   0  0  0  0  0  0  0  0  0  0  0  0
  146.0513  134.2934  151.5346 C   0  0  0  0  0  0  0  0  0  0  0  0
  145.0846  133.3932  150.9310 N   0  0  0  0  0  0  0  0  0  0  0  0
  145.2422  132.4394  150.0110 C   0  0  0  0  0  0  0  0  0  0  0  0
  144.1160  131.8250  149.6776 N   0  0  0  0  0  0  0  0  0  0  0  0
  143.2429  132.4937  150.4882 C   0  0  0  0  0  0  0  0  0  0  0  0
  143.7715  133.4458  151.2570 N   0  0  0  0  0  0  0  0  0  0  0  0
  149.0361  140.6894  155.5921 H   0  0  0  0  0  0  0  0  0  0  0  0
  149.5554  139.4810  154.4265 H   0  0  0  0  0  0  0  0  0  0  0  0
  147.9998  139.3100  155.2362 H   0  0  0  0  0  0  0  0  0  0  0  0
  148.7426  141.5318  153.2535 H   0  0  0  0  0  0  0  0  0  0  0  0
  147.1444  142.3537  154.9676 H   0  0  0  0  0  0  0  0  0  0  0  0
  146.0640  141.0035  154.6336 H   0  0  0  0  0  0  0  0  0  0  0  0
  146.3582  142.2254  153.3988 H   0  0  0  0  0  0  0  0  0  0  0  0
  147.9496  140.0905  151.6965 H   0  0  0  0  0  0  0  0  0  0  0  0
  145.2349  138.2943  151.2668 H   0  0  0  0  0  0  0  0  0  0  0  0
  146.8552  138.5028  150.6480 H   0  0  0  0  0  0  0  0  0  0  0  0
  147.4265  136.3955  151.9167 H   0  0  0  0  0  0  0  0  0  0  0  0
  147.0100  134.1767  151.0274 H   0  0  0  0  0  0  0  0  0  0  0  0
  146.2012  134.0167  152.5793 H   0  0  0  0  0  0  0  0  0  0  0  0
  146.1980  132.1952  149.5708 H   0  0  0  0  0  0  0  0  0  0  0  0
  142.1854  132.2748  150.5097 H   0  0  0  0  0  0  0  0  0  0  0  0
  1  2  1  0  0  0  0
  1 17  1  0  0  0  0
  1 18  1  0  0  0  0
  1 19  1  0  0  0  0
  2  3  1  0  0  0  0
  2  4  1  0  0  0  0
  2 20  1  0  0  0  0
  3 21  1  0  0  0  0
  3 22  1  0  0  0  0
  3 23  1  0  0  0  0
  4  5  1  0  0  0  0
  4 24  1  0  0  0  0
  5  6  2  0  0  0  0
  5  7  1  0  0  0  0
  7  8  1  0  0  0  0
  7 25  1  0  0  0  0
  7 26  1  0  0  0  0
  8  9  1  0  0  0  0
  8 27  1  0  0  0  0
  9 10  2  0  0  0  0
  9 11  1  0  0  0  0
 11 12  1  0  0  0  0
 11 28  1  0  0  0  0
 11 29  1  0  0  0  0
 12 16  1  0  0  0  0
 12 13  1  0  0  0  0
 13 14  2  0  0  0  0
 13 30  1  0  0  0  0
 14 15  1  0  0  0  0
 15 16  2  0  0  0  0
 15 31  1  0  0  0  0
M  END
> <s_m_source_file>
AV-unprocessed.smi

> <i_m_source_file_index>
986

> <i_lp_mmshare_version>
43012

> <i_f3d_flags>
0

> <s_epik_input>
W0NIM11bQ0hdKFtDSDNdKVtOSF1DKD1PKVtDSDJdW05IXUMoPU8pW0NIMl1uMVtjSF1uW2NIXW4x

> <s_epik_cmdline>
J2VwaWtfcHl0aG9uJywgJy1waCcsICc3LjAnLCAnLXRuJywgJzgnLCAnLW1hJywgJzIwMCcsICctbWV0YWxfYmluZGluZycsICctaW1hZScsICc8aW5maWxlLm1hZT4nLCAnLW9tYWUnLCAnPG91dGZpbGUubWFlPic=

> <r_lp_tautomer_probability>
1

> <r_epik_Ionization_Penalty>
7.25916e-06

> <r_epik_Ionization_Penalty_Charging>
0

> <r_epik_Ionization_Penalty_Neutral>
7.25916e-06

> <r_epik_State_Penalty>
-0

> <r_epik_Charging_Adjusted_Penalty>
0

> <i_epik_Tot_Q>
0

> <i_epik_Tot_abs_Q>
0

> <r_epik_Metal_State_Penalty>
-0

> <b_epik_Metal_Only>
0

> <s_lp_Force_Field>
OPLS_2005

> <r_lp_Energy>
0.116245

> <b_lp_Chiralities_Consistent>
1

> <s_lp_Variant>
AV-unprocessed.smi:986-1

> <Gold.Version>
5.8.1

> <Gold.Id.Protein>
6NUR|6NUR_protein|mol2

> <Gold.PLP.Fitness>
38.3181

> <Gold.PLP.PLP>
-27.2668

> <Gold.PLP.part.hbond>
-2.5154

> <Gold.PLP.part.metal>
0.0000

> <Gold.PLP.part.buried>
-2.7561

> <Gold.PLP.part.nonpolar>
-25.4961

> <Gold.PLP.part.repulsive>
2.1474

> <Gold.PLP.ligand.clash>
0.0000

> <Gold.PLP.ligand.torsion>
0.2813

> <Gold.PLP.Chemscore.Hbond>
2.2969

> <Gold.PLP.Chemscore.CHOScore>
1.5674

> <Gold.PLP.Chemscore.Metal>
0.0000

> <Gold.Chemscore.Hbonds>
donor molecule, donor type, donor heavy atom, donor atom, acceptor molecule, acceptor atom, score
      L1  H     4    24       P1  7957  0.64
      L1  H     8    27       P1  7948  0.96
      P1  H 10785 10796       L1    14  0.53
      L1  C    15    31       P1 10186  0.41
      L1  C    15    31       P1 10952  1.00

> <Gold.PLP.Chemscore.Internal.Correction>
0.0207

> <Gold.Rescore>
     Score         DG    S(hbond)    S(metal)    S(lipo)     H(rot)  DE(clash)    DE(int)     intcor
      6.26      -9.33       2.35        0.00      32.14       3.03       0.38       2.70       ----

> <Gold.Chemscore.Fitness>
6.2550

> <Gold.Chemscore.DG>
-9.3332

> <Gold.Chemscore.ZeroCoef>
-5.4800

> <Gold.Chemscore.Hbond>
2.3526

> <Gold.Chemscore.Metal>
0.0000

> <Gold.Chemscore.Lipo>
32.1361

> <Gold.Chemscore.Internal_Hbond>
0.0000

> <Gold.Chemscore.DEClash>
0.3796

> <Gold.Chemscore.DEInternal>
2.6987

> <Gold.Chemscore.Rot>
3.0329

> <Gold.Chemscore.Internal.Correction>
   9.000000E+99

> <Gold.Chemscore.Hbonds>
donor molecule, donor type, donor heavy atom, donor atom, acceptor molecule, acceptor atom, score
      L1  H     4    24       P1  7957  0.64
      L1  H     8    27       P1  7948  0.91
      P1  H 10785 10796       L1    14  0.43

> <Gold.Chemscore.Hbond.Weighted>
-7.8576

> <Gold.Chemscore.Metal.Weighted>
-0.0000

> <Gold.Chemscore.Lipo.Weighted>
-3.7599

> <Gold.Chemscore.Internal_Hbond.Weighted>
0.0000

> <Gold.Chemscore.DEClash.Weighted>
0.3796

> <Gold.Chemscore.DEInternal.Weighted>
2.6987

> <Gold.Chemscore.Rot.Weighted>
7.7643

> <Gold.Chemscore.Internal.Correction.Weighted>
   9.000000E+99

> <Gold.Protein.RotatedTorsions>
[ 6907 6896 6895 6894 ] final  -14.62 input  -60.11 | X-H torsion
[ 7974 7965 7964 7962 ] final  104.42 input  175.53 | X-H torsion
[ 8008 7997 7996 7995 ] final  -90.30 input   59.86 | X-H torsion
[ 10167 10162 10161 10158 ] final   47.79 input  -65.29 | X-H torsion
[ 10718 10713 10712 10709 ] final -140.51 input   66.30 | X-H torsion
[ 10763 10752 10751 10750 ] final  124.38 input  -60.55 | X-H torsion
[ 11005 11000 10999 10996 ] final  -37.11 input  -57.11 | X-H torsion

> <Gold.Protein.ActiveResidues>
 VAL166  LYS551  ARG553  GLY616  TRP617  ASP618  TYR619  PRO620  LYS621  CYS622 
 ASP623  PHE694  ASN695  SER759  ASP760  ASP761  ALA762  ILE779  LEU786  VAL792 
 PHE793  MET794  SER795  GLU796  ALA797  LYS798  CYS799  TRP800  GLU811  SER814 

> <Gold.Protein.RotatedAtoms>
  151.3366  135.0854  159.9356 H   0  0  0  0  0  0  0  0  0  0  0  0  # atno 6907 bound_to 6896
  152.5222  133.9489  159.7673 H   0  0  0  0  0  0  0  0  0  0  0  0  # atno 6908 bound_to 6896
  150.9838  133.6165  159.2748 H   0  0  0  0  0  0  0  0  0  0  0  0  # atno 6909 bound_to 6896
  145.3330  139.2482  143.3650 H   0  0  0  0  0  0  0  0  0  0  0  0  # atno 7974 bound_to 7965
  154.6969  140.0532  157.0419 H   0  0  0  0  0  0  0  0  0  0  0  0  # atno 8008 bound_to 7997
  155.0739  140.3202  155.4603 H   0  0  0  0  0  0  0  0  0  0  0  0  # atno 8009 bound_to 7997
  156.2747  140.2077  156.5866 H   0  0  0  0  0  0  0  0  0  0  0  0  # atno 8010 bound_to 7997
  140.3000  144.2945  150.6221 H   0  0  0  0  0  0  0  0  0  0  0  0  # atno 10167 bound_to 10162
  156.3231  130.7545  151.1647 H   0  0  0  0  0  0  0  0  0  0  0  0  # atno 10718 bound_to 10713
  153.6605  135.3347  155.3126 H   0  0  0  0  0  0  0  0  0  0  0  0  # atno 10763 bound_to 10752
  154.8516  135.4362  154.1809 H   0  0  0  0  0  0  0  0  0  0  0  0  # atno 10764 bound_to 10752
  153.2775  135.7006  153.7494 H   0  0  0  0  0  0  0  0  0  0  0  0  # atno 10765 bound_to 10752
  140.9926  133.6996  156.1878 H   0  0  0  0  0  0  0  0  0  0  0  0  # atno 11005 bound_to 11000
  146.3038  140.3912  142.8694 LP  0  0  0  0  0  0  0  0  0  0  0  0  # atno 17320 bound_to 7965
  144.8849  140.7449  143.5963 LP  0  0  0  0  0  0  0  0  0  0  0  0  # atno 17321 bound_to 7965
  140.5659  143.2186  151.7684 LP  0  0  0  0  0  0  0  0  0  0  0  0  # atno 17342 bound_to 10162
  139.4917  144.4284  151.9899 LP  0  0  0  0  0  0  0  0  0  0  0  0  # atno 17343 bound_to 10162
  157.7416  131.0502  150.5087 LP  0  0  0  0  0  0  0  0  0  0  0  0  # atno 17370 bound_to 10713
  156.5242  130.4169  149.6235 LP  0  0  0  0  0  0  0  0  0  0  0  0  # atno 17371 bound_to 10713
  140.7015  134.4559  157.5586 LP  0  0  0  0  0  0  0  0  0  0  0  0  # atno 17394 bound_to 11000
  139.9000  134.8579  156.1939 LP  0  0  0  0  0  0  0  0  0  0  0  0  # atno 17395 bound_to 11000

$$$$
