AV-unprocessed.smi:1244|AV-procd|sdf|5238|dock9
  -GOLD-   22720 4343D 1   1.00000     0.00000
 Structure written by MMmdl.
 55 57  0  0  0  0  0  0  0  0  4 V2000
  145.1343  133.6395  150.6238 C   0  0  0  0  0  0  0  0  0  0  0  0
  146.0940  132.5905  151.1961 C   0  0  1  0  0  0  0  0  0  0  0  0
  147.2157  133.2322  152.0321 C   0  0  0  0  0  0  0  0  0  0  0  0
  148.0684  132.1869  152.6454 N   0  3  1  0  0  0  0  0  0  0  0  0
  149.2435  132.7475  153.3644 C   0  0  0  0  0  0  0  0  0  0  0  0
  148.8560  133.9203  154.2880 C   0  0  0  0  0  0  0  0  0  0  0  0
  150.0621  134.5607  154.8114 N   0  5  0  0  0  0  0  0  0  0  0  0
  150.3172  135.8956  154.7680 C   0  0  0  0  0  0  0  0  0  0  0  0
  151.4190  136.4553  154.7911 O   0  0  0  0  0  0  0  0  0  0  0  0
  149.1856  136.6184  154.7087 N   0  0  0  0  0  0  0  0  0  0  0  0
  149.0138  138.0315  154.6768 C   0  0  0  0  0  0  0  0  0  0  0  0
  150.1268  138.9096  154.6275 C   0  0  0  0  0  0  0  0  0  0  0  0
  149.9253  140.3023  154.6157 C   0  0  0  0  0  0  0  0  0  0  0  0
  148.6114  140.7986  154.6453 C   0  0  0  0  0  0  0  0  0  0  0  0
  147.5728  139.9384  154.6663 N   0  3  0  0  0  0  0  0  0  0  0  0
  147.7004  138.5874  154.6645 C   0  0  0  0  0  0  0  0  0  0  0  0
  146.5120  137.8197  154.6725 N   0  0  0  0  0  0  0  0  0  0  0  0
  145.2257  138.4507  154.9431 C   0  0  0  0  0  0  0  0  0  0  0  0
  144.1818  137.4064  154.5570 C   0  0  0  0  0  0  0  0  0  0  0  0
  144.8362  136.7126  153.3665 C   0  0  0  0  0  0  0  0  0  0  0  0
  146.3302  136.7420  153.7049 C   0  0  0  0  0  0  0  0  0  0  0  0
  147.2366  131.2705  153.4691 C   0  0  0  0  0  0  0  0  0  0  0  0
  146.0914  130.6645  152.6358 C   0  0  2  0  0  0  0  0  0  0  0  0
  146.5617  129.5993  151.6288 C   0  0  0  0  0  0  0  0  0  0  0  0
  145.3348  131.7032  152.0137 O   0  0  0  0  0  0  0  0  0  0  0  0
  145.6601  134.3413  149.9761 H   0  0  0  0  0  0  0  0  0  0  0  0
  144.6556  134.2121  151.4187 H   0  0  0  0  0  0  0  0  0  0  0  0
  144.3483  133.1680  150.0335 H   0  0  0  0  0  0  0  0  0  0  0  0
  146.5287  132.0401  150.3615 H   0  0  0  0  0  0  0  0  0  0  0  0
  147.8224  133.8735  151.3910 H   0  0  0  0  0  0  0  0  0  0  0  0
  146.7960  133.8650  152.8159 H   0  0  0  0  0  0  0  0  0  0  0  0
  149.6951  131.9697  153.9825 H   0  0  0  0  0  0  0  0  0  0  0  0
  150.0121  133.0467  152.6499 H   0  0  0  0  0  0  0  0  0  0  0  0
  148.2534  134.6314  153.7228 H   0  0  0  0  0  0  0  0  0  0  0  0
  148.1996  133.5514  155.0776 H   0  0  0  0  0  0  0  0  0  0  0  0
  148.3355  136.0817  154.7969 H   0  0  0  0  0  0  0  0  0  0  0  0
  151.1385  138.5355  154.5918 H   0  0  0  0  0  0  0  0  0  0  0  0
  150.7675  140.9779  154.5851 H   0  0  0  0  0  0  0  0  0  0  0  0
  148.3596  141.8489  154.6427 H   0  0  0  0  0  0  0  0  0  0  0  0
  145.1363  138.7458  155.9889 H   0  0  0  0  0  0  0  0  0  0  0  0
  145.1032  139.3386  154.3216 H   0  0  0  0  0  0  0  0  0  0  0  0
  144.0447  136.6951  155.3727 H   0  0  0  0  0  0  0  0  0  0  0  0
  143.2112  137.8422  154.3184 H   0  0  0  0  0  0  0  0  0  0  0  0
  144.4594  135.7031  153.2012 H   0  0  0  0  0  0  0  0  0  0  0  0
  144.6541  137.2917  152.4602 H   0  0  0  0  0  0  0  0  0  0  0  0
  146.9359  136.8853  152.8090 H   0  0  0  0  0  0  0  0  0  0  0  0
  146.6246  135.8011  154.1703 H   0  0  0  0  0  0  0  0  0  0  0  0
  147.8448  130.4722  153.8955 H   0  0  0  0  0  0  0  0  0  0  0  0
  146.8204  131.8281  154.3097 H   0  0  0  0  0  0  0  0  0  0  0  0
  145.4085  130.1661  153.3243 H   0  0  0  0  0  0  0  0  0  0  0  0
  147.0191  128.7552  152.1455 H   0  0  0  0  0  0  0  0  0  0  0  0
  147.3013  129.9874  150.9289 H   0  0  0  0  0  0  0  0  0  0  0  0
  145.7220  129.2143  151.0499 H   0  0  0  0  0  0  0  0  0  0  0  0
  148.4442  131.6446  151.8804 H   0  0  0  0  0  0  0  0  0  0  0  0
  146.6307  140.3289  154.6754 H   0  0  0  0  0  0  0  0  0  0  0  0
  1  2  1  0  0  0  0
  1 26  1  0  0  0  0
  1 27  1  0  0  0  0
  1 28  1  0  0  0  0
  2 25  1  0  0  0  0
  2  3  1  0  0  0  0
  2 29  1  0  0  0  0
  3  4  1  0  0  0  0
  3 30  1  0  0  0  0
  3 31  1  0  0  0  0
  4  5  1  0  0  0  0
  4 22  1  0  0  0  0
  4 54  1  0  0  0  0
  5  6  1  0  0  0  0
  5 32  1  0  0  0  0
  5 33  1  0  0  0  0
  6  7  1  0  0  0  0
  6 34  1  0  0  0  0
  6 35  1  0  0  0  0
  7  8  1  0  0  0  0
  8  9  2  0  0  0  0
  8 10  1  0  0  0  0
 10 11  1  0  0  0  0
 10 36  1  0  0  0  0
 11 16  1  0  0  0  0
 11 12  2  0  0  0  0
 12 13  1  0  0  0  0
 12 37  1  0  0  0  0
 13 14  2  0  0  0  0
 13 38  1  0  0  0  0
 14 15  1  0  0  0  0
 14 39  1  0  0  0  0
 15 16  2  0  0  0  0
 15 55  1  0  0  0  0
 16 17  1  0  0  0  0
 17 21  1  0  0  0  0
 17 18  1  0  0  0  0
 18 19  1  0  0  0  0
 18 40  1  0  0  0  0
 18 41  1  0  0  0  0
 19 20  1  0  0  0  0
 19 42  1  0  0  0  0
 19 43  1  0  0  0  0
 20 21  1  0  0  0  0
 20 44  1  0  0  0  0
 20 45  1  0  0  0  0
 21 46  1  0  0  0  0
 21 47  1  0  0  0  0
 22 23  1  0  0  0  0
 22 48  1  0  0  0  0
 22 49  1  0  0  0  0
 23 24  1  0  0  0  0
 23 25  1  0  0  0  0
 23 50  1  0  0  0  0
 24 51  1  0  0  0  0
 24 52  1  0  0  0  0
 24 53  1  0  0  0  0
M  CHG  1   4   1
M  CHG  1   7  -1
M  CHG  1  15   1
M  END
> <s_m_source_file>
AV-unprocessed.smi

> <i_m_source_file_index>
1244

> <i_lp_mmshare_version>
43012

> <i_f3d_flags>
0

> <s_epik_input>
W0NIM11bQ0BASF0xW0NIMl1OKFtDSDJdW0NASF0oTzEpW0NIM10pW0NIMl1bQ0gyXVtOSF1DKD1PKVtOSF1jMltjSF1bY0hdW2NIXW5jMk4zW0NIMl1bQ0gyXVtDSDJdW0NIMl0z

> <s_epik_cmdline>
J2VwaWtfcHl0aG9uJywgJy1waCcsICc3LjAnLCAnLXRuJywgJzgnLCAnLW1hJywgJzIwMCcsICctbWV0YWxfYmluZGluZycsICctaW1hZScsICc8aW5maWxlLm1hZT4nLCAnLW9tYWUnLCAnPG91dGZpbGUubWFlPic=

> <r_lp_tautomer_probability>
0.999994

> <r_epik_Ionization_Penalty>
8.60539

> <r_epik_Ionization_Penalty_Charging>
8.60539

> <r_epik_Ionization_Penalty_Neutral>
3.60441e-06

> <r_epik_State_Penalty>
8.59967

> <r_epik_Charging_Adjusted_Penalty>
17.2051

> <i_epik_Tot_Q>
1

> <i_epik_Tot_abs_Q>
3

> <r_epik_Metal_State_Penalty>
4.59489

> <b_epik_Metal_Only>
1

> <s_lp_Force_Field>
OPLS_2005

> <r_lp_Energy>
46.9431

> <b_lp_Chiralities_Consistent>
1

> <s_lp_Variant>
AV-unprocessed.smi:1244-18

> <Gold.Version>
5.8.1

> <Gold.Id.Protein>
6NUR|6NUR_protein|mol2

> <Gold.PLP.Fitness>
40.1652

> <Gold.PLP.PLP>
-34.7461

> <Gold.PLP.part.hbond>
-3.0000

> <Gold.PLP.part.metal>
0.0000

> <Gold.PLP.part.buried>
-2.7599

> <Gold.PLP.part.nonpolar>
-29.3114

> <Gold.PLP.part.repulsive>
0.4383

> <Gold.PLP.ligand.clash>
0.0000

> <Gold.PLP.ligand.torsion>
0.8048

> <Gold.PLP.Chemscore.Hbond>
2.0000

> <Gold.PLP.Chemscore.CHOScore>
0.0000

> <Gold.PLP.Chemscore.Metal>
0.0000

> <Gold.Chemscore.Hbonds>
donor molecule, donor type, donor heavy atom, donor atom, acceptor molecule, acceptor atom, score
      L1  H     4    54       P1 10747  1.00
      P1  H 10752 10765       L1     9  1.00

> <Gold.PLP.Chemscore.Internal.Correction>
1.0288

> <Gold.Rescore>
     Score         DG    S(hbond)    S(metal)    S(lipo)     H(rot)  DE(clash)    DE(int)     intcor
     16.18     -18.78       2.00        0.00      87.78       1.42       0.17       2.43       ----

> <Gold.Chemscore.Fitness>
16.1821

> <Gold.Chemscore.DG>
-18.7842

> <Gold.Chemscore.ZeroCoef>
-5.4800

> <Gold.Chemscore.Hbond>
1.9956

> <Gold.Chemscore.Metal>
0.0000

> <Gold.Chemscore.Lipo>
87.7781

> <Gold.Chemscore.Internal_Hbond>
0.0000

> <Gold.Chemscore.DEClash>
0.1704

> <Gold.Chemscore.DEInternal>
2.4316

> <Gold.Chemscore.Rot>
1.4185

> <Gold.Chemscore.Internal.Correction>
   9.000000E+99

> <Gold.Chemscore.Hbonds>
donor molecule, donor type, donor heavy atom, donor atom, acceptor molecule, acceptor atom, score
      L1  H     4    54       P1 10747  1.00
      P1  H 10752 10765       L1     9  0.98

> <Gold.Chemscore.Hbond.Weighted>
-6.6654

> <Gold.Chemscore.Metal.Weighted>
-0.0000

> <Gold.Chemscore.Lipo.Weighted>
-10.2700

> <Gold.Chemscore.Internal_Hbond.Weighted>
0.0000

> <Gold.Chemscore.DEClash.Weighted>
0.1704

> <Gold.Chemscore.DEInternal.Weighted>
2.4316

> <Gold.Chemscore.Rot.Weighted>
3.6313

> <Gold.Chemscore.Internal.Correction.Weighted>
   9.000000E+99

> <Gold.Protein.RotatedTorsions>
[ 6907 6896 6895 6894 ] final   -2.03 input  -60.11 | X-H torsion
[ 7974 7965 7964 7962 ] final  -32.84 input  175.53 | X-H torsion
[ 8008 7997 7996 7995 ] final    2.61 input   59.86 | X-H torsion
[ 10167 10162 10161 10158 ] final   92.48 input  -65.29 | X-H torsion
[ 10718 10713 10712 10709 ] final   18.40 input   66.30 | X-H torsion
[ 10763 10752 10751 10750 ] final  160.05 input  -60.55 | X-H torsion
[ 11005 11000 10999 10996 ] final   99.01 input  -57.11 | X-H torsion

> <Gold.Protein.ActiveResidues>
 VAL166  LYS551  ARG553  GLY616  TRP617  ASP618  TYR619  PRO620  LYS621  CYS622 
 ASP623  PHE694  ASN695  SER759  ASP760  ASP761  ALA762  ILE779  LEU786  VAL792 
 PHE793  MET794  SER795  GLU796  ALA797  LYS798  CYS799  TRP800  GLU811  SER814 

> <Gold.Protein.RotatedAtoms>
  151.5365  135.1068  159.9915 H   0  0  0  0  0  0  0  0  0  0  0  0  # atno 6907 bound_to 6896
  152.4555  133.7710  159.6809 H   0  0  0  0  0  0  0  0  0  0  0  0  # atno 6908 bound_to 6896
  150.8497  133.7741  159.3055 H   0  0  0  0  0  0  0  0  0  0  0  0  # atno 6909 bound_to 6896
  146.0958  140.5842  142.8843 H   0  0  0  0  0  0  0  0  0  0  0  0  # atno 7974 bound_to 7965
  154.6936  140.2658  155.6788 H   0  0  0  0  0  0  0  0  0  0  0  0  # atno 8008 bound_to 7997
  156.2741  140.2786  156.1446 H   0  0  0  0  0  0  0  0  0  0  0  0  # atno 8009 bound_to 7997
  155.0862  140.0373  157.2644 H   0  0  0  0  0  0  0  0  0  0  0  0  # atno 8010 bound_to 7997
  139.8272  144.6704  150.9444 H   0  0  0  0  0  0  0  0  0  0  0  0  # atno 10167 bound_to 10162
  157.0958  130.6447  149.5860 H   0  0  0  0  0  0  0  0  0  0  0  0  # atno 10718 bound_to 10713
  154.2414  135.2774  155.2852 H   0  0  0  0  0  0  0  0  0  0  0  0  # atno 10763 bound_to 10752
  154.5542  135.5666  153.6952 H   0  0  0  0  0  0  0  0  0  0  0  0  # atno 10764 bound_to 10752
  152.9999  135.6282  154.2558 H   0  0  0  0  0  0  0  0  0  0  0  0  # atno 10765 bound_to 10752
  139.8771  134.9076  156.4542 H   0  0  0  0  0  0  0  0  0  0  0  0  # atno 11005 bound_to 11000
  144.7394  140.4901  143.6880 LP  0  0  0  0  0  0  0  0  0  0  0  0  # atno 17320 bound_to 7965
  145.5950  139.1499  143.3161 LP  0  0  0  0  0  0  0  0  0  0  0  0  # atno 17321 bound_to 7965
  140.7809  143.4035  151.1110 LP  0  0  0  0  0  0  0  0  0  0  0  0  # atno 17342 bound_to 10162
  139.7691  143.8521  152.3117 LP  0  0  0  0  0  0  0  0  0  0  0  0  # atno 17343 bound_to 10162
  155.9886  130.4930  150.7177 LP  0  0  0  0  0  0  0  0  0  0  0  0  # atno 17370 bound_to 10713
  157.4682  131.0890  151.0671 LP  0  0  0  0  0  0  0  0  0  0  0  0  # atno 17371 bound_to 10713
  140.8910  133.7848  155.9572 LP  0  0  0  0  0  0  0  0  0  0  0  0  # atno 17394 bound_to 11000
  140.8754  134.2676  157.5171 LP  0  0  0  0  0  0  0  0  0  0  0  0  # atno 17395 bound_to 11000

$$$$
