AV-unprocessed.smi:2229|AV-procd|sdf|9030|dock3
  -GOLD-   2272012233D 1   1.00000     0.00000
 Structure written by MMmdl.
 44 45  0  0  0  0  0  0  0  0  1 V2000
  151.2133  144.8239  160.2271 C   0  0  0  0  0  0  0  0  0  0  0  0
  152.2462  144.1129  159.3364 C   0  0  0  0  0  0  0  0  0  0  0  0
  151.9331  144.3651  157.8533 C   0  0  0  0  0  0  0  0  0  0  0  0
  152.3365  142.5999  159.6248 C   0  0  0  0  0  0  0  0  0  0  0  0
  153.6859  142.1496  160.2153 C   0  0  0  0  0  0  0  0  0  0  0  0
  154.0015  140.6644  159.9564 C   0  0  1  0  0  0  0  0  0  0  0  0
  154.5004  139.8999  161.1883 C   0  0  0  0  0  0  0  0  0  0  0  0
  154.2138  138.4385  160.8624 C   0  0  0  0  0  0  0  0  0  0  0  0
  152.8733  138.4720  160.1288 C   0  0  0  0  0  0  0  0  0  0  0  0
  152.7835  139.8577  159.4543 C   0  0  2  0  0  0  0  0  0  0  0  0
  152.7966  139.7528  157.9971 N   0  0  0  0  0  0  0  0  0  0  0  0
  151.8148  140.1719  157.1847 C   0  0  0  0  0  0  0  0  0  0  0  0
  150.7851  140.7109  157.5928 O   0  0  0  0  0  0  0  0  0  0  0  0
  152.0458  139.9697  155.6819 C   0  0  0  0  0  0  0  0  0  0  0  0
  150.9259  139.2924  155.0262 N   0  0  0  0  0  0  0  0  0  0  0  0
  149.6818  139.8633  154.8602 C   0  0  0  0  0  0  0  0  0  0  0  0
  148.8628  139.0661  154.2632 N   0  0  0  0  0  0  0  0  0  0  0  0
  149.6233  137.9645  154.0547 N   0  0  0  0  0  0  0  0  0  0  0  0
  150.8741  138.0694  154.5061 C   0  0  0  0  0  0  0  0  0  0  0  0
  151.7688  137.2277  154.4499 O   0  0  0  0  0  0  0  0  0  0  0  0
  149.2166  137.1640  153.5923 H   0  0  0  0  0  0  0  0  0  0  0  0
  150.2173  144.4006  160.0939 H   0  0  0  0  0  0  0  0  0  0  0  0
  151.1563  145.8856  159.9865 H   0  0  0  0  0  0  0  0  0  0  0  0
  151.4699  144.7506  161.2834 H   0  0  0  0  0  0  0  0  0  0  0  0
  153.2230  144.5540  159.5389 H   0  0  0  0  0  0  0  0  0  0  0  0
  150.9671  143.9430  157.5748 H   0  0  0  0  0  0  0  0  0  0  0  0
  152.6902  143.9184  157.2081 H   0  0  0  0  0  0  0  0  0  0  0  0
  151.9059  145.4326  157.6323 H   0  0  0  0  0  0  0  0  0  0  0  0
  151.5254  142.3039  160.2914 H   0  0  0  0  0  0  0  0  0  0  0  0
  152.1707  142.0604  158.6918 H   0  0  0  0  0  0  0  0  0  0  0  0
  154.4885  142.7706  159.8154 H   0  0  0  0  0  0  0  0  0  0  0  0
  153.6822  142.3140  161.2926 H   0  0  0  0  0  0  0  0  0  0  0  0
  154.7906  140.6055  159.2037 H   0  0  0  0  0  0  0  0  0  0  0  0
  155.5562  140.0773  161.3948 H   0  0  0  0  0  0  0  0  0  0  0  0
  153.9331  140.1958  162.0719 H   0  0  0  0  0  0  0  0  0  0  0  0
  154.9873  138.0530  160.1969 H   0  0  0  0  0  0  0  0  0  0  0  0
  154.1912  137.8056  161.7499 H   0  0  0  0  0  0  0  0  0  0  0  0
  152.7788  137.6395  159.4299 H   0  0  0  0  0  0  0  0  0  0  0  0
  152.0620  138.3732  160.8511 H   0  0  0  0  0  0  0  0  0  0  0  0
  151.8593  140.3447  159.7725 H   0  0  0  0  0  0  0  0  0  0  0  0
  153.6106  139.3264  157.5785 H   0  0  0  0  0  0  0  0  0  0  0  0
  152.2272  140.9432  155.2234 H   0  0  0  0  0  0  0  0  0  0  0  0
  152.9517  139.3817  155.5241 H   0  0  0  0  0  0  0  0  0  0  0  0
  149.4982  140.8756  155.2242 H   0  0  0  0  0  0  0  0  0  0  0  0
  1  2  1  0  0  0  0
  1 22  1  0  0  0  0
  1 23  1  0  0  0  0
  1 24  1  0  0  0  0
  2  3  1  0  0  0  0
  2  4  1  0  0  0  0
  2 25  1  0  0  0  0
  3 26  1  0  0  0  0
  3 27  1  0  0  0  0
  3 28  1  0  0  0  0
  4  5  1  0  0  0  0
  4 29  1  0  0  0  0
  4 30  1  0  0  0  0
  5  6  1  0  0  0  0
  5 31  1  0  0  0  0
  5 32  1  0  0  0  0
  6 10  1  0  0  0  0
  6  7  1  0  0  0  0
  6 33  1  0  0  0  0
  7  8  1  0  0  0  0
  7 34  1  0  0  0  0
  7 35  1  0  0  0  0
  8  9  1  0  0  0  0
  8 36  1  0  0  0  0
  8 37  1  0  0  0  0
  9 10  1  0  0  0  0
  9 38  1  0  0  0  0
  9 39  1  0  0  0  0
 10 11  1  0  0  0  0
 10 40  1  0  0  0  0
 11 12  1  0  0  0  0
 11 41  1  0  0  0  0
 12 13  2  0  0  0  0
 12 14  1  0  0  0  0
 14 15  1  0  0  0  0
 14 42  1  0  0  0  0
 14 43  1  0  0  0  0
 15 19  1  0  0  0  0
 15 16  1  0  0  0  0
 16 17  2  0  0  0  0
 16 44  1  0  0  0  0
 17 18  1  0  0  0  0
 18 21  1  0  0  0  0
 18 19  1  0  0  0  0
 19 20  2  0  0  0  0
M  END
> <s_m_source_file>
AV-unprocessed.smi

> <i_m_source_file_index>
2229

> <i_lp_mmshare_version>
43012

> <i_f3d_flags>
0

> <s_epik_input>
W0NIM11bQ0hdKFtDSDNdKVtDSDJdW0NIMl1bQ0BASF0xW0NIMl1bQ0gyXVtDSDJdW0NASF0xW05IXUMoPU8pW0NIMl1uMltjSF1uW25IXWMyPU8=

> <s_epik_cmdline>
J2VwaWtfcHl0aG9uJywgJy1waCcsICc3LjAnLCAnLXRuJywgJzgnLCAnLW1hJywgJzIwMCcsICctbWV0YWxfYmluZGluZycsICctaW1hZScsICc8aW5maWxlLm1hZT4nLCAnLW9tYWUnLCAnPG91dGZpbGUubWFlPic=

> <r_lp_tautomer_probability>
1

> <r_epik_Ionization_Penalty>
4.14174e-05

> <r_epik_Ionization_Penalty_Charging>
4.13165e-05

> <r_epik_Ionization_Penalty_Neutral>
1.00911e-07

> <r_epik_State_Penalty>
-0

> <r_epik_Charging_Adjusted_Penalty>
4.13165e-05

> <i_epik_Tot_Q>
0

> <i_epik_Tot_abs_Q>
0

> <r_epik_Metal_State_Penalty>
0.0399369

> <b_epik_Metal_Only>
0

> <s_lp_Force_Field>
OPLS_2005

> <r_lp_Energy>
37.2399

> <b_lp_Chiralities_Consistent>
1

> <s_lp_Variant>
AV-unprocessed.smi:2229-4

> <Gold.Version>
5.8.1

> <Gold.Id.Protein>
6NUR|6NUR_protein|mol2

> <Gold.PLP.Fitness>
48.1007

> <Gold.PLP.PLP>
-45.3870

> <Gold.PLP.part.hbond>
-2.0000

> <Gold.PLP.part.metal>
0.0000

> <Gold.PLP.part.buried>
-4.3812

> <Gold.PLP.part.nonpolar>
-39.2084

> <Gold.PLP.part.repulsive>
1.7453

> <Gold.PLP.ligand.clash>
0.0000

> <Gold.PLP.ligand.torsion>
1.6707

> <Gold.PLP.Chemscore.Hbond>
1.9920

> <Gold.PLP.Chemscore.CHOScore>
0.0000

> <Gold.PLP.Chemscore.Metal>
0.0000

> <Gold.Chemscore.Hbonds>
donor molecule, donor type, donor heavy atom, donor atom, acceptor molecule, acceptor atom, score
      L1  H    18    21       P1  7948  0.90
      P1  H 10752 10765       L1    20  1.00

> <Gold.PLP.Chemscore.Internal.Correction>
0.0790

> <Gold.Rescore>
     Score         DG    S(hbond)    S(metal)    S(lipo)     H(rot)  DE(clash)    DE(int)     intcor
     13.95     -16.03       1.67        0.00     100.31       2.64       0.39       1.69       ----

> <Gold.Chemscore.Fitness>
13.9466

> <Gold.Chemscore.DG>
-16.0288

> <Gold.Chemscore.ZeroCoef>
-5.4800

> <Gold.Chemscore.Hbond>
1.6653

> <Gold.Chemscore.Metal>
0.0000

> <Gold.Chemscore.Lipo>
100.3146

> <Gold.Chemscore.Internal_Hbond>
0.0000

> <Gold.Chemscore.DEClash>
0.3926

> <Gold.Chemscore.DEInternal>
1.6897

> <Gold.Chemscore.Rot>
2.6368

> <Gold.Chemscore.Internal.Correction>
   9.000000E+99

> <Gold.Chemscore.Hbonds>
donor molecule, donor type, donor heavy atom, donor atom, acceptor molecule, acceptor atom, score
      L1  H    18    21       P1  7948  0.86
      P1  H 10752 10765       L1    20  0.96

> <Gold.Chemscore.Hbond.Weighted>
-5.5621

> <Gold.Chemscore.Metal.Weighted>
-0.0000

> <Gold.Chemscore.Lipo.Weighted>
-11.7368

> <Gold.Chemscore.Internal_Hbond.Weighted>
0.0000

> <Gold.Chemscore.DEClash.Weighted>
0.3926

> <Gold.Chemscore.DEInternal.Weighted>
1.6897

> <Gold.Chemscore.Rot.Weighted>
6.7501

> <Gold.Chemscore.Internal.Correction.Weighted>
   9.000000E+99

> <Gold.Protein.RotatedTorsions>
[ 6907 6896 6895 6894 ] final  -53.37 input  -60.11 | X-H torsion
[ 7974 7965 7964 7962 ] final   31.92 input  175.53 | X-H torsion
[ 8008 7997 7996 7995 ] final   61.32 input   59.86 | X-H torsion
[ 10167 10162 10161 10158 ] final   79.13 input  -65.29 | X-H torsion
[ 10718 10713 10712 10709 ] final   30.91 input   66.30 | X-H torsion
[ 10763 10752 10751 10750 ] final  159.80 input  -60.55 | X-H torsion
[ 11005 11000 10999 10996 ] final -119.62 input  -57.11 | X-H torsion

> <Gold.Protein.ActiveResidues>
 VAL166  LYS551  ARG553  GLY616  TRP617  ASP618  TYR619  PRO620  LYS621  CYS622 
 ASP623  PHE694  ASN695  SER759  ASP760  ASP761  ALA762  ILE779  LEU786  VAL792 
 PHE793  MET794  SER795  GLU796  ALA797  LYS798  CYS799  TRP800  GLU811  SER814 

> <Gold.Protein.RotatedAtoms>
  150.8433  134.7733  159.6949 H   0  0  0  0  0  0  0  0  0  0  0  0  # atno 6907 bound_to 6896
  152.4516  134.5379  159.9840 H   0  0  0  0  0  0  0  0  0  0  0  0  # atno 6908 bound_to 6896
  151.5514  133.3379  159.2989 H   0  0  0  0  0  0  0  0  0  0  0  0  # atno 6909 bound_to 6896
  146.1520  139.6594  142.9092 H   0  0  0  0  0  0  0  0  0  0  0  0  # atno 7974 bound_to 7965
  155.5965  140.3493  155.4581 H   0  0  0  0  0  0  0  0  0  0  0  0  # atno 8008 bound_to 7997
  156.0261  140.1264  157.0332 H   0  0  0  0  0  0  0  0  0  0  0  0  # atno 8009 bound_to 7997
  154.4334  140.1053  156.6018 H   0  0  0  0  0  0  0  0  0  0  0  0  # atno 8010 bound_to 7997
  139.9636  144.5944  150.8050 H   0  0  0  0  0  0  0  0  0  0  0  0  # atno 10167 bound_to 10162
  157.2657  130.7183  149.6477 H   0  0  0  0  0  0  0  0  0  0  0  0  # atno 10718 bound_to 10713
  154.2375  135.2776  155.2866 H   0  0  0  0  0  0  0  0  0  0  0  0  # atno 10763 bound_to 10752
  154.5573  135.5657  153.6978 H   0  0  0  0  0  0  0  0  0  0  0  0  # atno 10764 bound_to 10752
  153.0007  135.6289  154.2518 H   0  0  0  0  0  0  0  0  0  0  0  0  # atno 10765 bound_to 10752
  141.0203  134.0134  157.3292 H   0  0  0  0  0  0  0  0  0  0  0  0  # atno 11005 bound_to 11000
  145.4801  141.0438  143.2650 LP  0  0  0  0  0  0  0  0  0  0  0  0  # atno 17320 bound_to 7965
  144.7915  139.6318  143.7111 LP  0  0  0  0  0  0  0  0  0  0  0  0  # atno 17321 bound_to 7965
  140.7545  143.3029  151.3036 LP  0  0  0  0  0  0  0  0  0  0  0  0  # atno 17342 bound_to 10162
  139.6535  144.0318  152.2643 LP  0  0  0  0  0  0  0  0  0  0  0  0  # atno 17343 bound_to 10162
  155.9663  130.4383  150.5212 LP  0  0  0  0  0  0  0  0  0  0  0  0  # atno 17370 bound_to 10713
  157.3126  131.0666  151.1990 LP  0  0  0  0  0  0  0  0  0  0  0  0  # atno 17371 bound_to 10713
  139.9142  135.0194  156.7813 LP  0  0  0  0  0  0  0  0  0  0  0  0  # atno 17394 bound_to 11000
  140.6585  133.9667  155.7792 LP  0  0  0  0  0  0  0  0  0  0  0  0  # atno 17395 bound_to 11000

$$$$
