AV-unprocessed.smi:90|AV-procd|sdf|829|dock5
  -GOLD-   2262017243D 1   1.00000     0.00000
 Structure written by MMmdl.
 64 67  0  0  0  0  0  0  0  0  2 V2000
  150.5740  140.5625  155.8654 C   0  0  0  0  0  0  0  0  0  0  0  0
  150.8387  140.2695  157.2692 N   0  0  0  0  0  0  0  0  0  0  0  0
  150.7122  141.3652  158.2318 C   0  0  0  0  0  0  0  0  0  0  0  0
  151.7684  142.4675  158.0128 C   0  0  0  0  0  0  0  0  0  0  0  0
  152.3542  143.0679  159.3168 C   0  0  2  0  0  0  0  0  0  0  0  0
  152.9587  141.9612  160.2170 C   0  0  0  0  0  0  0  0  0  0  0  0
  153.5277  142.5227  161.5248 C   0  0  0  0  0  0  0  0  0  0  0  0
  152.4488  143.3186  162.2592 C   0  0  0  0  0  0  0  0  0  0  0  0
  151.8864  144.4164  161.3477 C   0  0  0  0  0  0  0  0  0  0  0  0
  151.3347  143.8525  160.0870 N   0  3  1  0  0  0  0  0  0  0  0  0
  150.6486  144.9081  159.3017 C   0  0  0  0  0  0  0  0  0  0  0  0
  150.8648  138.9708  157.6904 C   0  0  0  0  0  0  0  0  0  0  0  0
  150.6667  138.7086  159.0111 N   0  0  0  0  0  0  0  0  0  0  0  0
  150.6713  137.4555  159.4716 C   0  0  0  0  0  0  0  0  0  0  0  0
  150.8592  136.3223  158.7970 N   0  0  0  0  0  0  0  0  0  0  0  0
  151.0767  136.5653  157.4740 C   0  0  0  0  0  0  0  0  0  0  0  0
  151.0918  137.8434  156.8403 C   0  0  0  0  0  0  0  0  0  0  0  0
  151.3406  137.6780  155.4812 N   0  0  0  0  0  0  0  0  0  0  0  0
  151.4544  136.3892  155.3219 C   0  0  0  0  0  0  0  0  0  0  0  0
  151.3284  135.6435  156.4711 N   0  0  0  0  0  0  0  0  0  0  0  0
  151.4123  134.1923  156.5780 C   0  0  0  0  0  0  0  0  0  0  0  0
  150.2043  133.4090  155.9781 C   0  0  0  0  0  0  0  0  0  0  0  0
  148.9086  133.8948  156.6959 C   0  0  0  0  0  0  0  0  0  0  0  0
  148.8834  133.6983  158.0923 O   0  0  0  0  0  0  0  0  0  0  0  0
  150.1441  133.6548  154.4475 C   0  0  0  0  0  0  0  0  0  0  0  0
  149.3228  132.6060  153.6776 C   0  0  0  0  0  0  0  0  0  0  0  0
  149.8147  131.3036  153.9620 O   0  0  0  0  0  0  0  0  0  0  0  0
  149.6620  130.9490  155.3292 C   0  0  0  0  0  0  0  0  0  0  0  0
  150.4818  131.9008  156.2224 C   0  0  0  0  0  0  0  0  0  0  0  0
  149.7385  139.9694  155.4922 H   0  0  0  0  0  0  0  0  0  0  0  0
  151.4551  140.3531  155.2590 H   0  0  0  0  0  0  0  0  0  0  0  0
  150.3210  141.6137  155.7246 H   0  0  0  0  0  0  0  0  0  0  0  0
  149.7012  141.7702  158.1950 H   0  0  0  0  0  0  0  0  0  0  0  0
  150.8251  140.9516  159.2345 H   0  0  0  0  0  0  0  0  0  0  0  0
  152.5682  142.0216  157.4235 H   0  0  0  0  0  0  0  0  0  0  0  0
  151.3465  143.2660  157.4016 H   0  0  0  0  0  0  0  0  0  0  0  0
  153.1548  143.7557  159.0386 H   0  0  0  0  0  0  0  0  0  0  0  0
  152.1979  141.2124  160.4421 H   0  0  0  0  0  0  0  0  0  0  0  0
  153.7620  141.4379  159.6995 H   0  0  0  0  0  0  0  0  0  0  0  0
  153.8953  141.7131  162.1559 H   0  0  0  0  0  0  0  0  0  0  0  0
  154.3821  143.1663  161.3113 H   0  0  0  0  0  0  0  0  0  0  0  0
  151.6461  142.6513  162.5755 H   0  0  0  0  0  0  0  0  0  0  0  0
  152.8630  143.7601  163.1662 H   0  0  0  0  0  0  0  0  0  0  0  0
  151.1037  144.9530  161.8853 H   0  0  0  0  0  0  0  0  0  0  0  0
  152.6636  145.1455  161.1123 H   0  0  0  0  0  0  0  0  0  0  0  0
  151.3694  145.5748  158.8266 H   0  0  0  0  0  0  0  0  0  0  0  0
  150.0020  145.5108  159.9406 H   0  0  0  0  0  0  0  0  0  0  0  0
  150.0045  144.4821  158.5336 H   0  0  0  0  0  0  0  0  0  0  0  0
  150.5004  137.3452  160.5323 H   0  0  0  0  0  0  0  0  0  0  0  0
  151.6447  135.9450  154.3557 H   0  0  0  0  0  0  0  0  0  0  0  0
  152.3440  133.8786  156.1050 H   0  0  0  0  0  0  0  0  0  0  0  0
  151.5241  133.9456  157.6350 H   0  0  0  0  0  0  0  0  0  0  0  0
  148.7588  134.9594  156.5151 H   0  0  0  0  0  0  0  0  0  0  0  0
  148.0335  133.3845  156.2942 H   0  0  0  0  0  0  0  0  0  0  0  0
  149.7731  133.6853  158.4101 H   0  0  0  0  0  0  0  0  0  0  0  0
  149.7630  134.6537  154.2326 H   0  0  0  0  0  0  0  0  0  0  0  0
  151.1560  133.6242  154.0419 H   0  0  0  0  0  0  0  0  0  0  0  0
  148.2591  132.6712  153.9041 H   0  0  0  0  0  0  0  0  0  0  0  0
  149.4185  132.7824  152.6060 H   0  0  0  0  0  0  0  0  0  0  0  0
  148.6073  130.9330  155.5999 H   0  0  0  0  0  0  0  0  0  0  0  0
  150.0210  129.9280  155.4601 H   0  0  0  0  0  0  0  0  0  0  0  0
  151.5337  131.6934  156.0211 H   0  0  0  0  0  0  0  0  0  0  0  0
  150.3269  131.6515  157.2727 H   0  0  0  0  0  0  0  0  0  0  0  0
  150.6179  143.1965  160.3633 H   0  0  0  0  0  0  0  0  0  0  0  0
  1  2  1  0  0  0  0
  1 30  1  0  0  0  0
  1 31  1  0  0  0  0
  1 32  1  0  0  0  0
  2  3  1  0  0  0  0
  2 12  1  0  0  0  0
  3  4  1  0  0  0  0
  3 33  1  0  0  0  0
  3 34  1  0  0  0  0
  4  5  1  0  0  0  0
  4 35  1  0  0  0  0
  4 36  1  0  0  0  0
  5 10  1  0  0  0  0
  5  6  1  0  0  0  0
  5 37  1  0  0  0  0
  6  7  1  0  0  0  0
  6 38  1  0  0  0  0
  6 39  1  0  0  0  0
  7  8  1  0  0  0  0
  7 40  1  0  0  0  0
  7 41  1  0  0  0  0
  8  9  1  0  0  0  0
  8 42  1  0  0  0  0
  8 43  1  0  0  0  0
  9 10  1  0  0  0  0
  9 44  1  0  0  0  0
  9 45  1  0  0  0  0
 10 11  1  0  0  0  0
 10 64  1  0  0  0  0
 11 46  1  0  0  0  0
 11 47  1  0  0  0  0
 11 48  1  0  0  0  0
 12 17  1  0  0  0  0
 12 13  2  0  0  0  0
 13 14  1  0  0  0  0
 14 15  2  0  0  0  0
 14 49  1  0  0  0  0
 15 16  1  0  0  0  0
 16 20  1  0  0  0  0
 16 17  2  0  0  0  0
 17 18  1  0  0  0  0
 18 19  2  0  0  0  0
 19 20  1  0  0  0  0
 19 50  1  0  0  0  0
 20 21  1  0  0  0  0
 21 22  1  0  0  0  0
 21 51  1  0  0  0  0
 21 52  1  0  0  0  0
 22 29  1  0  0  0  0
 22 23  1  0  0  0  0
 22 25  1  0  0  0  0
 23 24  1  0  0  0  0
 23 53  1  0  0  0  0
 23 54  1  0  0  0  0
 24 55  1  0  0  0  0
 25 26  1  0  0  0  0
 25 56  1  0  0  0  0
 25 57  1  0  0  0  0
 26 27  1  0  0  0  0
 26 58  1  0  0  0  0
 26 59  1  0  0  0  0
 27 28  1  0  0  0  0
 28 29  1  0  0  0  0
 28 60  1  0  0  0  0
 28 61  1  0  0  0  0
 29 62  1  0  0  0  0
 29 63  1  0  0  0  0
M  CHG  1  10   1
M  END
> <s_m_source_file>
AV-unprocessed.smi

> <i_m_source_file_index>
90

> <i_lp_mmshare_version>
43012

> <i_f3d_flags>
0

> <s_epik_input>
W0NIM11OMVtDSDJdW0NIMl1bQ0gyXVtDSDJdW0NASF0xW0NIMl1bQ0gyXU4oW0NIM10pYyhuW2NIXW4yKWMoYzIzKW5bY0hdbjNbQ0gyXUM0KFtDSDJdW09IXSlbQ0gyXVtDSDJdT1tDSDJdW0NIMl00

> <s_epik_cmdline>
J2VwaWtfcHl0aG9uJywgJy1waCcsICc3LjAnLCAnLXRuJywgJzgnLCAnLW1hJywgJzIwMCcsICctbWV0YWxfYmluZGluZycsICctaW1hZScsICc8aW5maWxlLm1hZT4nLCAnLW9tYWUnLCAnPG91dGZpbGUubWFlPic=

> <r_lp_tautomer_probability>
1

> <r_epik_Ionization_Penalty>
0.00234895

> <r_epik_Ionization_Penalty_Charging>
0.00106647

> <r_epik_Ionization_Penalty_Neutral>
0.00128248

> <r_epik_State_Penalty>
-0

> <r_epik_Charging_Adjusted_Penalty>
0.00106647

> <i_epik_Tot_Q>
1

> <i_epik_Tot_abs_Q>
1

> <r_epik_Metal_State_Penalty>
-0

> <b_epik_Metal_Only>
0

> <s_lp_Force_Field>
OPLS_2005

> <r_lp_Energy>
43.9513

> <b_lp_Chiralities_Consistent>
1

> <s_lp_Variant>
AV-unprocessed.smi:90-1

> <Gold.Version>
5.8.1

> <Gold.Id.Protein>
6NUR|6NUR_protein|mol2

> <Gold.PLP.Fitness>
55.8446

> <Gold.PLP.PLP>
-50.8082

> <Gold.PLP.part.hbond>
-1.0654

> <Gold.PLP.part.metal>
0.0000

> <Gold.PLP.part.buried>
-6.1799

> <Gold.PLP.part.nonpolar>
-43.5855

> <Gold.PLP.part.repulsive>
0.2718

> <Gold.PLP.ligand.clash>
0.0000

> <Gold.PLP.ligand.torsion>
0.6096

> <Gold.PLP.Chemscore.Hbond>
0.9280

> <Gold.PLP.Chemscore.CHOScore>
1.0000

> <Gold.PLP.Chemscore.Metal>
0.0000

> <Gold.Chemscore.Hbonds>
donor molecule, donor type, donor heavy atom, donor atom, acceptor molecule, acceptor atom, score
      P1  H  6896  6908       L1    15  0.75
      L1  C    19    50       P1  7949  0.09

> <Gold.PLP.Chemscore.Internal.Correction>
0.4716

> <Gold.Rescore>
     Score         DG    S(hbond)    S(metal)    S(lipo)     H(rot)  DE(clash)    DE(int)     intcor
     14.54     -16.15       0.89        0.00     125.75       2.73       0.02       1.60       ----

> <Gold.Chemscore.Fitness>
14.5381

> <Gold.Chemscore.DG>
-16.1544

> <Gold.Chemscore.ZeroCoef>
-5.4800

> <Gold.Chemscore.Hbond>
0.8871

> <Gold.Chemscore.Metal>
0.0000

> <Gold.Chemscore.Lipo>
125.7469

> <Gold.Chemscore.Internal_Hbond>
0.0000

> <Gold.Chemscore.DEClash>
0.0212

> <Gold.Chemscore.DEInternal>
1.5950

> <Gold.Chemscore.Rot>
2.7347

> <Gold.Chemscore.Internal.Correction>
   9.000000E+99

> <Gold.Chemscore.Hbonds>
donor molecule, donor type, donor heavy atom, donor atom, acceptor molecule, acceptor atom, score
      P1  H  6896  6908       L1    15  0.71

> <Gold.Chemscore.Hbond.Weighted>
-2.9629

> <Gold.Chemscore.Metal.Weighted>
-0.0000

> <Gold.Chemscore.Lipo.Weighted>
-14.7124

> <Gold.Chemscore.Internal_Hbond.Weighted>
0.0000

> <Gold.Chemscore.DEClash.Weighted>
0.0212

> <Gold.Chemscore.DEInternal.Weighted>
1.5950

> <Gold.Chemscore.Rot.Weighted>
7.0009

> <Gold.Chemscore.Internal.Correction.Weighted>
   9.000000E+99

> <Gold.Protein.RotatedTorsions>
[ 6907 6896 6895 6894 ] final -170.00 input  -60.11 | X-H torsion
[ 7974 7965 7964 7962 ] final  -32.87 input  175.53 | X-H torsion
[ 8008 7997 7996 7995 ] final  -65.72 input   59.86 | X-H torsion
[ 10167 10162 10161 10158 ] final  122.10 input  -65.29 | X-H torsion
[ 10718 10713 10712 10709 ] final   30.97 input   66.30 | X-H torsion
[ 10763 10752 10751 10750 ] final    2.66 input  -60.55 | X-H torsion
[ 11005 11000 10999 10996 ] final   46.86 input  -57.11 | X-H torsion

> <Gold.Protein.ActiveResidues>
 VAL166  LYS551  ARG553  GLY616  TRP617  ASP618  TYR619  PRO620  LYS621  CYS622 
 ASP623  PHE694  ASN695  SER759  ASP760  ASP761  ALA762  ILE779  LEU786  VAL792 
 PHE793  MET794  SER795  GLU796  ALA797  LYS798  CYS799  TRP800  GLU811  SER814 

> <Gold.Protein.RotatedAtoms>
  151.5007  133.3505  159.2868 H   0  0  0  0  0  0  0  0  0  0  0  0  # atno 6907 bound_to 6896
  150.8775  134.8162  159.7211 H   0  0  0  0  0  0  0  0  0  0  0  0  # atno 6908 bound_to 6896
  152.4740  134.4900  159.9744 H   0  0  0  0  0  0  0  0  0  0  0  0  # atno 6909 bound_to 6896
  146.0955  140.5846  142.8844 H   0  0  0  0  0  0  0  0  0  0  0  0  # atno 7974 bound_to 7965
  154.4689  140.0927  156.7094 H   0  0  0  0  0  0  0  0  0  0  0  0  # atno 8008 bound_to 7997
  155.4779  140.3466  155.4317 H   0  0  0  0  0  0  0  0  0  0  0  0  # atno 8009 bound_to 7997
  156.1005  140.1421  156.9462 H   0  0  0  0  0  0  0  0  0  0  0  0  # atno 8010 bound_to 7997
  139.5879  144.7014  151.3363 H   0  0  0  0  0  0  0  0  0  0  0  0  # atno 10167 bound_to 10162
  157.2664  130.7186  149.6481 H   0  0  0  0  0  0  0  0  0  0  0  0  # atno 10718 bound_to 10713
  153.2928  135.6950  153.7276 H   0  0  0  0  0  0  0  0  0  0  0  0  # atno 10763 bound_to 10752
  153.6220  135.3425  155.3015 H   0  0  0  0  0  0  0  0  0  0  0  0  # atno 10764 bound_to 10752
  154.8529  135.4388  154.2016 H   0  0  0  0  0  0  0  0  0  0  0  0  # atno 10765 bound_to 10752
  140.1331  134.4680  155.8506 H   0  0  0  0  0  0  0  0  0  0  0  0  # atno 11005 bound_to 11000
  144.7392  140.4896  143.6881 LP  0  0  0  0  0  0  0  0  0  0  0  0  # atno 17320 bound_to 7965
  145.5956  139.1499  143.3158 LP  0  0  0  0  0  0  0  0  0  0  0  0  # atno 17321 bound_to 7965
  140.7147  143.7297  150.7633 LP  0  0  0  0  0  0  0  0  0  0  0  0  # atno 17342 bound_to 10162
  140.0845  143.4936  152.2512 LP  0  0  0  0  0  0  0  0  0  0  0  0  # atno 17343 bound_to 10162
  155.9663  130.4381  150.5204 LP  0  0  0  0  0  0  0  0  0  0  0  0  # atno 17370 bound_to 10713
  157.3119  131.0665  151.1994 LP  0  0  0  0  0  0  0  0  0  0  0  0  # atno 17371 bound_to 10713
  141.2173  133.6803  156.7106 LP  0  0  0  0  0  0  0  0  0  0  0  0  # atno 17394 bound_to 11000
  140.2817  134.8311  157.3939 LP  0  0  0  0  0  0  0  0  0  0  0  0  # atno 17395 bound_to 11000

$$$$
