#       Name:                AV-unprocessed.smi:1783
#       Creating user name   scv26
#       Creation time:       Fri Mar 27 08:43:34 2020


#       File generated by GOLD software.
#

@<TRIPOS>MOLECULE
AV-unprocessed.smi:1783
    36    37     1
SMALL
NO_CHARGES


@<TRIPOS>ATOM
      1 ****        -0.6895   0.7685   1.6043 O.2            1 S1                 0.0000
      2 ****        -1.0038  -0.2015   0.9150 C.2            1 S1                 0.0000
      3 ****        -0.1889  -0.8183   0.0355 N.am           1 S1                 0.0000
      4 ****         1.1490  -0.5409  -0.2905 C.2            1 S1                 0.0000
      5 ****         1.9995   0.1924   0.4744 C.2            1 S1                 0.0000
      6 ****         3.3783   0.4316   0.0820 C.2            1 S1                 0.0000
      7 ****         4.2955   1.3251   0.9026 C.3            1 S1                 0.0000
      8 ****         4.9438   0.5965   1.8103 F              1 S1                 0.0000
      9 ****         5.2005   1.9290   0.1309 F              1 S1                 0.0000
     10 ****         3.5997   2.2640   1.5443 F              1 S1                 0.0000
     11 ****         3.7722  -0.1079  -1.0863 C.2            1 S1                 0.0000
     12 ****         2.9111  -0.8824  -1.8667 N.am           1 S1                 0.0000
     13 ****         1.6220  -1.1388  -1.5500 C.2            1 S1                 0.0000
     14 ****         0.9255  -1.8294  -2.2930 O.2            1 S1                 0.0000
     15 ****        -2.4253  -0.7887   1.0272 C.3            1 S1                 0.0000
     16 ****        -3.5174   0.2447   1.3225 C.3            1 S1                 0.0000
     17 ****        -3.8223   0.8393  -0.0427 C.3            1 S1                 0.0000
     18 ****        -3.3948  -0.2560  -1.0255 C.3            1 S1                 0.0000
     19 ****        -2.8528  -1.3086  -0.2293 O.3            1 S1                 0.0000
     20 ****         3.2869  -1.2667  -2.7216 H              1 S1                 0.0000
     21 ****        -0.6085  -1.5595  -0.5081 H              1 S1                 0.0000
     22 ****         1.6822   0.6057   1.4176 H              1 S1                 0.0000
     23 ****         4.7574   0.0146  -1.5116 H              1 S1                 0.0000
     24 ****        -2.4141  -1.5793   1.7780 H              1 S1                 0.0000
     25 ****        -4.4012  -0.2658   1.7069 H              1 S1                 0.0000
     26 ****        -3.2332   0.9989   2.0573 H              1 S1                 0.0000
     27 ****        -4.8746   1.1057  -0.1457 H              1 S1                 0.0000
     28 ****        -3.2304   1.7405  -0.2075 H              1 S1                 0.0000
     29 ****        -4.2327  -0.6283  -1.6156 H              1 S1                 0.0000
     30 ****        -2.6354   0.1166  -1.7142 H              1 S1                 0.0000
     31 ****         0.2301   1.1551   1.5337 LP             1 S1                 0.0000
     32 ****        -1.3536   1.1700   2.2349 LP             1 S1                 0.0000
     33 ****        -0.0277  -2.0154  -2.0546 LP             1 S1                 0.0000
     34 ****         1.3127  -2.2047  -3.1352 LP             1 S1                 0.0000
     35 ****        -3.5531  -2.0065  -0.0795 LP             1 S1                 0.0000
     36 ****        -2.0723  -1.7161  -0.7035 LP             1 S1                 0.0000
@<TRIPOS>BOND
    1    1    2 2     
    2    2    3 am    
    3    2   15 1     
    4    3    4 1     
    5    3   21 1     
    6    4   13 1     
    7    4    5 2     
    8    5    6 1     
    9    5   22 1     
   10    6    7 1     
   11    6   11 2     
   12    7    8 1     
   13    7    9 1     
   14    7   10 1     
   15   11   12 1     
   16   11   23 1     
   17   12   20 1     
   18   12   13 am    
   19   13   14 2     
   20   15   19 1     
   21   15   16 1     
   22   15   24 1     
   23   16   17 1     
   24   16   25 1     
   25   16   26 1     
   26   17   18 1     
   27   17   27 1     
   28   17   28 1     
   29   18   19 1     
   30   18   29 1     
   31   18   30 1     
   32    1   31 1     
   33    1   32 1     
   34   14   33 1     
   35   14   34 1     
   36   19   35 1     
   37   19   36 1     
@<TRIPOS>SUBSTRUCTURE
      1 S1             1
@<TRIPOS>SET
LONE_PAIRS      STATIC     ATOMS    <user>   **** ""
6 31 32 33 34 35 36
DONOR_HYDROGENS      STATIC     ATOMS    <user>   **** ""
2 21 20
ATOM$BLUE        STATIC     ATOMS    COLORGROUP SYSTEM
6 31 32 33 34 35 36
ATOM$RED        STATIC     ATOMS    COLORGROUP SYSTEM
2 21 20
