#       Name:                AV-unprocessed.smi:2881
#       Creating user name   scv26
#       Creation time:       Fri Mar 27 15:54:36 2020


#       File generated by GOLD software.
#

@<TRIPOS>MOLECULE
AV-unprocessed.smi:2881
    45    47     1
SMALL
NO_CHARGES


@<TRIPOS>ATOM
      1 ****        -3.7025   4.5066  -2.0084 C.3            1 S1                 0.0000
      2 ****        -3.4417   3.1034  -1.5459 C.2            1 S1                 0.0000
      3 ****        -2.8572   2.0294  -2.2789 C.2            1 S1                 0.0000
      4 ****        -2.8463   0.9845  -1.3977 C.2            1 S1                 0.0000
      5 ****        -2.3567  -0.4209  -1.5394 C.3            1 S1                 0.0000
      6 ****        -0.8433  -0.4910  -1.3378 C.2            1 S1                 0.0000
      7 ****        -0.0959  -0.5762  -2.3118 O.2            1 S1                 0.0000
      8 ****        -0.4060  -0.4519  -0.0698 N.am           1 S1                 0.0000
      9 ****         0.9964  -0.4884   0.3360 C.3            1 S1                 0.0000
     10 ****         1.1466  -0.0439   1.8076 C.3            1 S1                 0.0000
     11 ****         2.6243   0.2954   2.0733 C.3            1 S1                 0.0000
     12 ****         3.2879  -1.0945   2.0852 C.3            1 S1                 0.0000
     13 ****         2.1042  -2.0466   1.8087 C.3            1 S1                 0.0000
     14 ****         0.9881  -1.3517   2.5785 C.3            1 S1                 0.0000
     15 ****         1.5827  -1.9235   0.3550 C.3            1 S1                 0.0000
     16 ****         2.6089  -2.1977  -0.7617 C.3            1 S1                 0.0000
     17 ****         3.1090  -3.5139  -0.6594 O.3            1 S1                 0.0000
     18 ****        -3.4077   1.4597  -0.2338 N.pl3          1 S1                 0.0000
     19 ****        -3.7734   2.7524  -0.3124 N.2            1 S1                 0.0000
     20 ****        -3.5447   0.9218   0.6101 H              1 S1                 0.0000
     21 ****        -3.2596   4.6870  -2.9881 H              1 S1                 0.0000
     22 ****        -3.2804   5.2350  -1.3154 H              1 S1                 0.0000
     23 ****        -4.7724   4.7007  -2.0872 H              1 S1                 0.0000
     24 ****        -2.4952   2.0280  -3.2965 H              1 S1                 0.0000
     25 ****        -2.6076  -0.8031  -2.5295 H              1 S1                 0.0000
     26 ****        -2.8516  -1.0743  -0.8195 H              1 S1                 0.0000
     27 ****        -1.0918  -0.3814   0.6676 H              1 S1                 0.0000
     28 ****         1.5699   0.1752  -0.3143 H              1 S1                 0.0000
     29 ****         0.4643   0.7537   2.1039 H              1 S1                 0.0000
     30 ****         3.0460   0.9534   1.3126 H              1 S1                 0.0000
     31 ****         2.7439   0.7842   3.0410 H              1 S1                 0.0000
     32 ****         4.0962  -1.1838   1.3610 H              1 S1                 0.0000
     33 ****         3.7149  -1.2977   3.0681 H              1 S1                 0.0000
     34 ****         2.2924  -3.0754   2.1169 H              1 S1                 0.0000
     35 ****         1.1924  -1.2525   3.6462 H              1 S1                 0.0000
     36 ****         0.0110  -1.8195   2.4457 H              1 S1                 0.0000
     37 ****         0.7709  -2.6446   0.2379 H              1 S1                 0.0000
     38 ****         2.1335  -2.0902  -1.7365 H              1 S1                 0.0000
     39 ****         3.4356  -1.4884  -0.7411 H              1 S1                 0.0000
     40 ****         3.7161  -3.6604  -1.3688 H              1 S1                 0.0000
     41 ****        -0.4788  -0.5995  -3.2353 LP             1 S1                 0.0000
     42 ****         0.8942  -0.6220  -2.1798 LP             1 S1                 0.0000
     43 ****         2.3543  -4.1671  -0.7211 LP             1 S1                 0.0000
     44 ****         3.5788  -3.6290   0.2158 LP             1 S1                 0.0000
     45 ****        -4.1972   3.3170   0.3959 LP             1 S1                 0.0000
@<TRIPOS>BOND
    1    1   21 1     
    2    1   22 1     
    3    1   23 1     
    4    1    2 1     
    5    2   19 2     
    6    2    3 1     
    7    3    4 2     
    8    3   24 1     
    9    4   18 1     
   10    4    5 1     
   11    5    6 1     
   12    5   25 1     
   13    5   26 1     
   14    6    7 2     
   15    6    8 am    
   16    8    9 1     
   17    8   27 1     
   18    9   15 1     
   19    9   10 1     
   20    9   28 1     
   21   10   14 1     
   22   10   11 1     
   23   10   29 1     
   24   11   12 1     
   25   11   30 1     
   26   11   31 1     
   27   12   13 1     
   28   12   32 1     
   29   12   33 1     
   30   13   14 1     
   31   13   15 1     
   32   13   34 1     
   33   14   35 1     
   34   14   36 1     
   35   15   16 1     
   36   15   37 1     
   37   16   17 1     
   38   16   38 1     
   39   16   39 1     
   40   17   40 1     
   41   18   19 1     
   42   18   20 1     
   43    7   41 1     
   44    7   42 1     
   45   17   43 1     
   46   17   44 1     
   47   19   45 1     
@<TRIPOS>SUBSTRUCTURE
      1 S1             1
@<TRIPOS>SET
LONE_PAIRS      STATIC     ATOMS    <user>   **** ""
5 41 42 43 44 45
DONOR_HYDROGENS      STATIC     ATOMS    <user>   **** ""
3 27 40 20
ATOM$BLUE        STATIC     ATOMS    COLORGROUP SYSTEM
5 41 42 43 44 45
ATOM$RED        STATIC     ATOMS    COLORGROUP SYSTEM
3 27 40 20
