AV-unprocessed.smi:2693|AV-procd|sdf|10397|dock5
  -GOLD-   2272014433D 1   1.00000     0.00000
 Structure written by MMmdl.
 45 47  0  0  0  0  0  0  0  0  1 V2000
  151.0354  142.5473  156.5873 C   0  0  0  0  0  0  0  0  0  0  0  0
  150.8832  141.1792  157.0735 N   0  0  0  0  0  0  0  0  0  0  0  0
  151.4280  140.8670  158.3917 C   0  0  0  0  0  0  0  0  0  0  0  0
  150.2439  140.2031  156.3037 C   0  0  0  0  0  0  0  0  0  0  0  0
  149.3705  139.4003  156.9261 N   0  0  0  0  0  0  0  0  0  0  0  0
  148.7496  138.4581  156.1861 C   0  0  0  0  0  0  0  0  0  0  0  0
  149.0031  138.3028  154.8087 C   0  0  0  0  0  0  0  0  0  0  0  0
  148.2998  137.3020  154.0867 N   0  0  0  0  0  0  0  0  0  0  0  0
  147.1369  136.7085  154.4032 C   0  0  0  0  0  0  0  0  0  0  0  0
  146.4442  136.9755  155.3845 O   0  0  0  0  0  0  0  0  0  0  0  0
  146.7990  135.7897  153.4896 N   0  0  0  0  0  0  0  0  0  0  0  0
  145.5723  134.9865  153.5322 C   0  0  2  0  0  0  0  0  0  0  0  0
  145.6014  133.8142  152.5486 C   0  0  2  0  0  0  0  0  0  0  0  0
  146.6518  133.0827  151.7940 C   0  0  0  0  0  0  0  0  0  0  0  0
  145.8751  132.9578  150.4550 C   0  0  0  0  0  0  0  0  0  0  0  0
  144.7071  133.8082  150.5892 O   0  0  0  0  0  0  0  0  0  0  0  0
  145.1132  134.8021  151.5091 C   0  0  1  0  0  0  0  0  0  0  0  0
  144.3747  135.5292  152.6553 C   0  0  0  0  0  0  0  0  0  0  0  0
  142.9611  135.0321  153.0078 C   0  0  0  0  0  0  0  0  0  0  0  0
  144.2554  137.0496  152.5018 C   0  0  0  0  0  0  0  0  0  0  0  0
  149.9365  139.2077  154.2495 C   0  0  0  0  0  0  0  0  0  0  0  0
  150.5492  140.1476  155.0006 N   0  0  0  0  0  0  0  0  0  0  0  0
  151.6915  142.5684  155.7171 H   0  0  0  0  0  0  0  0  0  0  0  0
  151.4628  143.2033  157.3456 H   0  0  0  0  0  0  0  0  0  0  0  0
  150.0684  142.9616  156.3008 H   0  0  0  0  0  0  0  0  0  0  0  0
  152.1089  140.0173  158.3333 H   0  0  0  0  0  0  0  0  0  0  0  0
  150.6239  140.6170  159.0841 H   0  0  0  0  0  0  0  0  0  0  0  0
  151.9842  141.7055  158.8108 H   0  0  0  0  0  0  0  0  0  0  0  0
  148.0452  137.8217  156.7014 H   0  0  0  0  0  0  0  0  0  0  0  0
  148.7116  137.0335  153.2048 H   0  0  0  0  0  0  0  0  0  0  0  0
  147.4214  135.6355  152.7101 H   0  0  0  0  0  0  0  0  0  0  0  0
  145.2723  134.6864  154.5377 H   0  0  0  0  0  0  0  0  0  0  0  0
  144.8307  133.0996  152.8477 H   0  0  0  0  0  0  0  0  0  0  0  0
  147.5660  133.6672  151.6847 H   0  0  0  0  0  0  0  0  0  0  0  0
  146.8938  132.1140  152.2320 H   0  0  0  0  0  0  0  0  0  0  0  0
  146.4910  133.2874  149.6172 H   0  0  0  0  0  0  0  0  0  0  0  0
  145.5598  131.9324  150.2608 H   0  0  0  0  0  0  0  0  0  0  0  0
  145.9050  135.4208  151.0739 H   0  0  0  0  0  0  0  0  0  0  0  0
  142.2580  135.2379  152.2002 H   0  0  0  0  0  0  0  0  0  0  0  0
  142.5808  135.5262  153.9027 H   0  0  0  0  0  0  0  0  0  0  0  0
  142.9104  133.9619  153.2002 H   0  0  0  0  0  0  0  0  0  0  0  0
  143.4695  137.3218  151.7963 H   0  0  0  0  0  0  0  0  0  0  0  0
  145.1772  137.4978  152.1306 H   0  0  0  0  0  0  0  0  0  0  0  0
  144.0248  137.5284  153.4538 H   0  0  0  0  0  0  0  0  0  0  0  0
  150.1924  139.2123  153.2018 H   0  0  0  0  0  0  0  0  0  0  0  0
  1  2  1  0  0  0  0
  1 23  1  0  0  0  0
  1 24  1  0  0  0  0
  1 25  1  0  0  0  0
  2  3  1  0  0  0  0
  2  4  1  0  0  0  0
  3 26  1  0  0  0  0
  3 27  1  0  0  0  0
  3 28  1  0  0  0  0
  4 22  1  0  0  0  0
  4  5  2  0  0  0  0
  5  6  1  0  0  0  0
  6  7  2  0  0  0  0
  6 29  1  0  0  0  0
  7  8  1  0  0  0  0
  7 21  1  0  0  0  0
  8  9  1  0  0  0  0
  8 30  1  0  0  0  0
  9 10  2  0  0  0  0
  9 11  1  0  0  0  0
 11 12  1  0  0  0  0
 11 31  1  0  0  0  0
 12 18  1  0  0  0  0
 12 13  1  0  0  0  0
 12 32  1  0  0  0  0
 13 17  1  0  0  0  0
 13 14  1  0  0  0  0
 13 33  1  0  0  0  0
 14 15  1  0  0  0  0
 14 34  1  0  0  0  0
 14 35  1  0  0  0  0
 15 16  1  0  0  0  0
 15 36  1  0  0  0  0
 15 37  1  0  0  0  0
 16 17  1  0  0  0  0
 17 18  1  0  0  0  0
 17 38  1  0  0  0  0
 18 19  1  0  0  0  0
 18 20  1  0  0  0  0
 19 39  1  0  0  0  0
 19 40  1  0  0  0  0
 19 41  1  0  0  0  0
 20 42  1  0  0  0  0
 20 43  1  0  0  0  0
 20 44  1  0  0  0  0
 21 22  2  0  0  0  0
 21 45  1  0  0  0  0
M  END
> <s_m_source_file>
AV-unprocessed.smi

> <i_m_source_file_index>
2693

> <i_lp_mmshare_version>
43012

> <i_f3d_flags>
0

> <s_epik_input>
W0NIM11OKFtDSDNdKWMxbltjSF1jKFtjSF1uMSlbTkhdQyg9TylbTkhdW0NASF0yQyhbQ0gzXSkoW0NIM10pW0NAQEhdKFtDQEhdMjMpT1tDSDJdW0NIMl0z

> <s_epik_cmdline>
J2VwaWtfcHl0aG9uJywgJy1waCcsICc3LjAnLCAnLXRuJywgJzgnLCAnLW1hJywgJzIwMCcsICctbWV0YWxfYmluZGluZycsICctaW1hZScsICc8aW5maWxlLm1hZT4nLCAnLW9tYWUnLCAnPG91dGZpbGUubWFlPic=

> <r_lp_tautomer_probability>
1

> <r_epik_Ionization_Penalty>
0.00031779

> <r_epik_Ionization_Penalty_Charging>
0

> <r_epik_Ionization_Penalty_Neutral>
0.00031779

> <r_epik_State_Penalty>
-0

> <r_epik_Charging_Adjusted_Penalty>
0

> <i_epik_Tot_Q>
0

> <i_epik_Tot_abs_Q>
0

> <r_epik_Metal_State_Penalty>
-0

> <b_epik_Metal_Only>
0

> <s_lp_Force_Field>
OPLS_2005

> <r_lp_Energy>
57.3168

> <b_lp_Chiralities_Consistent>
1

> <s_lp_Variant>
AV-unprocessed.smi:2693-1

> <Gold.Version>
5.8.1

> <Gold.Id.Protein>
6NUR|6NUR_protein|mol2

> <Gold.PLP.Fitness>
37.6486

> <Gold.PLP.PLP>
-28.4979

> <Gold.PLP.part.hbond>
-3.0000

> <Gold.PLP.part.metal>
0.0000

> <Gold.PLP.part.buried>
-3.5647

> <Gold.PLP.part.nonpolar>
-21.9993

> <Gold.PLP.part.repulsive>
0.2312

> <Gold.PLP.ligand.clash>
0.0000

> <Gold.PLP.ligand.torsion>
1.0733

> <Gold.PLP.Chemscore.Hbond>
2.6780

> <Gold.PLP.Chemscore.CHOScore>
1.0000

> <Gold.PLP.Chemscore.Metal>
0.0000

> <Gold.Chemscore.Hbonds>
donor molecule, donor type, donor heavy atom, donor atom, acceptor molecule, acceptor atom, score
      L1  H     8    30       P1  7948  1.00
      L1  H    11    31       P1  7948  0.91
      P1  H  7989  7998       L1    22  0.75
      L1  C    21    45       P1  7957  1.00

> <Gold.PLP.Chemscore.Internal.Correction>
0.2633

> <Gold.Rescore>
     Score         DG    S(hbond)    S(metal)    S(lipo)     H(rot)  DE(clash)    DE(int)     intcor
     14.55     -16.96       1.99        0.00      63.16       1.00       0.15       2.26       ----

> <Gold.Chemscore.Fitness>
14.5490

> <Gold.Chemscore.DG>
-16.9577

> <Gold.Chemscore.ZeroCoef>
-5.4800

> <Gold.Chemscore.Hbond>
1.9906

> <Gold.Chemscore.Metal>
0.0000

> <Gold.Chemscore.Lipo>
63.1551

> <Gold.Chemscore.Internal_Hbond>
0.0000

> <Gold.Chemscore.DEClash>
0.1519

> <Gold.Chemscore.DEInternal>
2.2569

> <Gold.Chemscore.Rot>
1.0000

> <Gold.Chemscore.Internal.Correction>
   9.000000E+99

> <Gold.Chemscore.Hbonds>
donor molecule, donor type, donor heavy atom, donor atom, acceptor molecule, acceptor atom, score
      L1  H     8    30       P1  7948  0.97
      L1  H    11    31       P1  7948  0.90
      P1  H  7989  7998       L1    22  0.09

> <Gold.Chemscore.Hbond.Weighted>
-6.6486

> <Gold.Chemscore.Metal.Weighted>
-0.0000

> <Gold.Chemscore.Lipo.Weighted>
-7.3891

> <Gold.Chemscore.Internal_Hbond.Weighted>
0.0000

> <Gold.Chemscore.DEClash.Weighted>
0.1519

> <Gold.Chemscore.DEInternal.Weighted>
2.2569

> <Gold.Chemscore.Rot.Weighted>
2.5600

> <Gold.Chemscore.Internal.Correction.Weighted>
   9.000000E+99

> <Gold.Protein.RotatedTorsions>
[ 6907 6896 6895 6894 ] final    8.35 input  -60.11 | X-H torsion
[ 7974 7965 7964 7962 ] final   -2.12 input  175.53 | X-H torsion
[ 8008 7997 7996 7995 ] final    3.96 input   59.86 | X-H torsion
[ 10167 10162 10161 10158 ] final  133.72 input  -65.29 | X-H torsion
[ 10718 10713 10712 10709 ] final  -61.88 input   66.30 | X-H torsion
[ 10763 10752 10751 10750 ] final   65.52 input  -60.55 | X-H torsion
[ 11005 11000 10999 10996 ] final  112.55 input  -57.11 | X-H torsion

> <Gold.Protein.ActiveResidues>
 VAL166  LYS551  ARG553  GLY616  TRP617  ASP618  TYR619  PRO620  LYS621  CYS622 
 ASP623  PHE694  ASN695  SER759  ASP760  ASP761  ALA762  ILE779  LEU786  VAL792 
 PHE793  MET794  SER795  GLU796  ALA797  LYS798  CYS799  TRP800  GLU811  SER814 

> <Gold.Protein.RotatedAtoms>
  151.7046  135.0924  160.0256 H   0  0  0  0  0  0  0  0  0  0  0  0  # atno 6907 bound_to 6896
  152.3699  133.6401  159.6088 H   0  0  0  0  0  0  0  0  0  0  0  0  # atno 6908 bound_to 6896
  150.7666  133.9203  159.3437 H   0  0  0  0  0  0  0  0  0  0  0  0  # atno 6909 bound_to 6896
  146.2408  140.1523  142.8334 H   0  0  0  0  0  0  0  0  0  0  0  0  # atno 7974 bound_to 7965
  154.7100  140.2691  155.6638 H   0  0  0  0  0  0  0  0  0  0  0  0  # atno 8008 bound_to 7997
  156.2792  140.2755  156.1663 H   0  0  0  0  0  0  0  0  0  0  0  0  # atno 8009 bound_to 7997
  155.0647  140.0371  157.2578 H   0  0  0  0  0  0  0  0  0  0  0  0  # atno 8010 bound_to 7997
  139.5285  144.6602  151.5036 H   0  0  0  0  0  0  0  0  0  0  0  0  # atno 10167 bound_to 10162
  156.0892  130.4203  150.1056 H   0  0  0  0  0  0  0  0  0  0  0  0  # atno 10718 bound_to 10713
  153.0100  135.5354  154.6679 H   0  0  0  0  0  0  0  0  0  0  0  0  # atno 10763 bound_to 10752
  154.5871  135.2855  155.0675 H   0  0  0  0  0  0  0  0  0  0  0  0  # atno 10764 bound_to 10752
  154.1782  135.6520  153.5080 H   0  0  0  0  0  0  0  0  0  0  0  0  # atno 10765 bound_to 10752
  139.8930  134.9532  156.6603 H   0  0  0  0  0  0  0  0  0  0  0  0  # atno 11005 bound_to 11000
  145.0157  140.8752  143.5197 LP  0  0  0  0  0  0  0  0  0  0  0  0  # atno 17320 bound_to 7965
  145.1564  139.2484  143.5414 LP  0  0  0  0  0  0  0  0  0  0  0  0  # atno 17321 bound_to 7965
  140.6447  143.8819  150.6725 LP  0  0  0  0  0  0  0  0  0  0  0  0  # atno 17342 bound_to 10162
  140.2165  143.3843  152.1677 LP  0  0  0  0  0  0  0  0  0  0  0  0  # atno 17343 bound_to 10162
  156.9070  130.9639  151.3568 LP  0  0  0  0  0  0  0  0  0  0  0  0  # atno 17370 bound_to 10713
  157.6036  130.8531  149.8841 LP  0  0  0  0  0  0  0  0  0  0  0  0  # atno 17371 bound_to 10713
  140.7452  133.8944  155.8307 LP  0  0  0  0  0  0  0  0  0  0  0  0  # atno 17394 bound_to 11000
  141.0045  134.1104  157.4284 LP  0  0  0  0  0  0  0  0  0  0  0  0  # atno 17395 bound_to 11000

$$$$
