AV-unprocessed.smi:2951|AV-procd|sdf|11290|dock4
  -GOLD-   2272016183D 1   1.00000     0.00000
 Structure written by MMmdl.
 17 17  0  0  0  0  0  0  0  0  1 V2000
  143.7642  133.7740  148.8598 N   0  0  0  0  0  0  0  0  0  0  0  0
  144.0904  132.7519  149.6558 C   0  0  0  0  0  0  0  0  0  0  0  0
  143.2656  132.1852  150.3698 O   0  0  0  0  0  0  0  0  0  0  0  0
  145.5515  132.2991  149.6493 C   0  0  0  0  0  0  0  0  0  0  0  0
  146.0999  132.2968  151.0467 C   0  0  0  0  0  0  0  0  0  0  0  0
  145.9116  131.3287  152.0040 C   0  0  0  0  0  0  0  0  0  0  0  0
  146.7249  131.7170  153.4959 S   0  0  0  0  0  0  0  0  0  0  0  0
  147.3009  133.1984  152.7477 C   0  0  0  0  0  0  0  0  0  0  0  0
  148.0959  134.0972  153.4375 N   0  0  0  0  0  0  0  0  0  0  0  0
  146.9007  133.3579  151.4856 N   0  0  0  0  0  0  0  0  0  0  0  0
  142.8118  134.1090  148.8390 H   0  0  0  0  0  0  0  0  0  0  0  0
  144.4710  134.2128  148.2871 H   0  0  0  0  0  0  0  0  0  0  0  0
  145.6136  131.3012  149.2136 H   0  0  0  0  0  0  0  0  0  0  0  0
  146.1352  132.9530  148.9997 H   0  0  0  0  0  0  0  0  0  0  0  0
  145.3409  130.4154  151.9220 H   0  0  0  0  0  0  0  0  0  0  0  0
  148.3700  133.9286  154.3946 H   0  0  0  0  0  0  0  0  0  0  0  0
  148.4980  134.9024  152.9797 H   0  0  0  0  0  0  0  0  0  0  0  0
  1  2  1  0  0  0  0
  1 11  1  0  0  0  0
  1 12  1  0  0  0  0
  2  3  2  0  0  0  0
  2  4  1  0  0  0  0
  4  5  1  0  0  0  0
  4 13  1  0  0  0  0
  4 14  1  0  0  0  0
  5 10  1  0  0  0  0
  5  6  2  0  0  0  0
  6  7  1  0  0  0  0
  6 15  1  0  0  0  0
  7  8  1  0  0  0  0
  8  9  1  0  0  0  0
  8 10  2  0  0  0  0
  9 16  1  0  0  0  0
  9 17  1  0  0  0  0
M  END
> <s_m_source_file>
AV-unprocessed.smi

> <i_m_source_file_index>
2951

> <i_lp_mmshare_version>
43012

> <i_f3d_flags>
0

> <s_epik_input>
W05IMl1DKD1PKVtDSDJdYzFbY0hdc2MobjEpW05IMl0=

> <s_epik_cmdline>
J2VwaWtfcHl0aG9uJywgJy1waCcsICc3LjAnLCAnLXRuJywgJzgnLCAnLW1hJywgJzIwMCcsICctbWV0YWxfYmluZGluZycsICctaW1hZScsICc8aW5maWxlLm1hZT4nLCAnLW9tYWUnLCAnPG91dGZpbGUubWFlPic=

> <r_lp_tautomer_probability>
1

> <r_epik_Ionization_Penalty>
0.00145479

> <r_epik_Ionization_Penalty_Charging>
0

> <r_epik_Ionization_Penalty_Neutral>
0.00145479

> <r_epik_State_Penalty>
-0

> <r_epik_Charging_Adjusted_Penalty>
0

> <i_epik_Tot_Q>
0

> <i_epik_Tot_abs_Q>
0

> <r_epik_Metal_State_Penalty>
-0

> <b_epik_Metal_Only>
0

> <s_lp_Force_Field>
OPLS_2005

> <r_lp_Energy>
-0.412786

> <b_lp_Chiralities_Consistent>
1

> <s_lp_Variant>
AV-unprocessed.smi:2951-1

> <Gold.Version>
5.8.1

> <Gold.Id.Protein>
6NUR|6NUR_protein|mol2

> <Gold.PLP.Fitness>
28.0929

> <Gold.PLP.PLP>
-19.7078

> <Gold.PLP.part.hbond>
-3.0000

> <Gold.PLP.part.metal>
0.0000

> <Gold.PLP.part.buried>
-3.4666

> <Gold.PLP.part.nonpolar>
-13.2357

> <Gold.PLP.part.repulsive>
0.5767

> <Gold.PLP.ligand.clash>
0.0000

> <Gold.PLP.ligand.torsion>
0.3075

> <Gold.PLP.Chemscore.Hbond>
3.0000

> <Gold.PLP.Chemscore.CHOScore>
0.0000

> <Gold.PLP.Chemscore.Metal>
0.0000

> <Gold.Chemscore.Hbonds>
donor molecule, donor type, donor heavy atom, donor atom, acceptor molecule, acceptor atom, score
      L1  H     1    11       P1 10186  1.00
      L1  H     1    12       P1  7921  1.00
      L1  H     9    17       P1  7948  1.00

> <Gold.PLP.Chemscore.Internal.Correction>
0.0001

> <Gold.Rescore>
     Score         DG    S(hbond)    S(metal)    S(lipo)     H(rot)  DE(clash)    DE(int)     intcor
     14.42     -14.83       2.93        0.00      32.40       1.65       0.04       0.37       ----

> <Gold.Chemscore.Fitness>
14.4233

> <Gold.Chemscore.DG>
-14.8316

> <Gold.Chemscore.ZeroCoef>
-5.4800

> <Gold.Chemscore.Hbond>
2.9290

> <Gold.Chemscore.Metal>
0.0000

> <Gold.Chemscore.Lipo>
32.4010

> <Gold.Chemscore.Internal_Hbond>
0.0000

> <Gold.Chemscore.DEClash>
0.0408

> <Gold.Chemscore.DEInternal>
0.3675

> <Gold.Chemscore.Rot>
1.6493

> <Gold.Chemscore.Internal.Correction>
   9.000000E+99

> <Gold.Chemscore.Hbonds>
donor molecule, donor type, donor heavy atom, donor atom, acceptor molecule, acceptor atom, score
      L1  H     1    11       P1 10186  0.98
      L1  H     1    12       P1  7921  1.00
      L1  H     9    17       P1  7948  0.55

> <Gold.Chemscore.Hbond.Weighted>
-9.7829

> <Gold.Chemscore.Metal.Weighted>
-0.0000

> <Gold.Chemscore.Lipo.Weighted>
-3.7909

> <Gold.Chemscore.Internal_Hbond.Weighted>
0.0000

> <Gold.Chemscore.DEClash.Weighted>
0.0408

> <Gold.Chemscore.DEInternal.Weighted>
0.3675

> <Gold.Chemscore.Rot.Weighted>
4.2222

> <Gold.Chemscore.Internal.Correction.Weighted>
   9.000000E+99

> <Gold.Protein.RotatedTorsions>
[ 6907 6896 6895 6894 ] final   14.67 input  -60.11 | X-H torsion
[ 7974 7965 7964 7962 ] final -138.23 input  175.53 | X-H torsion
[ 8008 7997 7996 7995 ] final   54.60 input   59.86 | X-H torsion
[ 10167 10162 10161 10158 ] final -120.31 input  -65.29 | X-H torsion
[ 10718 10713 10712 10709 ] final -131.78 input   66.30 | X-H torsion
[ 10763 10752 10751 10750 ] final  167.16 input  -60.55 | X-H torsion
[ 11005 11000 10999 10996 ] final   71.73 input  -57.11 | X-H torsion

> <Gold.Protein.ActiveResidues>
 VAL166  LYS551  ARG553  GLY616  TRP617  ASP618  TYR619  PRO620  LYS621  CYS622 
 ASP623  PHE694  ASN695  SER759  ASP760  ASP761  ALA762  ILE779  LEU786  VAL792 
 PHE793  MET794  SER795  GLU796  ALA797  LYS798  CYS799  TRP800  GLU811  SER814 

> <Gold.Protein.RotatedAtoms>
  151.8059  135.0695  160.0406 H   0  0  0  0  0  0  0  0  0  0  0  0  # atno 6907 bound_to 6896
  152.3056  133.5695  159.5655 H   0  0  0  0  0  0  0  0  0  0  0  0  # atno 6908 bound_to 6896
  150.7294  134.0144  159.3722 H   0  0  0  0  0  0  0  0  0  0  0  0  # atno 6909 bound_to 6896
  144.8775  140.6459  143.5227 H   0  0  0  0  0  0  0  0  0  0  0  0  # atno 7974 bound_to 7965
  155.4873  140.3470  155.4349 H   0  0  0  0  0  0  0  0  0  0  0  0  # atno 8008 bound_to 7997
  156.1000  140.1433  156.9509 H   0  0  0  0  0  0  0  0  0  0  0  0  # atno 8009 bound_to 7997
  154.4687  140.0908  156.7067 H   0  0  0  0  0  0  0  0  0  0  0  0  # atno 8010 bound_to 7997
  140.0372  143.5189  152.2148 H   0  0  0  0  0  0  0  0  0  0  0  0  # atno 10167 bound_to 10162
  156.2278  130.7019  151.0826 H   0  0  0  0  0  0  0  0  0  0  0  0  # atno 10718 bound_to 10713
  154.3497  135.2753  155.2378 H   0  0  0  0  0  0  0  0  0  0  0  0  # atno 10763 bound_to 10752
  154.4613  135.5906  153.6261 H   0  0  0  0  0  0  0  0  0  0  0  0  # atno 10764 bound_to 10752
  152.9851  135.6065  154.3706 H   0  0  0  0  0  0  0  0  0  0  0  0  # atno 10765 bound_to 10752
  139.9528  134.7197  156.0822 H   0  0  0  0  0  0  0  0  0  0  0  0  # atno 11005 bound_to 11000
  145.4015  139.1597  143.4175 LP  0  0  0  0  0  0  0  0  0  0  0  0  # atno 17320 bound_to 7965
  146.2973  140.4112  142.8717 LP  0  0  0  0  0  0  0  0  0  0  0  0  # atno 17321 bound_to 7965
  139.6037  144.7590  151.3111 LP  0  0  0  0  0  0  0  0  0  0  0  0  # atno 17342 bound_to 10162
  140.7276  143.6958  150.7885 LP  0  0  0  0  0  0  0  0  0  0  0  0  # atno 17343 bound_to 10162
  157.7119  131.0730  150.6470 LP  0  0  0  0  0  0  0  0  0  0  0  0  # atno 17370 bound_to 10713
  156.6536  130.4492  149.5711 LP  0  0  0  0  0  0  0  0  0  0  0  0  # atno 17371 bound_to 10713
  141.1194  133.6617  156.3176 LP  0  0  0  0  0  0  0  0  0  0  0  0  # atno 17394 bound_to 11000
  140.5679  134.5869  157.5450 LP  0  0  0  0  0  0  0  0  0  0  0  0  # atno 17395 bound_to 11000

$$$$
