AV-unprocessed.smi:1600|AV-procd|sdf|6428|dock8
  -GOLD-   22720 7 73D 1   1.00000     0.00000
 Structure written by MMmdl.
 46 47  0  0  0  0  0  0  0  0  2 V2000
  149.8364  141.7971  155.5911 C   0  0  0  0  0  0  0  0  0  0  0  0
  150.2193  140.4065  155.1787 C   0  0  0  0  0  0  0  0  0  0  0  0
  149.3622  139.2892  154.9595 C   0  0  0  0  0  0  0  0  0  0  0  0
  150.2404  138.3000  154.6092 C   0  0  0  0  0  0  0  0  0  0  0  0
  149.9833  137.0056  154.2820 N   0  0  0  0  0  0  0  0  0  0  0  0
  150.1416  135.9036  155.0360 C   0  0  0  0  0  0  0  0  0  0  0  0
  150.5476  135.8849  156.1981 O   0  0  0  0  0  0  0  0  0  0  0  0
  149.8148  134.7969  154.3525 N   0  0  0  0  0  0  0  0  0  0  0  0
  149.8706  133.4324  154.8733 C   0  0  0  0  0  0  0  0  0  0  0  0
  149.2736  132.3774  153.9159 C   0  0  1  0  0  0  0  0  0  0  0  0
  148.7560  131.0998  154.5762 C   0  0  0  0  0  0  0  0  0  0  0  0
  147.7744  130.5105  153.5531 C   0  0  0  0  0  0  0  0  0  0  0  0
  147.4885  131.5715  152.5529 N   0  3  1  0  0  0  0  0  0  0  0  0
  146.0681  131.6578  152.1094 C   0  0  0  0  0  0  0  0  0  0  0  0
  145.5112  130.2643  151.7624 C   0  0  0  0  0  0  0  0  0  0  0  0
  145.9024  132.5933  150.8965 C   0  0  0  0  0  0  0  0  0  0  0  0
  148.0695  132.8235  153.0847 C   0  0  0  0  0  0  0  0  0  0  0  0
  151.5177  138.8145  154.6208 N   0  0  0  0  0  0  0  0  0  0  0  0
  152.7765  138.1616  154.3187 C   0  0  0  0  0  0  0  0  0  0  0  0
  151.5000  140.1170  154.9769 N   0  0  0  0  0  0  0  0  0  0  0  0
  148.7542  141.9275  155.5784 H   0  0  0  0  0  0  0  0  0  0  0  0
  150.2669  142.5403  154.9193 H   0  0  0  0  0  0  0  0  0  0  0  0
  150.1848  142.0161  156.6005 H   0  0  0  0  0  0  0  0  0  0  0  0
  148.2874  139.2451  155.0479 H   0  0  0  0  0  0  0  0  0  0  0  0
  149.6527  136.8582  153.3397 H   0  0  0  0  0  0  0  0  0  0  0  0
  149.4895  134.9057  153.4026 H   0  0  0  0  0  0  0  0  0  0  0  0
  150.8958  133.1618  155.1313 H   0  0  0  0  0  0  0  0  0  0  0  0
  149.3157  133.4177  155.8115 H   0  0  0  0  0  0  0  0  0  0  0  0
  150.0603  132.0888  153.2167 H   0  0  0  0  0  0  0  0  0  0  0  0
  149.5597  130.4083  154.8313 H   0  0  0  0  0  0  0  0  0  0  0  0
  148.2170  131.3310  155.4957 H   0  0  0  0  0  0  0  0  0  0  0  0
  148.2061  129.6498  153.0415 H   0  0  0  0  0  0  0  0  0  0  0  0
  146.8702  130.1746  154.0630 H   0  0  0  0  0  0  0  0  0  0  0  0
  145.4805  132.0680  152.9324 H   0  0  0  0  0  0  0  0  0  0  0  0
  144.4757  130.3304  151.4270 H   0  0  0  0  0  0  0  0  0  0  0  0
  145.5240  129.5900  152.6184 H   0  0  0  0  0  0  0  0  0  0  0  0
  146.0868  129.7970  150.9627 H   0  0  0  0  0  0  0  0  0  0  0  0
  144.8666  132.6091  150.5555 H   0  0  0  0  0  0  0  0  0  0  0  0
  146.5201  132.2699  150.0580 H   0  0  0  0  0  0  0  0  0  0  0  0
  146.1695  133.6231  151.1332 H   0  0  0  0  0  0  0  0  0  0  0  0
  147.3257  133.3165  153.7107 H   0  0  0  0  0  0  0  0  0  0  0  0
  148.3552  133.5110  152.2880 H   0  0  0  0  0  0  0  0  0  0  0  0
  152.9178  137.3114  154.9864 H   0  0  0  0  0  0  0  0  0  0  0  0
  153.6094  138.8542  154.4467 H   0  0  0  0  0  0  0  0  0  0  0  0
  152.7668  137.8081  153.2875 H   0  0  0  0  0  0  0  0  0  0  0  0
  148.0383  131.3406  151.7376 H   0  0  0  0  0  0  0  0  0  0  0  0
  1  2  1  0  0  0  0
  1 21  1  0  0  0  0
  1 22  1  0  0  0  0
  1 23  1  0  0  0  0
  2 20  2  0  0  0  0
  2  3  1  0  0  0  0
  3  4  2  0  0  0  0
  3 24  1  0  0  0  0
  4  5  1  0  0  0  0
  4 18  1  0  0  0  0
  5  6  1  0  0  0  0
  5 25  1  0  0  0  0
  6  7  2  0  0  0  0
  6  8  1  0  0  0  0
  8  9  1  0  0  0  0
  8 26  1  0  0  0  0
  9 10  1  0  0  0  0
  9 27  1  0  0  0  0
  9 28  1  0  0  0  0
 10 17  1  0  0  0  0
 10 11  1  0  0  0  0
 10 29  1  0  0  0  0
 11 12  1  0  0  0  0
 11 30  1  0  0  0  0
 11 31  1  0  0  0  0
 12 13  1  0  0  0  0
 12 32  1  0  0  0  0
 12 33  1  0  0  0  0
 13 14  1  0  0  0  0
 13 17  1  0  0  0  0
 13 46  1  0  0  0  0
 14 15  1  0  0  0  0
 14 16  1  0  0  0  0
 14 34  1  0  0  0  0
 15 35  1  0  0  0  0
 15 36  1  0  0  0  0
 15 37  1  0  0  0  0
 16 38  1  0  0  0  0
 16 39  1  0  0  0  0
 16 40  1  0  0  0  0
 17 41  1  0  0  0  0
 17 42  1  0  0  0  0
 18 19  1  0  0  0  0
 18 20  1  0  0  0  0
 19 43  1  0  0  0  0
 19 44  1  0  0  0  0
 19 45  1  0  0  0  0
M  CHG  1  13   1
M  END
> <s_m_source_file>
AV-unprocessed.smi

> <i_m_source_file_index>
1600

> <i_lp_mmshare_version>
43012

> <i_f3d_flags>
0

> <s_epik_input>
W0NIM11jMVtjSF1jKG4objEpW0NIM10pW05IXUMoPU8pW05IXVtDSDJdW0NAQEhdMltDSDJdW0NIMl1OKFtDSDJdMilbQ0hdKFtDSDNdKVtDSDNd

> <s_epik_cmdline>
J2VwaWtfcHl0aG9uJywgJy1waCcsICc3LjAnLCAnLXRuJywgJzgnLCAnLW1hJywgJzIwMCcsICctbWV0YWxfYmluZGluZycsICctaW1hZScsICc8aW5maWxlLm1hZT4nLCAnLW9tYWUnLCAnPG91dGZpbGUubWFlPic=

> <r_lp_tautomer_probability>
1

> <r_epik_Ionization_Penalty>
0.000297652

> <r_epik_Ionization_Penalty_Charging>
0.000213653

> <r_epik_Ionization_Penalty_Neutral>
8.3999e-05

> <r_epik_State_Penalty>
-0

> <r_epik_Charging_Adjusted_Penalty>
0.000213653

> <i_epik_Tot_Q>
1

> <i_epik_Tot_abs_Q>
1

> <r_epik_Metal_State_Penalty>
-0

> <b_epik_Metal_Only>
0

> <s_lp_Force_Field>
OPLS_2005

> <r_lp_Energy>
33.4544

> <b_lp_Chiralities_Consistent>
1

> <s_lp_Variant>
AV-unprocessed.smi:1600-2

> <Gold.Version>
5.8.1

> <Gold.Id.Protein>
6NUR|6NUR_protein|mol2

> <Gold.PLP.Fitness>
47.7872

> <Gold.PLP.PLP>
-39.4406

> <Gold.PLP.part.hbond>
-4.2605

> <Gold.PLP.part.metal>
0.0000

> <Gold.PLP.part.buried>
-3.9451

> <Gold.PLP.part.nonpolar>
-32.7517

> <Gold.PLP.part.repulsive>
0.1516

> <Gold.PLP.ligand.clash>
0.0000

> <Gold.PLP.ligand.torsion>
1.1096

> <Gold.PLP.Chemscore.Hbond>
3.5147

> <Gold.PLP.Chemscore.CHOScore>
0.0000

> <Gold.PLP.Chemscore.Metal>
0.0000

> <Gold.Chemscore.Hbonds>
donor molecule, donor type, donor heavy atom, donor atom, acceptor molecule, acceptor atom, score
      L1  H     5    25       P1  7948  1.00
      L1  H     8    26       P1  7948  0.41
      L1  H    13    46       P1 10747  1.00
      P1  H  7989  7998       L1    20  0.85

> <Gold.PLP.Chemscore.Internal.Correction>
0.0218

> <Gold.Rescore>
     Score         DG    S(hbond)    S(metal)    S(lipo)     H(rot)  DE(clash)    DE(int)     intcor
     17.18     -18.48       2.25        0.00      78.24       1.44       0.18       1.12       ----

> <Gold.Chemscore.Fitness>
17.1806

> <Gold.Chemscore.DG>
-18.4784

> <Gold.Chemscore.ZeroCoef>
-5.4800

> <Gold.Chemscore.Hbond>
2.2523

> <Gold.Chemscore.Metal>
0.0000

> <Gold.Chemscore.Lipo>
78.2410

> <Gold.Chemscore.Internal_Hbond>
0.0000

> <Gold.Chemscore.DEClash>
0.1808

> <Gold.Chemscore.DEInternal>
1.1169

> <Gold.Chemscore.Rot>
1.4369

> <Gold.Chemscore.Internal.Correction>
   9.000000E+99

> <Gold.Chemscore.Hbonds>
donor molecule, donor type, donor heavy atom, donor atom, acceptor molecule, acceptor atom, score
      L1  H     5    25       P1  7948  0.60
      L1  H     8    26       P1  7948  0.01
      L1  H    13    46       P1 10747  1.00
      P1  H  7989  7998       L1    20  0.05

> <Gold.Chemscore.Hbond.Weighted>
-7.5227

> <Gold.Chemscore.Metal.Weighted>
-0.0000

> <Gold.Chemscore.Lipo.Weighted>
-9.1542

> <Gold.Chemscore.Internal_Hbond.Weighted>
0.0000

> <Gold.Chemscore.DEClash.Weighted>
0.1808

> <Gold.Chemscore.DEInternal.Weighted>
1.1169

> <Gold.Chemscore.Rot.Weighted>
3.6785

> <Gold.Chemscore.Internal.Correction.Weighted>
   9.000000E+99

> <Gold.Protein.RotatedTorsions>
[ 6907 6896 6895 6894 ] final  153.07 input  -60.11 | X-H torsion
[ 7974 7965 7964 7962 ] final -130.17 input  175.53 | X-H torsion
[ 8008 7997 7996 7995 ] final   84.90 input   59.86 | X-H torsion
[ 10167 10162 10161 10158 ] final   84.68 input  -65.29 | X-H torsion
[ 10718 10713 10712 10709 ] final -176.09 input   66.30 | X-H torsion
[ 10763 10752 10751 10750 ] final  120.36 input  -60.55 | X-H torsion
[ 11005 11000 10999 10996 ] final   21.27 input  -57.11 | X-H torsion

> <Gold.Protein.ActiveResidues>
 VAL166  LYS551  ARG553  GLY616  TRP617  ASP618  TYR619  PRO620  LYS621  CYS622 
 ASP623  PHE694  ASN695  SER759  ASP760  ASP761  ALA762  ILE779  LEU786  VAL792 
 PHE793  MET794  SER795  GLU796  ALA797  LYS798  CYS799  TRP800  GLU811  SER814 

> <Gold.Protein.RotatedAtoms>
  152.0779  133.4138  159.4487 H   0  0  0  0  0  0  0  0  0  0  0  0  # atno 6907 bound_to 6896
  150.6862  134.3016  159.4718 H   0  0  0  0  0  0  0  0  0  0  0  0  # atno 6908 bound_to 6896
  152.0855  134.9442  160.0623 H   0  0  0  0  0  0  0  0  0  0  0  0  # atno 6909 bound_to 6896
  144.9500  140.7334  143.4793 H   0  0  0  0  0  0  0  0  0  0  0  0  # atno 7974 bound_to 7965
  155.9430  140.3406  155.6343 H   0  0  0  0  0  0  0  0  0  0  0  0  # atno 8008 bound_to 7997
  155.7015  140.0761  157.2426 H   0  0  0  0  0  0  0  0  0  0  0  0  # atno 8009 bound_to 7997
  154.4106  140.1639  156.2184 H   0  0  0  0  0  0  0  0  0  0  0  0  # atno 8010 bound_to 7997
  139.9056  144.6303  150.8591 H   0  0  0  0  0  0  0  0  0  0  0  0  # atno 10167 bound_to 10162
  156.8096  130.9581  151.3116 H   0  0  0  0  0  0  0  0  0  0  0  0  # atno 10718 bound_to 10713
  153.5973  135.3454  155.2932 H   0  0  0  0  0  0  0  0  0  0  0  0  # atno 10763 bound_to 10752
  154.8642  135.4219  154.2451 H   0  0  0  0  0  0  0  0  0  0  0  0  # atno 10764 bound_to 10752
  153.3272  135.7042  153.7050 H   0  0  0  0  0  0  0  0  0  0  0  0  # atno 10765 bound_to 10752
  140.3935  134.1794  155.7663 H   0  0  0  0  0  0  0  0  0  0  0  0  # atno 11005 bound_to 11000
  145.2858  139.1901  143.4766 LP  0  0  0  0  0  0  0  0  0  0  0  0  # atno 17320 bound_to 7965
  146.3317  140.2827  142.8611 LP  0  0  0  0  0  0  0  0  0  0  0  0  # atno 17321 bound_to 7965
  140.7697  143.3404  151.2220 LP  0  0  0  0  0  0  0  0  0  0  0  0  # atno 17342 bound_to 10162
  139.6987  143.9569  152.2895 LP  0  0  0  0  0  0  0  0  0  0  0  0  # atno 17343 bound_to 10162
  157.6513  130.8886  149.9638 LP  0  0  0  0  0  0  0  0  0  0  0  0  # atno 17370 bound_to 10713
  156.1052  130.3653  150.0146 LP  0  0  0  0  0  0  0  0  0  0  0  0  # atno 17371 bound_to 10713
  141.1882  133.8264  157.1002 LP  0  0  0  0  0  0  0  0  0  0  0  0  # atno 17394 bound_to 11000
  140.0389  134.9864  157.0924 LP  0  0  0  0  0  0  0  0  0  0  0  0  # atno 17395 bound_to 11000

$$$$
