AV-unprocessed.smi:235|AV-procd|sdf|1805|dock1
  -GOLD-   2262020383D 1   1.00000     0.00000
 Structure written by MMmdl.
 54 58  0  0  0  0  0  0  0  0  1 V2000
  152.0068  140.7256  158.8183 O   0  0  0  0  0  0  0  0  0  0  0  0
  151.4002  141.3389  157.9388 C   0  0  0  0  0  0  0  0  0  0  0  0
  151.3152  142.6765  157.8971 N   0  0  0  0  0  0  0  0  0  0  0  0
  151.9000  143.5688  158.8425 C   0  0  0  0  0  0  0  0  0  0  0  0
  151.3755  144.9875  158.8772 C   0  0  0  0  0  0  0  0  0  0  0  0
  152.7439  144.7078  158.3163 C   0  0  0  0  0  0  0  0  0  0  0  0
  150.7095  140.5814  156.7961 C   0  0  2  0  0  0  0  0  0  0  0  0
  150.3340  141.4995  155.6144 C   0  0  0  0  0  0  0  0  0  0  0  0
  149.0141  140.9339  155.1065 C   0  0  0  0  0  0  0  0  0  0  0  0
  148.3519  140.4693  156.3974 C   0  0  0  0  0  0  0  0  0  0  0  0
  149.4413  139.9940  157.2473 N   0  0  0  0  0  0  0  0  0  0  0  0
  149.5246  138.6657  157.5135 C   0  0  0  0  0  0  0  0  0  0  0  0
  149.3143  138.2064  158.7760 N   0  0  0  0  0  0  0  0  0  0  0  0
  149.3313  136.8936  159.0257 C   0  0  0  0  0  0  0  0  0  0  0  0
  149.5211  135.8842  158.1736 N   0  0  0  0  0  0  0  0  0  0  0  0
  149.7297  136.3411  156.9057 C   0  0  0  0  0  0  0  0  0  0  0  0
  149.7561  137.7026  156.4937 C   0  0  0  0  0  0  0  0  0  0  0  0
  150.0049  137.7792  155.1288 N   0  0  0  0  0  0  0  0  0  0  0  0
  150.0972  136.5342  154.7501 C   0  0  0  0  0  0  0  0  0  0  0  0
  149.9304  135.6050  155.7518 N   0  0  0  0  0  0  0  0  0  0  0  0
  149.9535  134.1612  155.6121 C   0  0  0  0  0  0  0  0  0  0  0  0
  149.0406  133.6529  154.4754 C   0  0  2  0  0  0  0  0  0  0  0  0
  147.8091  134.3368  154.5907 O   0  0  0  0  0  0  0  0  0  0  0  0
  148.7742  132.1303  154.4967 C   0  0  1  0  0  0  0  0  0  0  0  0
  148.0365  131.6029  153.2613 C   0  0  0  0  0  0  0  0  0  0  0  0
  148.4833  130.1525  153.1473 C   0  0  0  0  0  0  0  0  0  0  0  0
  149.6388  130.0413  154.1417 C   0  0  0  0  0  0  0  0  0  0  0  0
  149.9827  131.3851  154.4388 O   0  0  0  0  0  0  0  0  0  0  0  0
  150.8069  143.0939  157.1310 H   0  0  0  0  0  0  0  0  0  0  0  0
  152.1932  143.1499  159.8043 H   0  0  0  0  0  0  0  0  0  0  0  0
  150.5920  145.2607  158.1729 H   0  0  0  0  0  0  0  0  0  0  0  0
  151.3217  145.4791  159.8464 H   0  0  0  0  0  0  0  0  0  0  0  0
  153.6033  145.0100  158.9114 H   0  0  0  0  0  0  0  0  0  0  0  0
  152.8772  144.7794  157.2387 H   0  0  0  0  0  0  0  0  0  0  0  0
  151.3726  139.7969  156.4218 H   0  0  0  0  0  0  0  0  0  0  0  0
  150.1784  142.5302  155.9374 H   0  0  0  0  0  0  0  0  0  0  0  0
  151.1010  141.5119  154.8394 H   0  0  0  0  0  0  0  0  0  0  0  0
  148.4173  141.6636  154.5589 H   0  0  0  0  0  0  0  0  0  0  0  0
  149.1990  140.0810  154.4518 H   0  0  0  0  0  0  0  0  0  0  0  0
  147.8827  141.3146  156.9023 H   0  0  0  0  0  0  0  0  0  0  0  0
  147.5645  139.7370  156.2145 H   0  0  0  0  0  0  0  0  0  0  0  0
  149.1581  136.6118  160.0538 H   0  0  0  0  0  0  0  0  0  0  0  0
  150.2741  136.2590  153.7205 H   0  0  0  0  0  0  0  0  0  0  0  0
  150.9838  133.8473  155.4386 H   0  0  0  0  0  0  0  0  0  0  0  0
  149.6501  133.7260  156.5654 H   0  0  0  0  0  0  0  0  0  0  0  0
  149.4745  133.9250  153.5124 H   0  0  0  0  0  0  0  0  0  0  0  0
  147.5762  134.3822  155.5056 H   0  0  0  0  0  0  0  0  0  0  0  0
  148.2297  131.8518  155.4011 H   0  0  0  0  0  0  0  0  0  0  0  0
  146.9543  131.7052  153.3481 H   0  0  0  0  0  0  0  0  0  0  0  0
  148.3523  132.1489  152.3712 H   0  0  0  0  0  0  0  0  0  0  0  0
  147.6822  129.4576  153.4016 H   0  0  0  0  0  0  0  0  0  0  0  0
  148.8111  129.9316  152.1308 H   0  0  0  0  0  0  0  0  0  0  0  0
  149.3092  129.5437  155.0544 H   0  0  0  0  0  0  0  0  0  0  0  0
  150.4913  129.4925  153.7412 H   0  0  0  0  0  0  0  0  0  0  0  0
  1  2  2  0  0  0  0
  2  3  1  0  0  0  0
  2  7  1  0  0  0  0
  3  4  1  0  0  0  0
  3 29  1  0  0  0  0
  4  6  1  0  0  0  0
  4  5  1  0  0  0  0
  4 30  1  0  0  0  0
  5  6  1  0  0  0  0
  5 31  1  0  0  0  0
  5 32  1  0  0  0  0
  6 33  1  0  0  0  0
  6 34  1  0  0  0  0
  7 11  1  0  0  0  0
  7  8  1  0  0  0  0
  7 35  1  0  0  0  0
  8  9  1  0  0  0  0
  8 36  1  0  0  0  0
  8 37  1  0  0  0  0
  9 10  1  0  0  0  0
  9 38  1  0  0  0  0
  9 39  1  0  0  0  0
 10 11  1  0  0  0  0
 10 40  1  0  0  0  0
 10 41  1  0  0  0  0
 11 12  1  0  0  0  0
 12 17  1  0  0  0  0
 12 13  2  0  0  0  0
 13 14  1  0  0  0  0
 14 15  2  0  0  0  0
 14 42  1  0  0  0  0
 15 16  1  0  0  0  0
 16 20  1  0  0  0  0
 16 17  2  0  0  0  0
 17 18  1  0  0  0  0
 18 19  2  0  0  0  0
 19 20  1  0  0  0  0
 19 43  1  0  0  0  0
 20 21  1  0  0  0  0
 21 22  1  0  0  0  0
 21 44  1  0  0  0  0
 21 45  1  0  0  0  0
 22 23  1  0  0  0  0
 22 24  1  0  0  0  0
 22 46  1  0  0  0  0
 23 47  1  0  0  0  0
 24 28  1  0  0  0  0
 24 25  1  0  0  0  0
 24 48  1  0  0  0  0
 25 26  1  0  0  0  0
 25 49  1  0  0  0  0
 25 50  1  0  0  0  0
 26 27  1  0  0  0  0
 26 51  1  0  0  0  0
 26 52  1  0  0  0  0
 27 28  1  0  0  0  0
 27 53  1  0  0  0  0
 27 54  1  0  0  0  0
M  END
> <s_m_source_file>
AV-unprocessed.smi

> <i_m_source_file_index>
235

> <i_lp_mmshare_version>
43012

> <i_f3d_flags>
0

> <s_epik_input>
W0NIMl0xW0NIMl1bQ0hdMVtOSF1DKD1PKVtDQEBIXTJbQ0gyXVtDSDJdW0NIMl1OMmMobltjSF1uMyljKGMzNCluW2NIXW40W0NIMl1bQ0BIXShbT0hdKVtDQEBIXTVbQ0gyXVtDSDJdW0NIMl1PNQ==

> <s_epik_cmdline>
J2VwaWtfcHl0aG9uJywgJy1waCcsICc3LjAnLCAnLXRuJywgJzgnLCAnLW1hJywgJzIwMCcsICctbWV0YWxfYmluZGluZycsICctaW1hZScsICc8aW5maWxlLm1hZT4nLCAnLW9tYWUnLCAnPG91dGZpbGUubWFlPic=

> <r_lp_tautomer_probability>
1

> <r_epik_Ionization_Penalty>
0.000526714

> <r_epik_Ionization_Penalty_Charging>
0

> <r_epik_Ionization_Penalty_Neutral>
0.000526714

> <r_epik_State_Penalty>
0.000272704

> <r_epik_Charging_Adjusted_Penalty>
0.000272704

> <i_epik_Tot_Q>
0

> <i_epik_Tot_abs_Q>
0

> <r_epik_Metal_State_Penalty>
-0

> <b_epik_Metal_Only>
0

> <s_lp_Force_Field>
OPLS_2005

> <r_lp_Energy>
59.397

> <b_lp_Chiralities_Consistent>
1

> <s_lp_Variant>
AV-unprocessed.smi:235-5

> <Gold.Version>
5.8.1

> <Gold.Id.Protein>
6NUR|6NUR_protein|mol2

> <Gold.PLP.Fitness>
46.9423

> <Gold.PLP.PLP>
-42.6144

> <Gold.PLP.part.hbond>
-1.6245

> <Gold.PLP.part.metal>
0.0000

> <Gold.PLP.part.buried>
-5.9378

> <Gold.PLP.part.nonpolar>
-34.2115

> <Gold.PLP.part.repulsive>
0.1417

> <Gold.PLP.ligand.clash>
0.0225

> <Gold.PLP.ligand.torsion>
0.8575

> <Gold.PLP.Chemscore.Hbond>
1.0000

> <Gold.PLP.Chemscore.CHOScore>
0.8888

> <Gold.PLP.Chemscore.Metal>
0.0000

> <Gold.Chemscore.Hbonds>
donor molecule, donor type, donor heavy atom, donor atom, acceptor molecule, acceptor atom, score
      P1  H  6896  6909       L1    15  0.39
      L1  C    19    43       P1  7948  0.52
      L1  C    19    43       P1  7949  0.13

> <Gold.PLP.Chemscore.Internal.Correction>
0.3988

> <Gold.Rescore>
     Score         DG    S(hbond)    S(metal)    S(lipo)     H(rot)  DE(clash)    DE(int)     intcor
     10.92     -11.87       0.89        0.00      94.86       3.00       0.09       0.86       ----

> <Gold.Chemscore.Fitness>
10.9187

> <Gold.Chemscore.DG>
-11.8685

> <Gold.Chemscore.ZeroCoef>
-5.4800

> <Gold.Chemscore.Hbond>
0.8882

> <Gold.Chemscore.Metal>
0.0000

> <Gold.Chemscore.Lipo>
94.8636

> <Gold.Chemscore.Internal_Hbond>
0.0000

> <Gold.Chemscore.DEClash>
0.0917

> <Gold.Chemscore.DEInternal>
0.8582

> <Gold.Chemscore.Rot>
2.9989

> <Gold.Chemscore.Internal.Correction>
   9.000000E+99

> <Gold.Chemscore.Hbonds>
donor molecule, donor type, donor heavy atom, donor atom, acceptor molecule, acceptor atom, score
      P1  H  6896  6909       L1    15  0.04

> <Gold.Chemscore.Hbond.Weighted>
-2.9667

> <Gold.Chemscore.Metal.Weighted>
-0.0000

> <Gold.Chemscore.Lipo.Weighted>
-11.0990

> <Gold.Chemscore.Internal_Hbond.Weighted>
0.0000

> <Gold.Chemscore.DEClash.Weighted>
0.0917

> <Gold.Chemscore.DEInternal.Weighted>
0.8582

> <Gold.Chemscore.Rot.Weighted>
7.6772

> <Gold.Chemscore.Internal.Correction.Weighted>
   9.000000E+99

> <Gold.Protein.RotatedTorsions>
[ 6907 6896 6895 6894 ] final   58.32 input  -60.11 | X-H torsion
[ 7974 7965 7964 7962 ] final  -21.49 input  175.53 | X-H torsion
[ 8008 7997 7996 7995 ] final  -69.08 input   59.86 | X-H torsion
[ 10167 10162 10161 10158 ] final  177.80 input  -65.29 | X-H torsion
[ 10718 10713 10712 10709 ] final -118.98 input   66.30 | X-H torsion
[ 10763 10752 10751 10750 ] final  156.27 input  -60.55 | X-H torsion
[ 11005 11000 10999 10996 ] final   46.74 input  -57.11 | X-H torsion

> <Gold.Protein.ActiveResidues>
 VAL166  LYS551  ARG553  GLY616  TRP617  ASP618  TYR619  PRO620  LYS621  CYS622 
 ASP623  PHE694  ASN695  SER759  ASP760  ASP761  ALA762  ILE779  LEU786  VAL792 
 PHE793  MET794  SER795  GLU796  ALA797  LYS798  CYS799  TRP800  GLU811  SER814 

> <Gold.Protein.RotatedAtoms>
  152.3813  134.6586  160.0141 H   0  0  0  0  0  0  0  0  0  0  0  0  # atno 6907 bound_to 6896
  151.6848  133.3306  159.3236 H   0  0  0  0  0  0  0  0  0  0  0  0  # atno 6908 bound_to 6896
  150.7750  134.6685  159.6423 H   0  0  0  0  0  0  0  0  0  0  0  0  # atno 6909 bound_to 6896
  146.1730  140.4348  142.8525 H   0  0  0  0  0  0  0  0  0  0  0  0  # atno 7974 bound_to 7965
  154.4913  140.0860  156.7600 H   0  0  0  0  0  0  0  0  0  0  0  0  # atno 8008 bound_to 7997
  155.4224  140.3446  155.4254 H   0  0  0  0  0  0  0  0  0  0  0  0  # atno 8009 bound_to 7997
  156.1333  140.1508  156.9020 H   0  0  0  0  0  0  0  0  0  0  0  0  # atno 8010 bound_to 7997
  139.5268  144.2755  152.0591 H   0  0  0  0  0  0  0  0  0  0  0  0  # atno 10167 bound_to 10162
  156.1146  130.6276  150.9358 H   0  0  0  0  0  0  0  0  0  0  0  0  # atno 10718 bound_to 10713
  154.1817  135.2799  155.3050 H   0  0  0  0  0  0  0  0  0  0  0  0  # atno 10763 bound_to 10752
  154.5997  135.5533  153.7365 H   0  0  0  0  0  0  0  0  0  0  0  0  # atno 10764 bound_to 10752
  153.0136  135.6389  154.1956 H   0  0  0  0  0  0  0  0  0  0  0  0  # atno 10765 bound_to 10752
  140.1341  134.4667  155.8498 H   0  0  0  0  0  0  0  0  0  0  0  0  # atno 11005 bound_to 11000
  144.8192  140.6520  143.6364 LP  0  0  0  0  0  0  0  0  0  0  0  0  # atno 17320 bound_to 7965
  145.4289  139.1552  143.4033 LP  0  0  0  0  0  0  0  0  0  0  0  0  # atno 17321 bound_to 7965
  140.2213  144.4464  150.6341 LP  0  0  0  0  0  0  0  0  0  0  0  0  # atno 17342 bound_to 10162
  140.6417  143.2205  151.6276 LP  0  0  0  0  0  0  0  0  0  0  0  0  # atno 17343 bound_to 10162
  157.6329  131.0919  150.8406 LP  0  0  0  0  0  0  0  0  0  0  0  0  # atno 17370 bound_to 10713
  156.8511  130.5081  149.5312 LP  0  0  0  0  0  0  0  0  0  0  0  0  # atno 17371 bound_to 10713
  141.2175  133.6807  156.7125 LP  0  0  0  0  0  0  0  0  0  0  0  0  # atno 17394 bound_to 11000
  140.2804  134.8321  157.3928 LP  0  0  0  0  0  0  0  0  0  0  0  0  # atno 17395 bound_to 11000

$$$$
