AV-unprocessed.smi:1546|AV-procd|sdf|6219|dock8
  -GOLD-   22720 6393D 1   1.00000     0.00000
 Structure written by MMmdl.
 29 30  0  0  0  0  0  0  0  0  2 V2000
  154.0218  139.2956  158.4884 O   0  0  0  0  0  0  0  0  0  0  0  0
  153.0279  140.0117  158.6136 C   0  0  0  0  0  0  0  0  0  0  0  0
  152.9155  140.9713  159.7995 C   0  0  0  0  0  0  0  0  0  0  0  0
  152.8360  142.3089  159.3302 O   0  0  0  0  0  0  0  0  0  0  0  0
  152.5145  143.2276  160.3594 C   0  0  0  0  0  0  0  0  0  0  0  0
  152.1504  144.5589  159.7380 C   0  0  0  0  0  0  0  0  0  0  0  0
  151.0020  144.6585  158.7596 C   0  0  0  0  0  0  0  0  0  0  0  0
  152.4198  144.8255  158.2744 C   0  0  0  0  0  0  0  0  0  0  0  0
  151.9750  140.0165  157.7767 N   0  0  0  0  0  0  0  0  0  0  0  0
  151.7654  139.2518  156.5947 C   0  0  0  0  0  0  0  0  0  0  0  0
  152.4308  138.0299  156.3215 C   0  0  0  0  0  0  0  0  0  0  0  0
  152.2463  137.3149  155.1907 N   0  0  0  0  0  0  0  0  0  0  0  0
  151.3848  137.7980  154.2717 C   0  0  0  0  0  0  0  0  0  0  0  0
  150.6824  139.0077  154.4302 C   0  0  0  0  0  0  0  0  0  0  0  0
  150.8796  139.7508  155.6104 C   0  0  0  0  0  0  0  0  0  0  0  0
  150.2124  140.9326  155.7813 O   0  5  0  0  0  0  0  0  0  0  0  0
  152.0265  140.7208  160.3807 H   0  0  0  0  0  0  0  0  0  0  0  0
  153.7866  140.8478  160.4450 H   0  0  0  0  0  0  0  0  0  0  0  0
  151.6784  142.8568  160.9546 H   0  0  0  0  0  0  0  0  0  0  0  0
  153.3669  143.3680  161.0255 H   0  0  0  0  0  0  0  0  0  0  0  0
  152.2787  145.4062  160.4090 H   0  0  0  0  0  0  0  0  0  0  0  0
  150.4843  143.7406  158.4874 H   0  0  0  0  0  0  0  0  0  0  0  0
  150.3776  145.5484  158.8080 H   0  0  0  0  0  0  0  0  0  0  0  0
  152.7442  145.8273  157.9998 H   0  0  0  0  0  0  0  0  0  0  0  0
  152.8467  144.0187  157.6818 H   0  0  0  0  0  0  0  0  0  0  0  0
  151.1901  140.5891  158.0530 H   0  0  0  0  0  0  0  0  0  0  0  0
  153.1508  137.6069  157.0041 H   0  0  0  0  0  0  0  0  0  0  0  0
  151.2559  137.2047  153.3785 H   0  0  0  0  0  0  0  0  0  0  0  0
  150.0091  139.3558  153.6608 H   0  0  0  0  0  0  0  0  0  0  0  0
  1  2  2  0  0  0  0
  2  3  1  0  0  0  0
  2  9  1  0  0  0  0
  3  4  1  0  0  0  0
  3 17  1  0  0  0  0
  3 18  1  0  0  0  0
  4  5  1  0  0  0  0
  5  6  1  0  0  0  0
  5 19  1  0  0  0  0
  5 20  1  0  0  0  0
  6  8  1  0  0  0  0
  6  7  1  0  0  0  0
  6 21  1  0  0  0  0
  7  8  1  0  0  0  0
  7 22  1  0  0  0  0
  7 23  1  0  0  0  0
  8 24  1  0  0  0  0
  8 25  1  0  0  0  0
  9 26  1  0  0  0  0
  9 10  1  0  0  0  0
 10 15  1  0  0  0  0
 10 11  2  0  0  0  0
 11 27  1  0  0  0  0
 11 12  1  0  0  0  0
 12 13  2  0  0  0  0
 13 28  1  0  0  0  0
 13 14  1  0  0  0  0
 14 15  2  0  0  0  0
 14 29  1  0  0  0  0
 15 16  1  0  0  0  0
M  CHG  1  16  -1
M  END
> <s_m_source_file>
AV-unprocessed.smi

> <i_m_source_file_index>
1546

> <i_lp_mmshare_version>
43012

> <i_f3d_flags>
0

> <s_epik_input>
W0NIMl0xW0NIMl1bQ0hdMVtDSDJdT1tDSDJdQyg9TylbTkhdYzJbY0hdbltjSF1bY0hdYzJbT0hd

> <s_epik_cmdline>
J2VwaWtfcHl0aG9uJywgJy1waCcsICc3LjAnLCAnLXRuJywgJzgnLCAnLW1hJywgJzIwMCcsICctbWV0YWxfYmluZGluZycsICctaW1hZScsICc8aW5maWxlLm1hZT4nLCAnLW9tYWUnLCAnPG91dGZpbGUubWFlPic=

> <r_lp_tautomer_probability>
1

> <r_epik_Ionization_Penalty>
6.21828

> <r_epik_Ionization_Penalty_Charging>
1.1523

> <r_epik_Ionization_Penalty_Neutral>
5.06598

> <r_epik_State_Penalty>
5.06586

> <r_epik_Charging_Adjusted_Penalty>
6.21817

> <i_epik_Tot_Q>
-1

> <i_epik_Tot_abs_Q>
1

> <r_epik_Metal_State_Penalty>
1.16681

> <b_epik_Metal_Only>
1

> <s_lp_Force_Field>
OPLS_2005

> <r_lp_Energy>
16.9925

> <b_lp_Chiralities_Consistent>
1

> <s_lp_Variant>
AV-unprocessed.smi:1546-2

> <Gold.Version>
5.8.1

> <Gold.Id.Protein>
6NUR|6NUR_protein|mol2

> <Gold.PLP.Fitness>
43.8690

> <Gold.PLP.PLP>
-35.9485

> <Gold.PLP.part.hbond>
-2.0000

> <Gold.PLP.part.metal>
0.0000

> <Gold.PLP.part.buried>
-5.0492

> <Gold.PLP.part.nonpolar>
-29.7195

> <Gold.PLP.part.repulsive>
0.1962

> <Gold.PLP.ligand.clash>
0.0000

> <Gold.PLP.ligand.torsion>
0.5199

> <Gold.PLP.Chemscore.Hbond>
1.8000

> <Gold.PLP.Chemscore.CHOScore>
1.0000

> <Gold.PLP.Chemscore.Metal>
0.0000

> <Gold.Chemscore.Hbonds>
donor molecule, donor type, donor heavy atom, donor atom, acceptor molecule, acceptor atom, score
      P1  H  7997  8010       L1     1  1.00
      P1  H 10752 10765       L1    12  0.77
      L1  C    13    28       P1  7949  1.00

> <Gold.PLP.Chemscore.Internal.Correction>
0.5603

> <Gold.Rescore>
     Score         DG    S(hbond)    S(metal)    S(lipo)     H(rot)  DE(clash)    DE(int)     intcor
     15.84     -17.53       1.53        0.00      94.71       1.62       0.04       1.65       ----

> <Gold.Chemscore.Fitness>
15.8419

> <Gold.Chemscore.DG>
-17.5256

> <Gold.Chemscore.ZeroCoef>
-5.4800

> <Gold.Chemscore.Hbond>
1.5306

> <Gold.Chemscore.Metal>
0.0000

> <Gold.Chemscore.Lipo>
94.7109

> <Gold.Chemscore.Internal_Hbond>
0.0000

> <Gold.Chemscore.DEClash>
0.0376

> <Gold.Chemscore.DEInternal>
1.6461

> <Gold.Chemscore.Rot>
1.6202

> <Gold.Chemscore.Internal.Correction>
   9.000000E+99

> <Gold.Chemscore.Hbonds>
donor molecule, donor type, donor heavy atom, donor atom, acceptor molecule, acceptor atom, score
      P1  H  7997  8010       L1     1  0.69
      P1  H 10752 10765       L1    12  0.63

> <Gold.Chemscore.Hbond.Weighted>
-5.1121

> <Gold.Chemscore.Metal.Weighted>
-0.0000

> <Gold.Chemscore.Lipo.Weighted>
-11.0812

> <Gold.Chemscore.Internal_Hbond.Weighted>
0.0000

> <Gold.Chemscore.DEClash.Weighted>
0.0376

> <Gold.Chemscore.DEInternal.Weighted>
1.6461

> <Gold.Chemscore.Rot.Weighted>
4.1476

> <Gold.Chemscore.Internal.Correction.Weighted>
   9.000000E+99

> <Gold.Protein.RotatedTorsions>
[ 6907 6896 6895 6894 ] final  -92.68 input  -60.11 | X-H torsion
[ 7974 7965 7964 7962 ] final  -50.89 input  175.53 | X-H torsion
[ 8008 7997 7996 7995 ] final    0.68 input   59.86 | X-H torsion
[ 10167 10162 10161 10158 ] final   62.79 input  -65.29 | X-H torsion
[ 10718 10713 10712 10709 ] final   82.26 input   66.30 | X-H torsion
[ 10763 10752 10751 10750 ] final -176.82 input  -60.55 | X-H torsion
[ 11005 11000 10999 10996 ] final -177.62 input  -57.11 | X-H torsion

> <Gold.Protein.ActiveResidues>
 VAL166  LYS551  ARG553  GLY616  TRP617  ASP618  TYR619  PRO620  LYS621  CYS622 
 ASP623  PHE694  ASN695  SER759  ASP760  ASP761  ALA762  ILE779  LEU786  VAL792 
 PHE793  MET794  SER795  GLU796  ALA797  LYS798  CYS799  TRP800  GLU811  SER814 

> <Gold.Protein.RotatedAtoms>
  150.6910  134.2085  159.4349 H   0  0  0  0  0  0  0  0  0  0  0  0  # atno 6907 bound_to 6896
  152.0047  134.9906  160.0575 H   0  0  0  0  0  0  0  0  0  0  0  0  # atno 6908 bound_to 6896
  152.1545  133.4508  159.4867 H   0  0  0  0  0  0  0  0  0  0  0  0  # atno 6909 bound_to 6896
  145.9250  140.7800  142.9628 H   0  0  0  0  0  0  0  0  0  0  0  0  # atno 7974 bound_to 7965
  154.6709  140.2611  155.7008 H   0  0  0  0  0  0  0  0  0  0  0  0  # atno 8008 bound_to 7997
  156.2658  140.2829  156.1139 H   0  0  0  0  0  0  0  0  0  0  0  0  # atno 8009 bound_to 7997
  155.1170  140.0376  157.2730 H   0  0  0  0  0  0  0  0  0  0  0  0  # atno 8010 bound_to 7997
  140.1401  144.4562  150.6816 H   0  0  0  0  0  0  0  0  0  0  0  0  # atno 10167 bound_to 10162
  157.6853  131.0040  150.2349 H   0  0  0  0  0  0  0  0  0  0  0  0  # atno 10718 bound_to 10713
  154.5677  135.2825  155.0858 H   0  0  0  0  0  0  0  0  0  0  0  0  # atno 10763 bound_to 10752
  154.2242  135.6385  153.5158 H   0  0  0  0  0  0  0  0  0  0  0  0  # atno 10764 bound_to 10752
  153.0048  135.5522  154.6290 H   0  0  0  0  0  0  0  0  0  0  0  0  # atno 10765 bound_to 10752
  140.4389  134.6450  157.4748 H   0  0  0  0  0  0  0  0  0  0  0  0  # atno 11005 bound_to 11000
  144.6757  140.2035  143.7384 LP  0  0  0  0  0  0  0  0  0  0  0  0  # atno 17320 bound_to 7965
  145.8501  139.2171  143.1777 LP  0  0  0  0  0  0  0  0  0  0  0  0  # atno 17321 bound_to 7965
  140.6766  143.2307  151.5492 LP  0  0  0  0  0  0  0  0  0  0  0  0  # atno 17342 bound_to 10162
  139.5476  144.2479  152.1472 LP  0  0  0  0  0  0  0  0  0  0  0  0  # atno 17343 bound_to 10162
  156.2974  130.3754  149.7782 LP  0  0  0  0  0  0  0  0  0  0  0  0  # atno 17370 bound_to 10713
  156.5423  130.8305  151.3273 LP  0  0  0  0  0  0  0  0  0  0  0  0  # atno 17371 bound_to 10713
  140.0083  134.6729  155.9420 LP  0  0  0  0  0  0  0  0  0  0  0  0  # atno 17394 bound_to 11000
  141.1714  133.6537  156.4665 LP  0  0  0  0  0  0  0  0  0  0  0  0  # atno 17395 bound_to 11000

$$$$
