AV-unprocessed.smi:525|AV-procd|sdf|2810|dock3
  -GOLD-   2262023293D 1   1.00000     0.00000
 Structure written by MMmdl.
 44 46  0  0  0  0  0  0  0  0  2 V2000
  148.2421  136.9009  162.8493 C   0  0  0  0  0  0  0  0  0  0  0  0
  148.6470  137.7255  161.7713 O   0  0  0  0  0  0  0  0  0  0  0  0
  148.5636  137.0627  160.5201 C   0  0  0  0  0  0  0  0  0  0  0  0
  149.2996  137.8795  159.4491 C   0  0  0  0  0  0  0  0  0  0  0  0
  148.4557  138.1260  158.2711 N   0  0  0  0  0  0  0  0  0  0  0  0
  148.1827  139.2891  157.6193 C   0  0  0  0  0  0  0  0  0  0  0  0
  148.8057  140.8850  158.0366 S   0  0  0  0  0  0  0  0  0  0  0  0
  150.4723  140.9656  157.3047 C   0  0  1  0  0  0  0  0  0  0  0  0
  150.4956  140.8442  155.7705 C   0  0  0  0  0  0  0  0  0  0  0  0
  149.7577  141.7207  155.0835 N   0  0  0  0  0  0  0  0  0  0  0  0
  151.1755  139.9887  155.2063 O   0  0  0  0  0  0  0  0  0  0  0  0
  151.1568  142.2513  157.7550 C   0  0  0  0  0  0  0  0  0  0  0  0
  152.2958  142.2106  158.5916 C   0  0  0  0  0  0  0  0  0  0  0  0
  152.9224  143.4043  158.9988 C   0  0  0  0  0  0  0  0  0  0  0  0
  152.4158  144.6468  158.5728 C   0  0  0  0  0  0  0  0  0  0  0  0
  151.2828  144.6948  157.7385 C   0  0  0  0  0  0  0  0  0  0  0  0
  150.6563  143.5015  157.3299 C   0  0  0  0  0  0  0  0  0  0  0  0
  147.3250  139.0040  156.6014 N   0  3  0  0  0  0  0  0  0  0  0  0
  147.0372  137.6384  156.6058 C   0  0  0  0  0  0  0  0  0  0  0  0
  146.2193  136.8787  155.7750 C   0  0  0  0  0  0  0  0  0  0  0  0
  146.1336  135.5002  156.0601 C   0  0  0  0  0  0  0  0  0  0  0  0
  146.8420  134.9276  157.1363 C   0  0  0  0  0  0  0  0  0  0  0  0
  147.6700  135.7070  157.9706 C   0  0  0  0  0  0  0  0  0  0  0  0
  147.7543  137.0685  157.6797 C   0  0  0  0  0  0  0  0  0  0  0  0
  148.3160  137.4573  163.7836 H   0  0  0  0  0  0  0  0  0  0  0  0
  148.8800  136.0200  162.9318 H   0  0  0  0  0  0  0  0  0  0  0  0
  147.2077  136.5764  162.7308 H   0  0  0  0  0  0  0  0  0  0  0  0
  149.0075  136.0687  160.5942 H   0  0  0  0  0  0  0  0  0  0  0  0
  147.5191  136.9312  160.2346 H   0  0  0  0  0  0  0  0  0  0  0  0
  149.5953  138.8477  159.8542 H   0  0  0  0  0  0  0  0  0  0  0  0
  150.2195  137.3834  159.1409 H   0  0  0  0  0  0  0  0  0  0  0  0
  151.0287  140.1168  157.7043 H   0  0  0  0  0  0  0  0  0  0  0  0
  149.7548  141.6982  154.0740 H   0  0  0  0  0  0  0  0  0  0  0  0
  149.2204  142.4187  155.5775 H   0  0  0  0  0  0  0  0  0  0  0  0
  152.6927  141.2621  158.9237 H   0  0  0  0  0  0  0  0  0  0  0  0
  153.7920  143.3662  159.6380 H   0  0  0  0  0  0  0  0  0  0  0  0
  152.8962  145.5624  158.8852 H   0  0  0  0  0  0  0  0  0  0  0  0
  150.8943  145.6479  157.4110 H   0  0  0  0  0  0  0  0  0  0  0  0
  149.7886  143.5522  156.6888 H   0  0  0  0  0  0  0  0  0  0  0  0
  145.6715  137.3158  154.9530 H   0  0  0  0  0  0  0  0  0  0  0  0
  145.5093  134.8699  155.4434 H   0  0  0  0  0  0  0  0  0  0  0  0
  146.7474  133.8686  157.3280 H   0  0  0  0  0  0  0  0  0  0  0  0
  148.2019  135.2573  158.7958 H   0  0  0  0  0  0  0  0  0  0  0  0
  146.9619  139.6934  155.9564 H   0  0  0  0  0  0  0  0  0  0  0  0
  1  2  1  0  0  0  0
  1 25  1  0  0  0  0
  1 26  1  0  0  0  0
  1 27  1  0  0  0  0
  2  3  1  0  0  0  0
  3  4  1  0  0  0  0
  3 28  1  0  0  0  0
  3 29  1  0  0  0  0
  4  5  1  0  0  0  0
  4 30  1  0  0  0  0
  4 31  1  0  0  0  0
  5 24  1  0  0  0  0
  5  6  1  0  0  0  0
  6  7  1  0  0  0  0
  6 18  2  0  0  0  0
  7  8  1  0  0  0  0
  8  9  1  0  0  0  0
  8 12  1  0  0  0  0
  8 32  1  0  0  0  0
  9 10  1  0  0  0  0
  9 11  2  0  0  0  0
 10 33  1  0  0  0  0
 10 34  1  0  0  0  0
 12 17  1  0  0  0  0
 12 13  2  0  0  0  0
 13 14  1  0  0  0  0
 13 35  1  0  0  0  0
 14 15  2  0  0  0  0
 14 36  1  0  0  0  0
 15 16  1  0  0  0  0
 15 37  1  0  0  0  0
 16 17  2  0  0  0  0
 16 38  1  0  0  0  0
 17 39  1  0  0  0  0
 18 19  1  0  0  0  0
 18 44  1  0  0  0  0
 19 24  2  0  0  0  0
 19 20  1  0  0  0  0
 20 21  2  0  0  0  0
 20 40  1  0  0  0  0
 21 22  1  0  0  0  0
 21 41  1  0  0  0  0
 22 23  2  0  0  0  0
 22 42  1  0  0  0  0
 23 24  1  0  0  0  0
 23 43  1  0  0  0  0
M  CHG  1  18   1
M  END
> <s_m_source_file>
AV-unprocessed.smi

> <i_m_source_file_index>
525

> <i_lp_mmshare_version>
43012

> <i_f3d_flags>
0

> <s_epik_input>
W2NIXTFbY0hdW2NIXVtjSF1jKGMxMiluKFtDSDJdW0NIMl1PW0NIM10pYyhuMilTW0NASF0oQyg9TylbTkgyXSljM1tjSF1bY0hdW2NIXVtjSF1bY0hdMw==

> <s_epik_cmdline>
J2VwaWtfcHl0aG9uJywgJy1waCcsICc3LjAnLCAnLXRuJywgJzgnLCAnLW1hJywgJzIwMCcsICctbWV0YWxfYmluZGluZycsICctaW1hZScsICc8aW5maWxlLm1hZT4nLCAnLW9tYWUnLCAnPG91dGZpbGUubWFlPic=

> <r_epik_Ionization_Penalty>
1.29485

> <r_epik_Ionization_Penalty_Charging>
1.29485

> <r_epik_Ionization_Penalty_Neutral>
1.02965e-06

> <r_epik_State_Penalty>
1.36828

> <r_epik_Charging_Adjusted_Penalty>
2.66313

> <i_epik_Tot_Q>
1

> <i_epik_Tot_abs_Q>
1

> <r_epik_Metal_State_Penalty>
1.43316

> <b_epik_Metal_Only>
0

> <s_lp_Force_Field>
OPLS_2005

> <r_lp_Energy>
11.9794

> <b_lp_Chiralities_Consistent>
1

> <s_lp_Variant>
AV-unprocessed.smi:525-4

> <Gold.Version>
5.8.1

> <Gold.Id.Protein>
6NUR|6NUR_protein|mol2

> <Gold.PLP.Fitness>
43.4239

> <Gold.PLP.PLP>
-34.9892

> <Gold.PLP.part.hbond>
-4.0000

> <Gold.PLP.part.metal>
0.0000

> <Gold.PLP.part.buried>
-3.3803

> <Gold.PLP.part.nonpolar>
-27.9606

> <Gold.PLP.part.repulsive>
0.2441

> <Gold.PLP.ligand.clash>
0.0000

> <Gold.PLP.ligand.torsion>
0.9435

> <Gold.PLP.Chemscore.Hbond>
3.3780

> <Gold.PLP.Chemscore.CHOScore>
0.0000

> <Gold.PLP.Chemscore.Metal>
0.0000

> <Gold.Chemscore.Hbonds>
donor molecule, donor type, donor heavy atom, donor atom, acceptor molecule, acceptor atom, score
      L1  H    10    34       P1  8028  0.21
      P1  H  6934  6947       L1     2  0.04
      P1  H  7989  7998       L1    11  1.00

> <Gold.PLP.Chemscore.Internal.Correction>
0.1878

> <Gold.Rescore>
     Score         DG    S(hbond)    S(metal)    S(lipo)     H(rot)  DE(clash)    DE(int)     intcor
     17.50     -18.54       2.86        0.00      85.03       2.51       0.02       1.02       ----

> <Gold.Chemscore.Fitness>
17.5016

> <Gold.Chemscore.DG>
-18.5409

> <Gold.Chemscore.ZeroCoef>
-5.4800

> <Gold.Chemscore.Hbond>
2.8593

> <Gold.Chemscore.Metal>
0.0000

> <Gold.Chemscore.Lipo>
85.0267

> <Gold.Chemscore.Internal_Hbond>
0.0000

> <Gold.Chemscore.DEClash>
0.0224

> <Gold.Chemscore.DEInternal>
1.0168

> <Gold.Chemscore.Rot>
2.5145

> <Gold.Chemscore.Internal.Correction>
   9.000000E+99

> <Gold.Chemscore.Hbonds>
donor molecule, donor type, donor heavy atom, donor atom, acceptor molecule, acceptor atom, score
      L1  H    10    34       P1  8028  0.22
      P1  H  7989  7998       L1    11  0.34

> <Gold.Chemscore.Hbond.Weighted>
-9.5499

> <Gold.Chemscore.Metal.Weighted>
-0.0000

> <Gold.Chemscore.Lipo.Weighted>
-9.9481

> <Gold.Chemscore.Internal_Hbond.Weighted>
0.0000

> <Gold.Chemscore.DEClash.Weighted>
0.0224

> <Gold.Chemscore.DEInternal.Weighted>
1.0168

> <Gold.Chemscore.Rot.Weighted>
6.4372

> <Gold.Chemscore.Internal.Correction.Weighted>
   9.000000E+99

> <Gold.Protein.RotatedTorsions>
[ 6907 6896 6895 6894 ] final  -86.12 input  -60.11 | X-H torsion
[ 7974 7965 7964 7962 ] final -166.47 input  175.53 | X-H torsion
[ 8008 7997 7996 7995 ] final  178.33 input   59.86 | X-H torsion
[ 10167 10162 10161 10158 ] final -134.46 input  -65.29 | X-H torsion
[ 10718 10713 10712 10709 ] final  -54.63 input   66.30 | X-H torsion
[ 10763 10752 10751 10750 ] final -167.73 input  -60.55 | X-H torsion
[ 11005 11000 10999 10996 ] final  -80.69 input  -57.11 | X-H torsion

> <Gold.Protein.ActiveResidues>
 VAL166  LYS551  ARG553  GLY616  TRP617  ASP618  TYR619  PRO620  LYS621  CYS622 
 ASP623  PHE694  ASN695  SER759  ASP760  ASP761  ALA762  ILE779  LEU786  VAL792 
 PHE793  MET794  SER795  GLU796  ALA797  LYS798  CYS799  TRP800  GLU811  SER814 

> <Gold.Protein.RotatedAtoms>
  150.6868  134.3099  159.4741 H   0  0  0  0  0  0  0  0  0  0  0  0  # atno 6907 bound_to 6896
  152.0986  134.9355  160.0579 H   0  0  0  0  0  0  0  0  0  0  0  0  # atno 6908 bound_to 6896
  152.0643  133.4042  159.4468 H   0  0  0  0  0  0  0  0  0  0  0  0  # atno 6909 bound_to 6896
  144.7245  140.2662  143.6257 H   0  0  0  0  0  0  0  0  0  0  0  0  # atno 7974 bound_to 7965
  156.0558  140.1336  156.9998 H   0  0  0  0  0  0  0  0  0  0  0  0  # atno 8008 bound_to 7997
  154.4457  140.1001  156.6514 H   0  0  0  0  0  0  0  0  0  0  0  0  # atno 8009 bound_to 7997
  155.5454  140.3462  155.4458 H   0  0  0  0  0  0  0  0  0  0  0  0  # atno 8010 bound_to 7997
  139.8878  143.6759  152.2617 H   0  0  0  0  0  0  0  0  0  0  0  0  # atno 10167 bound_to 10162
  156.1435  130.4153  150.0063 H   0  0  0  0  0  0  0  0  0  0  0  0  # atno 10718 bound_to 10713
  154.6701  135.2938  154.9753 H   0  0  0  0  0  0  0  0  0  0  0  0  # atno 10763 bound_to 10752
  154.0782  135.6608  153.4838 H   0  0  0  0  0  0  0  0  0  0  0  0  # atno 10764 bound_to 10752
  153.0482  135.5191  154.7694 H   0  0  0  0  0  0  0  0  0  0  0  0  # atno 10765 bound_to 10752
  141.1667  133.7162  156.8310 H   0  0  0  0  0  0  0  0  0  0  0  0  # atno 11005 bound_to 11000
  145.8087  139.1994  143.2005 LP  0  0  0  0  0  0  0  0  0  0  0  0  # atno 17320 bound_to 7965
  146.0614  140.7966  142.9733 LP  0  0  0  0  0  0  0  0  0  0  0  0  # atno 17321 bound_to 7965
  139.7137  144.7616  151.1070 LP  0  0  0  0  0  0  0  0  0  0  0  0  # atno 17342 bound_to 10162
  140.7732  143.5297  150.9437 LP  0  0  0  0  0  0  0  0  0  0  0  0  # atno 17343 bound_to 10162
  156.7942  130.9267  151.3646 LP  0  0  0  0  0  0  0  0  0  0  0  0  # atno 17370 bound_to 10713
  157.6596  130.8954  149.9802 LP  0  0  0  0  0  0  0  0  0  0  0  0  # atno 17371 bound_to 10713
  140.2051  134.8869  157.3212 LP  0  0  0  0  0  0  0  0  0  0  0  0  # atno 17394 bound_to 11000
  140.2146  134.4097  155.7595 LP  0  0  0  0  0  0  0  0  0  0  0  0  # atno 17395 bound_to 11000

$$$$
