#       Name:                AV-unprocessed.smi:293
#       Creating user name   scv26
#       Creation time:       Thu Mar 26 22:13:43 2020


#       File generated by GOLD software.
#

@<TRIPOS>MOLECULE
AV-unprocessed.smi:293
    37    38     1
SMALL
NO_CHARGES


@<TRIPOS>ATOM
      1 ****        -4.9241   2.2866   2.6723 N.1            1 S1                 0.0000
      2 ****        -3.9613   1.6691   2.8495 C.1            1 S1                 0.0000
      3 ****        -2.7525   0.8941   3.0719 C.2            1 S1                 0.0000
      4 ****        -2.8011  -0.3777   3.5646 N.2            1 S1                 0.0000
      5 ****        -1.5005  -0.6429   3.5795 C.2            1 S1                 0.0000
      6 ****        -0.7360   0.3631   3.1413 N.pl3          1 S1                 0.0000
      7 ****         0.7052   0.4562   2.9927 C.3            1 S1                 0.0000
      8 ****         1.1700  -0.2223   1.7034 C.2            1 S1                 0.0000
      9 ****         1.8258  -1.2623   1.7574 O.2            1 S1                 0.0000
     10 ****         0.8190   0.3752   0.5537 N.am           1 S1                 0.0000
     11 ****         1.1282  -0.1154  -0.7852 C.3            1 S1                 0.0000
     12 ****         1.0755   1.0555  -1.7852 C.3            1 S1                 0.0000
     13 ****         1.3281   0.5808  -3.2253 C.3            1 S1                 0.0000
     14 ****         0.3427  -0.5275  -3.6273 C.3            1 S1                 0.0000
     15 ****         0.3964  -1.7018  -2.6376 C.3            1 S1                 0.0000
     16 ****         0.1431  -1.2302  -1.1965 C.3            1 S1                 0.0000
     17 ****        -1.5486   1.3933   2.8001 N.2            1 S1                 0.0000
     18 ****        -1.0969  -1.5889   3.9103 H              1 S1                 0.0000
     19 ****         1.0068   1.5047   2.9927 H              1 S1                 0.0000
     20 ****         1.1766  -0.0156   3.8560 H              1 S1                 0.0000
     21 ****         0.2802   1.2276   0.6114 H              1 S1                 0.0000
     22 ****         2.1424  -0.5199  -0.7887 H              1 S1                 0.0000
     23 ****         0.1001   1.5417  -1.7333 H              1 S1                 0.0000
     24 ****         1.8125   1.8125  -1.5144 H              1 S1                 0.0000
     25 ****         1.2424   1.4217  -3.9140 H              1 S1                 0.0000
     26 ****         2.3505   0.2112  -3.3139 H              1 S1                 0.0000
     27 ****        -0.6697  -0.1228  -3.6599 H              1 S1                 0.0000
     28 ****         0.5681  -0.8790  -4.6346 H              1 S1                 0.0000
     29 ****        -0.3392  -2.4568  -2.9162 H              1 S1                 0.0000
     30 ****         1.3726  -2.1850  -2.6967 H              1 S1                 0.0000
     31 ****         0.2272  -2.0792  -0.5172 H              1 S1                 0.0000
     32 ****        -0.8822  -0.8673  -1.1099 H              1 S1                 0.0000
     33 ****        -5.7560   2.8201   2.5192 LP             1 S1                 0.0000
     34 ****        -3.5824  -0.9409   3.8337 LP             1 S1                 0.0000
     35 ****         2.0546  -1.6636   2.6443 LP             1 S1                 0.0000
     36 ****         2.1297  -1.7060   0.9144 LP             1 S1                 0.0000
     37 ****        -1.3067   2.2937   2.4384 LP             1 S1                 0.0000
@<TRIPOS>BOND
    1    1    2 3     
    2    2    3 1     
    3    3   17 2     
    4    3    4 1     
    5    4    5 2     
    6    5    6 1     
    7    5   18 1     
    8    6    7 1     
    9    6   17 1     
   10    7    8 1     
   11    7   19 1     
   12    7   20 1     
   13    8    9 2     
   14    8   10 am    
   15   10   11 1     
   16   10   21 1     
   17   11   16 1     
   18   11   12 1     
   19   11   22 1     
   20   12   13 1     
   21   12   23 1     
   22   12   24 1     
   23   13   14 1     
   24   13   25 1     
   25   13   26 1     
   26   14   15 1     
   27   14   27 1     
   28   14   28 1     
   29   15   16 1     
   30   15   29 1     
   31   15   30 1     
   32   16   31 1     
   33   16   32 1     
   34    1   33 1     
   35    4   34 1     
   36    9   35 1     
   37    9   36 1     
   38   17   37 1     
@<TRIPOS>SUBSTRUCTURE
      1 S1             1
@<TRIPOS>SET
LONE_PAIRS      STATIC     ATOMS    <user>   **** ""
5 33 34 35 36 37
DONOR_HYDROGENS      STATIC     ATOMS    <user>   **** ""
1 21
ATOM$BLUE        STATIC     ATOMS    COLORGROUP SYSTEM
5 33 34 35 36 37
ATOM$RED        STATIC     ATOMS    COLORGROUP SYSTEM
1 21
