AV-unprocessed.smi:197|AV-procd|sdf|1546|dock10
  -GOLD-   2262019403D 1   1.00000     0.00000
 Structure written by MMmdl.
 54 57  0  0  0  0  0  0  0  0  1 V2000
  152.4385  138.6268  155.1141 C   0  0  0  0  0  0  0  0  0  0  0  0
  152.4361  139.7620  155.9656 O   0  0  0  0  0  0  0  0  0  0  0  0
  151.2963  140.6005  155.8240 C   0  0  0  0  0  0  0  0  0  0  0  0
  150.4395  140.6607  157.1033 C   0  0  0  0  0  0  0  0  0  0  0  0
  151.0510  141.5129  158.2472 C   0  0  2  0  0  0  0  0  0  0  0  0
  151.1299  143.0078  157.8561 C   0  0  0  0  0  0  0  0  0  0  0  0
  151.7196  143.7691  158.9043 O   0  0  0  0  0  0  0  0  0  0  0  0
  153.0504  143.3534  159.1796 C   0  0  0  0  0  0  0  0  0  0  0  0
  153.0298  141.8902  159.6409 C   0  0  0  0  0  0  0  0  0  0  0  0
  152.3916  141.0522  158.6325 N   0  0  0  0  0  0  0  0  0  0  0  0
  152.5189  139.7438  158.9487 C   0  0  0  0  0  0  0  0  0  0  0  0
  151.3736  139.0395  159.1201 N   0  0  0  0  0  0  0  0  0  0  0  0
  151.4283  137.7452  159.4477 C   0  0  0  0  0  0  0  0  0  0  0  0
  152.5028  136.9792  159.6485 N   0  0  0  0  0  0  0  0  0  0  0  0
  153.6566  137.6841  159.4692 C   0  0  0  0  0  0  0  0  0  0  0  0
  153.7564  139.0581  159.1121 C   0  0  0  0  0  0  0  0  0  0  0  0
  155.0926  139.4230  159.0039 N   0  0  0  0  0  0  0  0  0  0  0  0
  155.7455  138.3325  159.2985 C   0  0  0  0  0  0  0  0  0  0  0  0
  154.9615  137.2422  159.6020 N   0  0  0  0  0  0  0  0  0  0  0  0
  155.4260  135.9145  159.9736 C   0  0  0  0  0  0  0  0  0  0  0  0
  156.0868  135.8591  161.3733 C   0  0  2  0  0  0  0  0  0  0  0  0
  157.2675  136.6439  161.3403 O   0  0  0  0  0  0  0  0  0  0  0  0
  156.4742  134.4302  161.7710 C   0  0  0  0  0  0  0  0  0  0  0  0
  155.5461  134.1019  162.9348 C   0  0  0  0  0  0  0  0  0  0  0  0
  155.3622  135.3602  163.5573 O   0  0  0  0  0  0  0  0  0  0  0  0
  155.1422  136.3044  162.5202 C   0  0  1  0  0  0  0  0  0  0  0  0
  155.3021  137.7392  163.0491 C   0  0  0  0  0  0  0  0  0  0  0  0
  153.3029  138.0040  155.3436 H   0  0  0  0  0  0  0  0  0  0  0  0
  152.5096  138.9100  154.0653 H   0  0  0  0  0  0  0  0  0  0  0  0
  151.5428  138.0212  155.2550 H   0  0  0  0  0  0  0  0  0  0  0  0
  151.6044  141.6042  155.5271 H   0  0  0  0  0  0  0  0  0  0  0  0
  150.7002  140.2191  154.9957 H   0  0  0  0  0  0  0  0  0  0  0  0
  149.4547  141.0351  156.8266 H   0  0  0  0  0  0  0  0  0  0  0  0
  150.2683  139.6458  157.4634 H   0  0  0  0  0  0  0  0  0  0  0  0
  150.4055  141.4369  159.1219 H   0  0  0  0  0  0  0  0  0  0  0  0
  151.6990  143.1423  156.9348 H   0  0  0  0  0  0  0  0  0  0  0  0
  150.1350  143.4135  157.6773 H   0  0  0  0  0  0  0  0  0  0  0  0
  153.6771  143.4772  158.2951 H   0  0  0  0  0  0  0  0  0  0  0  0
  153.4682  143.9892  159.9603 H   0  0  0  0  0  0  0  0  0  0  0  0
  154.0495  141.5475  159.8235 H   0  0  0  0  0  0  0  0  0  0  0  0
  152.4875  141.8067  160.5839 H   0  0  0  0  0  0  0  0  0  0  0  0
  150.4747  137.2535  159.5699 H   0  0  0  0  0  0  0  0  0  0  0  0
  156.8250  138.2946  159.3107 H   0  0  0  0  0  0  0  0  0  0  0  0
  154.5779  135.2296  159.9317 H   0  0  0  0  0  0  0  0  0  0  0  0
  156.1276  135.5747  159.2104 H   0  0  0  0  0  0  0  0  0  0  0  0
  157.3201  137.1356  162.1457 H   0  0  0  0  0  0  0  0  0  0  0  0
  156.3763  133.7111  160.9569 H   0  0  0  0  0  0  0  0  0  0  0  0
  157.5076  134.3841  162.1190 H   0  0  0  0  0  0  0  0  0  0  0  0
  154.5869  133.7242  162.5770 H   0  0  0  0  0  0  0  0  0  0  0  0
  155.9718  133.3695  163.6211 H   0  0  0  0  0  0  0  0  0  0  0  0
  154.1069  136.1669  162.2062 H   0  0  0  0  0  0  0  0  0  0  0  0
  155.1375  138.4695  162.2578 H   0  0  0  0  0  0  0  0  0  0  0  0
  156.2943  137.9090  163.4671 H   0  0  0  0  0  0  0  0  0  0  0  0
  154.5765  137.9406  163.8372 H   0  0  0  0  0  0  0  0  0  0  0  0
  1  2  1  0  0  0  0
  1 28  1  0  0  0  0
  1 29  1  0  0  0  0
  1 30  1  0  0  0  0
  2  3  1  0  0  0  0
  3  4  1  0  0  0  0
  3 31  1  0  0  0  0
  3 32  1  0  0  0  0
  4  5  1  0  0  0  0
  4 33  1  0  0  0  0
  4 34  1  0  0  0  0
  5 10  1  0  0  0  0
  5  6  1  0  0  0  0
  5 35  1  0  0  0  0
  6  7  1  0  0  0  0
  6 36  1  0  0  0  0
  6 37  1  0  0  0  0
  7  8  1  0  0  0  0
  8  9  1  0  0  0  0
  8 38  1  0  0  0  0
  8 39  1  0  0  0  0
  9 10  1  0  0  0  0
  9 40  1  0  0  0  0
  9 41  1  0  0  0  0
 10 11  1  0  0  0  0
 11 16  1  0  0  0  0
 11 12  2  0  0  0  0
 12 13  1  0  0  0  0
 13 14  2  0  0  0  0
 13 42  1  0  0  0  0
 14 15  1  0  0  0  0
 15 19  1  0  0  0  0
 15 16  2  0  0  0  0
 16 17  1  0  0  0  0
 17 18  2  0  0  0  0
 18 19  1  0  0  0  0
 18 43  1  0  0  0  0
 19 20  1  0  0  0  0
 20 21  1  0  0  0  0
 20 44  1  0  0  0  0
 20 45  1  0  0  0  0
 21 26  1  0  0  0  0
 21 22  1  0  0  0  0
 21 23  1  0  0  0  0
 22 46  1  0  0  0  0
 23 24  1  0  0  0  0
 23 47  1  0  0  0  0
 23 48  1  0  0  0  0
 24 25  1  0  0  0  0
 24 49  1  0  0  0  0
 24 50  1  0  0  0  0
 25 26  1  0  0  0  0
 26 27  1  0  0  0  0
 26 51  1  0  0  0  0
 27 52  1  0  0  0  0
 27 53  1  0  0  0  0
 27 54  1  0  0  0  0
M  END
> <s_m_source_file>
AV-unprocessed.smi

> <i_m_source_file_index>
197

> <i_lp_mmshare_version>
43012

> <i_f3d_flags>
0

> <s_epik_input>
W0NIM11PW0NIMl1bQ0gyXVtDQEBIXTFbQ0gyXU9bQ0gyXVtDSDJdTjFjKG5bY0hdbjIpYyhjMjMpbltjSF1uM1tDSDJdW0NAQF00KFtPSF0pW0NIMl1bQ0gyXU9bQ0BIXTRbQ0gzXQ==

> <s_epik_cmdline>
J2VwaWtfcHl0aG9uJywgJy1waCcsICc3LjAnLCAnLXRuJywgJzgnLCAnLW1hJywgJzIwMCcsICctbWV0YWxfYmluZGluZycsICctaW1hZScsICc8aW5maWxlLm1hZT4nLCAnLW9tYWUnLCAnPG91dGZpbGUubWFlPic=

> <r_lp_tautomer_probability>
1

> <r_epik_Ionization_Penalty>
0.000106218

> <r_epik_Ionization_Penalty_Charging>
0

> <r_epik_Ionization_Penalty_Neutral>
0.000106218

> <r_epik_State_Penalty>
-0

> <r_epik_Charging_Adjusted_Penalty>
0

> <i_epik_Tot_Q>
0

> <i_epik_Tot_abs_Q>
0

> <r_epik_Metal_State_Penalty>
-0

> <b_epik_Metal_Only>
0

> <s_lp_Force_Field>
OPLS_2005

> <r_lp_Energy>
42.2513

> <b_lp_Chiralities_Consistent>
1

> <s_lp_Variant>
AV-unprocessed.smi:197-3

> <Gold.Version>
5.8.1

> <Gold.Id.Protein>
6NUR|6NUR_protein|mol2

> <Gold.PLP.Fitness>
48.6223

> <Gold.PLP.PLP>
-40.6932

> <Gold.PLP.part.hbond>
-3.0000

> <Gold.PLP.part.metal>
0.0000

> <Gold.PLP.part.buried>
-4.9931

> <Gold.PLP.part.nonpolar>
-32.1359

> <Gold.PLP.part.repulsive>
0.0933

> <Gold.PLP.ligand.clash>
0.0000

> <Gold.PLP.ligand.torsion>
0.6542

> <Gold.PLP.Chemscore.Hbond>
3.0000

> <Gold.PLP.Chemscore.CHOScore>
0.0000

> <Gold.PLP.Chemscore.Metal>
0.0000

> <Gold.Chemscore.Hbonds>
donor molecule, donor type, donor heavy atom, donor atom, acceptor molecule, acceptor atom, score
      P1  H  6896  6909       L1    14  1.00
      P1  H  7997  8009       L1    17  1.00
      P1  H  7997  8010       L1     2  1.00

> <Gold.PLP.Chemscore.Internal.Correction>
0.2374

> <Gold.Rescore>
     Score         DG    S(hbond)    S(metal)    S(lipo)     H(rot)  DE(clash)    DE(int)     intcor
     15.48     -19.05       2.77        0.00      99.07       2.84       1.43       2.14       ----

> <Gold.Chemscore.Fitness>
15.4800

> <Gold.Chemscore.DG>
-19.0495

> <Gold.Chemscore.ZeroCoef>
-5.4800

> <Gold.Chemscore.Hbond>
2.7660

> <Gold.Chemscore.Metal>
0.0000

> <Gold.Chemscore.Lipo>
99.0659

> <Gold.Chemscore.Internal_Hbond>
0.0000

> <Gold.Chemscore.DEClash>
1.4299

> <Gold.Chemscore.DEInternal>
2.1396

> <Gold.Chemscore.Rot>
2.8358

> <Gold.Chemscore.Internal.Correction>
   9.000000E+99

> <Gold.Chemscore.Hbonds>
donor molecule, donor type, donor heavy atom, donor atom, acceptor molecule, acceptor atom, score
      P1  H  6896  6909       L1    14  0.53
      P1  H  7997  8009       L1    17  0.63
      P1  H  7997  8010       L1     2  0.23

> <Gold.Chemscore.Hbond.Weighted>
-9.2383

> <Gold.Chemscore.Metal.Weighted>
-0.0000

> <Gold.Chemscore.Lipo.Weighted>
-11.5907

> <Gold.Chemscore.Internal_Hbond.Weighted>
0.0000

> <Gold.Chemscore.DEClash.Weighted>
1.4299

> <Gold.Chemscore.DEInternal.Weighted>
2.1396

> <Gold.Chemscore.Rot.Weighted>
7.2596

> <Gold.Chemscore.Internal.Correction.Weighted>
   9.000000E+99

> <Gold.Protein.RotatedTorsions>
[ 6907 6896 6895 6894 ] final  132.36 input  -60.11 | X-H torsion
[ 7974 7965 7964 7962 ] final   16.92 input  175.53 | X-H torsion
[ 8008 7997 7996 7995 ] final  100.20 input   59.86 | X-H torsion
[ 10167 10162 10161 10158 ] final -172.95 input  -65.29 | X-H torsion
[ 10718 10713 10712 10709 ] final   51.45 input   66.30 | X-H torsion
[ 10763 10752 10751 10750 ] final -102.87 input  -60.55 | X-H torsion
[ 11005 11000 10999 10996 ] final  172.68 input  -57.11 | X-H torsion

> <Gold.Protein.ActiveResidues>
 VAL166  LYS551  ARG553  GLY616  TRP617  ASP618  TYR619  PRO620  LYS621  CYS622 
 ASP623  PHE694  ASN695  SER759  ASP760  ASP761  ALA762  ILE779  LEU786  VAL792 
 PHE793  MET794  SER795  GLU796  ALA797  LYS798  CYS799  TRP800  GLU811  SER814 

> <Gold.Protein.RotatedAtoms>
  152.3332  133.5982  159.5824 H   0  0  0  0  0  0  0  0  0  0  0  0  # atno 6907 bound_to 6896
  150.7435  133.9836  159.3593 H   0  0  0  0  0  0  0  0  0  0  0  0  # atno 6908 bound_to 6896
  151.7708  135.0787  160.0410 H   0  0  0  0  0  0  0  0  0  0  0  0  # atno 6909 bound_to 6896
  146.2235  139.8677  142.8593 H   0  0  0  0  0  0  0  0  0  0  0  0  # atno 7974 bound_to 7965
  156.1180  140.3217  155.8167 H   0  0  0  0  0  0  0  0  0  0  0  0  # atno 8008 bound_to 7997
  155.4555  140.0535  157.3014 H   0  0  0  0  0  0  0  0  0  0  0  0  # atno 8009 bound_to 7997
  154.4807  140.2051  155.9785 H   0  0  0  0  0  0  0  0  0  0  0  0  # atno 8010 bound_to 7997
  139.5715  144.1630  152.1391 H   0  0  0  0  0  0  0  0  0  0  0  0  # atno 10167 bound_to 10162
  157.4982  130.8420  149.8284 H   0  0  0  0  0  0  0  0  0  0  0  0  # atno 10718 bound_to 10713
  154.7766  135.4844  153.9757 H   0  0  0  0  0  0  0  0  0  0  0  0  # atno 10763 bound_to 10752
  153.1437  135.6777  153.8995 H   0  0  0  0  0  0  0  0  0  0  0  0  # atno 10764 bound_to 10752
  153.8661  135.3149  155.3418 H   0  0  0  0  0  0  0  0  0  0  0  0  # atno 10765 bound_to 10752
  140.3323  134.7347  157.4143 H   0  0  0  0  0  0  0  0  0  0  0  0  # atno 11005 bound_to 11000
  145.2639  141.0086  143.3810 LP  0  0  0  0  0  0  0  0  0  0  0  0  # atno 17320 bound_to 7965
  144.9276  139.4336  143.6510 LP  0  0  0  0  0  0  0  0  0  0  0  0  # atno 17321 bound_to 7965
  140.1164  144.5412  150.6891 LP  0  0  0  0  0  0  0  0  0  0  0  0  # atno 17342 bound_to 10162
  140.6999  143.2428  151.4893 LP  0  0  0  0  0  0  0  0  0  0  0  0  # atno 17343 bound_to 10162
  156.0213  130.3794  150.1954 LP  0  0  0  0  0  0  0  0  0  0  0  0  # atno 17370 bound_to 10713
  157.0143  130.9960  151.3357 LP  0  0  0  0  0  0  0  0  0  0  0  0  # atno 17371 bound_to 10713
  140.0850  134.5678  155.8501 LP  0  0  0  0  0  0  0  0  0  0  0  0  # atno 17394 bound_to 11000
  141.2060  133.6652  156.6216 LP  0  0  0  0  0  0  0  0  0  0  0  0  # atno 17395 bound_to 11000

$$$$
