AV-unprocessed.smi:371|AV-procd|sdf|2441|dock2
  -GOLD-   2262022383D 1   1.00000     0.00000
 Structure written by MMmdl.
 39 40  0  0  0  0  0  0  0  0  1 V2000
  153.6290  142.7314  163.7683 C   0  0  0  0  0  0  0  0  0  0  0  0
  153.3106  142.4718  162.3008 C   0  0  0  0  0  0  0  0  0  0  0  0
  152.4843  143.4330  161.6083 C   0  0  0  0  0  0  0  0  0  0  0  0
  152.1162  143.2409  160.3315 C   0  0  0  0  0  0  0  0  0  0  0  0
  151.2318  144.2566  159.6168 C   0  0  0  0  0  0  0  0  0  0  0  0
  152.5549  142.0907  159.6189 N   0  0  0  0  0  0  0  0  0  0  0  0
  152.1226  141.8891  158.2150 C   0  0  0  0  0  0  0  0  0  0  0  0
  150.7252  141.2303  158.1220 C   0  0  2  0  0  0  0  0  0  0  0  0
  150.7620  139.9733  158.7690 O   0  0  0  0  0  0  0  0  0  0  0  0
  150.2867  141.0767  156.6709 C   0  0  0  0  0  0  0  0  0  0  0  0
  149.2059  141.8406  156.1751 C   0  0  0  0  0  0  0  0  0  0  0  0
  148.7917  141.7056  154.8360 C   0  0  0  0  0  0  0  0  0  0  0  0
  149.4538  140.8038  153.9822 C   0  0  0  0  0  0  0  0  0  0  0  0
  150.5288  140.0367  154.4694 C   0  0  0  0  0  0  0  0  0  0  0  0
  150.9461  140.1705  155.8083 C   0  0  0  0  0  0  0  0  0  0  0  0
  151.9842  139.4235  156.2547 F   0  0  0  0  0  0  0  0  0  0  0  0
  153.3833  141.1556  160.1860 C   0  0  0  0  0  0  0  0  0  0  0  0
  153.8113  140.2126  159.5125 O   0  0  0  0  0  0  0  0  0  0  0  0
  153.7283  141.3712  161.6186 C   0  0  0  0  0  0  0  0  0  0  0  0
  154.5728  140.3422  162.2579 C   0  0  0  0  0  0  0  0  0  0  0  0
  154.5554  139.1402  161.6655 N   0  0  0  0  0  0  0  0  0  0  0  0
  155.2022  140.4996  163.3029 O   0  0  0  0  0  0  0  0  0  0  0  0
  153.0446  143.5658  164.1568 H   0  0  0  0  0  0  0  0  0  0  0  0
  154.6832  142.9794  163.8935 H   0  0  0  0  0  0  0  0  0  0  0  0
  153.3976  141.8594  164.3810 H   0  0  0  0  0  0  0  0  0  0  0  0
  152.1480  144.3167  162.1312 H   0  0  0  0  0  0  0  0  0  0  0  0
  150.7930  144.9549  160.3301 H   0  0  0  0  0  0  0  0  0  0  0  0
  150.4032  143.7871  159.0903 H   0  0  0  0  0  0  0  0  0  0  0  0
  151.8185  144.8408  158.9075 H   0  0  0  0  0  0  0  0  0  0  0  0
  152.1099  142.8476  157.6983 H   0  0  0  0  0  0  0  0  0  0  0  0
  152.8469  141.3231  157.6262 H   0  0  0  0  0  0  0  0  0  0  0  0
  149.9930  141.8380  158.6534 H   0  0  0  0  0  0  0  0  0  0  0  0
  151.3284  140.0408  159.5225 H   0  0  0  0  0  0  0  0  0  0  0  0
  148.6898  142.5341  156.8228 H   0  0  0  0  0  0  0  0  0  0  0  0
  147.9659  142.2943  154.4642 H   0  0  0  0  0  0  0  0  0  0  0  0
  149.1375  140.7001  152.9548 H   0  0  0  0  0  0  0  0  0  0  0  0
  151.0360  139.3439  153.8143 H   0  0  0  0  0  0  0  0  0  0  0  0
  155.0911  138.3781  162.0555 H   0  0  0  0  0  0  0  0  0  0  0  0
  153.9895  138.9952  160.8421 H   0  0  0  0  0  0  0  0  0  0  0  0
  1  2  1  0  0  0  0
  1 23  1  0  0  0  0
  1 24  1  0  0  0  0
  1 25  1  0  0  0  0
  2 19  2  0  0  0  0
  2  3  1  0  0  0  0
  3  4  2  0  0  0  0
  3 26  1  0  0  0  0
  4  5  1  0  0  0  0
  4  6  1  0  0  0  0
  5 27  1  0  0  0  0
  5 28  1  0  0  0  0
  5 29  1  0  0  0  0
  6  7  1  0  0  0  0
  6 17  1  0  0  0  0
  7  8  1  0  0  0  0
  7 30  1  0  0  0  0
  7 31  1  0  0  0  0
  8  9  1  0  0  0  0
  8 10  1  0  0  0  0
  8 32  1  0  0  0  0
  9 33  1  0  0  0  0
 10 15  1  0  0  0  0
 10 11  2  0  0  0  0
 11 12  1  0  0  0  0
 11 34  1  0  0  0  0
 12 13  2  0  0  0  0
 12 35  1  0  0  0  0
 13 14  1  0  0  0  0
 13 36  1  0  0  0  0
 14 15  2  0  0  0  0
 14 37  1  0  0  0  0
 15 16  1  0  0  0  0
 17 18  2  0  0  0  0
 17 19  1  0  0  0  0
 19 20  1  0  0  0  0
 20 21  1  0  0  0  0
 20 22  2  0  0  0  0
 21 38  1  0  0  0  0
 21 39  1  0  0  0  0
M  END
> <s_m_source_file>
AV-unprocessed.smi

> <i_m_source_file_index>
371

> <i_lp_mmshare_version>
43012

> <i_f3d_flags>
0

> <s_epik_input>
W0NIM11jMVtjSF1jKFtDSDNdKW4oYyg9TyljMUMoPU8pW05IMl0pW0NIMl1bQ0BIXShbT0hdKWMyW2NIXVtjSF1bY0hdW2NIXWMyRg==

> <s_epik_cmdline>
J2VwaWtfcHl0aG9uJywgJy1waCcsICc3LjAnLCAnLXRuJywgJzgnLCAnLW1hJywgJzIwMCcsICctbWV0YWxfYmluZGluZycsICctaW1hZScsICc8aW5maWxlLm1hZT4nLCAnLW9tYWUnLCAnPG91dGZpbGUubWFlPic=

> <r_lp_tautomer_probability>
1

> <r_epik_Ionization_Penalty>
3.46512e-07

> <r_epik_Ionization_Penalty_Charging>
1.35363e-07

> <r_epik_Ionization_Penalty_Neutral>
2.11149e-07

> <r_epik_State_Penalty>
-0

> <r_epik_Charging_Adjusted_Penalty>
1.35363e-07

> <i_epik_Tot_Q>
0

> <i_epik_Tot_abs_Q>
0

> <r_epik_Metal_State_Penalty>
-0

> <b_epik_Metal_Only>
0

> <s_lp_Force_Field>
OPLS_2005

> <r_lp_Energy>
40.8148

> <b_lp_Chiralities_Consistent>
1

> <s_lp_Variant>
AV-unprocessed.smi:371-1

> <Gold.Version>
5.8.1

> <Gold.Id.Protein>
6NUR|6NUR_protein|mol2

> <Gold.PLP.Fitness>
48.2933

> <Gold.PLP.PLP>
-49.2029

> <Gold.PLP.part.hbond>
-1.0000

> <Gold.PLP.part.metal>
0.0000

> <Gold.PLP.part.buried>
-2.0135

> <Gold.PLP.part.nonpolar>
-44.5318

> <Gold.PLP.part.repulsive>
0.0000

> <Gold.PLP.ligand.clash>
0.0000

> <Gold.PLP.ligand.torsion>
0.6096

> <Gold.PLP.Chemscore.Hbond>
0.0000

> <Gold.PLP.Chemscore.CHOScore>
0.0000

> <Gold.PLP.Chemscore.Metal>
0.0000

> <Gold.PLP.Chemscore.Internal.Correction>
0.3097

> <Gold.Rescore>
     Score         DG    S(hbond)    S(metal)    S(lipo)     H(rot)  DE(clash)    DE(int)     intcor
      9.92     -14.03       0.00        0.00     117.73       2.04       0.09       4.02       ----

> <Gold.Chemscore.Fitness>
9.9205

> <Gold.Chemscore.DG>
-14.0331

> <Gold.Chemscore.ZeroCoef>
-5.4800

> <Gold.Chemscore.Hbond>
0.0000

> <Gold.Chemscore.Metal>
0.0000

> <Gold.Chemscore.Lipo>
117.7306

> <Gold.Chemscore.Internal_Hbond>
0.0000

> <Gold.Chemscore.DEClash>
0.0947

> <Gold.Chemscore.DEInternal>
4.0179

> <Gold.Chemscore.Rot>
2.0396

> <Gold.Chemscore.Internal.Correction>
   9.000000E+99

> <Gold.Chemscore.Hbond.Weighted>
-0.0000

> <Gold.Chemscore.Metal.Weighted>
-0.0000

> <Gold.Chemscore.Lipo.Weighted>
-13.7745

> <Gold.Chemscore.Internal_Hbond.Weighted>
0.0000

> <Gold.Chemscore.DEClash.Weighted>
0.0947

> <Gold.Chemscore.DEInternal.Weighted>
4.0179

> <Gold.Chemscore.Rot.Weighted>
5.2214

> <Gold.Chemscore.Internal.Correction.Weighted>
   9.000000E+99

> <Gold.Protein.RotatedTorsions>
[ 6907 6896 6895 6894 ] final  166.22 input  -60.11 | X-H torsion
[ 7974 7965 7964 7962 ] final   68.26 input  175.53 | X-H torsion
[ 8008 7997 7996 7995 ] final  -78.34 input   59.86 | X-H torsion
[ 10167 10162 10161 10158 ] final  -22.80 input  -65.29 | X-H torsion
[ 10718 10713 10712 10709 ] final  -63.55 input   66.30 | X-H torsion
[ 10763 10752 10751 10750 ] final  159.17 input  -60.55 | X-H torsion
[ 11005 11000 10999 10996 ] final  -19.41 input  -57.11 | X-H torsion

> <Gold.Protein.ActiveResidues>
 VAL166  LYS551  ARG553  GLY616  TRP617  ASP618  TYR619  PRO620  LYS621  CYS622 
 ASP623  PHE694  ASN695  SER759  ASP760  ASP761  ALA762  ILE779  LEU786  VAL792 
 PHE793  MET794  SER795  GLU796  ALA797  LYS798  CYS799  TRP800  GLU811  SER814 

> <Gold.Protein.RotatedAtoms>
  151.8822  133.3498  159.3770 H   0  0  0  0  0  0  0  0  0  0  0  0  # atno 6907 bound_to 6896
  150.7124  134.5007  159.5569 H   0  0  0  0  0  0  0  0  0  0  0  0  # atno 6908 bound_to 6896
  152.2561  134.8083  160.0489 H   0  0  0  0  0  0  0  0  0  0  0  0  # atno 6909 bound_to 6896
  145.8047  139.3000  143.1134 H   0  0  0  0  0  0  0  0  0  0  0  0  # atno 7974 bound_to 7965
  154.5680  140.0696  156.8921 H   0  0  0  0  0  0  0  0  0  0  0  0  # atno 8008 bound_to 7997
  155.2686  140.3363  155.4249 H   0  0  0  0  0  0  0  0  0  0  0  0  # atno 8009 bound_to 7997
  156.2096  140.1754  156.7710 H   0  0  0  0  0  0  0  0  0  0  0  0  # atno 8010 bound_to 7997
  140.7287  143.4502  151.0528 H   0  0  0  0  0  0  0  0  0  0  0  0  # atno 10167 bound_to 10162
  156.0784  130.4222  150.1293 H   0  0  0  0  0  0  0  0  0  0  0  0  # atno 10718 bound_to 10713
  154.2276  135.2779  155.2902 H   0  0  0  0  0  0  0  0  0  0  0  0  # atno 10763 bound_to 10752
  154.5650  135.5635  153.7046 H   0  0  0  0  0  0  0  0  0  0  0  0  # atno 10764 bound_to 10752
  153.0027  135.6307  154.2417 H   0  0  0  0  0  0  0  0  0  0  0  0  # atno 10765 bound_to 10752
  140.8364  133.7959  155.9813 H   0  0  0  0  0  0  0  0  0  0  0  0  # atno 11005 bound_to 11000
  145.9841  140.8658  143.0100 LP  0  0  0  0  0  0  0  0  0  0  0  0  # atno 17320 bound_to 7965
  144.6764  140.2121  143.7376 LP  0  0  0  0  0  0  0  0  0  0  0  0  # atno 17321 bound_to 7965
  139.8177  143.7863  152.3175 LP  0  0  0  0  0  0  0  0  0  0  0  0  # atno 17342 bound_to 10162
  139.7935  144.7401  150.9923 LP  0  0  0  0  0  0  0  0  0  0  0  0  # atno 17343 bound_to 10162
  156.9329  130.9719  151.3530 LP  0  0  0  0  0  0  0  0  0  0  0  0  # atno 17370 bound_to 10713
  157.5890  130.8430  149.8631 LP  0  0  0  0  0  0  0  0  0  0  0  0  # atno 17371 bound_to 10713
  140.8943  134.2457  157.5077 LP  0  0  0  0  0  0  0  0  0  0  0  0  # atno 17394 bound_to 11000
  139.8704  134.9676  156.4603 LP  0  0  0  0  0  0  0  0  0  0  0  0  # atno 17395 bound_to 11000

$$$$
