AV-unprocessed.smi:1048|AV-procd|sdf|4606|dock2
  -GOLD-   22720 3103D 1   1.00000     0.00000
 Structure written by MMmdl.
 46 47  0  0  0  0  0  0  0  0  2 V2000
  143.8134  133.2361  151.6157 C   0  0  0  0  0  0  0  0  0  0  0  0
  145.3263  133.4923  151.5001 C   0  0  2  0  0  0  0  0  0  0  0  0
  145.9861  133.7803  152.8609 C   0  0  0  0  0  0  0  0  0  0  0  0
  145.6501  135.1880  153.3853 C   0  0  0  0  0  0  0  0  0  0  0  0
  146.0224  136.2307  152.3955 N   0  3  2  0  0  0  0  0  0  0  0  0
  145.8509  137.6072  152.9275 C   0  0  0  0  0  0  0  0  0  0  0  0
  146.4451  138.6775  151.9888 C   0  0  2  0  0  0  0  0  0  0  0  0
  147.5511  138.0840  151.3368 O   0  0  0  0  0  0  0  0  0  0  0  0
  146.9427  139.9073  152.7756 C   0  0  0  0  0  0  0  0  0  0  0  0
  148.2940  139.7157  153.2936 N   0  0  0  0  0  0  0  0  0  0  0  0
  148.6334  139.7532  154.5897 C   0  0  0  0  0  0  0  0  0  0  0  0
  147.8210  139.9304  155.4968 O   0  0  0  0  0  0  0  0  0  0  0  0
  149.9514  139.5495  154.7545 N   0  0  0  0  0  0  0  0  0  0  0  0
  150.7017  139.5566  155.9616 C   0  0  0  0  0  0  0  0  0  0  0  0
  149.9941  139.5821  157.1812 C   0  0  0  0  0  0  0  0  0  0  0  0
  150.7120  139.5671  158.3920 C   0  0  0  0  0  0  0  0  0  0  0  0
  152.1182  139.5180  158.3361 C   0  0  0  0  0  0  0  0  0  0  0  0
  152.8113  139.4781  157.1790 N   0  0  0  0  0  0  0  0  0  0  0  0
  152.1164  139.4943  156.0210 C   0  0  0  0  0  0  0  0  0  0  0  0
  145.3421  136.0169  151.0912 C   0  0  0  0  0  0  0  0  0  0  0  0
  145.6666  134.6266  150.5157 C   0  0  0  0  0  0  0  0  0  0  0  0
  143.2765  134.1038  151.9976 H   0  0  0  0  0  0  0  0  0  0  0  0
  143.6097  132.4015  152.2873 H   0  0  0  0  0  0  0  0  0  0  0  0
  143.3850  132.9847  150.6451 H   0  0  0  0  0  0  0  0  0  0  0  0
  145.7649  132.5735  151.1084 H   0  0  0  0  0  0  0  0  0  0  0  0
  145.6909  133.0272  153.5924 H   0  0  0  0  0  0  0  0  0  0  0  0
  147.0686  133.6921  152.7576 H   0  0  0  0  0  0  0  0  0  0  0  0
  144.5889  135.2680  153.6238 H   0  0  0  0  0  0  0  0  0  0  0  0
  146.1945  135.3556  154.3154 H   0  0  0  0  0  0  0  0  0  0  0  0
  144.7903  137.7924  153.1042 H   0  0  0  0  0  0  0  0  0  0  0  0
  146.3367  137.6946  153.9009 H   0  0  0  0  0  0  0  0  0  0  0  0
  145.7091  138.9897  151.2480 H   0  0  0  0  0  0  0  0  0  0  0  0
  147.8867  137.3900  151.8858 H   0  0  0  0  0  0  0  0  0  0  0  0
  147.0005  140.7657  152.1056 H   0  0  0  0  0  0  0  0  0  0  0  0
  146.2451  140.1903  153.5663 H   0  0  0  0  0  0  0  0  0  0  0  0
  149.0253  139.5596  152.6153 H   0  0  0  0  0  0  0  0  0  0  0  0
  150.4752  139.3254  153.9212 H   0  0  0  0  0  0  0  0  0  0  0  0
  148.9143  139.6161  157.1921 H   0  0  0  0  0  0  0  0  0  0  0  0
  150.1975  139.5908  159.3413 H   0  0  0  0  0  0  0  0  0  0  0  0
  152.7011  139.5043  159.2451 H   0  0  0  0  0  0  0  0  0  0  0  0
  152.7240  139.4328  155.1317 H   0  0  0  0  0  0  0  0  0  0  0  0
  144.2648  136.1350  151.2159 H   0  0  0  0  0  0  0  0  0  0  0  0
  145.6557  136.7754  150.3747 H   0  0  0  0  0  0  0  0  0  0  0  0
  146.7300  134.5844  150.2760 H   0  0  0  0  0  0  0  0  0  0  0  0
  145.1389  134.4794  149.5726 H   0  0  0  0  0  0  0  0  0  0  0  0
  147.0135  136.1175  152.2348 H   0  0  0  0  0  0  0  0  0  0  0  0
  1  2  1  0  0  0  0
  1 22  1  0  0  0  0
  1 23  1  0  0  0  0
  1 24  1  0  0  0  0
  2 21  1  0  0  0  0
  2  3  1  0  0  0  0
  2 25  1  0  0  0  0
  3  4  1  0  0  0  0
  3 26  1  0  0  0  0
  3 27  1  0  0  0  0
  4  5  1  0  0  0  0
  4 28  1  0  0  0  0
  4 29  1  0  0  0  0
  5  6  1  0  0  0  0
  5 20  1  0  0  0  0
  5 46  1  0  0  0  0
  6  7  1  0  0  0  0
  6 30  1  0  0  0  0
  6 31  1  0  0  0  0
  7  8  1  0  0  0  0
  7  9  1  0  0  0  0
  7 32  1  0  0  0  0
  8 33  1  0  0  0  0
  9 10  1  0  0  0  0
  9 34  1  0  0  0  0
  9 35  1  0  0  0  0
 10 11  1  0  0  0  0
 10 36  1  0  0  0  0
 11 12  2  0  0  0  0
 11 13  1  0  0  0  0
 13 14  1  0  0  0  0
 13 37  1  0  0  0  0
 14 19  1  0  0  0  0
 14 15  2  0  0  0  0
 15 16  1  0  0  0  0
 15 38  1  0  0  0  0
 16 17  2  0  0  0  0
 16 39  1  0  0  0  0
 17 18  1  0  0  0  0
 17 40  1  0  0  0  0
 18 19  2  0  0  0  0
 19 41  1  0  0  0  0
 20 21  1  0  0  0  0
 20 42  1  0  0  0  0
 20 43  1  0  0  0  0
 21 44  1  0  0  0  0
 21 45  1  0  0  0  0
M  CHG  1   5   1
M  END
> <s_m_source_file>
AV-unprocessed.smi

> <i_m_source_file_index>
1048

> <i_lp_mmshare_version>
43012

> <i_f3d_flags>
0

> <s_epik_input>
W0NIM11bQ0hdMVtDSDJdW0NIMl1OKFtDSDJdW0NIMl0xKVtDSDJdW0NASF0oW09IXSlbQ0gyXVtOSF1DKD1PKVtOSF1jMltjSF1bY0hdW2NIXW5bY0hdMg==

> <s_epik_cmdline>
J2VwaWtfcHl0aG9uJywgJy1waCcsICc3LjAnLCAnLXRuJywgJzgnLCAnLW1hJywgJzIwMCcsICctbWV0YWxfYmluZGluZycsICctaW1hZScsICc8aW5maWxlLm1hZT4nLCAnLW9tYWUnLCAnPG91dGZpbGUubWFlPic=

> <r_lp_tautomer_probability>
1

> <r_epik_Ionization_Penalty>
0.00581049

> <r_epik_Ionization_Penalty_Charging>
0.00147689

> <r_epik_Ionization_Penalty_Neutral>
0.0043336

> <r_epik_State_Penalty>
-0

> <r_epik_Charging_Adjusted_Penalty>
0.00147689

> <i_epik_Tot_Q>
1

> <i_epik_Tot_abs_Q>
1

> <r_epik_Metal_State_Penalty>
-0

> <b_epik_Metal_Only>
0

> <s_lp_Force_Field>
OPLS_2005

> <r_lp_Energy>
24.4675

> <b_lp_Chiralities_Consistent>
1

> <s_lp_Variant>
AV-unprocessed.smi:1048-3

> <Gold.Version>
5.8.1

> <Gold.Id.Protein>
6NUR|6NUR_protein|mol2

> <Gold.PLP.Fitness>
49.2221

> <Gold.PLP.PLP>
-33.1282

> <Gold.PLP.part.hbond>
-5.2929

> <Gold.PLP.part.metal>
0.0000

> <Gold.PLP.part.buried>
-1.5398

> <Gold.PLP.part.nonpolar>
-27.2188

> <Gold.PLP.part.repulsive>
0.2635

> <Gold.PLP.ligand.clash>
0.0000

> <Gold.PLP.ligand.torsion>
0.6877

> <Gold.PLP.Chemscore.Hbond>
5.8000

> <Gold.PLP.Chemscore.CHOScore>
0.0000

> <Gold.PLP.Chemscore.Metal>
0.0000

> <Gold.Chemscore.Hbonds>
donor molecule, donor type, donor heavy atom, donor atom, acceptor molecule, acceptor atom, score
      L1  H     5    46       P1  7948  2.00
      L1  H     8    33       P1  7948  0.77
      L1  H    10    36       P1  7957  0.88
      P1  H  7954  7966       L1     8  1.00
      P1  H  7997  8009       L1    18  1.00

> <Gold.PLP.Chemscore.Internal.Correction>
0.0692

> <Gold.Rescore>
     Score         DG    S(hbond)    S(metal)    S(lipo)     H(rot)  DE(clash)    DE(int)     intcor
     20.04     -22.09       4.12        0.00      74.30       2.29       0.00       2.05       ----

> <Gold.Chemscore.Fitness>
20.0352

> <Gold.Chemscore.DG>
-22.0928

> <Gold.Chemscore.ZeroCoef>
-5.4800

> <Gold.Chemscore.Hbond>
4.1238

> <Gold.Chemscore.Metal>
0.0000

> <Gold.Chemscore.Lipo>
74.2992

> <Gold.Chemscore.Internal_Hbond>
0.0000

> <Gold.Chemscore.DEClash>
0.0048

> <Gold.Chemscore.DEInternal>
2.0528

> <Gold.Chemscore.Rot>
2.2865

> <Gold.Chemscore.Internal.Correction>
   9.000000E+99

> <Gold.Chemscore.Hbonds>
donor molecule, donor type, donor heavy atom, donor atom, acceptor molecule, acceptor atom, score
      L1  H     5    46       P1  7948  0.99
      L1  H     8    33       P1  7948  0.72
      L1  H    10    36       P1  7957  0.86
      P1  H  7954  7966       L1     8  0.59
      P1  H  7997  8009       L1    18  0.74

> <Gold.Chemscore.Hbond.Weighted>
-13.7734

> <Gold.Chemscore.Metal.Weighted>
-0.0000

> <Gold.Chemscore.Lipo.Weighted>
-8.6930

> <Gold.Chemscore.Internal_Hbond.Weighted>
0.0000

> <Gold.Chemscore.DEClash.Weighted>
0.0048

> <Gold.Chemscore.DEInternal.Weighted>
2.0528

> <Gold.Chemscore.Rot.Weighted>
5.8536

> <Gold.Chemscore.Internal.Correction.Weighted>
   9.000000E+99

> <Gold.Protein.RotatedTorsions>
[ 6907 6896 6895 6894 ] final -165.82 input  -60.11 | X-H torsion
[ 7974 7965 7964 7962 ] final -107.46 input  175.53 | X-H torsion
[ 8008 7997 7996 7995 ] final  161.85 input   59.86 | X-H torsion
[ 10167 10162 10161 10158 ] final  -59.43 input  -65.29 | X-H torsion
[ 10718 10713 10712 10709 ] final -110.73 input   66.30 | X-H torsion
[ 10763 10752 10751 10750 ] final   78.55 input  -60.55 | X-H torsion
[ 11005 11000 10999 10996 ] final   12.24 input  -57.11 | X-H torsion

> <Gold.Protein.ActiveResidues>
 VAL166  LYS551  ARG553  GLY616  TRP617  ASP618  TYR619  PRO620  LYS621  CYS622 
 ASP623  PHE694  ASN695  SER759  ASP760  ASP761  ALA762  ILE779  LEU786  VAL792 
 PHE793  MET794  SER795  GLU796  ALA797  LYS798  CYS799  TRP800  GLU811  SER814 

> <Gold.Protein.RotatedAtoms>
  151.4338  133.3663  159.2772 H   0  0  0  0  0  0  0  0  0  0  0  0  # atno 6907 bound_to 6896
  150.9206  134.8625  159.7497 H   0  0  0  0  0  0  0  0  0  0  0  0  # atno 6908 bound_to 6896
  152.4980  134.4275  159.9553 H   0  0  0  0  0  0  0  0  0  0  0  0  # atno 6909 bound_to 6896
  145.2050  140.9072  143.3347 H   0  0  0  0  0  0  0  0  0  0  0  0  # atno 7974 bound_to 7965
  156.2074  140.1766  156.7770 H   0  0  0  0  0  0  0  0  0  0  0  0  # atno 8008 bound_to 7997
  154.5674  140.0688  156.8942 H   0  0  0  0  0  0  0  0  0  0  0  0  # atno 8009 bound_to 7997
  155.2736  140.3344  155.4266 H   0  0  0  0  0  0  0  0  0  0  0  0  # atno 8010 bound_to 7997
  140.6136  143.2395  151.5651 H   0  0  0  0  0  0  0  0  0  0  0  0  # atno 10167 bound_to 10162
  156.0607  130.5831  150.8277 H   0  0  0  0  0  0  0  0  0  0  0  0  # atno 10718 bound_to 10713
  153.0883  135.4873  154.8640 H   0  0  0  0  0  0  0  0  0  0  0  0  # atno 10763 bound_to 10752
  154.7238  135.3045  154.9007 H   0  0  0  0  0  0  0  0  0  0  0  0  # atno 10764 bound_to 10752
  153.9663  135.6806  153.4799 H   0  0  0  0  0  0  0  0  0  0  0  0  # atno 10765 bound_to 10752
  140.4942  134.0810  155.7778 H   0  0  0  0  0  0  0  0  0  0  0  0  # atno 11005 bound_to 11000
  144.9910  139.3689  143.6214 LP  0  0  0  0  0  0  0  0  0  0  0  0  # atno 17320 bound_to 7965
  146.3409  139.9093  142.8782 LP  0  0  0  0  0  0  0  0  0  0  0  0  # atno 17321 bound_to 7965
  139.5380  144.2726  152.1293 LP  0  0  0  0  0  0  0  0  0  0  0  0  # atno 17342 bound_to 10162
  140.1930  144.4733  150.6469 LP  0  0  0  0  0  0  0  0  0  0  0  0  # atno 17343 bound_to 10162
  157.5613  131.0946  150.9554 LP  0  0  0  0  0  0  0  0  0  0  0  0  # atno 17370 bound_to 10713
  156.9791  130.5520  149.5295 LP  0  0  0  0  0  0  0  0  0  0  0  0  # atno 17371 bound_to 10713
  141.1469  133.9039  157.2194 LP  0  0  0  0  0  0  0  0  0  0  0  0  # atno 17394 bound_to 11000
  139.9751  135.0116  156.9611 LP  0  0  0  0  0  0  0  0  0  0  0  0  # atno 17395 bound_to 11000

$$$$
