AV-unprocessed.smi:1106|AV-procd|sdf|4780|dock7
  -GOLD-   22720 3323D 1   1.00000     0.00000
 Structure written by MMmdl.
 48 49  0  0  0  0  0  0  0  0  2 V2000
  151.7136  143.9466  158.2794 C   0  0  0  0  0  0  0  0  0  0  0  0
  150.6123  142.9078  158.0205 C   0  0  0  0  0  0  0  0  0  0  0  0
  151.1342  141.6103  157.6781 N   0  0  0  0  0  0  0  0  0  0  0  0
  151.8878  140.8725  158.5702 C   0  0  0  0  0  0  0  0  0  0  0  0
  152.3911  139.6551  158.2727 C   0  0  0  0  0  0  0  0  0  0  0  0
  153.1599  138.9104  159.2141 C   0  0  0  0  0  0  0  0  0  0  0  0
  153.8011  138.3207  159.9762 N   0  0  0  0  0  0  0  0  0  0  0  0
  152.1658  139.0436  156.9647 C   0  0  0  0  0  0  0  0  0  0  0  0
  152.5764  137.9239  156.6525 O   0  0  0  0  0  0  0  0  0  0  0  0
  151.4110  139.8389  156.0657 N   0  0  0  0  0  0  0  0  0  0  0  0
  151.1414  139.2914  154.7454 C   0  0  0  0  0  0  0  0  0  0  0  0
  150.0574  138.1914  154.7522 C   0  0  1  0  0  0  0  0  0  0  0  0
  149.4154  138.1835  153.4920 O   0  0  0  0  0  0  0  0  0  0  0  0
  150.6746  136.7933  154.9538 C   0  0  0  0  0  0  0  0  0  0  0  0
  149.7044  135.7063  154.6670 N   0  3  2  0  0  0  0  0  0  0  0  0
  148.4454  135.8267  155.4488 C   0  0  0  0  0  0  0  0  0  0  0  0
  147.4177  134.7670  155.0134 C   0  0  0  0  0  0  0  0  0  0  0  0
  147.9797  133.3366  155.1072 C   0  0  2  0  0  0  0  0  0  0  0  0
  148.0872  132.8314  156.5566 C   0  0  0  0  0  0  0  0  0  0  0  0
  149.3190  133.2616  154.3511 C   0  0  0  0  0  0  0  0  0  0  0  0
  150.3052  134.3550  154.8008 C   0  0  0  0  0  0  0  0  0  0  0  0
  150.8702  141.1081  156.3825 C   0  0  0  0  0  0  0  0  0  0  0  0
  150.1933  141.7469  155.5722 O   0  0  0  0  0  0  0  0  0  0  0  0
  151.2797  144.9034  158.5694 H   0  0  0  0  0  0  0  0  0  0  0  0
  152.3232  144.1168  157.3918 H   0  0  0  0  0  0  0  0  0  0  0  0
  152.3756  143.6249  159.0839 H   0  0  0  0  0  0  0  0  0  0  0  0
  150.0049  142.7601  158.9143 H   0  0  0  0  0  0  0  0  0  0  0  0
  149.9283  143.2097  157.2251 H   0  0  0  0  0  0  0  0  0  0  0  0
  152.0818  141.2852  159.5501 H   0  0  0  0  0  0  0  0  0  0  0  0
  150.9103  140.1077  154.0588 H   0  0  0  0  0  0  0  0  0  0  0  0
  152.0939  138.9026  154.3805 H   0  0  0  0  0  0  0  0  0  0  0  0
  149.3207  138.3971  155.5285 H   0  0  0  0  0  0  0  0  0  0  0  0
  149.1272  137.3024  153.3042 H   0  0  0  0  0  0  0  0  0  0  0  0
  151.5474  136.7022  154.3046 H   0  0  0  0  0  0  0  0  0  0  0  0
  151.0464  136.6778  155.9732 H   0  0  0  0  0  0  0  0  0  0  0  0
  148.6634  135.7289  156.5131 H   0  0  0  0  0  0  0  0  0  0  0  0
  148.0101  136.8162  155.3129 H   0  0  0  0  0  0  0  0  0  0  0  0
  146.5103  134.8571  155.6116 H   0  0  0  0  0  0  0  0  0  0  0  0
  147.1203  134.9671  153.9830 H   0  0  0  0  0  0  0  0  0  0  0  0
  147.2771  132.6732  154.6010 H   0  0  0  0  0  0  0  0  0  0  0  0
  148.7792  133.4275  157.1510 H   0  0  0  0  0  0  0  0  0  0  0  0
  148.4354  131.7986  156.5838 H   0  0  0  0  0  0  0  0  0  0  0  0
  147.1168  132.8605  157.0531 H   0  0  0  0  0  0  0  0  0  0  0  0
  149.7693  132.2760  154.4750 H   0  0  0  0  0  0  0  0  0  0  0  0
  149.1308  133.3749  153.2825 H   0  0  0  0  0  0  0  0  0  0  0  0
  151.2043  134.2926  154.1865 H   0  0  0  0  0  0  0  0  0  0  0  0
  150.6182  134.1922  155.8330 H   0  0  0  0  0  0  0  0  0  0  0  0
  149.4589  135.8044  153.6918 H   0  0  0  0  0  0  0  0  0  0  0  0
  1  2  1  0  0  0  0
  1 24  1  0  0  0  0
  1 25  1  0  0  0  0
  1 26  1  0  0  0  0
  2  3  1  0  0  0  0
  2 27  1  0  0  0  0
  2 28  1  0  0  0  0
  3 22  1  0  0  0  0
  3  4  1  0  0  0  0
  4  5  2  0  0  0  0
  4 29  1  0  0  0  0
  5  6  1  0  0  0  0
  5  8  1  0  0  0  0
  6  7  3  0  0  0  0
  8  9  2  0  0  0  0
  8 10  1  0  0  0  0
 10 11  1  0  0  0  0
 10 22  1  0  0  0  0
 11 12  1  0  0  0  0
 11 30  1  0  0  0  0
 11 31  1  0  0  0  0
 12 13  1  0  0  0  0
 12 14  1  0  0  0  0
 12 32  1  0  0  0  0
 13 33  1  0  0  0  0
 14 15  1  0  0  0  0
 14 34  1  0  0  0  0
 14 35  1  0  0  0  0
 15 21  1  0  0  0  0
 15 16  1  0  0  0  0
 15 48  1  0  0  0  0
 16 17  1  0  0  0  0
 16 36  1  0  0  0  0
 16 37  1  0  0  0  0
 17 18  1  0  0  0  0
 17 38  1  0  0  0  0
 17 39  1  0  0  0  0
 18 19  1  0  0  0  0
 18 20  1  0  0  0  0
 18 40  1  0  0  0  0
 19 41  1  0  0  0  0
 19 42  1  0  0  0  0
 19 43  1  0  0  0  0
 20 21  1  0  0  0  0
 20 44  1  0  0  0  0
 20 45  1  0  0  0  0
 21 46  1  0  0  0  0
 21 47  1  0  0  0  0
 22 23  2  0  0  0  0
M  CHG  1  15   1
M  END
> <s_m_source_file>
AV-unprocessed.smi

> <i_m_source_file_index>
1106

> <i_lp_mmshare_version>
43012

> <i_f3d_flags>
0

> <s_epik_input>
W0NIM11bQ0gyXW4xW2NIXWMoQyNOKWMoPU8pbihjMT1PKVtDSDJdW0NASF0oW09IXSlbQ0gyXU4yW0NIMl1bQ0gyXVtDSF0oW0NIM10pW0NIMl1bQ0gyXTI=

> <s_epik_cmdline>
J2VwaWtfcHl0aG9uJywgJy1waCcsICc3LjAnLCAnLXRuJywgJzgnLCAnLW1hJywgJzIwMCcsICctbWV0YWxfYmluZGluZycsICctaW1hZScsICc8aW5maWxlLm1hZT4nLCAnLW9tYWUnLCAnPG91dGZpbGUubWFlPic=

> <r_epik_Ionization_Penalty>
0.00136816

> <r_epik_Ionization_Penalty_Charging>
0.00136813

> <r_epik_Ionization_Penalty_Neutral>
3.19882e-08

> <r_epik_State_Penalty>
0.000910892

> <r_epik_Charging_Adjusted_Penalty>
0.00227902

> <i_epik_Tot_Q>
1

> <i_epik_Tot_abs_Q>
1

> <r_epik_Metal_State_Penalty>
-0

> <b_epik_Metal_Only>
0

> <s_lp_Force_Field>
OPLS_2005

> <r_lp_Energy>
30.5318

> <b_lp_Chiralities_Consistent>
1

> <s_lp_Variant>
AV-unprocessed.smi:1106-4

> <Gold.Version>
5.8.1

> <Gold.Id.Protein>
6NUR|6NUR_protein|mol2

> <Gold.PLP.Fitness>
44.1349

> <Gold.PLP.PLP>
-36.2732

> <Gold.PLP.part.hbond>
-4.0553

> <Gold.PLP.part.metal>
0.0000

> <Gold.PLP.part.buried>
-1.1991

> <Gold.PLP.part.nonpolar>
-31.1682

> <Gold.PLP.part.repulsive>
0.1565

> <Gold.PLP.ligand.clash>
0.0000

> <Gold.PLP.ligand.torsion>
0.6630

> <Gold.PLP.Chemscore.Hbond>
3.0445

> <Gold.PLP.Chemscore.CHOScore>
0.0000

> <Gold.PLP.Chemscore.Metal>
0.0000

> <Gold.Chemscore.Hbonds>
donor molecule, donor type, donor heavy atom, donor atom, acceptor molecule, acceptor atom, score
      L1  H    13    33       P1  7948  0.74
      L1  H    15    48       P1  7948  2.00

> <Gold.PLP.Chemscore.Internal.Correction>
0.0544

> <Gold.Rescore>
     Score         DG    S(hbond)    S(metal)    S(lipo)     H(rot)  DE(clash)    DE(int)     intcor
     12.68     -13.71       1.88        0.00      71.00       2.48       0.22       0.82       ----

> <Gold.Chemscore.Fitness>
12.6752

> <Gold.Chemscore.DG>
-13.7105

> <Gold.Chemscore.ZeroCoef>
-5.4800

> <Gold.Chemscore.Hbond>
1.8807

> <Gold.Chemscore.Metal>
0.0000

> <Gold.Chemscore.Lipo>
71.0038

> <Gold.Chemscore.Internal_Hbond>
0.0000

> <Gold.Chemscore.DEClash>
0.2176

> <Gold.Chemscore.DEInternal>
0.8176

> <Gold.Chemscore.Rot>
2.4838

> <Gold.Chemscore.Internal.Correction>
   9.000000E+99

> <Gold.Chemscore.Hbonds>
donor molecule, donor type, donor heavy atom, donor atom, acceptor molecule, acceptor atom, score
      L1  H    13    33       P1  7948  0.74
      L1  H    15    48       P1  7948  0.45

> <Gold.Chemscore.Hbond.Weighted>
-6.2815

> <Gold.Chemscore.Metal.Weighted>
-0.0000

> <Gold.Chemscore.Lipo.Weighted>
-8.3074

> <Gold.Chemscore.Internal_Hbond.Weighted>
0.0000

> <Gold.Chemscore.DEClash.Weighted>
0.2176

> <Gold.Chemscore.DEInternal.Weighted>
0.8176

> <Gold.Chemscore.Rot.Weighted>
6.3585

> <Gold.Chemscore.Internal.Correction.Weighted>
   9.000000E+99

> <Gold.Protein.RotatedTorsions>
[ 6907 6896 6895 6894 ] final  165.51 input  -60.11 | X-H torsion
[ 7974 7965 7964 7962 ] final -146.20 input  175.53 | X-H torsion
[ 8008 7997 7996 7995 ] final   99.81 input   59.86 | X-H torsion
[ 10167 10162 10161 10158 ] final   42.36 input  -65.29 | X-H torsion
[ 10718 10713 10712 10709 ] final  -76.54 input   66.30 | X-H torsion
[ 10763 10752 10751 10750 ] final  -94.29 input  -60.55 | X-H torsion
[ 11005 11000 10999 10996 ] final   -5.00 input  -57.11 | X-H torsion

> <Gold.Protein.ActiveResidues>
 VAL166  LYS551  ARG553  GLY616  TRP617  ASP618  TYR619  PRO620  LYS621  CYS622 
 ASP623  PHE694  ASN695  SER759  ASP760  ASP761  ALA762  ILE779  LEU786  VAL792 
 PHE793  MET794  SER795  GLU796  ALA797  LYS798  CYS799  TRP800  GLU811  SER814 

> <Gold.Protein.RotatedAtoms>
  151.8933  133.3521  159.3805 H   0  0  0  0  0  0  0  0  0  0  0  0  # atno 6907 bound_to 6896
  150.7098  134.4902  159.5521 H   0  0  0  0  0  0  0  0  0  0  0  0  # atno 6908 bound_to 6896
  152.2476  134.8165  160.0502 H   0  0  0  0  0  0  0  0  0  0  0  0  # atno 6909 bound_to 6896
  144.8175  140.5486  143.5600 H   0  0  0  0  0  0  0  0  0  0  0  0  # atno 7974 bound_to 7965
  156.1142  140.3223  155.8115 H   0  0  0  0  0  0  0  0  0  0  0  0  # atno 8008 bound_to 7997
  155.4620  140.0540  157.3007 H   0  0  0  0  0  0  0  0  0  0  0  0  # atno 8009 bound_to 7997
  154.4781  140.2041  155.9843 H   0  0  0  0  0  0  0  0  0  0  0  0  # atno 8010 bound_to 7997
  140.3552  144.2299  150.6142 H   0  0  0  0  0  0  0  0  0  0  0  0  # atno 10167 bound_to 10162
  156.0172  130.4468  150.3210 H   0  0  0  0  0  0  0  0  0  0  0  0  # atno 10718 bound_to 10713
  154.7041  135.5163  153.8569 H   0  0  0  0  0  0  0  0  0  0  0  0  # atno 10763 bound_to 10752
  153.0727  135.6606  154.0222 H   0  0  0  0  0  0  0  0  0  0  0  0  # atno 10764 bound_to 10752
  154.0076  135.3005  155.3375 H   0  0  0  0  0  0  0  0  0  0  0  0  # atno 10765 bound_to 10752
  140.6864  133.9109  155.8589 H   0  0  0  0  0  0  0  0  0  0  0  0  # atno 11005 bound_to 11000
  145.5180  139.1477  143.3568 LP  0  0  0  0  0  0  0  0  0  0  0  0  # atno 17320 bound_to 7965
  146.2479  140.5321  142.8906 LP  0  0  0  0  0  0  0  0  0  0  0  0  # atno 17321 bound_to 7965
  140.5181  143.2273  151.8432 LP  0  0  0  0  0  0  0  0  0  0  0  0  # atno 17342 bound_to 10162
  139.4821  144.4870  151.9234 LP  0  0  0  0  0  0  0  0  0  0  0  0  # atno 17343 bound_to 10162
  157.1310  131.0271  151.2969 LP  0  0  0  0  0  0  0  0  0  0  0  0  # atno 17370 bound_to 10713
  157.4551  130.7620  149.7185 LP  0  0  0  0  0  0  0  0  0  0  0  0  # atno 17371 bound_to 10713
  141.0276  134.0801  157.4050 LP  0  0  0  0  0  0  0  0  0  0  0  0  # atno 17394 bound_to 11000
  139.8936  135.0131  156.6908 LP  0  0  0  0  0  0  0  0  0  0  0  0  # atno 17395 bound_to 11000

$$$$
