AV-unprocessed.smi:1740|AV-procd|sdf|7009|dock7
  -GOLD-   22720 8223D 1   1.00000     0.00000
 Structure written by MMmdl.
 52 54  0  0  0  0  0  0  0  0  2 V2000
  154.6718  135.1152  165.2629 N   0  0  0  0  0  0  0  0  0  0  0  0
  154.5383  134.1754  164.3236 C   0  0  0  0  0  0  0  0  0  0  0  0
  153.9192  133.1319  164.5189 O   0  0  0  0  0  0  0  0  0  0  0  0
  155.2041  134.4445  162.9692 C   0  0  0  0  0  0  0  0  0  0  0  0
  154.4888  135.4171  162.1107 N   0  0  0  0  0  0  0  0  0  0  0  0
  155.0517  135.4869  160.7538 C   0  0  0  0  0  0  0  0  0  0  0  0
  154.2393  136.4579  159.8783 C   0  0  0  0  0  0  0  0  0  0  0  0
  154.1904  137.8631  160.4997 C   0  0  0  0  0  0  0  0  0  0  0  0
  153.3098  138.7405  159.7344 N   0  0  0  0  0  0  0  0  0  0  0  0
  153.3003  140.0787  159.8098 C   0  0  0  0  0  0  0  0  0  0  0  0
  154.0441  140.7276  160.5454 O   0  0  0  0  0  0  0  0  0  0  0  0
  152.3978  140.6093  158.9679 N   0  0  0  0  0  0  0  0  0  0  0  0
  152.1282  141.9887  158.7461 C   0  0  0  0  0  0  0  0  0  0  0  0
  152.8255  142.9914  159.4673 C   0  0  0  0  0  0  0  0  0  0  0  0
  152.4912  144.3468  159.2878 C   0  0  0  0  0  0  0  0  0  0  0  0
  151.4530  144.6792  158.4010 C   0  0  0  0  0  0  0  0  0  0  0  0
  150.8012  143.7016  157.7380 N   0  3  0  0  0  0  0  0  0  0  0  0
  151.0862  142.3805  157.8564 C   0  0  0  0  0  0  0  0  0  0  0  0
  150.3296  141.4687  157.0853 N   0  0  0  0  0  0  0  0  0  0  0  0
  148.9133  141.7116  156.8351 C   0  0  0  0  0  0  0  0  0  0  0  0
  148.5436  140.7647  155.6968 C   0  0  0  0  0  0  0  0  0  0  0  0
  149.8177  140.7486  154.8578 C   0  0  0  0  0  0  0  0  0  0  0  0
  150.9373  140.8803  155.8954 C   0  0  0  0  0  0  0  0  0  0  0  0
  153.6893  137.7501  161.9458 C   0  0  0  0  0  0  0  0  0  0  0  0
  154.5300  136.7391  162.7446 C   0  0  0  0  0  0  0  0  0  0  0  0
  154.2453  134.9844  166.1687 H   0  0  0  0  0  0  0  0  0  0  0  0
  155.1939  135.9554  165.0605 H   0  0  0  0  0  0  0  0  0  0  0  0
  156.2119  134.8101  163.1721 H   0  0  0  0  0  0  0  0  0  0  0  0
  155.3209  133.4987  162.4365 H   0  0  0  0  0  0  0  0  0  0  0  0
  156.0966  135.7997  160.7958 H   0  0  0  0  0  0  0  0  0  0  0  0
  155.0363  134.5082  160.2742 H   0  0  0  0  0  0  0  0  0  0  0  0
  154.6775  136.5033  158.8806 H   0  0  0  0  0  0  0  0  0  0  0  0
  153.2271  136.0703  159.7533 H   0  0  0  0  0  0  0  0  0  0  0  0
  155.1980  138.2834  160.5171 H   0  0  0  0  0  0  0  0  0  0  0  0
  152.6643  138.2926  159.1006 H   0  0  0  0  0  0  0  0  0  0  0  0
  151.9300  139.9649  158.3474 H   0  0  0  0  0  0  0  0  0  0  0  0
  153.5998  142.7373  160.1754 H   0  0  0  0  0  0  0  0  0  0  0  0
  153.0158  145.1180  159.8330 H   0  0  0  0  0  0  0  0  0  0  0  0
  151.1232  145.6893  158.2052 H   0  0  0  0  0  0  0  0  0  0  0  0
  148.3134  141.5264  157.7267 H   0  0  0  0  0  0  0  0  0  0  0  0
  148.7517  142.7429  156.5183 H   0  0  0  0  0  0  0  0  0  0  0  0
  148.3435  139.7668  156.0893 H   0  0  0  0  0  0  0  0  0  0  0  0
  147.6667  141.0930  155.1378 H   0  0  0  0  0  0  0  0  0  0  0  0
  149.9129  139.8533  154.2426 H   0  0  0  0  0  0  0  0  0  0  0  0
  149.8279  141.6145  154.1941 H   0  0  0  0  0  0  0  0  0  0  0  0
  151.7624  141.4831  155.5127 H   0  0  0  0  0  0  0  0  0  0  0  0
  151.3265  139.8942  156.1510 H   0  0  0  0  0  0  0  0  0  0  0  0
  153.7277  138.7258  162.4316 H   0  0  0  0  0  0  0  0  0  0  0  0
  152.6432  137.4395  161.9573 H   0  0  0  0  0  0  0  0  0  0  0  0
  154.1314  136.6760  163.7580 H   0  0  0  0  0  0  0  0  0  0  0  0
  155.5608  137.0883  162.8307 H   0  0  0  0  0  0  0  0  0  0  0  0
  150.0527  143.9752  157.1011 H   0  0  0  0  0  0  0  0  0  0  0  0
  1  2  1  0  0  0  0
  1 26  1  0  0  0  0
  1 27  1  0  0  0  0
  2  3  2  0  0  0  0
  2  4  1  0  0  0  0
  4  5  1  0  0  0  0
  4 28  1  0  0  0  0
  4 29  1  0  0  0  0
  5 25  1  0  0  0  0
  5  6  1  0  0  0  0
  6  7  1  0  0  0  0
  6 30  1  0  0  0  0
  6 31  1  0  0  0  0
  7  8  1  0  0  0  0
  7 32  1  0  0  0  0
  7 33  1  0  0  0  0
  8  9  1  0  0  0  0
  8 24  1  0  0  0  0
  8 34  1  0  0  0  0
  9 10  1  0  0  0  0
  9 35  1  0  0  0  0
 10 11  2  0  0  0  0
 10 12  1  0  0  0  0
 12 13  1  0  0  0  0
 12 36  1  0  0  0  0
 13 18  1  0  0  0  0
 13 14  2  0  0  0  0
 14 15  1  0  0  0  0
 14 37  1  0  0  0  0
 15 16  2  0  0  0  0
 15 38  1  0  0  0  0
 16 17  1  0  0  0  0
 16 39  1  0  0  0  0
 17 18  2  0  0  0  0
 17 52  1  0  0  0  0
 18 19  1  0  0  0  0
 19 23  1  0  0  0  0
 19 20  1  0  0  0  0
 20 21  1  0  0  0  0
 20 40  1  0  0  0  0
 20 41  1  0  0  0  0
 21 22  1  0  0  0  0
 21 42  1  0  0  0  0
 21 43  1  0  0  0  0
 22 23  1  0  0  0  0
 22 44  1  0  0  0  0
 22 45  1  0  0  0  0
 23 46  1  0  0  0  0
 23 47  1  0  0  0  0
 24 25  1  0  0  0  0
 24 48  1  0  0  0  0
 24 49  1  0  0  0  0
 25 50  1  0  0  0  0
 25 51  1  0  0  0  0
M  CHG  1  17   1
M  END
> <s_m_source_file>
AV-unprocessed.smi

> <i_m_source_file_index>
1740

> <i_lp_mmshare_version>
43012

> <i_f3d_flags>
0

> <s_epik_input>
W05IMl1DKD1PKVtDSDJdTjFbQ0gyXVtDSDJdW0NIXShbQ0gyXVtDSDJdMSlbTkhdQyg9TylbTkhdYzJbY0hdW2NIXVtjSF1uYzJOM1tDSDJdW0NIMl1bQ0gyXVtDSDJdMw==

> <s_epik_cmdline>
J2VwaWtfcHl0aG9uJywgJy1waCcsICc3LjAnLCAnLXRuJywgJzgnLCAnLW1hJywgJzIwMCcsICctbWV0YWxfYmluZGluZycsICctaW1hZScsICc8aW5maWxlLm1hZT4nLCAnLW9tYWUnLCAnPG91dGZpbGUubWFlPic=

> <r_epik_Ionization_Penalty>
1.24114

> <r_epik_Ionization_Penalty_Charging>
1.08532

> <r_epik_Ionization_Penalty_Neutral>
0.155817

> <r_epik_State_Penalty>
1.33508

> <r_epik_Charging_Adjusted_Penalty>
2.4204

> <i_epik_Tot_Q>
1

> <i_epik_Tot_abs_Q>
1

> <r_epik_Metal_State_Penalty>
1.43573

> <b_epik_Metal_Only>
0

> <s_lp_Force_Field>
OPLS_2005

> <r_lp_Energy>
46.1835

> <b_lp_Chiralities_Consistent>
1

> <s_lp_Variant>
AV-unprocessed.smi:1740-4

> <Gold.Version>
5.8.1

> <Gold.Id.Protein>
6NUR|6NUR_protein|mol2

> <Gold.PLP.Fitness>
47.2933

> <Gold.PLP.PLP>
-42.9451

> <Gold.PLP.part.hbond>
-2.0000

> <Gold.PLP.part.metal>
0.0000

> <Gold.PLP.part.buried>
-6.1783

> <Gold.PLP.part.nonpolar>
-34.4534

> <Gold.PLP.part.repulsive>
0.3778

> <Gold.PLP.ligand.clash>
0.0040

> <Gold.PLP.ligand.torsion>
1.0115

> <Gold.PLP.Chemscore.Hbond>
2.0000

> <Gold.PLP.Chemscore.CHOScore>
0.0000

> <Gold.PLP.Chemscore.Metal>
0.0000

> <Gold.Chemscore.Hbonds>
donor molecule, donor type, donor heavy atom, donor atom, acceptor molecule, acceptor atom, score
      L1  H    17    52       P1  8028  2.00

> <Gold.PLP.Chemscore.Internal.Correction>
0.3752

> <Gold.Rescore>
     Score         DG    S(hbond)    S(metal)    S(lipo)     H(rot)  DE(clash)    DE(int)     intcor
     12.05     -14.82       0.99        0.00      99.55       2.19       0.17       2.60       ----

> <Gold.Chemscore.Fitness>
12.0497

> <Gold.Chemscore.DG>
-14.8153

> <Gold.Chemscore.ZeroCoef>
-5.4800

> <Gold.Chemscore.Hbond>
0.9872

> <Gold.Chemscore.Metal>
0.0000

> <Gold.Chemscore.Lipo>
99.5483

> <Gold.Chemscore.Internal_Hbond>
0.0000

> <Gold.Chemscore.DEClash>
0.1690

> <Gold.Chemscore.DEInternal>
2.5967

> <Gold.Chemscore.Rot>
2.1911

> <Gold.Chemscore.Internal.Correction>
   9.000000E+99

> <Gold.Chemscore.Hbonds>
donor molecule, donor type, donor heavy atom, donor atom, acceptor molecule, acceptor atom, score
      L1  H    17    52       P1  8028  0.89

> <Gold.Chemscore.Hbond.Weighted>
-3.2974

> <Gold.Chemscore.Metal.Weighted>
-0.0000

> <Gold.Chemscore.Lipo.Weighted>
-11.6471

> <Gold.Chemscore.Internal_Hbond.Weighted>
0.0000

> <Gold.Chemscore.DEClash.Weighted>
0.1690

> <Gold.Chemscore.DEInternal.Weighted>
2.5967

> <Gold.Chemscore.Rot.Weighted>
5.6092

> <Gold.Chemscore.Internal.Correction.Weighted>
   9.000000E+99

> <Gold.Protein.RotatedTorsions>
[ 6907 6896 6895 6894 ] final  -11.76 input  -60.11 | X-H torsion
[ 7974 7965 7964 7962 ] final  102.27 input  175.53 | X-H torsion
[ 8008 7997 7996 7995 ] final  159.70 input   59.86 | X-H torsion
[ 10167 10162 10161 10158 ] final  -90.92 input  -65.29 | X-H torsion
[ 10718 10713 10712 10709 ] final   62.98 input   66.30 | X-H torsion
[ 10763 10752 10751 10750 ] final  -20.97 input  -60.55 | X-H torsion
[ 11005 11000 10999 10996 ] final  -21.68 input  -57.11 | X-H torsion

> <Gold.Protein.ActiveResidues>
 VAL166  LYS551  ARG553  GLY616  TRP617  ASP618  TYR619  PRO620  LYS621  CYS622 
 ASP623  PHE694  ASN695  SER759  ASP760  ASP761  ALA762  ILE779  LEU786  VAL792 
 PHE793  MET794  SER795  GLU796  ALA797  LYS798  CYS799  TRP800  GLU811  SER814 

> <Gold.Protein.RotatedAtoms>
  151.3812  135.0940  159.9496 H   0  0  0  0  0  0  0  0  0  0  0  0  # atno 6907 bound_to 6896
  152.5107  133.9070  159.7479 H   0  0  0  0  0  0  0  0  0  0  0  0  # atno 6908 bound_to 6896
  150.9504  133.6501  159.2802 H   0  0  0  0  0  0  0  0  0  0  0  0  # atno 6909 bound_to 6896
  145.3614  139.2417  143.3505 H   0  0  0  0  0  0  0  0  0  0  0  0  # atno 7974 bound_to 7965
  156.2221  140.1824  156.7451 H   0  0  0  0  0  0  0  0  0  0  0  0  # atno 8008 bound_to 7997
  154.5882  140.0655  156.9230 H   0  0  0  0  0  0  0  0  0  0  0  0  # atno 8009 bound_to 7997
  155.2382  140.3320  155.4298 H   0  0  0  0  0  0  0  0  0  0  0  0  # atno 8010 bound_to 7997
  140.3501  143.2896  151.9736 H   0  0  0  0  0  0  0  0  0  0  0  0  # atno 10167 bound_to 10162
  157.5939  130.9080  149.9657 H   0  0  0  0  0  0  0  0  0  0  0  0  # atno 10718 bound_to 10713
  153.6288  135.6990  153.5283 H   0  0  0  0  0  0  0  0  0  0  0  0  # atno 10763 bound_to 10752
  153.2876  135.4166  155.1137 H   0  0  0  0  0  0  0  0  0  0  0  0  # atno 10764 bound_to 10752
  154.8526  135.3617  154.5831 H   0  0  0  0  0  0  0  0  0  0  0  0  # atno 10765 bound_to 10752
  140.8584  133.7806  156.0046 H   0  0  0  0  0  0  0  0  0  0  0  0  # atno 11005 bound_to 11000
  146.2926  140.4248  142.8734 LP  0  0  0  0  0  0  0  0  0  0  0  0  # atno 17320 bound_to 7965
  144.8644  140.7185  143.6087 LP  0  0  0  0  0  0  0  0  0  0  0  0  # atno 17321 bound_to 7965
  139.4827  144.6083  151.7480 LP  0  0  0  0  0  0  0  0  0  0  0  0  # atno 17342 bound_to 10162
  140.5227  144.0853  150.6028 LP  0  0  0  0  0  0  0  0  0  0  0  0  # atno 17343 bound_to 10162
  156.0998  130.3656  150.0239 LP  0  0  0  0  0  0  0  0  0  0  0  0  # atno 17370 bound_to 10713
  156.8356  130.9408  151.3635 LP  0  0  0  0  0  0  0  0  0  0  0  0  # atno 17371 bound_to 10713
  140.8711  134.2726  157.5190 LP  0  0  0  0  0  0  0  0  0  0  0  0  # atno 17394 bound_to 11000
  139.8706  134.9567  156.4247 LP  0  0  0  0  0  0  0  0  0  0  0  0  # atno 17395 bound_to 11000

$$$$
