AV-unprocessed.smi:1648|AV-procd|sdf|6634|dock1
  -GOLD-   22720 7333D 1   1.00000     0.00000
 Structure written by MMmdl.
 41 41  0  0  0  0  0  0  0  0  1 V2000
  143.3195  140.3608  157.1161 C   0  0  0  0  0  0  0  0  0  0  0  0
  144.8448  140.4114  157.0088 C   0  0  0  0  0  0  0  0  0  0  0  0
  145.5021  140.8364  157.9558 O   0  0  0  0  0  0  0  0  0  0  0  0
  145.4409  139.9793  155.8839 N   0  0  0  0  0  0  0  0  0  0  0  0
  146.8768  139.9483  155.5944 C   0  0  1  0  0  0  0  0  0  0  0  0
  147.2203  138.5393  155.0778 C   0  0  0  0  0  0  0  0  0  0  0  0
  148.0840  137.8633  155.6388 O   0  0  0  0  0  0  0  0  0  0  0  0
  146.5312  138.1142  154.0066 N   0  0  0  0  0  0  0  0  0  0  0  0
  146.7046  136.8270  153.3354 C   0  0  1  0  0  0  0  0  0  0  0  0
  145.9947  135.7414  154.1554 C   0  0  0  0  0  0  0  0  0  0  0  0
  146.1665  136.8815  151.8890 C   0  0  0  0  0  0  0  0  0  0  0  0
  145.7588  135.5803  151.3895 N   0  0  0  0  0  0  0  0  0  0  0  0
  144.4839  135.1950  150.9954 C   0  0  0  0  0  0  0  0  0  0  0  0
  144.5733  133.8771  150.6083 C   0  0  0  0  0  0  0  0  0  0  0  0
  145.8891  133.4385  150.7378 N   0  0  0  0  0  0  0  0  0  0  0  0
  146.5328  134.5031  151.1976 C   0  0  0  0  0  0  0  0  0  0  0  0
  147.1922  141.0072  154.4970 C   0  0  0  0  0  0  0  0  0  0  0  0
  148.7049  141.1774  154.2434 C   0  0  0  0  0  0  0  0  0  0  0  0
  146.5800  142.3810  154.8342 C   0  0  0  0  0  0  0  0  0  0  0  0
  142.8463  140.8475  156.2640 H   0  0  0  0  0  0  0  0  0  0  0  0
  142.9820  140.8692  158.0198 H   0  0  0  0  0  0  0  0  0  0  0  0
  142.9757  139.3273  157.1620 H   0  0  0  0  0  0  0  0  0  0  0  0
  144.8398  139.5979  155.1678 H   0  0  0  0  0  0  0  0  0  0  0  0
  147.4589  140.1786  156.4885 H   0  0  0  0  0  0  0  0  0  0  0  0
  145.8393  138.7375  153.6165 H   0  0  0  0  0  0  0  0  0  0  0  0
  147.7635  136.5639  153.3070 H   0  0  0  0  0  0  0  0  0  0  0  0
  146.1242  134.7590  153.7004 H   0  0  0  0  0  0  0  0  0  0  0  0
  144.9241  135.9349  154.2305 H   0  0  0  0  0  0  0  0  0  0  0  0
  146.3964  135.6893  155.1680 H   0  0  0  0  0  0  0  0  0  0  0  0
  145.2994  137.5413  151.8367 H   0  0  0  0  0  0  0  0  0  0  0  0
  146.9171  137.2999  151.2167 H   0  0  0  0  0  0  0  0  0  0  0  0
  143.6402  135.8680  151.0336 H   0  0  0  0  0  0  0  0  0  0  0  0
  143.7992  133.2169  150.2462 H   0  0  0  0  0  0  0  0  0  0  0  0
  147.5925  134.4957  151.4052 H   0  0  0  0  0  0  0  0  0  0  0  0
  146.7414  140.6818  153.5575 H   0  0  0  0  0  0  0  0  0  0  0  0
  149.2289  141.4567  155.1579 H   0  0  0  0  0  0  0  0  0  0  0  0
  148.8928  141.9571  153.5047 H   0  0  0  0  0  0  0  0  0  0  0  0
  149.1641  140.2658  153.8606 H   0  0  0  0  0  0  0  0  0  0  0  0
  146.9616  142.7610  155.7822 H   0  0  0  0  0  0  0  0  0  0  0  0
  145.4932  142.3370  154.9065 H   0  0  0  0  0  0  0  0  0  0  0  0
  146.8160  143.1158  154.0639 H   0  0  0  0  0  0  0  0  0  0  0  0
  1  2  1  0  0  0  0
  1 20  1  0  0  0  0
  1 21  1  0  0  0  0
  1 22  1  0  0  0  0
  2  3  2  0  0  0  0
  2  4  1  0  0  0  0
  4  5  1  0  0  0  0
  4 23  1  0  0  0  0
  5  6  1  0  0  0  0
  5 17  1  0  0  0  0
  5 24  1  0  0  0  0
  6  7  2  0  0  0  0
  6  8  1  0  0  0  0
  8  9  1  0  0  0  0
  8 25  1  0  0  0  0
  9 10  1  0  0  0  0
  9 11  1  0  0  0  0
  9 26  1  0  0  0  0
 10 27  1  0  0  0  0
 10 28  1  0  0  0  0
 10 29  1  0  0  0  0
 11 12  1  0  0  0  0
 11 30  1  0  0  0  0
 11 31  1  0  0  0  0
 12 16  1  0  0  0  0
 12 13  1  0  0  0  0
 13 14  2  0  0  0  0
 13 32  1  0  0  0  0
 14 15  1  0  0  0  0
 14 33  1  0  0  0  0
 15 16  2  0  0  0  0
 16 34  1  0  0  0  0
 17 18  1  0  0  0  0
 17 19  1  0  0  0  0
 17 35  1  0  0  0  0
 18 36  1  0  0  0  0
 18 37  1  0  0  0  0
 18 38  1  0  0  0  0
 19 39  1  0  0  0  0
 19 40  1  0  0  0  0
 19 41  1  0  0  0  0
M  END
> <s_m_source_file>
AV-unprocessed.smi

> <i_m_source_file_index>
1648

> <i_lp_mmshare_version>
43012

> <i_f3d_flags>
0

> <s_epik_input>
W0NIM11DKD1PKVtOSF1bQ0BASF0oW0NIXShbQ0gzXSlbQ0gzXSlDKD1PKVtOSF1bQ0BIXShbQ0gzXSlbQ0gyXW4xW2NIXVtjSF1uW2NIXTE=

> <s_epik_cmdline>
J2VwaWtfcHl0aG9uJywgJy1waCcsICc3LjAnLCAnLXRuJywgJzgnLCAnLW1hJywgJzIwMCcsICctbWV0YWxfYmluZGluZycsICctaW1hZScsICc8aW5maWxlLm1hZT4nLCAnLW9tYWUnLCAnPG91dGZpbGUubWFlPic=

> <r_lp_tautomer_probability>
1

> <r_epik_Ionization_Penalty>
0.628885

> <r_epik_Ionization_Penalty_Charging>
0.628884

> <r_epik_Ionization_Penalty_Neutral>
4.35155e-07

> <r_epik_State_Penalty>
0.64556

> <r_epik_Charging_Adjusted_Penalty>
1.27444

> <i_epik_Tot_Q>
0

> <i_epik_Tot_abs_Q>
0

> <r_epik_Metal_State_Penalty>
0.30874

> <b_epik_Metal_Only>
0

> <s_lp_Force_Field>
OPLS_2005

> <r_lp_Energy>
9.11872

> <b_lp_Chiralities_Consistent>
1

> <s_lp_Variant>
AV-unprocessed.smi:1648-8

> <Gold.Version>
5.8.1

> <Gold.Id.Protein>
6NUR|6NUR_protein|mol2

> <Gold.PLP.Fitness>
38.4916

> <Gold.PLP.PLP>
-25.5005

> <Gold.PLP.part.hbond>
-2.0000

> <Gold.PLP.part.metal>
0.0000

> <Gold.PLP.part.buried>
-0.9559

> <Gold.PLP.part.nonpolar>
-22.6129

> <Gold.PLP.part.repulsive>
0.1257

> <Gold.PLP.ligand.clash>
0.0000

> <Gold.PLP.ligand.torsion>
0.8050

> <Gold.PLP.Chemscore.Hbond>
2.0000

> <Gold.PLP.Chemscore.CHOScore>
2.8211

> <Gold.PLP.Chemscore.Metal>
0.0000

> <Gold.Chemscore.Hbonds>
donor molecule, donor type, donor heavy atom, donor atom, acceptor molecule, acceptor atom, score
      L1  C    16    34       P1  7948  0.81

> <Gold.PLP.Chemscore.Internal.Correction>
0.1376

> <Gold.Rescore>
     Score         DG    S(hbond)    S(metal)    S(lipo)     H(rot)  DE(clash)    DE(int)     intcor
     10.12     -11.06       1.87        0.00      49.54       2.52       0.03       0.91       ----

> <Gold.Chemscore.Fitness>
10.1165

> <Gold.Chemscore.DG>
-11.0612

> <Gold.Chemscore.ZeroCoef>
-5.4800

> <Gold.Chemscore.Hbond>
1.8682

> <Gold.Chemscore.Metal>
0.0000

> <Gold.Chemscore.Lipo>
49.5438

> <Gold.Chemscore.Internal_Hbond>
0.0000

> <Gold.Chemscore.DEClash>
0.0307

> <Gold.Chemscore.DEInternal>
0.9140

> <Gold.Chemscore.Rot>
2.5216

> <Gold.Chemscore.Internal.Correction>
   9.000000E+99

> <Gold.Chemscore.Hbond.Weighted>
-6.2398

> <Gold.Chemscore.Metal.Weighted>
-0.0000

> <Gold.Chemscore.Lipo.Weighted>
-5.7966

> <Gold.Chemscore.Internal_Hbond.Weighted>
0.0000

> <Gold.Chemscore.DEClash.Weighted>
0.0307

> <Gold.Chemscore.DEInternal.Weighted>
0.9140

> <Gold.Chemscore.Rot.Weighted>
6.4553

> <Gold.Chemscore.Internal.Correction.Weighted>
   9.000000E+99

> <Gold.Protein.RotatedTorsions>
[ 6907 6896 6895 6894 ] final  143.03 input  -60.11 | X-H torsion
[ 7974 7965 7964 7962 ] final -166.92 input  175.53 | X-H torsion
[ 8008 7997 7996 7995 ] final  -88.33 input   59.86 | X-H torsion
[ 10167 10162 10161 10158 ] final  -25.00 input  -65.29 | X-H torsion
[ 10718 10713 10712 10709 ] final  -36.39 input   66.30 | X-H torsion
[ 10763 10752 10751 10750 ] final  -47.87 input  -60.55 | X-H torsion
[ 11005 11000 10999 10996 ] final  132.02 input  -57.11 | X-H torsion

> <Gold.Protein.ActiveResidues>
 VAL166  LYS551  ARG553  GLY616  TRP617  ASP618  TYR619  PRO620  LYS621  CYS622 
 ASP623  PHE694  ASN695  SER759  ASP760  ASP761  ALA762  ILE779  LEU786  VAL792 
 PHE793  MET794  SER795  GLU796  ALA797  LYS798  CYS799  TRP800  GLU811  SER814 

> <Gold.Protein.RotatedAtoms>
  152.2114  133.4914  159.5111 H   0  0  0  0  0  0  0  0  0  0  0  0  # atno 6907 bound_to 6896
  150.6991  134.1462  159.4132 H   0  0  0  0  0  0  0  0  0  0  0  0  # atno 6908 bound_to 6896
  151.9382  135.0225  160.0584 H   0  0  0  0  0  0  0  0  0  0  0  0  # atno 6909 bound_to 6896
  144.7234  140.2595  143.6267 H   0  0  0  0  0  0  0  0  0  0  0  0  # atno 7974 bound_to 7965
  154.6736  140.0555  157.0192 H   0  0  0  0  0  0  0  0  0  0  0  0  # atno 8008 bound_to 7997
  155.1053  140.3233  155.4517 H   0  0  0  0  0  0  0  0  0  0  0  0  # atno 8009 bound_to 7997
  156.2667  140.2024  156.6178 H   0  0  0  0  0  0  0  0  0  0  0  0  # atno 8010 bound_to 7997
  140.7287  143.4303  151.0812 H   0  0  0  0  0  0  0  0  0  0  0  0  # atno 10167 bound_to 10162
  156.3275  130.4274  149.7903 H   0  0  0  0  0  0  0  0  0  0  0  0  # atno 10718 bound_to 10713
  154.0684  135.6608  153.4821 H   0  0  0  0  0  0  0  0  0  0  0  0  # atno 10763 bound_to 10752
  153.0400  135.5151  154.7590 H   0  0  0  0  0  0  0  0  0  0  0  0  # atno 10764 bound_to 10752
  154.6649  135.3020  154.9786 H   0  0  0  0  0  0  0  0  0  0  0  0  # atno 10765 bound_to 10752
  139.9765  134.9562  156.9522 H   0  0  0  0  0  0  0  0  0  0  0  0  # atno 11005 bound_to 11000
  145.8150  139.2019  143.1971 LP  0  0  0  0  0  0  0  0  0  0  0  0  # atno 17320 bound_to 7965
  146.0563  140.8017  142.9756 LP  0  0  0  0  0  0  0  0  0  0  0  0  # atno 17321 bound_to 7965
  139.7959  143.8152  152.3157 LP  0  0  0  0  0  0  0  0  0  0  0  0  # atno 17342 bound_to 10162
  139.8152  144.7319  150.9644 LP  0  0  0  0  0  0  0  0  0  0  0  0  # atno 17343 bound_to 10162
  156.5188  130.8205  151.3196 LP  0  0  0  0  0  0  0  0  0  0  0  0  # atno 17370 bound_to 10713
  157.7424  130.9889  150.2513 LP  0  0  0  0  0  0  0  0  0  0  0  0  # atno 17371 bound_to 10713
  140.5185  134.0931  155.7286 LP  0  0  0  0  0  0  0  0  0  0  0  0  # atno 17394 bound_to 11000
  141.1441  133.9086  157.2256 LP  0  0  0  0  0  0  0  0  0  0  0  0  # atno 17395 bound_to 11000

$$$$
