AV-unprocessed.smi:1410|AV-procd|sdf|5737|dock10
  -GOLD-   22720 5373D 1   1.00000     0.00000
 Structure written by MMmdl.
 40 41  0  0  0  0  0  0  0  0  4 V2000
  142.4846  132.0485  147.7570 N   0  5  0  0  0  0  0  0  0  0  0  0
  143.4157  132.8815  148.2599 C   0  0  0  0  0  0  0  0  0  0  0  0
  143.9578  133.8335  147.7022 O   0  0  0  0  0  0  0  0  0  0  0  0
  143.8120  132.5190  149.6952 C   0  0  0  0  0  0  0  0  0  0  0  0
  144.7387  133.5402  150.2443 N   0  3  2  0  0  0  0  0  0  0  0  0
  145.2777  133.1811  151.5838 C   0  0  0  0  0  0  0  0  0  0  0  0
  146.3332  134.1983  152.0468 C   0  0  0  0  0  0  0  0  0  0  0  0
  145.7585  135.6233  152.0655 C   0  0  1  0  0  0  0  0  0  0  0  0
  146.8040  136.5737  152.4340 N   0  0  0  0  0  0  0  0  0  0  0  0
  146.5913  137.8082  152.9122 C   0  0  0  0  0  0  0  0  0  0  0  0
  145.4702  138.2906  153.0711 O   0  0  0  0  0  0  0  0  0  0  0  0
  147.7508  138.4385  153.1688 N   0  0  0  0  0  0  0  0  0  0  0  0
  147.9493  139.7351  153.7170 C   0  0  0  0  0  0  0  0  0  0  0  0
  146.9329  140.6948  153.5136 C   0  0  0  0  0  0  0  0  0  0  0  0
  147.0953  141.9988  154.0246 C   0  0  0  0  0  0  0  0  0  0  0  0
  148.2222  142.3234  154.6938 N   0  3  0  0  0  0  0  0  0  0  0  0
  149.2272  141.4456  154.8998 C   0  0  0  0  0  0  0  0  0  0  0  0
  149.1218  140.1269  154.4124 C   0  0  0  0  0  0  0  0  0  0  0  0
  145.1706  135.9591  150.6829 C   0  0  0  0  0  0  0  0  0  0  0  0
  144.1442  134.9011  150.2431 C   0  0  0  0  0  0  0  0  0  0  0  0
  141.9752  132.3314  146.9110 H   0  0  0  0  0  0  0  0  0  0  0  0
  142.8914  132.4978  150.2801 H   0  0  0  0  0  0  0  0  0  0  0  0
  144.2520  131.5224  149.7746 H   0  0  0  0  0  0  0  0  0  0  0  0
  144.4602  133.1332  152.3050 H   0  0  0  0  0  0  0  0  0  0  0  0
  145.7305  132.1899  151.5568 H   0  0  0  0  0  0  0  0  0  0  0  0
  146.6944  133.9264  153.0394 H   0  0  0  0  0  0  0  0  0  0  0  0
  147.1958  134.1519  151.3799 H   0  0  0  0  0  0  0  0  0  0  0  0
  144.9610  135.6596  152.8103 H   0  0  0  0  0  0  0  0  0  0  0  0
  147.7582  136.2612  152.3288 H   0  0  0  0  0  0  0  0  0  0  0  0
  148.5915  137.9494  152.8982 H   0  0  0  0  0  0  0  0  0  0  0  0
  146.0317  140.4369  152.9762 H   0  0  0  0  0  0  0  0  0  0  0  0
  146.3636  142.7861  153.9171 H   0  0  0  0  0  0  0  0  0  0  0  0
  150.0837  141.8232  155.4391 H   0  0  0  0  0  0  0  0  0  0  0  0
  149.9462  139.4482  154.5699 H   0  0  0  0  0  0  0  0  0  0  0  0
  144.6968  136.9413  150.7021 H   0  0  0  0  0  0  0  0  0  0  0  0
  145.9703  136.0161  149.9425 H   0  0  0  0  0  0  0  0  0  0  0  0
  143.7858  135.1462  149.2426 H   0  0  0  0  0  0  0  0  0  0  0  0
  143.2766  134.9198  150.9048 H   0  0  0  0  0  0  0  0  0  0  0  0
  145.5227  133.5689  149.6078 H   0  0  0  0  0  0  0  0  0  0  0  0
  148.3209  143.2729  155.0543 H   0  0  0  0  0  0  0  0  0  0  0  0
  1  2  1  0  0  0  0
  1 21  1  0  0  0  0
  2  3  2  0  0  0  0
  2  4  1  0  0  0  0
  4  5  1  0  0  0  0
  4 22  1  0  0  0  0
  4 23  1  0  0  0  0
  5 20  1  0  0  0  0
  5  6  1  0  0  0  0
  5 39  1  0  0  0  0
  6  7  1  0  0  0  0
  6 24  1  0  0  0  0
  6 25  1  0  0  0  0
  7  8  1  0  0  0  0
  7 26  1  0  0  0  0
  7 27  1  0  0  0  0
  8  9  1  0  0  0  0
  8 19  1  0  0  0  0
  8 28  1  0  0  0  0
  9 10  1  0  0  0  0
  9 29  1  0  0  0  0
 10 11  2  0  0  0  0
 10 12  1  0  0  0  0
 12 13  1  0  0  0  0
 12 30  1  0  0  0  0
 13 18  1  0  0  0  0
 13 14  2  0  0  0  0
 14 15  1  0  0  0  0
 14 31  1  0  0  0  0
 15 16  2  0  0  0  0
 15 32  1  0  0  0  0
 16 17  1  0  0  0  0
 16 40  1  0  0  0  0
 17 18  2  0  0  0  0
 17 33  1  0  0  0  0
 18 34  1  0  0  0  0
 19 20  1  0  0  0  0
 19 35  1  0  0  0  0
 19 36  1  0  0  0  0
 20 37  1  0  0  0  0
 20 38  1  0  0  0  0
M  CHG  1   1  -1
M  CHG  1   5   1
M  CHG  1  16   1
M  END
> <s_m_source_file>
AV-unprocessed.smi

> <i_m_source_file_index>
1410

> <i_lp_mmshare_version>
43012

> <i_f3d_flags>
0

> <s_epik_input>
W05IMl1DKD1PKVtDSDJdTjFbQ0gyXVtDSDJdW0NIXShbQ0gyXVtDSDJdMSlbTkhdQyg9TylbTkhdYzJbY0hdW2NIXW5bY0hdW2NIXTI=

> <s_epik_cmdline>
J2VwaWtfcHl0aG9uJywgJy1waCcsICc3LjAnLCAnLXRuJywgJzgnLCAnLW1hJywgJzIwMCcsICctbWV0YWxfYmluZGluZycsICctaW1hZScsICc8aW5maWxlLm1hZT4nLCAnLW9tYWUnLCAnPG91dGZpbGUubWFlPic=

> <r_epik_Ionization_Penalty>
6.84067

> <r_epik_Ionization_Penalty_Charging>
6.84065

> <r_epik_Ionization_Penalty_Neutral>
1.84563e-05

> <r_epik_State_Penalty>
7.68217

> <r_epik_Charging_Adjusted_Penalty>
14.5228

> <i_epik_Tot_Q>
1

> <i_epik_Tot_abs_Q>
3

> <r_epik_Metal_State_Penalty>
3.74331

> <b_epik_Metal_Only>
1

> <s_lp_Force_Field>
OPLS_2005

> <r_lp_Energy>
19.1226

> <b_lp_Chiralities_Consistent>
1

> <s_lp_Variant>
AV-unprocessed.smi:1410-9

> <Gold.Version>
5.8.1

> <Gold.Id.Protein>
6NUR|6NUR_protein|mol2

> <Gold.PLP.Fitness>
47.9956

> <Gold.PLP.PLP>
-33.4068

> <Gold.PLP.part.hbond>
-7.2438

> <Gold.PLP.part.metal>
0.0000

> <Gold.PLP.part.buried>
-1.4865

> <Gold.PLP.part.nonpolar>
-32.8767

> <Gold.PLP.part.repulsive>
6.8662

> <Gold.PLP.ligand.clash>
0.0000

> <Gold.PLP.ligand.torsion>
0.4611

> <Gold.PLP.Chemscore.Hbond>
5.1633

> <Gold.PLP.Chemscore.CHOScore>
0.0000

> <Gold.PLP.Chemscore.Metal>
0.0000

> <Gold.Chemscore.Hbonds>
donor molecule, donor type, donor heavy atom, donor atom, acceptor molecule, acceptor atom, score
      L1  H     1    21       P1 10195  1.00
      L1  H     5    39       P1  7921  0.05
      L1  H     9    29       P1  7948  0.36
      L1  H    12    30       P1  7948  0.69
      L1  H    16    40       P1  8028  2.00
      P1  H  7918  7932       L1     3  0.70
      P1  H 10192 10197       L1     3  0.05
      P1  H 10785 10796       L1     1  0.27

> <Gold.PLP.Chemscore.Internal.Correction>
0.0212

> <Gold.Rescore>
     Score         DG    S(hbond)    S(metal)    S(lipo)     H(rot)  DE(clash)    DE(int)     intcor
     15.30     -21.94       3.79        0.00      75.31       1.96       3.54       3.10       ----

> <Gold.Chemscore.Fitness>
15.2999

> <Gold.Chemscore.DG>
-21.9361

> <Gold.Chemscore.ZeroCoef>
-5.4800

> <Gold.Chemscore.Hbond>
3.7919

> <Gold.Chemscore.Metal>
0.0000

> <Gold.Chemscore.Lipo>
75.3147

> <Gold.Chemscore.Internal_Hbond>
0.0000

> <Gold.Chemscore.DEClash>
3.5368

> <Gold.Chemscore.DEInternal>
3.0994

> <Gold.Chemscore.Rot>
1.9612

> <Gold.Chemscore.Internal.Correction>
   9.000000E+99

> <Gold.Chemscore.Hbonds>
donor molecule, donor type, donor heavy atom, donor atom, acceptor molecule, acceptor atom, score
      L1  H     1    21       P1 10195  0.97
      L1  H     5    39       P1  7921  0.03
      L1  H     9    29       P1  7948  0.35
      L1  H    12    30       P1  7948  0.66
      L1  H    16    40       P1  8028  0.98
      P1  H  7918  7932       L1     3  0.57
      P1  H 10192 10197       L1     3  0.03
      P1  H 10785 10796       L1     1  0.06

> <Gold.Chemscore.Hbond.Weighted>
-12.6650

> <Gold.Chemscore.Metal.Weighted>
-0.0000

> <Gold.Chemscore.Lipo.Weighted>
-8.8118

> <Gold.Chemscore.Internal_Hbond.Weighted>
0.0000

> <Gold.Chemscore.DEClash.Weighted>
3.5368

> <Gold.Chemscore.DEInternal.Weighted>
3.0994

> <Gold.Chemscore.Rot.Weighted>
5.0208

> <Gold.Chemscore.Internal.Correction.Weighted>
   9.000000E+99

> <Gold.Protein.RotatedTorsions>
[ 6907 6896 6895 6894 ] final   61.50 input  -60.11 | X-H torsion
[ 7974 7965 7964 7962 ] final  127.69 input  175.53 | X-H torsion
[ 8008 7997 7996 7995 ] final  -12.23 input   59.86 | X-H torsion
[ 10167 10162 10161 10158 ] final  161.21 input  -65.29 | X-H torsion
[ 10718 10713 10712 10709 ] final -103.21 input   66.30 | X-H torsion
[ 10763 10752 10751 10750 ] final  -56.30 input  -60.55 | X-H torsion
[ 11005 11000 10999 10996 ] final   92.13 input  -57.11 | X-H torsion

> <Gold.Protein.ActiveResidues>
 VAL166  LYS551  ARG553  GLY616  TRP617  ASP618  TYR619  PRO620  LYS621  CYS622 
 ASP623  PHE694  ASN695  SER759  ASP760  ASP761  ALA762  ILE779  LEU786  VAL792 
 PHE793  MET794  SER795  GLU796  ALA797  LYS798  CYS799  TRP800  GLU811  SER814 

> <Gold.Protein.RotatedAtoms>
  152.4094  134.6150  160.0035 H   0  0  0  0  0  0  0  0  0  0  0  0  # atno 6907 bound_to 6896
  151.6332  133.3325  159.3121 H   0  0  0  0  0  0  0  0  0  0  0  0  # atno 6908 bound_to 6896
  150.7986  134.7105  159.6646 H   0  0  0  0  0  0  0  0  0  0  0  0  # atno 6909 bound_to 6896
  145.0477  139.3909  143.5069 H   0  0  0  0  0  0  0  0  0  0  0  0  # atno 7974 bound_to 7965
  154.5395  140.2281  155.8665 H   0  0  0  0  0  0  0  0  0  0  0  0  # atno 8008 bound_to 7997
  156.1844  140.3092  155.9173 H   0  0  0  0  0  0  0  0  0  0  0  0  # atno 8009 bound_to 7997
  155.3287  140.0444  157.3032 H   0  0  0  0  0  0  0  0  0  0  0  0  # atno 8010 bound_to 7997
  139.4847  144.4558  151.8770 H   0  0  0  0  0  0  0  0  0  0  0  0  # atno 10167 bound_to 10162
  156.0257  130.5456  150.7220 H   0  0  0  0  0  0  0  0  0  0  0  0  # atno 10718 bound_to 10713
  154.2045  135.6405  153.5097 H   0  0  0  0  0  0  0  0  0  0  0  0  # atno 10763 bound_to 10752
  153.0004  135.5459  154.6280 H   0  0  0  0  0  0  0  0  0  0  0  0  # atno 10764 bound_to 10752
  154.5702  135.2916  155.0808 H   0  0  0  0  0  0  0  0  0  0  0  0  # atno 10765 bound_to 10752
  139.8828  134.8715  156.3528 H   0  0  0  0  0  0  0  0  0  0  0  0  # atno 11005 bound_to 11000
  146.3515  140.0112  142.8667 LP  0  0  0  0  0  0  0  0  0  0  0  0  # atno 17320 bound_to 7965
  145.1566  140.9651  143.4401 LP  0  0  0  0  0  0  0  0  0  0  0  0  # atno 17321 bound_to 7965
  140.4018  144.2484  150.5892 LP  0  0  0  0  0  0  0  0  0  0  0  0  # atno 17342 bound_to 10162
  140.5050  143.2307  151.8621 LP  0  0  0  0  0  0  0  0  0  0  0  0  # atno 17343 bound_to 10162
  157.4833  131.0904  151.0511 LP  0  0  0  0  0  0  0  0  0  0  0  0  # atno 17370 bound_to 10713
  157.0938  130.5953  149.5445 LP  0  0  0  0  0  0  0  0  0  0  0  0  # atno 17371 bound_to 10713
  140.9582  133.7406  156.0365 LP  0  0  0  0  0  0  0  0  0  0  0  0  # atno 17394 bound_to 11000
  140.8022  134.3496  157.5436 LP  0  0  0  0  0  0  0  0  0  0  0  0  # atno 17395 bound_to 11000

$$$$
