AV-unprocessed.smi:1454|AV-procd|sdf|5914|dock8
  -GOLD-   22720 6 03D 1   1.00000     0.00000
 Structure written by MMmdl.
 45 46  0  0  0  0  0  0  0  0  2 V2000
  155.7022  140.5363  161.9241 O   0  0  0  0  0  0  0  0  0  0  0  0
  154.8358  139.6835  161.7333 C   0  0  0  0  0  0  0  0  0  0  0  0
  154.7528  138.4683  162.6627 C   0  0  0  0  0  0  0  0  0  0  0  0
  154.4123  137.1476  161.9389 C   0  0  0  0  0  0  0  0  0  0  0  0
  154.7433  135.9713  162.7370 N   0  0  0  0  0  0  0  0  0  0  0  0
  154.6589  134.6941  162.3378 C   0  0  0  0  0  0  0  0  0  0  0  0
  154.2957  134.3641  161.2091 O   0  0  0  0  0  0  0  0  0  0  0  0
  155.0519  133.6370  163.3851 C   0  0  0  0  0  0  0  0  0  0  0  0
  153.8730  133.1991  164.2786 C   0  0  0  0  0  0  0  0  0  0  0  0
  154.0074  133.9595  165.6094 C   0  0  0  0  0  0  0  0  0  0  0  0
  155.2646  134.8271  165.4945 C   0  0  0  0  0  0  0  0  0  0  0  0
  156.0861  134.1870  164.3774 C   0  0  0  0  0  0  0  0  0  0  0  0
  153.9099  139.7732  160.7645 N   0  0  0  0  0  0  0  0  0  0  0  0
  153.6881  140.9355  159.9053 C   0  0  0  0  0  0  0  0  0  0  0  0
  152.1960  141.2521  159.6717 C   0  0  0  0  0  0  0  0  0  0  0  0
  151.8698  142.6932  159.3032 C   0  0  0  0  0  0  0  0  0  0  0  0
  152.3678  143.7542  160.0927 C   0  0  0  0  0  0  0  0  0  0  0  0
  152.0676  145.0864  159.7408 C   0  0  0  0  0  0  0  0  0  0  0  0
  151.2767  145.3328  158.6010 C   0  0  0  0  0  0  0  0  0  0  0  0
  150.8326  144.2972  157.8569 N   0  3  0  0  0  0  0  0  0  0  0  0
  151.1054  143.0087  158.1569 C   0  0  0  0  0  0  0  0  0  0  0  0
  155.7348  138.3677  163.1260 H   0  0  0  0  0  0  0  0  0  0  0  0
  154.0561  138.6519  163.4822 H   0  0  0  0  0  0  0  0  0  0  0  0
  153.3665  137.1135  161.6276 H   0  0  0  0  0  0  0  0  0  0  0  0
  154.9973  137.0857  161.0211 H   0  0  0  0  0  0  0  0  0  0  0  0
  155.0600  136.1446  163.6804 H   0  0  0  0  0  0  0  0  0  0  0  0
  155.4583  132.7721  162.8578 H   0  0  0  0  0  0  0  0  0  0  0  0
  152.9005  133.3757  163.8165 H   0  0  0  0  0  0  0  0  0  0  0  0
  153.9332  132.1259  164.4639 H   0  0  0  0  0  0  0  0  0  0  0  0
  153.1270  134.5653  165.8221 H   0  0  0  0  0  0  0  0  0  0  0  0
  154.1155  133.2486  166.4293 H   0  0  0  0  0  0  0  0  0  0  0  0
  154.9916  135.8409  165.2036 H   0  0  0  0  0  0  0  0  0  0  0  0
  155.8146  134.8923  166.4337 H   0  0  0  0  0  0  0  0  0  0  0  0
  156.6768  133.3632  164.7800 H   0  0  0  0  0  0  0  0  0  0  0  0
  156.7842  134.8946  163.9272 H   0  0  0  0  0  0  0  0  0  0  0  0
  153.2477  139.0156  160.6783 H   0  0  0  0  0  0  0  0  0  0  0  0
  154.1505  141.7886  160.4022 H   0  0  0  0  0  0  0  0  0  0  0  0
  154.2155  140.8345  158.9559 H   0  0  0  0  0  0  0  0  0  0  0  0
  151.8123  140.5917  158.8925 H   0  0  0  0  0  0  0  0  0  0  0  0
  151.6355  141.0092  160.5749 H   0  0  0  0  0  0  0  0  0  0  0  0
  152.9759  143.5528  160.9620 H   0  0  0  0  0  0  0  0  0  0  0  0
  152.4359  145.9070  160.3384 H   0  0  0  0  0  0  0  0  0  0  0  0
  150.9941  146.3183  158.2611 H   0  0  0  0  0  0  0  0  0  0  0  0
  150.6963  142.2778  157.4755 H   0  0  0  0  0  0  0  0  0  0  0  0
  150.2672  144.4960  157.0312 H   0  0  0  0  0  0  0  0  0  0  0  0
  1  2  2  0  0  0  0
  2  3  1  0  0  0  0
  2 13  1  0  0  0  0
  3  4  1  0  0  0  0
  3 22  1  0  0  0  0
  3 23  1  0  0  0  0
  4  5  1  0  0  0  0
  4 24  1  0  0  0  0
  4 25  1  0  0  0  0
  5  6  1  0  0  0  0
  5 26  1  0  0  0  0
  6  7  2  0  0  0  0
  6  8  1  0  0  0  0
  8 12  1  0  0  0  0
  8  9  1  0  0  0  0
  8 27  1  0  0  0  0
  9 10  1  0  0  0  0
  9 28  1  0  0  0  0
  9 29  1  0  0  0  0
 10 11  1  0  0  0  0
 10 30  1  0  0  0  0
 10 31  1  0  0  0  0
 11 12  1  0  0  0  0
 11 32  1  0  0  0  0
 11 33  1  0  0  0  0
 12 34  1  0  0  0  0
 12 35  1  0  0  0  0
 13 14  1  0  0  0  0
 13 36  1  0  0  0  0
 14 15  1  0  0  0  0
 14 37  1  0  0  0  0
 14 38  1  0  0  0  0
 15 16  1  0  0  0  0
 15 39  1  0  0  0  0
 15 40  1  0  0  0  0
 16 21  1  0  0  0  0
 16 17  2  0  0  0  0
 17 18  1  0  0  0  0
 17 41  1  0  0  0  0
 18 19  2  0  0  0  0
 18 42  1  0  0  0  0
 19 20  1  0  0  0  0
 19 43  1  0  0  0  0
 20 21  2  0  0  0  0
 20 45  1  0  0  0  0
 21 44  1  0  0  0  0
M  CHG  1  20   1
M  END
> <s_m_source_file>
AV-unprocessed.smi

> <i_m_source_file_index>
1454

> <i_lp_mmshare_version>
43012

> <i_f3d_flags>
0

> <s_epik_input>
W2NIXTFuW2NIXVtjSF1bY0hdYzFbQ0gyXVtDSDJdW05IXUMoPU8pW0NIMl1bQ0gyXVtOSF1DKD1PKVtDSF0yW0NIMl1bQ0gyXVtDSDJdW0NIMl0y

> <s_epik_cmdline>
J2VwaWtfcHl0aG9uJywgJy1waCcsICc3LjAnLCAnLXRuJywgJzgnLCAnLW1hJywgJzIwMCcsICctbWV0YWxfYmluZGluZycsICctaW1hZScsICc8aW5maWxlLm1hZT4nLCAnLW9tYWUnLCAnPG91dGZpbGUubWFlPic=

> <r_epik_Ionization_Penalty>
2.25878

> <r_epik_Ionization_Penalty_Charging>
2.25878

> <r_epik_Ionization_Penalty_Neutral>
5.05393e-08

> <r_epik_State_Penalty>
2.40647

> <r_epik_Charging_Adjusted_Penalty>
4.66526

> <i_epik_Tot_Q>
1

> <i_epik_Tot_abs_Q>
1

> <r_epik_Metal_State_Penalty>
2.41947

> <b_epik_Metal_Only>
0

> <s_lp_Force_Field>
OPLS_2005

> <r_lp_Energy>
23.282

> <b_lp_Chiralities_Consistent>
1

> <s_lp_Variant>
AV-unprocessed.smi:1454-2

> <Gold.Version>
5.8.1

> <Gold.Id.Protein>
6NUR|6NUR_protein|mol2

> <Gold.PLP.Fitness>
46.1450

> <Gold.PLP.PLP>
-40.0121

> <Gold.PLP.part.hbond>
-3.0000

> <Gold.PLP.part.metal>
0.0000

> <Gold.PLP.part.buried>
-5.0647

> <Gold.PLP.part.nonpolar>
-32.4689

> <Gold.PLP.part.repulsive>
0.1420

> <Gold.PLP.ligand.clash>
0.0000

> <Gold.PLP.ligand.torsion>
1.4428

> <Gold.PLP.Chemscore.Hbond>
2.9588

> <Gold.PLP.Chemscore.CHOScore>
0.0000

> <Gold.PLP.Chemscore.Metal>
0.0000

> <Gold.Chemscore.Hbonds>
donor molecule, donor type, donor heavy atom, donor atom, acceptor molecule, acceptor atom, score
      L1  H    20    45       P1  8028  2.00
      P1  H  6896  6908       L1     7  0.60

> <Gold.PLP.Chemscore.Internal.Correction>
0.1423

> <Gold.Rescore>
     Score         DG    S(hbond)    S(metal)    S(lipo)     H(rot)  DE(clash)    DE(int)     intcor
     17.53     -19.68       1.94        0.00     114.84       2.23       0.37       1.78       ----

> <Gold.Chemscore.Fitness>
17.5343

> <Gold.Chemscore.DG>
-19.6845

> <Gold.Chemscore.ZeroCoef>
-5.4800

> <Gold.Chemscore.Hbond>
1.9428

> <Gold.Chemscore.Metal>
0.0000

> <Gold.Chemscore.Lipo>
114.8440

> <Gold.Chemscore.Internal_Hbond>
0.0000

> <Gold.Chemscore.DEClash>
0.3670

> <Gold.Chemscore.DEInternal>
1.7833

> <Gold.Chemscore.Rot>
2.2348

> <Gold.Chemscore.Internal.Correction>
   9.000000E+99

> <Gold.Chemscore.Hbonds>
donor molecule, donor type, donor heavy atom, donor atom, acceptor molecule, acceptor atom, score
      L1  H    20    45       P1  8028  0.74
      P1  H  6896  6908       L1     7  0.58

> <Gold.Chemscore.Hbond.Weighted>
-6.4889

> <Gold.Chemscore.Metal.Weighted>
-0.0000

> <Gold.Chemscore.Lipo.Weighted>
-13.4368

> <Gold.Chemscore.Internal_Hbond.Weighted>
0.0000

> <Gold.Chemscore.DEClash.Weighted>
0.3670

> <Gold.Chemscore.DEInternal.Weighted>
1.7833

> <Gold.Chemscore.Rot.Weighted>
5.7212

> <Gold.Chemscore.Internal.Correction.Weighted>
   9.000000E+99

> <Gold.Protein.RotatedTorsions>
[ 6907 6896 6895 6894 ] final  -35.41 input  -60.11 | X-H torsion
[ 7974 7965 7964 7962 ] final  137.84 input  175.53 | X-H torsion
[ 8008 7997 7996 7995 ] final   -6.48 input   59.86 | X-H torsion
[ 10167 10162 10161 10158 ] final  -74.61 input  -65.29 | X-H torsion
[ 10718 10713 10712 10709 ] final  135.74 input   66.30 | X-H torsion
[ 10763 10752 10751 10750 ] final  -27.22 input  -60.55 | X-H torsion
[ 11005 11000 10999 10996 ] final -128.50 input  -57.11 | X-H torsion

> <Gold.Protein.ActiveResidues>
 VAL166  LYS551  ARG553  GLY616  TRP617  ASP618  TYR619  PRO620  LYS621  CYS622 
 ASP623  PHE694  ASN695  SER759  ASP760  ASP761  ALA762  ILE779  LEU786  VAL792 
 PHE793  MET794  SER795  GLU796  ALA797  LYS798  CYS799  TRP800  GLU811  SER814 

> <Gold.Protein.RotatedAtoms>
  151.0402  134.9601  159.8157 H   0  0  0  0  0  0  0  0  0  0  0  0  # atno 6907 bound_to 6896
  152.5362  134.2668  159.8966 H   0  0  0  0  0  0  0  0  0  0  0  0  # atno 6908 bound_to 6896
  151.2680  133.4226  159.2653 H   0  0  0  0  0  0  0  0  0  0  0  0  # atno 6909 bound_to 6896
  144.9429  139.4909  143.5563 H   0  0  0  0  0  0  0  0  0  0  0  0  # atno 7974 bound_to 7965
  154.5933  140.2431  155.7891 H   0  0  0  0  0  0  0  0  0  0  0  0  # atno 8008 bound_to 7997
  156.2262  140.2982  156.0027 H   0  0  0  0  0  0  0  0  0  0  0  0  # atno 8009 bound_to 7997
  155.2336  140.0404  157.2956 H   0  0  0  0  0  0  0  0  0  0  0  0  # atno 8010 bound_to 7997
  140.5013  143.2361  151.7748 H   0  0  0  0  0  0  0  0  0  0  0  0  # atno 10167 bound_to 10162
  157.4539  131.1068  151.0000 H   0  0  0  0  0  0  0  0  0  0  0  0  # atno 10718 bound_to 10713
  153.7285  135.6940  153.4995 H   0  0  0  0  0  0  0  0  0  0  0  0  # atno 10763 bound_to 10752
  153.2153  135.4388  155.0425 H   0  0  0  0  0  0  0  0  0  0  0  0  # atno 10764 bound_to 10752
  154.8261  135.3447  154.6816 H   0  0  0  0  0  0  0  0  0  0  0  0  # atno 10765 bound_to 10752
  140.9511  134.1064  157.4061 H   0  0  0  0  0  0  0  0  0  0  0  0  # atno 11005 bound_to 11000
  146.3293  139.8461  142.8881 LP  0  0  0  0  0  0  0  0  0  0  0  0  # atno 17320 bound_to 7965
  145.2962  141.0181  143.3634 LP  0  0  0  0  0  0  0  0  0  0  0  0  # atno 17321 bound_to 7965
  139.4873  144.4519  151.9644 LP  0  0  0  0  0  0  0  0  0  0  0  0  # atno 17342 bound_to 10162
  140.3608  144.2976  150.5934 LP  0  0  0  0  0  0  0  0  0  0  0  0  # atno 17343 bound_to 10162
  157.0821  130.5907  149.5422 LP  0  0  0  0  0  0  0  0  0  0  0  0  # atno 17370 bound_to 10713
  155.9999  130.5076  150.7623 LP  0  0  0  0  0  0  0  0  0  0  0  0  # atno 17371 bound_to 10713
  139.8848  135.0066  156.6391 LP  0  0  0  0  0  0  0  0  0  0  0  0  # atno 17394 bound_to 11000
  140.7601  133.8824  155.8412 LP  0  0  0  0  0  0  0  0  0  0  0  0  # atno 17395 bound_to 11000

$$$$
