AV-unprocessed.smi:109|AV-procd|sdf|1052|dock1
  -GOLD-   2262018103D 1   1.00000     0.00000
 Structure written by MMmdl.
 58 61  0  0  0  0  0  0  0  0  1 V2000
  141.2808  139.0226  153.1717 O   0  0  0  0  0  0  0  0  0  0  0  0
  140.1001  139.2586  153.9077 C   0  0  0  0  0  0  0  0  0  0  0  0
  139.5909  137.9423  154.5165 C   0  0  0  0  0  0  0  0  0  0  0  0
  140.4489  137.4595  155.7069 C   0  0  1  0  0  0  0  0  0  0  0  0
  141.8078  137.1647  155.2519 N   0  0  0  0  0  0  0  0  0  0  0  0
  142.0654  136.1606  154.3845 C   0  0  0  0  0  0  0  0  0  0  0  0
  141.2075  135.1182  154.2329 N   0  0  0  0  0  0  0  0  0  0  0  0
  141.4841  134.1475  153.3577 C   0  0  0  0  0  0  0  0  0  0  0  0
  142.5393  134.0293  152.5494 N   0  0  0  0  0  0  0  0  0  0  0  0
  143.4071  135.0717  152.6977 C   0  0  0  0  0  0  0  0  0  0  0  0
  143.2422  136.1668  153.5916 C   0  0  0  0  0  0  0  0  0  0  0  0
  144.3201  137.0344  153.4779 N   0  0  0  0  0  0  0  0  0  0  0  0
  145.0751  136.4813  152.5673 C   0  0  0  0  0  0  0  0  0  0  0  0
  144.6019  135.2994  152.0415 N   0  0  0  0  0  0  0  0  0  0  0  0
  145.2489  134.4606  150.9798 C   0  0  2  0  0  0  0  0  0  0  0  0
  144.3158  134.1774  149.9795 O   0  0  0  0  0  0  0  0  0  0  0  0
  144.1518  132.7690  149.8355 C   0  0  1  0  0  0  0  0  0  0  0  0
  143.7636  132.4068  148.3912 C   0  0  0  0  0  0  0  0  0  0  0  0
  143.2776  133.5449  147.7117 O   0  0  0  0  0  0  0  0  0  0  0  0
  145.4534  132.1646  150.3823 C   0  0  1  0  0  0  0  0  0  0  0  0
  146.4729  132.1520  149.4000 O   0  0  0  0  0  0  0  0  0  0  0  0
  145.8120  133.1239  151.5062 C   0  0  2  0  0  0  0  0  0  0  0  0
  145.2391  132.6976  152.7297 O   0  0  0  0  0  0  0  0  0  0  0  0
  140.4743  138.4393  156.9119 C   0  0  0  0  0  0  0  0  0  0  0  0
  141.5093  138.0392  157.9856 C   0  0  0  0  0  0  0  0  0  0  0  0
  141.5838  139.0845  159.1106 C   0  0  0  0  0  0  0  0  0  0  0  0
  140.2046  139.3161  159.7476 C   0  0  0  0  0  0  0  0  0  0  0  0
  139.1625  139.7091  158.6888 C   0  0  0  0  0  0  0  0  0  0  0  0
  139.0902  138.6646  157.5627 C   0  0  0  0  0  0  0  0  0  0  0  0
  146.0238  135.1017  150.5579 H   0  0  0  0  0  0  0  0  0  0  0  0
  143.3377  132.4738  150.4983 H   0  0  0  0  0  0  0  0  0  0  0  0
  145.3118  131.1417  150.7339 H   0  0  0  0  0  0  0  0  0  0  0  0
  146.8892  133.2125  151.6539 H   0  0  0  0  0  0  0  0  0  0  0  0
  141.1684  139.3772  152.3030 H   0  0  0  0  0  0  0  0  0  0  0  0
  140.3104  139.9884  154.6900 H   0  0  0  0  0  0  0  0  0  0  0  0
  139.3548  139.6972  153.2436 H   0  0  0  0  0  0  0  0  0  0  0  0
  138.5521  138.0634  154.8264 H   0  0  0  0  0  0  0  0  0  0  0  0
  139.5880  137.1883  153.7302 H   0  0  0  0  0  0  0  0  0  0  0  0
  139.9926  136.5313  156.0524 H   0  0  0  0  0  0  0  0  0  0  0  0
  142.5374  137.7257  155.6679 H   0  0  0  0  0  0  0  0  0  0  0  0
  140.7553  133.3532  153.2930 H   0  0  0  0  0  0  0  0  0  0  0  0
  146.0065  136.9265  152.2488 H   0  0  0  0  0  0  0  0  0  0  0  0
  144.6387  132.0374  147.8559 H   0  0  0  0  0  0  0  0  0  0  0  0
  143.0168  131.6134  148.3621 H   0  0  0  0  0  0  0  0  0  0  0  0
  144.0115  134.0058  147.3345 H   0  0  0  0  0  0  0  0  0  0  0  0
  147.2267  131.7101  149.7605 H   0  0  0  0  0  0  0  0  0  0  0  0
  145.7307  131.9557  153.0473 H   0  0  0  0  0  0  0  0  0  0  0  0
  140.8035  139.4055  156.5259 H   0  0  0  0  0  0  0  0  0  0  0  0
  141.2565  137.0726  158.4209 H   0  0  0  0  0  0  0  0  0  0  0  0
  142.4934  137.9254  157.5298 H   0  0  0  0  0  0  0  0  0  0  0  0
  142.2947  138.7608  159.8716 H   0  0  0  0  0  0  0  0  0  0  0  0
  141.9653  140.0251  158.7114 H   0  0  0  0  0  0  0  0  0  0  0  0
  139.8816  138.4080  160.2583 H   0  0  0  0  0  0  0  0  0  0  0  0
  140.2722  140.0929  160.5098 H   0  0  0  0  0  0  0  0  0  0  0  0
  138.1832  139.8202  159.1555 H   0  0  0  0  0  0  0  0  0  0  0  0
  139.4166  140.6831  158.2687 H   0  0  0  0  0  0  0  0  0  0  0  0
  138.3677  138.9909  156.8141 H   0  0  0  0  0  0  0  0  0  0  0  0
  138.7095  137.7289  157.9729 H   0  0  0  0  0  0  0  0  0  0  0  0
  1  2  1  0  0  0  0
  1 34  1  0  0  0  0
  2  3  1  0  0  0  0
  2 35  1  0  0  0  0
  2 36  1  0  0  0  0
  3  4  1  0  0  0  0
  3 37  1  0  0  0  0
  3 38  1  0  0  0  0
  4  5  1  0  0  0  0
  4 24  1  0  0  0  0
  4 39  1  0  0  0  0
  5  6  1  0  0  0  0
  5 40  1  0  0  0  0
  6 11  1  0  0  0  0
  6  7  2  0  0  0  0
  7  8  1  0  0  0  0
  8  9  2  0  0  0  0
  8 41  1  0  0  0  0
  9 10  1  0  0  0  0
 10 14  1  0  0  0  0
 10 11  2  0  0  0  0
 11 12  1  0  0  0  0
 12 13  2  0  0  0  0
 13 14  1  0  0  0  0
 13 42  1  0  0  0  0
 14 15  1  0  0  0  0
 15 30  1  0  0  0  0
 15 22  1  0  0  0  0
 15 16  1  0  0  0  0
 16 17  1  0  0  0  0
 17 31  1  0  0  0  0
 17 18  1  0  0  0  0
 17 20  1  0  0  0  0
 18 19  1  0  0  0  0
 18 43  1  0  0  0  0
 18 44  1  0  0  0  0
 19 45  1  0  0  0  0
 20 32  1  0  0  0  0
 20 21  1  0  0  0  0
 20 22  1  0  0  0  0
 21 46  1  0  0  0  0
 22 33  1  0  0  0  0
 22 23  1  0  0  0  0
 23 47  1  0  0  0  0
 24 29  1  0  0  0  0
 24 25  1  0  0  0  0
 24 48  1  0  0  0  0
 25 26  1  0  0  0  0
 25 49  1  0  0  0  0
 25 50  1  0  0  0  0
 26 27  1  0  0  0  0
 26 51  1  0  0  0  0
 26 52  1  0  0  0  0
 27 28  1  0  0  0  0
 27 53  1  0  0  0  0
 27 54  1  0  0  0  0
 28 29  1  0  0  0  0
 28 55  1  0  0  0  0
 28 56  1  0  0  0  0
 29 57  1  0  0  0  0
 29 58  1  0  0  0  0
M  END
> <s_m_source_file>
AV-unprocessed.smi

> <i_m_source_file_index>
109

> <i_lp_mmshare_version>
43012

> <i_f3d_flags>
0

> <s_epik_input>
W0NIMl0xW0NIMl1bQ0gyXVtDSDJdW0NIMl1bQ0hdMVtDQEhdKFtDSDJdW0NIMl1bT0hdKVtOSF1jKG5bY0hdbjIpYyhjMjMpbltjSF1uM1tDQEBIXTRPW0NASF0oW0NIMl1bT0hdKVtDQEBIXShbT0hdKVtDQEhdNFtPSF0=

> <s_epik_cmdline>
J2VwaWtfcHl0aG9uJywgJy1waCcsICc3LjAnLCAnLXRuJywgJzgnLCAnLW1hJywgJzIwMCcsICctbWV0YWxfYmluZGluZycsICctaW1hZScsICc8aW5maWxlLm1hZT4nLCAnLW9tYWUnLCAnPG91dGZpbGUubWFlPic=

> <r_lp_tautomer_probability>
1

> <r_epik_Ionization_Penalty>
0.000793976

> <r_epik_Ionization_Penalty_Charging>
0

> <r_epik_Ionization_Penalty_Neutral>
0.000793976

> <r_epik_State_Penalty>
-0

> <r_epik_Charging_Adjusted_Penalty>
0

> <i_epik_Tot_Q>
0

> <i_epik_Tot_abs_Q>
0

> <r_epik_Metal_State_Penalty>
-0

> <b_epik_Metal_Only>
0

> <s_epik_Chemistry_Notes>
This compound contains an acetal/aminal-like group ( X-CH(R)-Y where X, Y are N, S, or O) that may be acid/base labile, releasing an aldehyde.

> <s_lp_Force_Field>
OPLS_2005

> <r_lp_Energy>
55.7279

> <b_lp_Chiralities_Consistent>
1

> <s_lp_Variant>
AV-unprocessed.smi:109-22

> <Gold.Version>
5.8.1

> <Gold.Id.Protein>
6NUR|6NUR_protein|mol2

> <Gold.PLP.Fitness>
54.2172

> <Gold.PLP.PLP>
-41.0271

> <Gold.PLP.part.hbond>
-8.5106

> <Gold.PLP.part.metal>
0.0000

> <Gold.PLP.part.buried>
-6.3626

> <Gold.PLP.part.nonpolar>
-27.0421

> <Gold.PLP.part.repulsive>
2.2077

> <Gold.PLP.ligand.clash>
0.0370

> <Gold.PLP.ligand.torsion>
1.1025

> <Gold.PLP.Chemscore.Hbond>
4.9745

> <Gold.PLP.Chemscore.CHOScore>
0.0000

> <Gold.PLP.Chemscore.Metal>
0.0000

> <Gold.Chemscore.Hbonds>
donor molecule, donor type, donor heavy atom, donor atom, acceptor molecule, acceptor atom, score
      L1  H     1    34       P1 10160  1.00
      L1  H    19    45       P1  7921  0.44
      L1  H    21    46       P1 10747  1.00
      P1  H 10192 10197       L1    19  0.35
      P1  H 11000 11005       L1     7  0.96
      L1  C     8    41       P1 10957  0.03

> <Gold.PLP.Chemscore.Internal.Correction>
0.5086

> <Gold.Rescore>
     Score         DG    S(hbond)    S(metal)    S(lipo)     H(rot)  DE(clash)    DE(int)     intcor
      8.31     -10.76       3.58        0.00      62.39       5.47       0.19       2.26       ----

> <Gold.Chemscore.Fitness>
8.3087

> <Gold.Chemscore.DG>
-10.7558

> <Gold.Chemscore.ZeroCoef>
-5.4800

> <Gold.Chemscore.Hbond>
3.5839

> <Gold.Chemscore.Metal>
0.0000

> <Gold.Chemscore.Lipo>
62.3862

> <Gold.Chemscore.Internal_Hbond>
0.0000

> <Gold.Chemscore.DEClash>
0.1900

> <Gold.Chemscore.DEInternal>
2.2571

> <Gold.Chemscore.Rot>
5.4662

> <Gold.Chemscore.Internal.Correction>
   9.000000E+99

> <Gold.Chemscore.Hbonds>
donor molecule, donor type, donor heavy atom, donor atom, acceptor molecule, acceptor atom, score
      L1  H     1    34       P1 10160  0.98
      L1  H    19    45       P1  7921  0.43
      L1  H    21    46       P1 10747  0.97
      P1  H 10192 10197       L1    19  0.01
      P1  H 11000 11005       L1     7  0.41

> <Gold.Chemscore.Hbond.Weighted>
-11.9701

> <Gold.Chemscore.Metal.Weighted>
-0.0000

> <Gold.Chemscore.Lipo.Weighted>
-7.2992

> <Gold.Chemscore.Internal_Hbond.Weighted>
0.0000

> <Gold.Chemscore.DEClash.Weighted>
0.1900

> <Gold.Chemscore.DEInternal.Weighted>
2.2571

> <Gold.Chemscore.Rot.Weighted>
13.9935

> <Gold.Chemscore.Internal.Correction.Weighted>
   9.000000E+99

> <Gold.Protein.RotatedTorsions>
[ 6907 6896 6895 6894 ] final  164.49 input  -60.11 | X-H torsion
[ 7974 7965 7964 7962 ] final   -7.50 input  175.53 | X-H torsion
[ 8008 7997 7996 7995 ] final   47.46 input   59.86 | X-H torsion
[ 10167 10162 10161 10158 ] final   26.52 input  -65.29 | X-H torsion
[ 10718 10713 10712 10709 ] final -117.94 input   66.30 | X-H torsion
[ 10763 10752 10751 10750 ] final  -33.41 input  -60.55 | X-H torsion
[ 11005 11000 10999 10996 ] final   21.47 input  -57.11 | X-H torsion

> <Gold.Protein.ActiveResidues>
 VAL166  LYS551  ARG553  GLY616  TRP617  ASP618  TYR619  PRO620  LYS621  CYS622 
 ASP623  PHE694  ASN695  SER759  ASP760  ASP761  ALA762  ILE779  LEU786  VAL792 
 PHE793  MET794  SER795  GLU796  ALA797  LYS798  CYS799  TRP800  GLU811  SER814 

> <Gold.Protein.RotatedAtoms>
  151.9091  133.3557  159.3857 H   0  0  0  0  0  0  0  0  0  0  0  0  # atno 6907 bound_to 6896
  150.7062  134.4750  159.5452 H   0  0  0  0  0  0  0  0  0  0  0  0  # atno 6908 bound_to 6896
  152.2353  134.8282  160.0519 H   0  0  0  0  0  0  0  0  0  0  0  0  # atno 6909 bound_to 6896
  146.2305  140.2329  142.8341 H   0  0  0  0  0  0  0  0  0  0  0  0  # atno 7974 bound_to 7965
  155.3695  140.3423  155.4243 H   0  0  0  0  0  0  0  0  0  0  0  0  # atno 8008 bound_to 7997
  156.1670  140.1619  156.8548 H   0  0  0  0  0  0  0  0  0  0  0  0  # atno 8009 bound_to 7997
  154.5195  140.0770  156.8127 H   0  0  0  0  0  0  0  0  0  0  0  0  # atno 8010 bound_to 7997
  140.5016  144.0305  150.6335 H   0  0  0  0  0  0  0  0  0  0  0  0  # atno 10167 bound_to 10162
  156.1070  130.6218  150.9228 H   0  0  0  0  0  0  0  0  0  0  0  0  # atno 10718 bound_to 10713
  153.8298  135.6867  153.4816 H   0  0  0  0  0  0  0  0  0  0  0  0  # atno 10763 bound_to 10752
  153.1518  135.4615  154.9645 H   0  0  0  0  0  0  0  0  0  0  0  0  # atno 10764 bound_to 10752
  154.7891  135.3295  154.7763 H   0  0  0  0  0  0  0  0  0  0  0  0  # atno 10765 bound_to 10752
  140.3912  134.1817  155.7662 H   0  0  0  0  0  0  0  0  0  0  0  0  # atno 11005 bound_to 11000
  144.9544  140.8211  143.5552 LP  0  0  0  0  0  0  0  0  0  0  0  0  # atno 17320 bound_to 7965
  145.2293  139.2122  143.5051 LP  0  0  0  0  0  0  0  0  0  0  0  0  # atno 17321 bound_to 7965
  140.3603  143.2912  152.0391 LP  0  0  0  0  0  0  0  0  0  0  0  0  # atno 17342 bound_to 10162
  139.4873  144.6308  151.7074 LP  0  0  0  0  0  0  0  0  0  0  0  0  # atno 17343 bound_to 10162
  157.6248  131.0926  150.8555 LP  0  0  0  0  0  0  0  0  0  0  0  0  # atno 17370 bound_to 10713
  156.8672  130.5133  149.5299 LP  0  0  0  0  0  0  0  0  0  0  0  0  # atno 17371 bound_to 10713
  141.1890  133.8248  157.0974 LP  0  0  0  0  0  0  0  0  0  0  0  0  # atno 17394 bound_to 11000
  140.0405  134.9857  157.0952 LP  0  0  0  0  0  0  0  0  0  0  0  0  # atno 17395 bound_to 11000

$$$$
