AV-unprocessed.smi:999|AV-procd|sdf|4351|dock8
  -GOLD-   22720 2253D 1   1.00000     0.00000
 Structure written by MMmdl.
 37 38  0  0  0  0  0  0  0  0  2 V2000
  151.5022  145.2235  159.1614 C   0  0  0  0  0  0  0  0  0  0  0  0
  152.1597  143.8382  158.9927 C   0  0  2  0  0  0  0  0  0  0  0  0
  151.2457  142.8249  158.2847 C   0  0  0  0  0  0  0  0  0  0  0  0
  150.0674  143.0955  158.0494 O   0  0  0  0  0  0  0  0  0  0  0  0
  151.8116  141.6552  157.9471 N   0  0  0  0  0  0  0  0  0  0  0  0
  151.1342  140.5435  157.2879 C   0  0  2  0  0  0  0  0  0  0  0  0
  150.9787  139.3783  158.2807 C   0  0  0  0  0  0  0  0  0  0  0  0
  150.3134  138.1598  157.6214 C   0  0  0  0  0  0  0  0  0  0  0  0
  151.0880  137.6989  156.3635 C   0  0  1  0  0  0  0  0  0  0  0  0
  150.4181  136.4891  155.6788 C   0  0  0  0  0  0  0  0  0  0  0  0
  150.9975  135.9643  154.7016 O   0  0  0  0  0  0  0  0  0  0  0  0
  149.3120  136.1163  156.1290 O   0  5  0  0  0  0  0  0  0  0  0  0
  151.2582  138.8730  155.3716 C   0  0  0  0  0  0  0  0  0  0  0  0
  151.9169  140.0904  156.0400 C   0  0  0  0  0  0  0  0  0  0  0  0
  152.6351  143.2941  160.2599 N   0  0  0  0  0  0  0  0  0  0  0  0
  153.3819  142.1513  160.4644 C   0  0  0  0  0  0  0  0  0  0  0  0
  153.5604  142.0116  161.8108 C   0  0  0  0  0  0  0  0  0  0  0  0
  152.8663  143.1245  162.3604 C   0  0  0  0  0  0  0  0  0  0  0  0
  152.3069  143.8841  161.4332 N   0  0  0  0  0  0  0  0  0  0  0  0
  151.2112  145.6400  158.1964 H   0  0  0  0  0  0  0  0  0  0  0  0
  152.1943  145.9272  159.6242 H   0  0  0  0  0  0  0  0  0  0  0  0
  150.6081  145.1814  159.7848 H   0  0  0  0  0  0  0  0  0  0  0  0
  153.0357  143.9774  158.3569 H   0  0  0  0  0  0  0  0  0  0  0  0
  152.7854  141.5188  158.1758 H   0  0  0  0  0  0  0  0  0  0  0  0
  150.1364  140.8654  156.9828 H   0  0  0  0  0  0  0  0  0  0  0  0
  151.9566  139.0886  158.6684 H   0  0  0  0  0  0  0  0  0  0  0  0
  150.3873  139.6963  159.1402 H   0  0  0  0  0  0  0  0  0  0  0  0
  150.2552  137.3509  158.3512 H   0  0  0  0  0  0  0  0  0  0  0  0
  149.2858  138.4128  157.3548 H   0  0  0  0  0  0  0  0  0  0  0  0
  152.0795  137.3683  156.6761 H   0  0  0  0  0  0  0  0  0  0  0  0
  151.8647  138.5706  154.5169 H   0  0  0  0  0  0  0  0  0  0  0  0
  150.2853  139.1638  154.9724 H   0  0  0  0  0  0  0  0  0  0  0  0
  151.9840  140.9064  155.3196 H   0  0  0  0  0  0  0  0  0  0  0  0
  152.9416  139.8388  156.3175 H   0  0  0  0  0  0  0  0  0  0  0  0
  153.7212  141.5386  159.6423 H   0  0  0  0  0  0  0  0  0  0  0  0
  154.1005  141.2305  162.3251 H   0  0  0  0  0  0  0  0  0  0  0  0
  152.7497  143.3994  163.3983 H   0  0  0  0  0  0  0  0  0  0  0  0
  1  2  1  0  0  0  0
  1 20  1  0  0  0  0
  1 21  1  0  0  0  0
  1 22  1  0  0  0  0
  2  3  1  0  0  0  0
  2 15  1  0  0  0  0
  2 23  1  0  0  0  0
  3  4  2  0  0  0  0
  3  5  1  0  0  0  0
  5  6  1  0  0  0  0
  5 24  1  0  0  0  0
  6 14  1  0  0  0  0
  6  7  1  0  0  0  0
  6 25  1  0  0  0  0
  7  8  1  0  0  0  0
  7 26  1  0  0  0  0
  7 27  1  0  0  0  0
  8  9  1  0  0  0  0
  8 28  1  0  0  0  0
  8 29  1  0  0  0  0
  9 10  1  0  0  0  0
  9 13  1  0  0  0  0
  9 30  1  0  0  0  0
 10 11  2  0  0  0  0
 10 12  1  0  0  0  0
 13 14  1  0  0  0  0
 13 31  1  0  0  0  0
 13 32  1  0  0  0  0
 14 33  1  0  0  0  0
 14 34  1  0  0  0  0
 15 19  1  0  0  0  0
 15 16  1  0  0  0  0
 16 17  2  0  0  0  0
 16 35  1  0  0  0  0
 17 18  1  0  0  0  0
 17 36  1  0  0  0  0
 18 19  2  0  0  0  0
 18 37  1  0  0  0  0
M  CHG  1  12  -1
M  END
> <s_m_source_file>
AV-unprocessed.smi

> <i_m_source_file_index>
999

> <i_lp_mmshare_version>
43012

> <i_f3d_flags>
0

> <s_epik_input>
bjFbY0hdW2NIXVtjSF1uMVtDQEhdKFtDSDNdKUMoPU8pW05IXVtDQEBIXTJbQ0gyXVtDSDJdW0NAQEhdKEMoPU8pW09IXSlbQ0gyXVtDSDJdMg==

> <s_epik_cmdline>
J2VwaWtfcHl0aG9uJywgJy1waCcsICc3LjAnLCAnLXRuJywgJzgnLCAnLW1hJywgJzIwMCcsICctbWV0YWxfYmluZGluZycsICctaW1hZScsICc8aW5maWxlLm1hZT4nLCAnLW9tYWUnLCAnPG91dGZpbGUubWFlPic=

> <r_lp_tautomer_probability>
1

> <r_epik_Ionization_Penalty>
0.00221712

> <r_epik_Ionization_Penalty_Charging>
0.00217268

> <r_epik_Ionization_Penalty_Neutral>
4.44343e-05

> <r_epik_State_Penalty>
0.0014925

> <r_epik_Charging_Adjusted_Penalty>
0.00366518

> <i_epik_Tot_Q>
-1

> <i_epik_Tot_abs_Q>
1

> <r_epik_Metal_State_Penalty>
-0

> <b_epik_Metal_Only>
0

> <s_lp_Force_Field>
OPLS_2005

> <r_lp_Energy>
14.6475

> <b_lp_Chiralities_Consistent>
1

> <s_lp_Variant>
AV-unprocessed.smi:999-1

> <Gold.Version>
5.8.1

> <Gold.Id.Protein>
6NUR|6NUR_protein|mol2

> <Gold.PLP.Fitness>
45.0853

> <Gold.PLP.PLP>
-39.4673

> <Gold.PLP.part.hbond>
-1.0000

> <Gold.PLP.part.metal>
0.0000

> <Gold.PLP.part.buried>
-6.6871

> <Gold.PLP.part.nonpolar>
-33.6870

> <Gold.PLP.part.repulsive>
1.0701

> <Gold.PLP.ligand.clash>
0.0000

> <Gold.PLP.ligand.torsion>
0.2531

> <Gold.PLP.Chemscore.Hbond>
2.0000

> <Gold.PLP.Chemscore.CHOScore>
0.0000

> <Gold.PLP.Chemscore.Metal>
0.0000

> <Gold.Chemscore.Hbonds>
donor molecule, donor type, donor heavy atom, donor atom, acceptor molecule, acceptor atom, score
      P1  H 10752 10764       L1    11  2.00

> <Gold.PLP.Chemscore.Internal.Correction>
0.1241

> <Gold.Rescore>
     Score         DG    S(hbond)    S(metal)    S(lipo)     H(rot)  DE(clash)    DE(int)     intcor
     13.73     -14.24       1.00        0.00      89.58       1.98       0.03       0.48       ----

> <Gold.Chemscore.Fitness>
13.7288

> <Gold.Chemscore.DG>
-14.2384

> <Gold.Chemscore.ZeroCoef>
-5.4800

> <Gold.Chemscore.Hbond>
0.9999

> <Gold.Chemscore.Metal>
0.0000

> <Gold.Chemscore.Lipo>
89.5804

> <Gold.Chemscore.Internal_Hbond>
0.0000

> <Gold.Chemscore.DEClash>
0.0332

> <Gold.Chemscore.DEInternal>
0.4764

> <Gold.Chemscore.Rot>
1.9774

> <Gold.Chemscore.Internal.Correction>
   9.000000E+99

> <Gold.Chemscore.Hbonds>
donor molecule, donor type, donor heavy atom, donor atom, acceptor molecule, acceptor atom, score
      P1  H 10752 10764       L1    11  0.97

> <Gold.Chemscore.Hbond.Weighted>
-3.3395

> <Gold.Chemscore.Metal.Weighted>
-0.0000

> <Gold.Chemscore.Lipo.Weighted>
-10.4809

> <Gold.Chemscore.Internal_Hbond.Weighted>
0.0000

> <Gold.Chemscore.DEClash.Weighted>
0.0332

> <Gold.Chemscore.DEInternal.Weighted>
0.4764

> <Gold.Chemscore.Rot.Weighted>
5.0620

> <Gold.Chemscore.Internal.Correction.Weighted>
   9.000000E+99

> <Gold.Protein.RotatedTorsions>
[ 6907 6896 6895 6894 ] final  138.48 input  -60.11 | X-H torsion
[ 7974 7965 7964 7962 ] final   30.39 input  175.53 | X-H torsion
[ 8008 7997 7996 7995 ] final  -98.01 input   59.86 | X-H torsion
[ 10167 10162 10161 10158 ] final -157.14 input  -65.29 | X-H torsion
[ 10718 10713 10712 10709 ] final  -59.60 input   66.30 | X-H torsion
[ 10763 10752 10751 10750 ] final  -57.39 input  -60.55 | X-H torsion
[ 11005 11000 10999 10996 ] final  175.86 input  -57.11 | X-H torsion

> <Gold.Protein.ActiveResidues>
 VAL166  LYS551  ARG553  GLY616  TRP617  ASP618  TYR619  PRO620  LYS621  CYS622 
 ASP623  PHE694  ASN695  SER759  ASP760  ASP761  ALA762  ILE779  LEU786  VAL792 
 PHE793  MET794  SER795  GLU796  ALA797  LYS798  CYS799  TRP800  GLU811  SER814 

> <Gold.Protein.RotatedAtoms>
  152.2661  133.5340  159.5410 H   0  0  0  0  0  0  0  0  0  0  0  0  # atno 6907 bound_to 6896
  150.7142  134.0763  159.3891 H   0  0  0  0  0  0  0  0  0  0  0  0  # atno 6908 bound_to 6896
  151.8679  135.0500  160.0527 H   0  0  0  0  0  0  0  0  0  0  0  0  # atno 6909 bound_to 6896
  146.1614  139.6795  142.9030 H   0  0  0  0  0  0  0  0  0  0  0  0  # atno 7974 bound_to 7965
  154.7954  140.0458  157.1233 H   0  0  0  0  0  0  0  0  0  0  0  0  # atno 8008 bound_to 7997
  154.9541  140.3069  155.5041 H   0  0  0  0  0  0  0  0  0  0  0  0  # atno 8009 bound_to 7997
  156.2955  140.2282  156.4621 H   0  0  0  0  0  0  0  0  0  0  0  0  # atno 8010 bound_to 7997
  139.6794  143.9607  152.2328 H   0  0  0  0  0  0  0  0  0  0  0  0  # atno 10167 bound_to 10162
  156.1050  130.4181  150.0738 H   0  0  0  0  0  0  0  0  0  0  0  0  # atno 10718 bound_to 10713
  154.2216  135.6376  153.5146 H   0  0  0  0  0  0  0  0  0  0  0  0  # atno 10763 bound_to 10752
  152.9967  135.5498  154.6108 H   0  0  0  0  0  0  0  0  0  0  0  0  # atno 10764 bound_to 10752
  154.5569  135.2906  155.0930 H   0  0  0  0  0  0  0  0  0  0  0  0  # atno 10765 bound_to 10752
  140.3668  134.7065  157.4366 H   0  0  0  0  0  0  0  0  0  0  0  0  # atno 11005 bound_to 11000
  145.4577  141.0431  143.2769 LP  0  0  0  0  0  0  0  0  0  0  0  0  # atno 17320 bound_to 7965
  144.8033  139.6099  143.7062 LP  0  0  0  0  0  0  0  0  0  0  0  0  # atno 17321 bound_to 7965
  139.9393  144.6692  150.8283 LP  0  0  0  0  0  0  0  0  0  0  0  0  # atno 17342 bound_to 10162
  140.7647  143.3255  151.2525 LP  0  0  0  0  0  0  0  0  0  0  0  0  # atno 17343 bound_to 10162
  156.8716  130.9526  151.3608 LP  0  0  0  0  0  0  0  0  0  0  0  0  # atno 17370 bound_to 10713
  157.6225  130.8666  149.9133 LP  0  0  0  0  0  0  0  0  0  0  0  0  # atno 17371 bound_to 10713
  140.0583  134.6031  155.8778 LP  0  0  0  0  0  0  0  0  0  0  0  0  # atno 17394 bound_to 11000
  141.1967  133.6593  156.5705 LP  0  0  0  0  0  0  0  0  0  0  0  0  # atno 17395 bound_to 11000

$$$$
