AV-unprocessed.smi:1032|AV-procd|sdf|4485|dock4
  -GOLD-   22720 2463D 1   1.00000     0.00000
 Structure written by MMmdl.
 46 47  0  0  0  0  0  0  0  0  2 V2000
  146.0091  135.4203  152.3177 C   0  0  0  0  0  0  0  0  0  0  0  0
  145.1518  136.6252  151.8921 C   0  0  2  0  0  0  0  0  0  0  0  0
  145.9867  137.7669  151.2839 C   0  0  0  0  0  0  0  0  0  0  0  0
  146.7808  138.5423  152.3505 C   0  0  0  0  0  0  0  0  0  0  0  0
  145.8844  139.0589  153.4183 N   0  3  2  0  0  0  0  0  0  0  0  0
  146.5821  139.9254  154.4031 C   0  0  0  0  0  0  0  0  0  0  0  0
  147.4769  140.9857  153.7289 C   0  0  1  0  0  0  0  0  0  0  0  0
  147.0013  142.2506  154.1458 O   0  0  0  0  0  0  0  0  0  0  0  0
  148.9483  140.8474  154.1711 C   0  0  0  0  0  0  0  0  0  0  0  0
  149.3312  141.8801  155.1285 N   0  0  0  0  0  0  0  0  0  0  0  0
  150.1719  141.7025  156.1576 C   0  0  0  0  0  0  0  0  0  0  0  0
  150.6998  140.6221  156.4198 O   0  0  0  0  0  0  0  0  0  0  0  0
  150.3308  142.8388  156.8581 N   0  0  0  0  0  0  0  0  0  0  0  0
  151.1618  143.0785  157.9863 C   0  0  0  0  0  0  0  0  0  0  0  0
  151.3339  144.4148  158.4033 C   0  0  0  0  0  0  0  0  0  0  0  0
  152.1701  144.6800  159.5061 C   0  0  0  0  0  0  0  0  0  0  0  0
  152.8287  143.7179  160.1859 N   0  0  0  0  0  0  0  0  0  0  0  0
  152.6737  142.4408  159.7771 C   0  0  0  0  0  0  0  0  0  0  0  0
  151.8609  142.0670  158.6882 C   0  0  0  0  0  0  0  0  0  0  0  0
  145.1219  137.9633  154.0699 C   0  0  0  0  0  0  0  0  0  0  0  0
  144.2891  137.1771  153.0415 C   0  0  0  0  0  0  0  0  0  0  0  0
  146.7247  135.6776  153.0981 H   0  0  0  0  0  0  0  0  0  0  0  0
  146.5721  135.0246  151.4720 H   0  0  0  0  0  0  0  0  0  0  0  0
  145.3834  134.6125  152.6982 H   0  0  0  0  0  0  0  0  0  0  0  0
  144.4752  136.2624  151.1170 H   0  0  0  0  0  0  0  0  0  0  0  0
  146.6634  137.3763  150.5228 H   0  0  0  0  0  0  0  0  0  0  0  0
  145.3209  138.4602  150.7681 H   0  0  0  0  0  0  0  0  0  0  0  0
  147.5476  137.9044  152.7919 H   0  0  0  0  0  0  0  0  0  0  0  0
  147.3047  139.3660  151.8667 H   0  0  0  0  0  0  0  0  0  0  0  0
  145.8512  140.4409  155.0288 H   0  0  0  0  0  0  0  0  0  0  0  0
  147.1667  139.2990  155.0785 H   0  0  0  0  0  0  0  0  0  0  0  0
  147.4107  140.9106  152.6434 H   0  0  0  0  0  0  0  0  0  0  0  0
  146.0807  142.1734  154.3503 H   0  0  0  0  0  0  0  0  0  0  0  0
  149.1646  139.8469  154.5509 H   0  0  0  0  0  0  0  0  0  0  0  0
  149.6006  140.9866  153.3087 H   0  0  0  0  0  0  0  0  0  0  0  0
  148.9379  142.7994  154.9890 H   0  0  0  0  0  0  0  0  0  0  0  0
  149.7594  143.6201  156.5717 H   0  0  0  0  0  0  0  0  0  0  0  0
  150.8335  145.2254  157.8937 H   0  0  0  0  0  0  0  0  0  0  0  0
  152.3154  145.6935  159.8500 H   0  0  0  0  0  0  0  0  0  0  0  0
  153.2204  141.6920  160.3312 H   0  0  0  0  0  0  0  0  0  0  0  0
  151.8037  141.0260  158.4101 H   0  0  0  0  0  0  0  0  0  0  0  0
  145.8089  137.3008  154.5981 H   0  0  0  0  0  0  0  0  0  0  0  0
  144.4497  138.3809  154.8204 H   0  0  0  0  0  0  0  0  0  0  0  0
  143.5250  137.8373  152.6285 H   0  0  0  0  0  0  0  0  0  0  0  0
  143.7519  136.3661  153.5345 H   0  0  0  0  0  0  0  0  0  0  0  0
  145.1964  139.6473  152.9691 H   0  0  0  0  0  0  0  0  0  0  0  0
  1  2  1  0  0  0  0
  1 22  1  0  0  0  0
  1 23  1  0  0  0  0
  1 24  1  0  0  0  0
  2 21  1  0  0  0  0
  2  3  1  0  0  0  0
  2 25  1  0  0  0  0
  3  4  1  0  0  0  0
  3 26  1  0  0  0  0
  3 27  1  0  0  0  0
  4  5  1  0  0  0  0
  4 28  1  0  0  0  0
  4 29  1  0  0  0  0
  5  6  1  0  0  0  0
  5 20  1  0  0  0  0
  5 46  1  0  0  0  0
  6  7  1  0  0  0  0
  6 30  1  0  0  0  0
  6 31  1  0  0  0  0
  7  8  1  0  0  0  0
  7  9  1  0  0  0  0
  7 32  1  0  0  0  0
  8 33  1  0  0  0  0
  9 10  1  0  0  0  0
  9 34  1  0  0  0  0
  9 35  1  0  0  0  0
 10 11  1  0  0  0  0
 10 36  1  0  0  0  0
 11 12  2  0  0  0  0
 11 13  1  0  0  0  0
 13 14  1  0  0  0  0
 13 37  1  0  0  0  0
 14 19  1  0  0  0  0
 14 15  2  0  0  0  0
 15 16  1  0  0  0  0
 15 38  1  0  0  0  0
 16 17  2  0  0  0  0
 16 39  1  0  0  0  0
 17 18  1  0  0  0  0
 18 19  2  0  0  0  0
 18 40  1  0  0  0  0
 19 41  1  0  0  0  0
 20 21  1  0  0  0  0
 20 42  1  0  0  0  0
 20 43  1  0  0  0  0
 21 44  1  0  0  0  0
 21 45  1  0  0  0  0
M  CHG  1   5   1
M  END
> <s_m_source_file>
AV-unprocessed.smi

> <i_m_source_file_index>
1032

> <i_lp_mmshare_version>
43012

> <i_f3d_flags>
0

> <s_epik_input>
W0NIM11bQ0hdMVtDSDJdW0NIMl1OKFtDSDJdW0NIMl0xKVtDSDJdW0NASF0oW09IXSlbQ0gyXVtOSF1DKD1PKVtOSF1jMltjSF1bY0hdbltjSF1bY0hdMg==

> <s_epik_cmdline>
J2VwaWtfcHl0aG9uJywgJy1waCcsICc3LjAnLCAnLXRuJywgJzgnLCAnLW1hJywgJzIwMCcsICctbWV0YWxfYmluZGluZycsICctaW1hZScsICc8aW5maWxlLm1hZT4nLCAnLW9tYWUnLCAnPG91dGZpbGUubWFlPic=

> <r_epik_Ionization_Penalty>
0.11743

> <r_epik_Ionization_Penalty_Charging>
0.00147689

> <r_epik_Ionization_Penalty_Neutral>
0.115954

> <r_epik_State_Penalty>
0.105552

> <r_epik_Charging_Adjusted_Penalty>
0.107029

> <i_epik_Tot_Q>
1

> <i_epik_Tot_abs_Q>
1

> <r_epik_Metal_State_Penalty>
0.0881315

> <b_epik_Metal_Only>
0

> <s_lp_Force_Field>
OPLS_2005

> <r_lp_Energy>
26.5428

> <b_lp_Chiralities_Consistent>
1

> <s_lp_Variant>
AV-unprocessed.smi:1032-4

> <Gold.Version>
5.8.1

> <Gold.Id.Protein>
6NUR|6NUR_protein|mol2

> <Gold.PLP.Fitness>
48.0058

> <Gold.PLP.PLP>
-39.4447

> <Gold.PLP.part.hbond>
-3.0000

> <Gold.PLP.part.metal>
0.0000

> <Gold.PLP.part.buried>
-1.2424

> <Gold.PLP.part.nonpolar>
-36.8762

> <Gold.PLP.part.repulsive>
0.2547

> <Gold.PLP.ligand.clash>
0.0000

> <Gold.PLP.ligand.torsion>
1.6377

> <Gold.PLP.Chemscore.Hbond>
3.9280

> <Gold.PLP.Chemscore.CHOScore>
0.0000

> <Gold.PLP.Chemscore.Metal>
0.0000

> <Gold.Chemscore.Hbonds>
donor molecule, donor type, donor heavy atom, donor atom, acceptor molecule, acceptor atom, score
      L1  H     5    46       P1 10175  2.00
      L1  H    10    36       P1  8028  0.93
      L1  H    13    37       P1  8028  1.00

> <Gold.PLP.Chemscore.Internal.Correction>
0.0525

> <Gold.Rescore>
     Score         DG    S(hbond)    S(metal)    S(lipo)     H(rot)  DE(clash)    DE(int)     intcor
     17.45     -21.49       2.89        0.00     104.54       2.29       1.21       2.84       ----

> <Gold.Chemscore.Fitness>
17.4512

> <Gold.Chemscore.DG>
-21.4936

> <Gold.Chemscore.ZeroCoef>
-5.4800

> <Gold.Chemscore.Hbond>
2.8850

> <Gold.Chemscore.Metal>
0.0000

> <Gold.Chemscore.Lipo>
104.5392

> <Gold.Chemscore.Internal_Hbond>
0.0000

> <Gold.Chemscore.DEClash>
1.2064

> <Gold.Chemscore.DEInternal>
2.8360

> <Gold.Chemscore.Rot>
2.2865

> <Gold.Chemscore.Internal.Correction>
   9.000000E+99

> <Gold.Chemscore.Hbonds>
donor molecule, donor type, donor heavy atom, donor atom, acceptor molecule, acceptor atom, score
      L1  H     5    46       P1 10175  1.00
      L1  H    10    36       P1  8028  0.86
      L1  H    13    37       P1  8028  1.00

> <Gold.Chemscore.Hbond.Weighted>
-9.6360

> <Gold.Chemscore.Metal.Weighted>
-0.0000

> <Gold.Chemscore.Lipo.Weighted>
-12.2311

> <Gold.Chemscore.Internal_Hbond.Weighted>
0.0000

> <Gold.Chemscore.DEClash.Weighted>
1.2064

> <Gold.Chemscore.DEInternal.Weighted>
2.8360

> <Gold.Chemscore.Rot.Weighted>
5.8536

> <Gold.Chemscore.Internal.Correction.Weighted>
   9.000000E+99

> <Gold.Protein.RotatedTorsions>
[ 6907 6896 6895 6894 ] final  160.37 input  -60.11 | X-H torsion
[ 7974 7965 7964 7962 ] final -150.84 input  175.53 | X-H torsion
[ 8008 7997 7996 7995 ] final   65.83 input   59.86 | X-H torsion
[ 10167 10162 10161 10158 ] final   86.06 input  -65.29 | X-H torsion
[ 10718 10713 10712 10709 ] final -172.51 input   66.30 | X-H torsion
[ 10763 10752 10751 10750 ] final   61.98 input  -60.55 | X-H torsion
[ 11005 11000 10999 10996 ] final  -38.52 input  -57.11 | X-H torsion

> <Gold.Protein.ActiveResidues>
 VAL166  LYS551  ARG553  GLY616  TRP617  ASP618  TYR619  PRO620  LYS621  CYS622 
 ASP623  PHE694  ASN695  SER759  ASP760  ASP761  ALA762  ILE779  LEU786  VAL792 
 PHE793  MET794  SER795  GLU796  ALA797  LYS798  CYS799  TRP800  GLU811  SER814 

> <Gold.Protein.RotatedAtoms>
  151.9716  133.3727  159.4072 H   0  0  0  0  0  0  0  0  0  0  0  0  # atno 6907 bound_to 6896
  150.6948  134.4134  159.5181 H   0  0  0  0  0  0  0  0  0  0  0  0  # atno 6908 bound_to 6896
  152.1839  134.8730  160.0574 H   0  0  0  0  0  0  0  0  0  0  0  0  # atno 6909 bound_to 6896
  144.7884  140.4878  143.5790 H   0  0  0  0  0  0  0  0  0  0  0  0  # atno 7974 bound_to 7965
  155.6679  140.3497  155.4807 H   0  0  0  0  0  0  0  0  0  0  0  0  # atno 8008 bound_to 7997
  155.9713  140.1156  157.0833 H   0  0  0  0  0  0  0  0  0  0  0  0  # atno 8009 bound_to 7997
  154.4167  140.1156  156.5296 H   0  0  0  0  0  0  0  0  0  0  0  0  # atno 8010 bound_to 7997
  139.8914  144.6383  150.8734 H   0  0  0  0  0  0  0  0  0  0  0  0  # atno 10167 bound_to 10162
  156.7566  130.9398  151.3116 H   0  0  0  0  0  0  0  0  0  0  0  0  # atno 10718 bound_to 10713
  152.9968  135.5481  154.6120 H   0  0  0  0  0  0  0  0  0  0  0  0  # atno 10763 bound_to 10752
  154.5439  135.2822  155.1073 H   0  0  0  0  0  0  0  0  0  0  0  0  # atno 10764 bound_to 10752
  154.2339  135.6428  153.5237 H   0  0  0  0  0  0  0  0  0  0  0  0  # atno 10765 bound_to 10752
  141.0034  133.6944  156.2065 H   0  0  0  0  0  0  0  0  0  0  0  0  # atno 11005 bound_to 11000
  145.5859  139.1492  143.3209 LP  0  0  0  0  0  0  0  0  0  0  0  0  # atno 17320 bound_to 7965
  146.2126  140.5987  142.9053 LP  0  0  0  0  0  0  0  0  0  0  0  0  # atno 17321 bound_to 7965
  140.7726  143.3507  151.2020 LP  0  0  0  0  0  0  0  0  0  0  0  0  # atno 17342 bound_to 10162
  139.7106  143.9383  152.2946 LP  0  0  0  0  0  0  0  0  0  0  0  0  # atno 17343 bound_to 10162
  157.6753  130.9089  150.0136 LP  0  0  0  0  0  0  0  0  0  0  0  0  # atno 17370 bound_to 10713
  156.1366  130.3642  149.9647 LP  0  0  0  0  0  0  0  0  0  0  0  0  # atno 17371 bound_to 10713
  140.6852  134.4724  157.5589 LP  0  0  0  0  0  0  0  0  0  0  0  0  # atno 17394 bound_to 11000
  139.9050  134.8468  156.1740 LP  0  0  0  0  0  0  0  0  0  0  0  0  # atno 17395 bound_to 11000

$$$$
