#       Name:                AV-unprocessed.smi:2845
#       Creating user name   scv26
#       Creation time:       Fri Mar 27 15:40:08 2020


#       File generated by GOLD software.
#

@<TRIPOS>MOLECULE
AV-unprocessed.smi:2845
    47    49     1
SMALL
NO_CHARGES


@<TRIPOS>ATOM
      1 ****        -3.9006   3.5040  -2.3148 C.3            1 S1                 0.0000
      2 ****        -3.2669   2.5486  -1.3180 C.ar           1 S1                 0.0000
      3 ****        -3.1947   2.9389   0.0383 C.ar           1 S1                 0.0000
      4 ****        -2.6078   2.0443   0.9255 C.ar           1 S1                 0.0000
      5 ****        -2.3862   2.1340   2.3013 N.pl3          1 S1                 1.0000
      6 ****        -1.7723   0.9995   2.7378 C.2            1 S1                 0.0000
      7 ****        -1.6000   0.1854   1.6614 N.pl3          1 S1                 0.0000
      8 ****        -0.9943  -1.1520   1.5836 C.3            1 S1                 0.0000
      9 ****         0.5355  -1.1107   1.4018 C.3            1 S1                 0.0000
     10 ****         0.8630  -0.4169   0.2124 O.3            1 S1                 0.0000
     11 ****         1.1447  -2.5256   1.3658 C.3            1 S1                 0.0000
     12 ****         2.5935  -2.5065   1.2721 N.pl3          1 S1                 0.0000
     13 ****         3.5239  -2.4364   2.2288 C.2            1 S1                 0.0000
     14 ****         4.7690  -2.4294   1.7709 N.2            1 S1                 0.0000
     15 ****         4.5044  -2.5070   0.4347 C.2            1 S1                 0.0000
     16 ****         5.8430  -2.5245  -0.7985 S.o            1 S1                 0.0000
     17 ****         5.6559  -0.7464  -1.2912 C.3            1 S1                 0.0000
     18 ****         5.3288  -3.3685  -1.9665 O.2            1 S1                 0.0000
     19 ****         3.2234  -2.5550   0.0745 N.2            1 S1                 0.0000
     20 ****        -2.1050   0.7970   0.5073 C.ar           1 S1                 0.0000
     21 ****        -2.1678   0.3977  -0.8259 C.ar           1 S1                 0.0000
     22 ****        -2.7583   1.2945  -1.7446 C.ar           1 S1                 0.0000
     23 ****        -2.8358   0.8869  -3.2061 C.3            1 S1                 0.0000
     24 ****        -4.2606   4.4099  -1.8262 H              1 S1                 0.0000
     25 ****        -4.7502   3.0335  -2.8100 H              1 S1                 0.0000
     26 ****        -3.1765   3.8000  -3.0743 H              1 S1                 0.0000
     27 ****        -3.5780   3.8928   0.3701 H              1 S1                 0.0000
     28 ****        -1.4767   0.7844   3.7545 H              1 S1                 0.0000
     29 ****        -1.2418  -1.6683   2.5119 H              1 S1                 0.0000
     30 ****        -1.4739  -1.7181   0.7847 H              1 S1                 0.0000
     31 ****         0.9740  -0.5593   2.2346 H              1 S1                 0.0000
     32 ****         1.8020  -0.4352   0.1033 H              1 S1                 0.0000
     33 ****         0.8736  -3.0725   2.2697 H              1 S1                 0.0000
     34 ****         0.7438  -3.0949   0.5255 H              1 S1                 0.0000
     35 ****         3.2848  -2.3852   3.2810 H              1 S1                 0.0000
     36 ****         5.3319  -0.1390  -0.4459 H              1 S1                 0.0000
     37 ****         4.9195  -0.6520  -2.0891 H              1 S1                 0.0000
     38 ****         6.6078  -0.3558  -1.6500 H              1 S1                 0.0000
     39 ****        -1.7753  -0.5538  -1.1527 H              1 S1                 0.0000
     40 ****        -2.3847  -0.0920  -3.3723 H              1 S1                 0.0000
     41 ****        -2.3086   1.6063  -3.8330 H              1 S1                 0.0000
     42 ****        -3.8741   0.8354  -3.5345 H              1 S1                 0.0000
     43 ****        -2.6338   2.9113   2.9002 H              1 S1                 0.0000
     44 ****         0.5494   0.5304   0.2772 LP             1 S1                 0.0000
     45 ****         0.4240  -0.8607  -0.5687 LP             1 S1                 0.0000
     46 ****         5.6405  -2.3816   2.2590 LP             1 S1                 0.0000
     47 ****         2.8289  -2.6121  -0.8426 LP             1 S1                 0.0000
@<TRIPOS>BOND
    1    1    2 1     
    2    1   24 1     
    3    1   25 1     
    4    1   26 1     
    5    2   22 ar    
    6    2    3 ar    
    7    3    4 ar    
    8    3   27 1     
    9    4   20 ar    
   10    4    5 1     
   11    5    6 2     
   12    5   43 1     
   13    6    7 1     
   14    6   28 1     
   15    7    8 1     
   16    7   20 1     
   17    8    9 1     
   18    8   29 1     
   19    8   30 1     
   20    9   10 1     
   21    9   11 1     
   22    9   31 1     
   23   10   32 1     
   24   11   12 1     
   25   11   33 1     
   26   11   34 1     
   27   12   19 1     
   28   12   13 1     
   29   13   14 2     
   30   13   35 1     
   31   14   15 1     
   32   15   16 1     
   33   15   19 2     
   34   16   17 1     
   35   16   18 2     
   36   17   36 1     
   37   17   37 1     
   38   17   38 1     
   39   20   21 ar    
   40   21   22 ar    
   41   21   39 1     
   42   22   23 1     
   43   23   40 1     
   44   23   41 1     
   45   23   42 1     
   46   10   44 1     
   47   10   45 1     
   48   14   46 1     
   49   19   47 1     
@<TRIPOS>SUBSTRUCTURE
      1 S1             1
@<TRIPOS>SET
LONE_PAIRS      STATIC     ATOMS    <user>   **** ""
5 44 45 46 18 47
DONOR_HYDROGENS      STATIC     ATOMS    <user>   **** ""
2 43 32
ATOM$BLUE        STATIC     ATOMS    COLORGROUP SYSTEM
5 44 45 46 18 47
ATOM$RED        STATIC     ATOMS    COLORGROUP SYSTEM
2 43 32
