AV-unprocessed.smi:946|AV-procd|sdf|4235|dock6
  -GOLD-   22720 2143D 1   1.00000     0.00000
 Structure written by MMmdl.
 42 43  0  0  0  0  0  0  0  0  1 V2000
  149.5685  140.4681  154.3474 C   0  0  0  0  0  0  0  0  0  0  0  0
  149.0574  141.6425  155.1945 C   0  0  1  0  0  0  0  0  0  0  0  0
  147.6561  141.4610  155.3790 O   0  0  0  0  0  0  0  0  0  0  0  0
  146.8497  141.7308  154.2378 C   0  0  0  0  0  0  0  0  0  0  0  0
  146.1172  143.0612  154.4568 C   0  0  2  0  0  0  0  0  0  0  0  0
  145.0319  142.9504  155.5456 C   0  0  0  0  0  0  0  0  0  0  0  0
  144.2656  144.2715  155.6783 C   0  0  0  0  0  0  0  0  0  0  0  0
  143.7343  144.7012  154.3067 C   0  0  0  0  0  0  0  0  0  0  0  0
  144.8702  144.7096  153.2713 C   0  0  0  0  0  0  0  0  0  0  0  0
  145.4963  143.4311  153.2273 O   0  0  0  0  0  0  0  0  0  0  0  0
  149.7692  141.6984  156.5556 C   0  0  0  0  0  0  0  0  0  0  0  0
  149.7324  140.7201  157.3026 O   0  0  0  0  0  0  0  0  0  0  0  0
  150.3918  142.8573  156.8416 N   0  0  0  0  0  0  0  0  0  0  0  0
  151.1025  143.2061  158.0200 C   0  0  0  0  0  0  0  0  0  0  0  0
  150.9038  144.5296  158.4709 C   0  0  0  0  0  0  0  0  0  0  0  0
  151.5618  144.9697  159.6349 C   0  0  0  0  0  0  0  0  0  0  0  0
  152.4000  144.0740  160.3221 C   0  0  0  0  0  0  0  0  0  0  0  0
  152.5450  142.7670  159.8101 C   0  0  0  0  0  0  0  0  0  0  0  0
  153.4270  141.7333  160.4962 C   0  0  0  0  0  0  0  0  0  0  0  0
  154.5872  141.6293  159.8473 F   0  0  0  0  0  0  0  0  0  0  0  0
  153.6803  142.0641  161.7633 F   0  0  0  0  0  0  0  0  0  0  0  0
  152.8194  140.5466  160.4847 F   0  0  0  0  0  0  0  0  0  0  0  0
  151.9129  142.3503  158.6896 N   0  0  0  0  0  0  0  0  0  0  0  0
  150.6425  140.5434  154.1728 H   0  0  0  0  0  0  0  0  0  0  0  0
  149.0781  140.4520  153.3739 H   0  0  0  0  0  0  0  0  0  0  0  0
  149.3734  139.5089  154.8289 H   0  0  0  0  0  0  0  0  0  0  0  0
  149.2340  142.5667  154.6408 H   0  0  0  0  0  0  0  0  0  0  0  0
  147.4379  141.7729  153.3203 H   0  0  0  0  0  0  0  0  0  0  0  0
  146.1240  140.9244  154.1238 H   0  0  0  0  0  0  0  0  0  0  0  0
  146.8438  143.8224  154.7473 H   0  0  0  0  0  0  0  0  0  0  0  0
  144.3364  142.1488  155.2925 H   0  0  0  0  0  0  0  0  0  0  0  0
  145.4807  142.6842  156.5030 H   0  0  0  0  0  0  0  0  0  0  0  0
  143.4454  144.1671  156.3890 H   0  0  0  0  0  0  0  0  0  0  0  0
  144.9285  145.0421  156.0739 H   0  0  0  0  0  0  0  0  0  0  0  0
  142.9538  144.0112  153.9839 H   0  0  0  0  0  0  0  0  0  0  0  0
  143.2741  145.6876  154.3715 H   0  0  0  0  0  0  0  0  0  0  0  0
  144.4740  144.9418  152.2827 H   0  0  0  0  0  0  0  0  0  0  0  0
  145.6074  145.4788  153.5068 H   0  0  0  0  0  0  0  0  0  0  0  0
  150.3530  143.5716  156.1294 H   0  0  0  0  0  0  0  0  0  0  0  0
  150.2550  145.2054  157.9326 H   0  0  0  0  0  0  0  0  0  0  0  0
  151.4238  145.9784  159.9950 H   0  0  0  0  0  0  0  0  0  0  0  0
  152.9129  144.3895  161.2185 H   0  0  0  0  0  0  0  0  0  0  0  0
  1  2  1  0  0  0  0
  1 24  1  0  0  0  0
  1 25  1  0  0  0  0
  1 26  1  0  0  0  0
  2  3  1  0  0  0  0
  2 11  1  0  0  0  0
  2 27  1  0  0  0  0
  3  4  1  0  0  0  0
  4  5  1  0  0  0  0
  4 28  1  0  0  0  0
  4 29  1  0  0  0  0
  5 10  1  0  0  0  0
  5  6  1  0  0  0  0
  5 30  1  0  0  0  0
  6  7  1  0  0  0  0
  6 31  1  0  0  0  0
  6 32  1  0  0  0  0
  7  8  1  0  0  0  0
  7 33  1  0  0  0  0
  7 34  1  0  0  0  0
  8  9  1  0  0  0  0
  8 35  1  0  0  0  0
  8 36  1  0  0  0  0
  9 10  1  0  0  0  0
  9 37  1  0  0  0  0
  9 38  1  0  0  0  0
 11 12  2  0  0  0  0
 11 13  1  0  0  0  0
 13 14  1  0  0  0  0
 13 39  1  0  0  0  0
 14 23  1  0  0  0  0
 14 15  2  0  0  0  0
 15 16  1  0  0  0  0
 15 40  1  0  0  0  0
 16 17  2  0  0  0  0
 16 41  1  0  0  0  0
 17 18  1  0  0  0  0
 17 42  1  0  0  0  0
 18 19  1  0  0  0  0
 18 23  2  0  0  0  0
 19 20  1  0  0  0  0
 19 21  1  0  0  0  0
 19 22  1  0  0  0  0
M  END
> <s_m_source_file>
AV-unprocessed.smi

> <i_m_source_file_index>
946

> <i_lp_mmshare_version>
43012

> <i_f3d_flags>
0

> <s_epik_input>
TzFbQ0gyXVtDSDJdW0NIMl1bQ0gyXVtDQEhdMVtDSDJdT1tDQEBIXShbQ0gzXSlDKD1PKVtOSF1jMltjSF1bY0hdW2NIXWMobjIpQyhGKShGKUY=

> <s_epik_cmdline>
J2VwaWtfcHl0aG9uJywgJy1waCcsICc3LjAnLCAnLXRuJywgJzgnLCAnLW1hJywgJzIwMCcsICctbWV0YWxfYmluZGluZycsICctaW1hZScsICc8aW5maWxlLm1hZT4nLCAnLW9tYWUnLCAnPG91dGZpbGUubWFlPic=

> <r_lp_tautomer_probability>
1

> <r_epik_Ionization_Penalty>
1.32683e-06

> <r_epik_Ionization_Penalty_Charging>
0

> <r_epik_Ionization_Penalty_Neutral>
1.32683e-06

> <r_epik_State_Penalty>
-0

> <r_epik_Charging_Adjusted_Penalty>
0

> <i_epik_Tot_Q>
0

> <i_epik_Tot_abs_Q>
0

> <r_epik_Metal_State_Penalty>
-0

> <b_epik_Metal_Only>
0

> <s_lp_Force_Field>
OPLS_2005

> <r_lp_Energy>
15.913

> <b_lp_Chiralities_Consistent>
1

> <s_lp_Variant>
AV-unprocessed.smi:946-2

> <Gold.Version>
5.8.1

> <Gold.Id.Protein>
6NUR|6NUR_protein|mol2

> <Gold.PLP.Fitness>
49.2796

> <Gold.PLP.PLP>
-50.8704

> <Gold.PLP.part.hbond>
-1.0000

> <Gold.PLP.part.metal>
0.0000

> <Gold.PLP.part.buried>
-5.1730

> <Gold.PLP.part.nonpolar>
-44.1233

> <Gold.PLP.part.repulsive>
0.3913

> <Gold.PLP.ligand.clash>
0.0000

> <Gold.PLP.ligand.torsion>
1.5792

> <Gold.PLP.Chemscore.Hbond>
0.4960

> <Gold.PLP.Chemscore.CHOScore>
0.0000

> <Gold.PLP.Chemscore.Metal>
0.0000

> <Gold.Chemscore.Hbonds>
donor molecule, donor type, donor heavy atom, donor atom, acceptor molecule, acceptor atom, score
      L1  H    13    39       P1  8028  0.59

> <Gold.PLP.Chemscore.Internal.Correction>
0.0795

> <Gold.Rescore>
     Score         DG    S(hbond)    S(metal)    S(lipo)     H(rot)  DE(clash)    DE(int)     intcor
     13.07     -15.57       0.81        0.00     101.40       1.76       0.22       2.28       ----

> <Gold.Chemscore.Fitness>
13.0712

> <Gold.Chemscore.DG>
-15.5672

> <Gold.Chemscore.ZeroCoef>
-5.4800

> <Gold.Chemscore.Hbond>
0.8137

> <Gold.Chemscore.Metal>
0.0000

> <Gold.Chemscore.Lipo>
101.4019

> <Gold.Chemscore.Internal_Hbond>
0.0000

> <Gold.Chemscore.DEClash>
0.2161

> <Gold.Chemscore.DEInternal>
2.2800

> <Gold.Chemscore.Rot>
1.7557

> <Gold.Chemscore.Internal.Correction>
   9.000000E+99

> <Gold.Chemscore.Hbonds>
donor molecule, donor type, donor heavy atom, donor atom, acceptor molecule, acceptor atom, score
      L1  H    13    39       P1  8028  0.58

> <Gold.Chemscore.Hbond.Weighted>
-2.7178

> <Gold.Chemscore.Metal.Weighted>
-0.0000

> <Gold.Chemscore.Lipo.Weighted>
-11.8640

> <Gold.Chemscore.Internal_Hbond.Weighted>
0.0000

> <Gold.Chemscore.DEClash.Weighted>
0.2161

> <Gold.Chemscore.DEInternal.Weighted>
2.2800

> <Gold.Chemscore.Rot.Weighted>
4.4946

> <Gold.Chemscore.Internal.Correction.Weighted>
   9.000000E+99

> <Gold.Protein.RotatedTorsions>
[ 6907 6896 6895 6894 ] final -104.77 input  -60.11 | X-H torsion
[ 7974 7965 7964 7962 ] final -133.99 input  175.53 | X-H torsion
[ 8008 7997 7996 7995 ] final -100.06 input   59.86 | X-H torsion
[ 10167 10162 10161 10158 ] final -117.44 input  -65.29 | X-H torsion
[ 10718 10713 10712 10709 ] final  -19.19 input   66.30 | X-H torsion
[ 10763 10752 10751 10750 ] final   62.66 input  -60.55 | X-H torsion
[ 11005 11000 10999 10996 ] final  -39.16 input  -57.11 | X-H torsion

> <Gold.Protein.ActiveResidues>
 VAL166  LYS551  ARG553  GLY616  TRP617  ASP618  TYR619  PRO620  LYS621  CYS622 
 ASP623  PHE694  ASN695  SER759  ASP760  ASP761  ALA762  ILE779  LEU786  VAL792 
 PHE793  MET794  SER795  GLU796  ALA797  LYS798  CYS799  TRP800  GLU811  SER814 

> <Gold.Protein.RotatedAtoms>
  150.7303  134.0228  159.3706 H   0  0  0  0  0  0  0  0  0  0  0  0  # atno 6907 bound_to 6896
  151.8193  135.0654  160.0432 H   0  0  0  0  0  0  0  0  0  0  0  0  # atno 6908 bound_to 6896
  152.3015  133.5624  159.5658 H   0  0  0  0  0  0  0  0  0  0  0  0  # atno 6909 bound_to 6896
  144.9143  140.6935  143.5005 H   0  0  0  0  0  0  0  0  0  0  0  0  # atno 7974 bound_to 7965
  154.8234  140.0443  157.1426 H   0  0  0  0  0  0  0  0  0  0  0  0  # atno 8008 bound_to 7997
  154.9234  140.3030  155.5184 H   0  0  0  0  0  0  0  0  0  0  0  0  # atno 8009 bound_to 7997
  156.2982  140.2336  156.4287 H   0  0  0  0  0  0  0  0  0  0  0  0  # atno 8010 bound_to 7997
  140.0683  143.4901  152.1994 H   0  0  0  0  0  0  0  0  0  0  0  0  # atno 10167 bound_to 10162
  156.5491  130.4697  149.6461 H   0  0  0  0  0  0  0  0  0  0  0  0  # atno 10718 bound_to 10713
  152.9990  135.5457  154.6228 H   0  0  0  0  0  0  0  0  0  0  0  0  # atno 10763 bound_to 10752
  154.5523  135.2827  155.0999 H   0  0  0  0  0  0  0  0  0  0  0  0  # atno 10764 bound_to 10752
  154.2234  135.6446  153.5204 H   0  0  0  0  0  0  0  0  0  0  0  0  # atno 10765 bound_to 10752
  141.0081  133.6921  156.2150 H   0  0  0  0  0  0  0  0  0  0  0  0  # atno 11005 bound_to 11000
  145.3402  139.1734  143.4490 LP  0  0  0  0  0  0  0  0  0  0  0  0  # atno 17320 bound_to 7965
  146.3174  140.3442  142.8650 LP  0  0  0  0  0  0  0  0  0  0  0  0  # atno 17321 bound_to 7965
  139.5851  144.7527  151.3540 LP  0  0  0  0  0  0  0  0  0  0  0  0  # atno 17342 bound_to 10162
  140.7138  143.7321  150.7616 LP  0  0  0  0  0  0  0  0  0  0  0  0  # atno 17343 bound_to 10162
  156.2901  130.7119  151.1966 LP  0  0  0  0  0  0  0  0  0  0  0  0  # atno 17370 bound_to 10713
  157.7391  131.0533  150.5254 LP  0  0  0  0  0  0  0  0  0  0  0  0  # atno 17371 bound_to 10713
  140.6778  134.4799  157.5588 LP  0  0  0  0  0  0  0  0  0  0  0  0  # atno 17394 bound_to 11000
  139.9075  134.8417  156.1652 LP  0  0  0  0  0  0  0  0  0  0  0  0  # atno 17395 bound_to 11000

$$$$
