AV-unprocessed.smi:1627|AV-procd|sdf|6518|dock8
  -GOLD-   22720 7193D 1   1.00000     0.00000
 Structure written by MMmdl.
 44 45  0  0  0  0  0  0  0  0  2 V2000
  155.6431  133.5122  160.9988 C   0  0  0  0  0  0  0  0  0  0  0  0
  155.7540  134.8826  161.6835 C   0  0  2  0  0  0  0  0  0  0  0  0
  155.2885  134.7318  163.0220 O   0  0  0  0  0  0  0  0  0  0  0  0
  155.9767  133.7617  163.8056 C   0  0  0  0  0  0  0  0  0  0  0  0
  155.0353  133.2253  164.8906 C   0  0  0  0  0  0  0  0  0  0  0  0
  154.5447  134.2473  165.5907 F   0  0  0  0  0  0  0  0  0  0  0  0
  154.0222  132.5625  164.3333 F   0  0  0  0  0  0  0  0  0  0  0  0
  155.6981  132.4185  165.7190 F   0  0  0  0  0  0  0  0  0  0  0  0
  154.9220  135.9437  160.9447 C   0  0  0  0  0  0  0  0  0  0  0  0
  154.2238  135.6079  159.9892 O   0  0  0  0  0  0  0  0  0  0  0  0
  155.0204  137.1984  161.4236 N   0  0  0  0  0  0  0  0  0  0  0  0
  154.3850  138.3908  160.9775 C   0  0  0  0  0  0  0  0  0  0  0  0
  153.3207  138.2530  160.0594 C   0  0  0  0  0  0  0  0  0  0  0  0
  152.6573  139.3987  159.5745 C   0  0  0  0  0  0  0  0  0  0  0  0
  153.0719  140.6758  160.0148 C   0  0  0  0  0  0  0  0  0  0  0  0
  152.4792  141.8707  159.5866 N   0  0  0  0  0  0  0  0  0  0  0  0
  151.4399  141.6622  158.5814 C   0  0  0  0  0  0  0  0  0  0  0  0
  150.6938  142.9748  158.2843 C   0  0  0  0  0  0  0  0  0  0  0  0
  151.6764  144.0897  157.8915 C   0  0  0  0  0  0  0  0  0  0  0  0
  152.7599  144.2455  158.9704 C   0  0  0  0  0  0  0  0  0  0  0  0
  153.4562  142.9017  159.2458 C   0  0  0  0  0  0  0  0  0  0  0  0
  154.0945  140.7696  160.8914 N   0  3  0  0  0  0  0  0  0  0  0  0
  154.7565  139.6982  161.3801 C   0  0  0  0  0  0  0  0  0  0  0  0
  155.9715  133.5604  159.9600 H   0  0  0  0  0  0  0  0  0  0  0  0
  154.6186  133.1378  161.0096 H   0  0  0  0  0  0  0  0  0  0  0  0
  156.2663  132.7759  161.5066 H   0  0  0  0  0  0  0  0  0  0  0  0
  156.8062  135.1739  161.6955 H   0  0  0  0  0  0  0  0  0  0  0  0
  156.3105  132.9402  163.1700 H   0  0  0  0  0  0  0  0  0  0  0  0
  156.8621  134.1928  164.2740 H   0  0  0  0  0  0  0  0  0  0  0  0
  155.6535  137.3148  162.2017 H   0  0  0  0  0  0  0  0  0  0  0  0
  153.0102  137.2738  159.7249 H   0  0  0  0  0  0  0  0  0  0  0  0
  151.8422  139.2939  158.8729 H   0  0  0  0  0  0  0  0  0  0  0  0
  151.8902  141.2777  157.6651 H   0  0  0  0  0  0  0  0  0  0  0  0
  150.7346  140.9077  158.9324 H   0  0  0  0  0  0  0  0  0  0  0  0
  149.9647  142.8192  157.4886 H   0  0  0  0  0  0  0  0  0  0  0  0
  150.1291  143.2811  159.1661 H   0  0  0  0  0  0  0  0  0  0  0  0
  152.1418  143.8497  156.9348 H   0  0  0  0  0  0  0  0  0  0  0  0
  151.1439  145.0312  157.7523 H   0  0  0  0  0  0  0  0  0  0  0  0
  153.4935  144.9908  158.6616 H   0  0  0  0  0  0  0  0  0  0  0  0
  152.3080  144.6178  159.8906 H   0  0  0  0  0  0  0  0  0  0  0  0
  154.1705  143.0154  160.0624 H   0  0  0  0  0  0  0  0  0  0  0  0
  154.0221  142.5928  158.3658 H   0  0  0  0  0  0  0  0  0  0  0  0
  155.5541  139.9437  162.0637 H   0  0  0  0  0  0  0  0  0  0  0  0
  154.3845  141.6984  161.1990 H   0  0  0  0  0  0  0  0  0  0  0  0
  1  2  1  0  0  0  0
  1 24  1  0  0  0  0
  1 25  1  0  0  0  0
  1 26  1  0  0  0  0
  2  3  1  0  0  0  0
  2  9  1  0  0  0  0
  2 27  1  0  0  0  0
  3  4  1  0  0  0  0
  4  5  1  0  0  0  0
  4 28  1  0  0  0  0
  4 29  1  0  0  0  0
  5  6  1  0  0  0  0
  5  7  1  0  0  0  0
  5  8  1  0  0  0  0
  9 10  2  0  0  0  0
  9 11  1  0  0  0  0
 11 12  1  0  0  0  0
 11 30  1  0  0  0  0
 12 23  1  0  0  0  0
 12 13  2  0  0  0  0
 13 14  1  0  0  0  0
 13 31  1  0  0  0  0
 14 15  2  0  0  0  0
 14 32  1  0  0  0  0
 15 16  1  0  0  0  0
 15 22  1  0  0  0  0
 16 21  1  0  0  0  0
 16 17  1  0  0  0  0
 17 18  1  0  0  0  0
 17 33  1  0  0  0  0
 17 34  1  0  0  0  0
 18 19  1  0  0  0  0
 18 35  1  0  0  0  0
 18 36  1  0  0  0  0
 19 20  1  0  0  0  0
 19 37  1  0  0  0  0
 19 38  1  0  0  0  0
 20 21  1  0  0  0  0
 20 39  1  0  0  0  0
 20 40  1  0  0  0  0
 21 41  1  0  0  0  0
 21 42  1  0  0  0  0
 22 23  2  0  0  0  0
 22 44  1  0  0  0  0
 23 43  1  0  0  0  0
M  CHG  1  22   1
M  END
> <s_m_source_file>
AV-unprocessed.smi

> <i_m_source_file_index>
1627

> <i_lp_mmshare_version>
43012

> <i_f3d_flags>
0

> <s_epik_input>
RkMoRikoRilbQ0gyXU9bQ0BASF0oW0NIM10pQyg9TylbTkhdYzFbY0hdW2NIXWMobltjSF0xKU4yW0NIMl1bQ0gyXVtDSDJdW0NIMl1bQ0gyXTI=

> <s_epik_cmdline>
J2VwaWtfcHl0aG9uJywgJy1waCcsICc3LjAnLCAnLXRuJywgJzgnLCAnLW1hJywgJzIwMCcsICctbWV0YWxfYmluZGluZycsICctaW1hZScsICc8aW5maWxlLm1hZT4nLCAnLW9tYWUnLCAnPG91dGZpbGUubWFlPic=

> <r_lp_tautomer_probability>
0.999994

> <r_epik_Ionization_Penalty>
1.93197

> <r_epik_Ionization_Penalty_Charging>
1.93197

> <r_epik_Ionization_Penalty_Neutral>
3.16684e-06

> <r_epik_State_Penalty>
2.05557

> <r_epik_Charging_Adjusted_Penalty>
3.98754

> <i_epik_Tot_Q>
1

> <i_epik_Tot_abs_Q>
1

> <r_epik_Metal_State_Penalty>
2.08108

> <b_epik_Metal_Only>
0

> <s_lp_Force_Field>
OPLS_2005

> <r_lp_Energy>
33.3851

> <b_lp_Chiralities_Consistent>
1

> <s_lp_Variant>
AV-unprocessed.smi:1627-3

> <Gold.Version>
5.8.1

> <Gold.Id.Protein>
6NUR|6NUR_protein|mol2

> <Gold.PLP.Fitness>
42.7199

> <Gold.PLP.PLP>
-40.4602

> <Gold.PLP.part.hbond>
-1.0000

> <Gold.PLP.part.metal>
0.0000

> <Gold.PLP.part.buried>
-5.1062

> <Gold.PLP.part.nonpolar>
-34.5486

> <Gold.PLP.part.repulsive>
0.0518

> <Gold.PLP.ligand.clash>
0.0000

> <Gold.PLP.ligand.torsion>
0.4695

> <Gold.PLP.Chemscore.Hbond>
1.0000

> <Gold.PLP.Chemscore.CHOScore>
0.0000

> <Gold.PLP.Chemscore.Metal>
0.0000

> <Gold.Chemscore.Hbonds>
donor molecule, donor type, donor heavy atom, donor atom, acceptor molecule, acceptor atom, score
      P1  H  6896  6909       L1    10  1.00

> <Gold.PLP.Chemscore.Internal.Correction>
0.1988

> <Gold.Rescore>
     Score         DG    S(hbond)    S(metal)    S(lipo)     H(rot)  DE(clash)    DE(int)     intcor
     13.60     -15.34       0.99        0.00      97.58       1.90       0.01       1.73       ----

> <Gold.Chemscore.Fitness>
13.6022

> <Gold.Chemscore.DG>
-15.3400

> <Gold.Chemscore.ZeroCoef>
-5.4800

> <Gold.Chemscore.Hbond>
0.9906

> <Gold.Chemscore.Metal>
0.0000

> <Gold.Chemscore.Lipo>
97.5808

> <Gold.Chemscore.Internal_Hbond>
0.0000

> <Gold.Chemscore.DEClash>
0.0063

> <Gold.Chemscore.DEInternal>
1.7315

> <Gold.Chemscore.Rot>
1.9007

> <Gold.Chemscore.Internal.Correction>
   9.000000E+99

> <Gold.Chemscore.Hbonds>
donor molecule, donor type, donor heavy atom, donor atom, acceptor molecule, acceptor atom, score
      P1  H  6896  6909       L1    10  0.96

> <Gold.Chemscore.Hbond.Weighted>
-3.3087

> <Gold.Chemscore.Metal.Weighted>
-0.0000

> <Gold.Chemscore.Lipo.Weighted>
-11.4170

> <Gold.Chemscore.Internal_Hbond.Weighted>
0.0000

> <Gold.Chemscore.DEClash.Weighted>
0.0063

> <Gold.Chemscore.DEInternal.Weighted>
1.7315

> <Gold.Chemscore.Rot.Weighted>
4.8657

> <Gold.Chemscore.Internal.Correction.Weighted>
   9.000000E+99

> <Gold.Protein.RotatedTorsions>
[ 6907 6896 6895 6894 ] final -171.07 input  -60.11 | X-H torsion
[ 7974 7965 7964 7962 ] final  -41.18 input  175.53 | X-H torsion
[ 8008 7997 7996 7995 ] final -163.20 input   59.86 | X-H torsion
[ 10167 10162 10161 10158 ] final  -31.63 input  -65.29 | X-H torsion
[ 10718 10713 10712 10709 ] final  -24.58 input   66.30 | X-H torsion
[ 10763 10752 10751 10750 ] final  -79.40 input  -60.55 | X-H torsion
[ 11005 11000 10999 10996 ] final  107.44 input  -57.11 | X-H torsion

> <Gold.Protein.ActiveResidues>
 VAL166  LYS551  ARG553  GLY616  TRP617  ASP618  TYR619  PRO620  LYS621  CYS622 
 ASP623  PHE694  ASN695  SER759  ASP760  ASP761  ALA762  ILE779  LEU786  VAL792 
 PHE793  MET794  SER795  GLU796  ALA797  LYS798  CYS799  TRP800  GLU811  SER814 

> <Gold.Protein.RotatedAtoms>
  151.5179  133.3472  159.2895 H   0  0  0  0  0  0  0  0  0  0  0  0  # atno 6907 bound_to 6896
  150.8671  134.8039  159.7138 H   0  0  0  0  0  0  0  0  0  0  0  0  # atno 6908 bound_to 6896
  152.4672  134.5057  159.9790 H   0  0  0  0  0  0  0  0  0  0  0  0  # atno 6909 bound_to 6896
  146.0235  140.6820  142.9167 H   0  0  0  0  0  0  0  0  0  0  0  0  # atno 7974 bound_to 7965
  155.8179  140.0915  157.1866 H   0  0  0  0  0  0  0  0  0  0  0  0  # atno 8008 bound_to 7997
  154.3979  140.1442  156.3524 H   0  0  0  0  0  0  0  0  0  0  0  0  # atno 8009 bound_to 7997
  155.8297  140.3443  155.5567 H   0  0  0  0  0  0  0  0  0  0  0  0  # atno 8010 bound_to 7997
  140.7233  143.3756  151.1696 H   0  0  0  0  0  0  0  0  0  0  0  0  # atno 10167 bound_to 10162
  156.4757  130.4534  149.6842 H   0  0  0  0  0  0  0  0  0  0  0  0  # atno 10718 bound_to 10713
  154.5382  135.5697  153.6816 H   0  0  0  0  0  0  0  0  0  0  0  0  # atno 10763 bound_to 10752
  152.9956  135.6221  154.2538 H   0  0  0  0  0  0  0  0  0  0  0  0  # atno 10764 bound_to 10752
  154.2467  135.2860  155.2812 H   0  0  0  0  0  0  0  0  0  0  0  0  # atno 10765 bound_to 10752
  139.8828  134.9401  156.5820 H   0  0  0  0  0  0  0  0  0  0  0  0  # atno 11005 bound_to 11000
  144.7000  140.3608  143.7164 LP  0  0  0  0  0  0  0  0  0  0  0  0  # atno 17320 bound_to 7965
  145.7155  139.1696  143.2514 LP  0  0  0  0  0  0  0  0  0  0  0  0  # atno 17321 bound_to 7965
  139.7335  143.9035  152.3027 LP  0  0  0  0  0  0  0  0  0  0  0  0  # atno 17342 bound_to 10162
  139.8832  144.7006  150.8854 LP  0  0  0  0  0  0  0  0  0  0  0  0  # atno 17343 bound_to 10162
  156.3572  130.7463  151.2430 LP  0  0  0  0  0  0  0  0  0  0  0  0  # atno 17370 bound_to 10713
  157.7487  131.0360  150.4391 LP  0  0  0  0  0  0  0  0  0  0  0  0  # atno 17371 bound_to 10713
  140.8020  133.8498  155.8735 LP  0  0  0  0  0  0  0  0  0  0  0  0  # atno 17394 bound_to 11000
  140.9584  134.1688  157.4673 LP  0  0  0  0  0  0  0  0  0  0  0  0  # atno 17395 bound_to 11000

$$$$
