AV-unprocessed.smi:305|AV-procd|sdf|2281|dock1
  -GOLD-   2262022183D 1   1.00000     0.00000
 Structure written by MMmdl.
 46 48  0  0  0  0  0  0  0  0  2 V2000
  151.0566  137.4214  156.2574 C   0  0  0  0  0  0  0  0  0  0  0  0
  150.0807  137.3724  155.0797 C   0  0  0  0  0  0  0  0  0  0  0  0
  149.1444  136.3318  155.3014 O   0  0  0  0  0  0  0  0  0  0  0  0
  149.7370  135.0451  155.2519 C   0  0  0  0  0  0  0  0  0  0  0  0
  148.6313  133.9863  155.3499 C   0  0  0  0  0  0  0  0  0  0  0  0
  149.1515  132.6392  155.1417 N   0  0  0  0  0  0  0  0  0  0  0  0
  148.7681  131.7395  154.2005 C   0  0  0  0  0  0  0  0  0  0  0  0
  147.7524  132.0385  153.2677 N   0  0  0  0  0  0  0  0  0  0  0  0
  147.5526  133.3120  152.8702 N   0  0  0  0  0  0  0  0  0  0  0  0
  146.5470  133.2474  152.0146 C   0  0  0  0  0  0  0  0  0  0  0  0
  146.0630  134.5079  151.3576 C   0  0  0  0  0  0  0  0  0  0  0  0
  146.0569  131.9190  151.8509 C   0  0  0  0  0  0  0  0  0  0  0  0
  144.9246  131.4613  150.9733 C   0  0  0  0  0  0  0  0  0  0  0  0
  146.8581  131.1699  152.6702 C   0  0  0  0  0  0  0  0  0  0  0  0
  146.8664  129.6999  152.9436 C   0  0  0  0  0  0  0  0  0  0  0  0
  149.4311  130.5818  154.2232 N   0  0  0  0  0  0  0  0  0  0  0  0
  150.3072  130.7557  155.2856 C   0  0  0  0  0  0  0  0  0  0  0  0
  150.1574  131.9826  155.8547 C   0  0  0  0  0  0  0  0  0  0  0  0
  150.9489  132.4598  157.0085 C   0  0  0  0  0  0  0  0  0  0  0  0
  150.7651  133.5784  157.4840 O   0  0  0  0  0  0  0  0  0  0  0  0
  151.8541  131.5230  157.4355 N   0  5  0  0  0  0  0  0  0  0  0  0
  152.0416  130.2702  156.8913 C   0  0  0  0  0  0  0  0  0  0  0  0
  152.8794  129.4859  157.3389 O   0  0  0  0  0  0  0  0  0  0  0  0
  151.2825  129.8710  155.8223 N   0  0  0  0  0  0  0  0  0  0  0  0
  151.4582  128.5440  155.2259 C   0  0  0  0  0  0  0  0  0  0  0  0
  151.7953  138.2109  156.1183 H   0  0  0  0  0  0  0  0  0  0  0  0
  151.5910  136.4771  156.3624 H   0  0  0  0  0  0  0  0  0  0  0  0
  150.5309  137.6157  157.1925 H   0  0  0  0  0  0  0  0  0  0  0  0
  149.5650  138.3291  154.9840 H   0  0  0  0  0  0  0  0  0  0  0  0
  150.6269  137.1961  154.1519 H   0  0  0  0  0  0  0  0  0  0  0  0
  150.2962  134.9260  154.3229 H   0  0  0  0  0  0  0  0  0  0  0  0
  150.4435  134.9304  156.0749 H   0  0  0  0  0  0  0  0  0  0  0  0
  148.1486  134.0401  156.3259 H   0  0  0  0  0  0  0  0  0  0  0  0
  147.8429  134.1820  154.6238 H   0  0  0  0  0  0  0  0  0  0  0  0
  145.7275  134.3163  150.3382 H   0  0  0  0  0  0  0  0  0  0  0  0
  146.8499  135.2614  151.3073 H   0  0  0  0  0  0  0  0  0  0  0  0
  145.2258  134.9365  151.9083 H   0  0  0  0  0  0  0  0  0  0  0  0
  144.3819  130.6246  151.4130 H   0  0  0  0  0  0  0  0  0  0  0  0
  145.2816  131.1369  149.9957 H   0  0  0  0  0  0  0  0  0  0  0  0
  144.1968  132.2546  150.8026 H   0  0  0  0  0  0  0  0  0  0  0  0
  146.2569  129.1603  152.2189 H   0  0  0  0  0  0  0  0  0  0  0  0
  146.4723  129.4903  153.9380 H   0  0  0  0  0  0  0  0  0  0  0  0
  147.8787  129.2985  152.8887 H   0  0  0  0  0  0  0  0  0  0  0  0
  151.2454  127.7656  155.9602 H   0  0  0  0  0  0  0  0  0  0  0  0
  152.4836  128.4134  154.8770 H   0  0  0  0  0  0  0  0  0  0  0  0
  150.8015  128.3756  154.3726 H   0  0  0  0  0  0  0  0  0  0  0  0
  1  2  1  0  0  0  0
  1 26  1  0  0  0  0
  1 27  1  0  0  0  0
  1 28  1  0  0  0  0
  2  3  1  0  0  0  0
  2 29  1  0  0  0  0
  2 30  1  0  0  0  0
  3  4  1  0  0  0  0
  4  5  1  0  0  0  0
  4 31  1  0  0  0  0
  4 32  1  0  0  0  0
  5  6  1  0  0  0  0
  5 33  1  0  0  0  0
  5 34  1  0  0  0  0
  6 18  1  0  0  0  0
  6  7  1  0  0  0  0
  7  8  1  0  0  0  0
  7 16  2  0  0  0  0
  8 14  1  0  0  0  0
  8  9  1  0  0  0  0
  9 10  2  0  0  0  0
 10 11  1  0  0  0  0
 10 12  1  0  0  0  0
 11 35  1  0  0  0  0
 11 36  1  0  0  0  0
 11 37  1  0  0  0  0
 12 13  1  0  0  0  0
 12 14  2  0  0  0  0
 13 38  1  0  0  0  0
 13 39  1  0  0  0  0
 13 40  1  0  0  0  0
 14 15  1  0  0  0  0
 15 41  1  0  0  0  0
 15 42  1  0  0  0  0
 15 43  1  0  0  0  0
 16 17  1  0  0  0  0
 17 24  1  0  0  0  0
 17 18  2  0  0  0  0
 18 19  1  0  0  0  0
 19 20  2  0  0  0  0
 19 21  1  0  0  0  0
 21 22  1  0  0  0  0
 22 23  2  0  0  0  0
 22 24  1  0  0  0  0
 24 25  1  0  0  0  0
 25 44  1  0  0  0  0
 25 45  1  0  0  0  0
 25 46  1  0  0  0  0
M  CHG  1  21  -1
M  END
> <s_m_source_file>
AV-unprocessed.smi

> <i_m_source_file_index>
305

> <i_lp_mmshare_version>
43012

> <i_f3d_flags>
0

> <s_epik_input>
W0NIM11uMWMoPU8pW25IXWMoPU8pYyhjMTIpbihbQ0gyXVtDSDJdT1tDSDJdW0NIM10pYyhuMiktbjNuYyhbQ0gzXSljKFtDSDNdKWMzW0NIM10=

> <s_epik_cmdline>
J2VwaWtfcHl0aG9uJywgJy1waCcsICc3LjAnLCAnLXRuJywgJzgnLCAnLW1hJywgJzIwMCcsICctbWV0YWxfYmluZGluZycsICctaW1hZScsICc8aW5maWxlLm1hZT4nLCAnLW9tYWUnLCAnPG91dGZpbGUubWFlPic=

> <r_lp_tautomer_probability>
1

> <r_epik_Ionization_Penalty>
4

> <r_epik_Ionization_Penalty_Charging>
0.0169474

> <r_epik_Ionization_Penalty_Neutral>
3.98305

> <r_epik_State_Penalty>
3.98062

> <r_epik_Charging_Adjusted_Penalty>
3.99756

> <i_epik_Tot_Q>
-1

> <i_epik_Tot_abs_Q>
1

> <r_epik_Metal_State_Penalty>
0.616488

> <b_epik_Metal_Only>
1

> <s_lp_Force_Field>
OPLS_2005

> <r_lp_Energy>
29.8012

> <b_lp_Chiralities_Consistent>
1

> <s_lp_Variant>
AV-unprocessed.smi:305-2

> <Gold.Version>
5.8.1

> <Gold.Id.Protein>
6NUR|6NUR_protein|mol2

> <Gold.PLP.Fitness>
39.8758

> <Gold.PLP.PLP>
-38.4178

> <Gold.PLP.part.hbond>
-1.0000

> <Gold.PLP.part.metal>
0.0000

> <Gold.PLP.part.buried>
-5.3357

> <Gold.PLP.part.nonpolar>
-34.1639

> <Gold.PLP.part.repulsive>
0.4335

> <Gold.PLP.ligand.clash>
0.0000

> <Gold.PLP.ligand.torsion>
0.4293

> <Gold.PLP.Chemscore.Hbond>
0.5730

> <Gold.PLP.Chemscore.CHOScore>
0.0000

> <Gold.PLP.Chemscore.Metal>
0.0000

> <Gold.Chemscore.Hbonds>
donor molecule, donor type, donor heavy atom, donor atom, acceptor molecule, acceptor atom, score
      P1  H  6896  6907       L1    20  0.72

> <Gold.PLP.Chemscore.Internal.Correction>
0.5976

> <Gold.Rescore>
     Score         DG    S(hbond)    S(metal)    S(lipo)     H(rot)  DE(clash)    DE(int)     intcor
      7.94     -12.29       0.95        0.00      66.55       1.62       0.00       4.34       ----

> <Gold.Chemscore.Fitness>
7.9427

> <Gold.Chemscore.DG>
-12.2863

> <Gold.Chemscore.ZeroCoef>
-5.4800

> <Gold.Chemscore.Hbond>
0.9484

> <Gold.Chemscore.Metal>
0.0000

> <Gold.Chemscore.Lipo>
66.5547

> <Gold.Chemscore.Internal_Hbond>
0.0000

> <Gold.Chemscore.DEClash>
0.0000

> <Gold.Chemscore.DEInternal>
4.3435

> <Gold.Chemscore.Rot>
1.6204

> <Gold.Chemscore.Internal.Correction>
   9.000000E+99

> <Gold.Chemscore.Hbonds>
donor molecule, donor type, donor heavy atom, donor atom, acceptor molecule, acceptor atom, score
      P1  H  6896  6907       L1    20  0.43

> <Gold.Chemscore.Hbond.Weighted>
-3.1675

> <Gold.Chemscore.Metal.Weighted>
-0.0000

> <Gold.Chemscore.Lipo.Weighted>
-7.7869

> <Gold.Chemscore.Internal_Hbond.Weighted>
0.0000

> <Gold.Chemscore.DEClash.Weighted>
0.0000

> <Gold.Chemscore.DEInternal.Weighted>
4.3435

> <Gold.Chemscore.Rot.Weighted>
4.1481

> <Gold.Chemscore.Internal.Correction.Weighted>
   9.000000E+99

> <Gold.Protein.RotatedTorsions>
[ 6907 6896 6895 6894 ] final -149.83 input  -60.11 | X-H torsion
[ 7974 7965 7964 7962 ] final    9.20 input  175.53 | X-H torsion
[ 8008 7997 7996 7995 ] final  -59.84 input   59.86 | X-H torsion
[ 10167 10162 10161 10158 ] final    8.56 input  -65.29 | X-H torsion
[ 10718 10713 10712 10709 ] final   19.85 input   66.30 | X-H torsion
[ 10763 10752 10751 10750 ] final   98.89 input  -60.55 | X-H torsion
[ 11005 11000 10999 10996 ] final  122.19 input  -57.11 | X-H torsion

> <Gold.Protein.ActiveResidues>
 VAL166  LYS551  ARG553  GLY616  TRP617  ASP618  TYR619  PRO620  LYS621  CYS622 
 ASP623  PHE694  ASN695  SER759  ASP760  ASP761  ALA762  ILE779  LEU786  VAL792 
 PHE793  MET794  SER795  GLU796  ALA797  LYS798  CYS799  TRP800  GLU811  SER814 

> <Gold.Protein.RotatedAtoms>
  151.1897  133.4674  159.2594 H   0  0  0  0  0  0  0  0  0  0  0  0  # atno 6907 bound_to 6896
  151.1176  135.0061  159.8533 H   0  0  0  0  0  0  0  0  0  0  0  0  # atno 6908 bound_to 6896
  152.5454  134.1811  159.8689 H   0  0  0  0  0  0  0  0  0  0  0  0  # atno 6909 bound_to 6896
  146.2406  139.9819  142.8435 H   0  0  0  0  0  0  0  0  0  0  0  0  # atno 7974 bound_to 7965
  154.4371  140.1053  156.6179 H   0  0  0  0  0  0  0  0  0  0  0  0  # atno 8008 bound_to 7997
  155.5739  140.3489  155.4504 H   0  0  0  0  0  0  0  0  0  0  0  0  # atno 8009 bound_to 7997
  156.0369  140.1273  157.0187 H   0  0  0  0  0  0  0  0  0  0  0  0  # atno 8010 bound_to 7997
  140.6307  143.8000  150.7292 H   0  0  0  0  0  0  0  0  0  0  0  0  # atno 10167 bound_to 10162
  157.1162  130.6530  149.5911 H   0  0  0  0  0  0  0  0  0  0  0  0  # atno 10718 bound_to 10713
  153.2947  135.4132  155.1198 H   0  0  0  0  0  0  0  0  0  0  0  0  # atno 10763 bound_to 10752
  154.8531  135.3527  154.5933 H   0  0  0  0  0  0  0  0  0  0  0  0  # atno 10764 bound_to 10752
  153.6357  135.7059  153.5317 H   0  0  0  0  0  0  0  0  0  0  0  0  # atno 10765 bound_to 10752
  139.9258  134.9640  156.8072 H   0  0  0  0  0  0  0  0  0  0  0  0  # atno 11005 bound_to 11000
  145.1584  140.9660  143.4392 LP  0  0  0  0  0  0  0  0  0  0  0  0  # atno 17320 bound_to 7965
  145.0139  139.3485  143.6106 LP  0  0  0  0  0  0  0  0  0  0  0  0  # atno 17321 bound_to 7965
  140.1610  143.4275  152.2067 LP  0  0  0  0  0  0  0  0  0  0  0  0  # atno 17342 bound_to 10162
  139.5522  144.7346  151.4402 LP  0  0  0  0  0  0  0  0  0  0  0  0  # atno 17343 bound_to 10162
  155.9839  130.4861  150.6955 LP  0  0  0  0  0  0  0  0  0  0  0  0  # atno 17370 bound_to 10713
  157.4516  131.0873  151.0840 LP  0  0  0  0  0  0  0  0  0  0  0  0  # atno 17371 bound_to 10713
  140.6341  133.9878  155.7676 LP  0  0  0  0  0  0  0  0  0  0  0  0  # atno 17394 bound_to 11000
  141.0814  134.0057  157.3380 LP  0  0  0  0  0  0  0  0  0  0  0  0  # atno 17395 bound_to 11000

$$$$
