AV-unprocessed.smi:158|AV-procd|sdf|1330|dock6
  -GOLD-   2262019 23D 1   1.00000     0.00000
 Structure written by MMmdl.
 31 33  0  0  0  0  0  0  0  0  1 V2000
  147.9285  140.8879  152.8002 N   0  0  0  0  0  0  0  0  0  0  0  0
  148.0851  141.1750  154.0998 C   0  0  0  0  0  0  0  0  0  0  0  0
  147.0715  141.7907  154.7518 N   0  0  0  0  0  0  0  0  0  0  0  0
  147.1869  142.0921  156.0514 C   0  0  0  0  0  0  0  0  0  0  0  0
  145.8337  142.8742  156.7795 Cl  0  0  0  0  0  0  0  0  0  0  0  0
  148.2344  141.8562  156.8491 N   0  0  0  0  0  0  0  0  0  0  0  0
  149.2590  141.2391  156.1926 C   0  0  0  0  0  0  0  0  0  0  0  0
  149.2614  140.8628  154.8239 C   0  0  0  0  0  0  0  0  0  0  0  0
  150.4644  140.2488  154.5049 N   0  0  0  0  0  0  0  0  0  0  0  0
  151.1307  140.2614  155.6286 C   0  0  0  0  0  0  0  0  0  0  0  0
  150.4852  140.8578  156.6930 N   0  0  0  0  0  0  0  0  0  0  0  0
  150.9443  141.0403  158.1079 C   0  0  1  0  0  0  0  0  0  0  0  0
  150.5202  139.9296  158.8486 O   0  0  0  0  0  0  0  0  0  0  0  0
  151.6228  139.0771  159.1799 C   0  0  1  0  0  0  0  0  0  0  0  0
  151.2464  137.5992  158.9890 C   0  0  0  0  0  0  0  0  0  0  0  0
  152.3590  136.7774  159.2675 O   0  0  0  0  0  0  0  0  0  0  0  0
  152.7494  139.5459  158.2549 C   0  0  2  0  0  0  0  0  0  0  0  0
  154.0456  139.2818  158.7541 O   0  0  0  0  0  0  0  0  0  0  0  0
  152.4728  141.0342  158.1649 C   0  0  2  0  0  0  0  0  0  0  0  0
  152.8425  141.6733  159.2774 F   0  0  0  0  0  0  0  0  0  0  0  0
  150.4756  141.9704  158.4323 H   0  0  0  0  0  0  0  0  0  0  0  0
  151.9056  139.2735  160.2161 H   0  0  0  0  0  0  0  0  0  0  0  0
  152.6450  139.0920  157.2681 H   0  0  0  0  0  0  0  0  0  0  0  0
  152.9351  141.5312  157.3118 H   0  0  0  0  0  0  0  0  0  0  0  0
  148.6719  140.4275  152.2946 H   0  0  0  0  0  0  0  0  0  0  0  0
  147.0690  141.1312  152.3290 H   0  0  0  0  0  0  0  0  0  0  0  0
  152.1160  139.8277  155.7037 H   0  0  0  0  0  0  0  0  0  0  0  0
  150.3981  137.3132  159.6093 H   0  0  0  0  0  0  0  0  0  0  0  0
  150.9605  137.4184  157.9525 H   0  0  0  0  0  0  0  0  0  0  0  0
  153.0859  137.0635  158.7357 H   0  0  0  0  0  0  0  0  0  0  0  0
  154.0730  138.3902  159.0658 H   0  0  0  0  0  0  0  0  0  0  0  0
  1  2  1  0  0  0  0
  1 25  1  0  0  0  0
  1 26  1  0  0  0  0
  2  8  1  0  0  0  0
  2  3  2  0  0  0  0
  3  4  1  0  0  0  0
  4  5  1  0  0  0  0
  4  6  2  0  0  0  0
  6  7  1  0  0  0  0
  7 11  1  0  0  0  0
  7  8  2  0  0  0  0
  8  9  1  0  0  0  0
  9 10  2  0  0  0  0
 10 11  1  0  0  0  0
 10 27  1  0  0  0  0
 11 12  1  0  0  0  0
 12 21  1  0  0  0  0
 12 19  1  0  0  0  0
 12 13  1  0  0  0  0
 13 14  1  0  0  0  0
 14 22  1  0  0  0  0
 14 15  1  0  0  0  0
 14 17  1  0  0  0  0
 15 16  1  0  0  0  0
 15 28  1  0  0  0  0
 15 29  1  0  0  0  0
 16 30  1  0  0  0  0
 17 23  1  0  0  0  0
 17 18  1  0  0  0  0
 17 19  1  0  0  0  0
 18 31  1  0  0  0  0
 19 24  1  0  0  0  0
 19 20  1  0  0  0  0
M  END
> <s_m_source_file>
AV-unprocessed.smi

> <i_m_source_file_index>
158

> <i_lp_mmshare_version>
43012

> <i_f3d_flags>
0

> <s_epik_input>
Q2xjKG4xKW5jKFtOSDJdKWMoYzEyKW5bY0hdbjJbQ0BASF0zT1tDQEhdKFtDSDJdW09IXSlbQ0BASF0oW09IXSlbQ0BASF0zRg==

> <s_epik_cmdline>
J2VwaWtfcHl0aG9uJywgJy1waCcsICc3LjAnLCAnLXRuJywgJzgnLCAnLW1hJywgJzIwMCcsICctbWV0YWxfYmluZGluZycsICctaW1hZScsICc8aW5maWxlLm1hZT4nLCAnLW9tYWUnLCAnPG91dGZpbGUubWFlPic=

> <r_lp_tautomer_probability>
1

> <r_epik_Ionization_Penalty>
6.51543e-05

> <r_epik_Ionization_Penalty_Charging>
0

> <r_epik_Ionization_Penalty_Neutral>
6.51543e-05

> <r_epik_State_Penalty>
-0

> <r_epik_Charging_Adjusted_Penalty>
0

> <i_epik_Tot_Q>
0

> <i_epik_Tot_abs_Q>
0

> <r_epik_Metal_State_Penalty>
-0

> <b_epik_Metal_Only>
0

> <s_epik_Chemistry_Notes>
This compound contains an acetal/aminal-like group ( X-CH(R)-Y where X, Y are N, S, or O) that may be acid/base labile, releasing an aldehyde.

> <s_lp_Force_Field>
OPLS_2005

> <r_lp_Energy>
30.2805

> <b_lp_Chiralities_Consistent>
1

> <s_lp_Variant>
AV-unprocessed.smi:158-8

> <Gold.Version>
5.8.1

> <Gold.Id.Protein>
6NUR|6NUR_protein|mol2

> <Gold.PLP.Fitness>
38.1897

> <Gold.PLP.PLP>
-27.5775

> <Gold.PLP.part.hbond>
-3.9289

> <Gold.PLP.part.metal>
0.0000

> <Gold.PLP.part.buried>
-3.7696

> <Gold.PLP.part.nonpolar>
-19.8568

> <Gold.PLP.part.repulsive>
0.4644

> <Gold.PLP.ligand.clash>
0.0000

> <Gold.PLP.ligand.torsion>
0.7077

> <Gold.PLP.Chemscore.Hbond>
4.0000

> <Gold.PLP.Chemscore.CHOScore>
0.0000

> <Gold.PLP.Chemscore.Metal>
0.0000

> <Gold.Chemscore.Hbonds>
donor molecule, donor type, donor heavy atom, donor atom, acceptor molecule, acceptor atom, score
      L1  H     1    25       P1  7957  0.96
      P1  H  6896  6907       L1    16  1.00
      P1  H  7989  7998       L1     9  1.00
      P1  H  7997  8010       L1    18  1.00

> <Gold.PLP.Chemscore.Internal.Correction>
0.0276

> <Gold.Rescore>
     Score         DG    S(hbond)    S(metal)    S(lipo)     H(rot)  DE(clash)    DE(int)     intcor
      9.13     -10.02       2.64        0.00      31.70       3.12       0.20       0.68       ----

> <Gold.Chemscore.Fitness>
9.1324

> <Gold.Chemscore.DG>
-10.0173

> <Gold.Chemscore.ZeroCoef>
-5.4800

> <Gold.Chemscore.Hbond>
2.6417

> <Gold.Chemscore.Metal>
0.0000

> <Gold.Chemscore.Lipo>
31.7014

> <Gold.Chemscore.Internal_Hbond>
0.0000

> <Gold.Chemscore.DEClash>
0.2005

> <Gold.Chemscore.DEInternal>
0.6844

> <Gold.Chemscore.Rot>
3.1230

> <Gold.Chemscore.Internal.Correction>
   9.000000E+99

> <Gold.Chemscore.Hbonds>
donor molecule, donor type, donor heavy atom, donor atom, acceptor molecule, acceptor atom, score
      L1  H     1    25       P1  7957  0.89
      P1  H  6896  6907       L1    16  0.85
      P1  H  7989  7998       L1     9  0.25
      P1  H  7997  8010       L1    18  0.25

> <Gold.Chemscore.Hbond.Weighted>
-8.8232

> <Gold.Chemscore.Metal.Weighted>
-0.0000

> <Gold.Chemscore.Lipo.Weighted>
-3.7091

> <Gold.Chemscore.Internal_Hbond.Weighted>
0.0000

> <Gold.Chemscore.DEClash.Weighted>
0.2005

> <Gold.Chemscore.DEInternal.Weighted>
0.6844

> <Gold.Chemscore.Rot.Weighted>
7.9950

> <Gold.Chemscore.Internal.Correction.Weighted>
   9.000000E+99

> <Gold.Protein.RotatedTorsions>
[ 6907 6896 6895 6894 ] final   22.44 input  -60.11 | X-H torsion
[ 7974 7965 7964 7962 ] final -101.21 input  175.53 | X-H torsion
[ 8008 7997 7996 7995 ] final   -1.71 input   59.86 | X-H torsion
[ 10167 10162 10161 10158 ] final  -17.61 input  -65.29 | X-H torsion
[ 10718 10713 10712 10709 ] final   45.32 input   66.30 | X-H torsion
[ 10763 10752 10751 10750 ] final   -7.56 input  -60.55 | X-H torsion
[ 11005 11000 10999 10996 ] final  -85.22 input  -57.11 | X-H torsion

> <Gold.Protein.ActiveResidues>
 VAL166  LYS551  ARG553  GLY616  TRP617  ASP618  TYR619  PRO620  LYS621  CYS622 
 ASP623  PHE694  ASN695  SER759  ASP760  ASP761  ALA762  ILE779  LEU786  VAL792 
 PHE793  MET794  SER795  GLU796  ALA797  LYS798  CYS799  TRP800  GLU811  SER814 

> <Gold.Protein.RotatedAtoms>
  151.9271  135.0273  160.0526 H   0  0  0  0  0  0  0  0  0  0  0  0  # atno 6907 bound_to 6896
  152.2150  133.4935  159.5139 H   0  0  0  0  0  0  0  0  0  0  0  0  # atno 6908 bound_to 6896
  150.6985  134.1334  159.4121 H   0  0  0  0  0  0  0  0  0  0  0  0  # atno 6909 bound_to 6896
  145.2845  140.9336  143.2913 H   0  0  0  0  0  0  0  0  0  0  0  0  # atno 7974 bound_to 7965
  154.6437  140.2552  155.7292 H   0  0  0  0  0  0  0  0  0  0  0  0  # atno 8008 bound_to 7997
  156.2541  140.2882  156.0762 H   0  0  0  0  0  0  0  0  0  0  0  0  # atno 8009 bound_to 7997
  155.1557  140.0383  157.2821 H   0  0  0  0  0  0  0  0  0  0  0  0  # atno 8010 bound_to 7997
  140.7249  143.4998  150.9883 H   0  0  0  0  0  0  0  0  0  0  0  0  # atno 10167 bound_to 10162
  157.4363  130.8054  149.7651 H   0  0  0  0  0  0  0  0  0  0  0  0  # atno 10718 bound_to 10713
  153.4280  135.7011  153.6249 H   0  0  0  0  0  0  0  0  0  0  0  0  # atno 10763 bound_to 10752
  153.4676  135.3722  155.2373 H   0  0  0  0  0  0  0  0  0  0  0  0  # atno 10764 bound_to 10752
  154.8724  135.4035  154.3659 H   0  0  0  0  0  0  0  0  0  0  0  0  # atno 10765 bound_to 10752
  141.1643  133.7388  156.8983 H   0  0  0  0  0  0  0  0  0  0  0  0  # atno 11005 bound_to 11000
  144.9224  139.4395  143.6534 LP  0  0  0  0  0  0  0  0  0  0  0  0  # atno 17320 bound_to 7965
  146.3205  139.8092  142.8949 LP  0  0  0  0  0  0  0  0  0  0  0  0  # atno 17321 bound_to 7965
  139.8707  143.7196  152.3166 LP  0  0  0  0  0  0  0  0  0  0  0  0  # atno 17342 bound_to 10162
  139.7444  144.7551  151.0603 LP  0  0  0  0  0  0  0  0  0  0  0  0  # atno 17343 bound_to 10162
  155.9931  130.3926  150.2912 LP  0  0  0  0  0  0  0  0  0  0  0  0  # atno 17370 bound_to 10713
  157.1073  131.0212  151.3062 LP  0  0  0  0  0  0  0  0  0  0  0  0  # atno 17371 bound_to 10713
  140.1600  134.9172  157.2703 LP  0  0  0  0  0  0  0  0  0  0  0  0  # atno 17394 bound_to 11000
  140.2622  134.3557  155.7402 LP  0  0  0  0  0  0  0  0  0  0  0  0  # atno 17395 bound_to 11000

$$$$
