#       Name:                AV-unprocessed.smi:3315
#       Creating user name   scv26
#       Creation time:       Fri Mar 27 19:09:01 2020


#       File generated by GOLD software.
#

@<TRIPOS>MOLECULE
AV-unprocessed.smi:3315
    44    45     1
SMALL
NO_CHARGES


@<TRIPOS>ATOM
      1 ****        -3.3180   2.9390  -0.9857 C.3            1 S1                 0.0000
      2 ****        -2.6068   1.7232  -1.1849 O.3            1 S1                 0.0000
      3 ****        -1.1754   1.7981  -1.2415 C.3            1 S1                 0.0000
      4 ****        -0.7315   2.7554  -2.3547 C.3            1 S1                 0.0000
      5 ****        -0.5928   1.9661   0.1751 C.3            1 S1                 0.0000
      6 ****        -0.7049   0.4501   0.3216 C.3            1 S1                 0.0000
      7 ****         0.4142  -0.1269   1.0593 N.am           1 S1                 0.0000
      8 ****         0.5292  -1.4268   1.3639 C.2            1 S1                 0.0000
      9 ****        -0.3076  -2.2739   1.0504 O.2            1 S1                 0.0000
     10 ****         1.6634  -1.6714   2.0420 N.am           1 S1                 0.0000
     11 ****         2.1351  -2.9230   2.5135 C.2            1 S1                 0.0000
     12 ****         3.3579  -3.0181   3.2298 C.2            1 S1                 0.0000
     13 ****         3.4504  -4.3548   3.4953 C.2            1 S1                 0.0000
     14 ****         2.3801  -5.0213   2.9866 O.3            1 S1                 0.0000
     15 ****         1.5389  -4.0958   2.3571 N.2            1 S1                 0.0000
     16 ****        -0.6022   0.3426  -1.2220 C.3            1 S1                 0.0000
     17 ****        -1.4648  -0.7425  -1.8764 C.3            1 S1                 0.0000
     18 ****         0.8099   0.1650  -1.8116 C.3            1 S1                 0.0000
     19 ****        -4.3710   2.7108  -0.8227 H              1 S1                 0.0000
     20 ****        -3.2623   3.5866  -1.8603 H              1 S1                 0.0000
     21 ****        -2.9629   3.4917  -0.1168 H              1 S1                 0.0000
     22 ****         0.3495   2.7477  -2.4892 H              1 S1                 0.0000
     23 ****        -1.0002   3.7886  -2.1360 H              1 S1                 0.0000
     24 ****        -1.1815   2.4868  -3.3106 H              1 S1                 0.0000
     25 ****         0.4362   2.3300   0.1681 H              1 S1                 0.0000
     26 ****        -1.2003   2.5281   0.8834 H              1 S1                 0.0000
     27 ****        -1.6851   0.1550   0.7037 H              1 S1                 0.0000
     28 ****         1.1441   0.5049   1.3544 H              1 S1                 0.0000
     29 ****         2.2558  -0.8781   2.2373 H              1 S1                 0.0000
     30 ****         4.0531  -2.2389   3.5048 H              1 S1                 0.0000
     31 ****         4.1822  -4.9590   4.0108 H              1 S1                 0.0000
     32 ****        -1.0256  -1.7332  -1.7540 H              1 S1                 0.0000
     33 ****        -1.5855  -0.5645  -2.9452 H              1 S1                 0.0000
     34 ****        -2.4627  -0.7894  -1.4403 H              1 S1                 0.0000
     35 ****         1.2126  -0.8263  -1.6013 H              1 S1                 0.0000
     36 ****         1.5192   0.8879  -1.4084 H              1 S1                 0.0000
     37 ****         0.8078   0.2863  -2.8953 H              1 S1                 0.0000
     38 ****        -2.9211   1.3298  -2.0489 LP             1 S1                 0.0000
     39 ****        -2.8456   1.1091  -0.4326 LP             1 S1                 0.0000
     40 ****        -1.1252  -2.0046   0.5415 LP             1 S1                 0.0000
     41 ****        -0.1695  -3.2311   1.3047 LP             1 S1                 0.0000
     42 ****         1.8854  -5.4789   3.7254 LP             1 S1                 0.0000
     43 ****         2.6907  -5.7012   2.3223 LP             1 S1                 0.0000
     44 ****         0.6742  -4.2803   1.8900 LP             1 S1                 0.0000
@<TRIPOS>BOND
    1    1    2 1     
    2    1   19 1     
    3    1   20 1     
    4    1   21 1     
    5    2    3 1     
    6    3   16 1     
    7    3    4 1     
    8    3    5 1     
    9    4   22 1     
   10    4   23 1     
   11    4   24 1     
   12    5    6 1     
   13    5   25 1     
   14    5   26 1     
   15    6    7 1     
   16    6   16 1     
   17    6   27 1     
   18    7    8 am    
   19    7   28 1     
   20    8    9 2     
   21    8   10 am    
   22   10   11 1     
   23   10   29 1     
   24   11   15 2     
   25   11   12 1     
   26   12   13 2     
   27   12   30 1     
   28   13   14 1     
   29   13   31 1     
   30   14   15 1     
   31   16   17 1     
   32   16   18 1     
   33   17   32 1     
   34   17   33 1     
   35   17   34 1     
   36   18   35 1     
   37   18   36 1     
   38   18   37 1     
   39    2   38 1     
   40    2   39 1     
   41    9   40 1     
   42    9   41 1     
   43   14   42 1     
   44   14   43 1     
   45   15   44 1     
@<TRIPOS>SUBSTRUCTURE
      1 S1             1
@<TRIPOS>SET
LONE_PAIRS      STATIC     ATOMS    <user>   **** ""
7 38 39 40 41 42 43 44
DONOR_HYDROGENS      STATIC     ATOMS    <user>   **** ""
2 28 29
ATOM$BLUE        STATIC     ATOMS    COLORGROUP SYSTEM
7 38 39 40 41 42 43 44
ATOM$RED        STATIC     ATOMS    COLORGROUP SYSTEM
2 28 29
