AV-unprocessed.smi:2119|AV-procd|sdf|8630|dock8
  -GOLD-   2272011373D 1   1.00000     0.00000
 Structure written by MMmdl.
 47 49  0  0  0  0  0  0  0  0  1 V2000
  145.2623  135.7513  154.0892 O   0  0  0  0  0  0  0  0  0  0  0  0
  146.3183  135.6171  153.4716 C   0  0  0  0  0  0  0  0  0  0  0  0
  147.4369  136.2939  153.7668 N   0  0  0  0  0  0  0  0  0  0  0  0
  147.5672  137.2744  154.8419 C   0  0  0  0  0  0  0  0  0  0  0  0
  148.4819  138.4867  154.4778 C   0  0  2  0  0  0  0  0  0  0  0  0
  149.9060  138.2486  155.0869 C   0  0  2  0  0  0  0  0  0  0  0  0
  150.9800  139.2412  154.6585 C   0  0  0  0  0  0  0  0  0  0  0  0
  152.2937  138.5122  154.9629 C   0  0  0  0  0  0  0  0  0  0  0  0
  151.9294  137.1900  155.3465 O   0  0  0  0  0  0  0  0  0  0  0  0
  150.6314  136.9257  154.8419 C   0  0  0  0  0  0  0  0  0  0  0  0
  147.9141  139.8211  154.8009 N   0  0  0  0  0  0  0  0  0  0  0  0
  148.5552  140.8899  154.0235 C   0  0  0  0  0  0  0  0  0  0  0  0
  148.0510  142.2855  154.4254 C   0  0  0  0  0  0  0  0  0  0  0  0
  146.6433  142.3488  154.2327 O   0  0  0  0  0  0  0  0  0  0  0  0
  145.9488  141.3517  154.9719 C   0  0  0  0  0  0  0  0  0  0  0  0
  146.4692  139.9547  154.5862 C   0  0  0  0  0  0  0  0  0  0  0  0
  146.5076  134.8071  152.4160 N   0  0  0  0  0  0  0  0  0  0  0  0
  145.5840  133.9221  151.7964 C   0  0  0  0  0  0  0  0  0  0  0  0
  145.9130  133.0213  150.7542 C   0  0  0  0  0  0  0  0  0  0  0  0
  144.8982  132.2087  150.2125 C   0  0  0  0  0  0  0  0  0  0  0  0
  143.5924  132.3308  150.7256 C   0  0  0  0  0  0  0  0  0  0  0  0
  143.2620  133.1934  151.7095 N   0  0  0  0  0  0  0  0  0  0  0  0
  144.2400  133.9689  152.2239 C   0  0  0  0  0  0  0  0  0  0  0  0
  148.2580  136.1253  153.2043 H   0  0  0  0  0  0  0  0  0  0  0  0
  146.5588  137.6042  155.0952 H   0  0  0  0  0  0  0  0  0  0  0  0
  147.9494  136.7566  155.7220 H   0  0  0  0  0  0  0  0  0  0  0  0
  148.5962  138.4423  153.3937 H   0  0  0  0  0  0  0  0  0  0  0  0
  149.8166  138.3215  156.1718 H   0  0  0  0  0  0  0  0  0  0  0  0
  150.9088  139.4462  153.5893 H   0  0  0  0  0  0  0  0  0  0  0  0
  150.9060  140.1911  155.1883 H   0  0  0  0  0  0  0  0  0  0  0  0
  152.9354  138.4835  154.0815 H   0  0  0  0  0  0  0  0  0  0  0  0
  152.8476  138.9896  155.7715 H   0  0  0  0  0  0  0  0  0  0  0  0
  150.1661  136.0790  155.3471 H   0  0  0  0  0  0  0  0  0  0  0  0
  150.7374  136.7019  153.7800 H   0  0  0  0  0  0  0  0  0  0  0  0
  149.6360  140.8720  154.1112 H   0  0  0  0  0  0  0  0  0  0  0  0
  148.3516  140.7378  152.9621 H   0  0  0  0  0  0  0  0  0  0  0  0
  148.2983  142.5032  155.4656 H   0  0  0  0  0  0  0  0  0  0  0  0
  148.5276  143.0518  153.8140 H   0  0  0  0  0  0  0  0  0  0  0  0
  146.0779  141.5281  156.0410 H   0  0  0  0  0  0  0  0  0  0  0  0
  144.8824  141.4304  154.7611 H   0  0  0  0  0  0  0  0  0  0  0  0
  146.2253  139.7511  153.5423 H   0  0  0  0  0  0  0  0  0  0  0  0
  145.9257  139.2294  155.1910 H   0  0  0  0  0  0  0  0  0  0  0  0
  147.4111  134.8667  151.9695 H   0  0  0  0  0  0  0  0  0  0  0  0
  146.9105  132.9449  150.3514 H   0  0  0  0  0  0  0  0  0  0  0  0
  145.1155  131.5104  149.4178 H   0  0  0  0  0  0  0  0  0  0  0  0
  142.7910  131.7236  150.3313 H   0  0  0  0  0  0  0  0  0  0  0  0
  143.9384  134.6482  153.0080 H   0  0  0  0  0  0  0  0  0  0  0  0
  1  2  2  0  0  0  0
  2  3  1  0  0  0  0
  2 17  1  0  0  0  0
  3  4  1  0  0  0  0
  3 24  1  0  0  0  0
  4  5  1  0  0  0  0
  4 25  1  0  0  0  0
  4 26  1  0  0  0  0
  5  6  1  0  0  0  0
  5 11  1  0  0  0  0
  5 27  1  0  0  0  0
  6 10  1  0  0  0  0
  6  7  1  0  0  0  0
  6 28  1  0  0  0  0
  7  8  1  0  0  0  0
  7 29  1  0  0  0  0
  7 30  1  0  0  0  0
  8  9  1  0  0  0  0
  8 31  1  0  0  0  0
  8 32  1  0  0  0  0
  9 10  1  0  0  0  0
 10 33  1  0  0  0  0
 10 34  1  0  0  0  0
 11 16  1  0  0  0  0
 11 12  1  0  0  0  0
 12 13  1  0  0  0  0
 12 35  1  0  0  0  0
 12 36  1  0  0  0  0
 13 14  1  0  0  0  0
 13 37  1  0  0  0  0
 13 38  1  0  0  0  0
 14 15  1  0  0  0  0
 15 16  1  0  0  0  0
 15 39  1  0  0  0  0
 15 40  1  0  0  0  0
 16 41  1  0  0  0  0
 16 42  1  0  0  0  0
 17 18  1  0  0  0  0
 17 43  1  0  0  0  0
 18 23  1  0  0  0  0
 18 19  2  0  0  0  0
 19 20  1  0  0  0  0
 19 44  1  0  0  0  0
 20 21  2  0  0  0  0
 20 45  1  0  0  0  0
 21 22  1  0  0  0  0
 21 46  1  0  0  0  0
 22 23  2  0  0  0  0
 23 47  1  0  0  0  0
M  END
> <s_m_source_file>
AV-unprocessed.smi

> <i_m_source_file_index>
2119

> <i_lp_mmshare_version>
43012

> <i_f3d_flags>
0

> <s_epik_input>
W2NIXTFuW2NIXVtjSF1bY0hdYzFbTkhdQyg9TylbTkhdW0NIMl1bQ0BIXShbQ0BASF0yW0NIMl1bQ0gyXU9bQ0gyXTIpTjNbQ0gyXVtDSDJdT1tDSDJdW0NIMl0z

> <s_epik_cmdline>
J2VwaWtfcHl0aG9uJywgJy1waCcsICc3LjAnLCAnLXRuJywgJzgnLCAnLW1hJywgJzIwMCcsICctbWV0YWxfYmluZGluZycsICctaW1hZScsICc8aW5maWxlLm1hZT4nLCAnLW9tYWUnLCAnPG91dGZpbGUubWFlPic=

> <r_epik_Ionization_Penalty>
0.129787

> <r_epik_Ionization_Penalty_Charging>
0

> <r_epik_Ionization_Penalty_Neutral>
0.129787

> <r_epik_State_Penalty>
0.121311

> <r_epik_Charging_Adjusted_Penalty>
0.121311

> <i_epik_Tot_Q>
0

> <i_epik_Tot_abs_Q>
0

> <r_epik_Metal_State_Penalty>
0.117931

> <b_epik_Metal_Only>
0

> <s_lp_Force_Field>
OPLS_2005

> <r_lp_Energy>
59.4027

> <b_lp_Chiralities_Consistent>
1

> <s_lp_Variant>
AV-unprocessed.smi:2119-1

> <Gold.Version>
5.8.1

> <Gold.Id.Protein>
6NUR|6NUR_protein|mol2

> <Gold.PLP.Fitness>
43.1291

> <Gold.PLP.PLP>
-33.8903

> <Gold.PLP.part.hbond>
-2.7701

> <Gold.PLP.part.metal>
0.0000

> <Gold.PLP.part.buried>
-1.9498

> <Gold.PLP.part.nonpolar>
-29.5066

> <Gold.PLP.part.repulsive>
0.5816

> <Gold.PLP.ligand.clash>
0.0000

> <Gold.PLP.ligand.torsion>
1.1540

> <Gold.PLP.Chemscore.Hbond>
2.7920

> <Gold.PLP.Chemscore.CHOScore>
1.0000

> <Gold.PLP.Chemscore.Metal>
0.0000

> <Gold.Chemscore.Hbonds>
donor molecule, donor type, donor heavy atom, donor atom, acceptor molecule, acceptor atom, score
      L1  H     3    24       P1  7948  0.95
      L1  H    17    43       P1  7948  0.77
      P1  H 10752 10765       L1     9  0.98
      L1  C    21    46       P1 10952  1.00

> <Gold.PLP.Chemscore.Internal.Correction>
0.1708

> <Gold.Rescore>
     Score         DG    S(hbond)    S(metal)    S(lipo)     H(rot)  DE(clash)    DE(int)     intcor
     15.45     -19.54       2.35        0.00      89.12       1.65       1.30       2.79       ----

> <Gold.Chemscore.Fitness>
15.4460

> <Gold.Chemscore.DG>
-19.5413

> <Gold.Chemscore.ZeroCoef>
-5.4800

> <Gold.Chemscore.Hbond>
2.3533

> <Gold.Chemscore.Metal>
0.0000

> <Gold.Chemscore.Lipo>
89.1249

> <Gold.Chemscore.Internal_Hbond>
0.0000

> <Gold.Chemscore.DEClash>
1.3041

> <Gold.Chemscore.DEInternal>
2.7912

> <Gold.Chemscore.Rot>
1.6508

> <Gold.Chemscore.Internal.Correction>
   9.000000E+99

> <Gold.Chemscore.Hbonds>
donor molecule, donor type, donor heavy atom, donor atom, acceptor molecule, acceptor atom, score
      L1  H     3    24       P1  7948  0.85
      L1  H    17    43       P1  7948  0.63
      P1  H 10752 10765       L1     9  0.30

> <Gold.Chemscore.Hbond.Weighted>
-7.8599

> <Gold.Chemscore.Metal.Weighted>
-0.0000

> <Gold.Chemscore.Lipo.Weighted>
-10.4276

> <Gold.Chemscore.Internal_Hbond.Weighted>
0.0000

> <Gold.Chemscore.DEClash.Weighted>
1.3041

> <Gold.Chemscore.DEInternal.Weighted>
2.7912

> <Gold.Chemscore.Rot.Weighted>
4.2262

> <Gold.Chemscore.Internal.Correction.Weighted>
   9.000000E+99

> <Gold.Protein.RotatedTorsions>
[ 6907 6896 6895 6894 ] final  159.09 input  -60.11 | X-H torsion
[ 7974 7965 7964 7962 ] final  125.21 input  175.53 | X-H torsion
[ 8008 7997 7996 7995 ] final  -94.28 input   59.86 | X-H torsion
[ 10167 10162 10161 10158 ] final  -45.32 input  -65.29 | X-H torsion
[ 10718 10713 10712 10709 ] final   44.72 input   66.30 | X-H torsion
[ 10763 10752 10751 10750 ] final -173.81 input  -60.55 | X-H torsion
[ 11005 11000 10999 10996 ] final  -80.82 input  -57.11 | X-H torsion

> <Gold.Protein.ActiveResidues>
 VAL166  LYS551  ARG553  GLY616  TRP617  ASP618  TYR619  PRO620  LYS621  CYS622 
 ASP623  PHE694  ASN695  SER759  ASP760  ASP761  ALA762  ILE779  LEU786  VAL792 
 PHE793  MET794  SER795  GLU796  ALA797  LYS798  CYS799  TRP800  GLU811  SER814 

> <Gold.Protein.RotatedAtoms>
  151.9907  133.3790  159.4143 H   0  0  0  0  0  0  0  0  0  0  0  0  # atno 6907 bound_to 6896
  150.6922  134.3940  159.5098 H   0  0  0  0  0  0  0  0  0  0  0  0  # atno 6908 bound_to 6896
  152.1672  134.8863  160.0588 H   0  0  0  0  0  0  0  0  0  0  0  0  # atno 6909 bound_to 6896
  145.0756  139.3696  143.4935 H   0  0  0  0  0  0  0  0  0  0  0  0  # atno 7974 bound_to 7965
  154.7464  140.0491  157.0856 H   0  0  0  0  0  0  0  0  0  0  0  0  # atno 8008 bound_to 7997
  155.0113  140.3136  155.4809 H   0  0  0  0  0  0  0  0  0  0  0  0  # atno 8009 bound_to 7997
  156.2876  140.2184  156.5227 H   0  0  0  0  0  0  0  0  0  0  0  0  # atno 8010 bound_to 7997
  140.6863  143.2886  151.3621 H   0  0  0  0  0  0  0  0  0  0  0  0  # atno 10167 bound_to 10162
  157.4299  130.8018  149.7593 H   0  0  0  0  0  0  0  0  0  0  0  0  # atno 10718 bound_to 10713
  154.6035  135.2857  155.0509 H   0  0  0  0  0  0  0  0  0  0  0  0  # atno 10763 bound_to 10752
  154.1765  135.6464  153.5027 H   0  0  0  0  0  0  0  0  0  0  0  0  # atno 10764 bound_to 10752
  153.0166  135.5413  154.6763 H   0  0  0  0  0  0  0  0  0  0  0  0  # atno 10765 bound_to 10752
  141.1667  133.7168  156.8330 H   0  0  0  0  0  0  0  0  0  0  0  0  # atno 11005 bound_to 11000
  146.3530  140.0522  142.8635 LP  0  0  0  0  0  0  0  0  0  0  0  0  # atno 17320 bound_to 7965
  145.1239  140.9479  143.4584 LP  0  0  0  0  0  0  0  0  0  0  0  0  # atno 17321 bound_to 7965
  139.6224  144.0881  152.2403 LP  0  0  0  0  0  0  0  0  0  0  0  0  # atno 17342 bound_to 10162
  140.0329  144.6067  150.7473 LP  0  0  0  0  0  0  0  0  0  0  0  0  # atno 17343 bound_to 10162
  155.9909  130.3941  150.3006 LP  0  0  0  0  0  0  0  0  0  0  0  0  # atno 17370 bound_to 10713
  157.1162  131.0234  151.3028 LP  0  0  0  0  0  0  0  0  0  0  0  0  # atno 17371 bound_to 10713
  140.2038  134.8878  157.3198 LP  0  0  0  0  0  0  0  0  0  0  0  0  # atno 17394 bound_to 11000
  140.2159  134.4081  155.7589 LP  0  0  0  0  0  0  0  0  0  0  0  0  # atno 17395 bound_to 11000

$$$$
