AV-unprocessed.smi:1047|AV-procd|sdf|4561|dock1
  -GOLD-   22720 3 03D 1   1.00000     0.00000
 Structure written by MMmdl.
 57 59  0  0  0  0  0  0  0  0  3 V2000
  145.5982  136.1152  150.8135 C   0  0  0  0  0  0  0  0  0  0  0  0
  145.3330  135.9055  152.3113 C   0  0  0  0  0  0  0  0  0  0  0  0
  146.4901  136.3084  153.1546 N   0  3  2  0  0  0  0  0  0  0  0  0
  146.6200  135.5149  154.4010 C   0  0  0  0  0  0  0  0  0  0  0  0
  145.6171  135.9876  155.4682 C   0  0  0  0  0  0  0  0  0  0  0  0
  145.8089  137.3756  155.7155 O   0  0  0  0  0  0  0  0  0  0  0  0
  145.5706  138.1752  154.5611 C   0  0  1  0  0  0  0  0  0  0  0  0
  145.7411  139.6493  154.9601 C   0  0  0  0  0  0  0  0  0  0  0  0
  145.9462  140.5069  153.7752 N   0  3  0  0  0  0  0  0  0  0  0  0
  147.3481  140.9201  153.5630 C   0  0  0  0  0  0  0  0  0  0  0  0
  147.9794  141.4411  154.8646 C   0  0  2  0  0  0  0  0  0  0  0  0
  147.3190  142.6344  155.2415 O   0  0  0  0  0  0  0  0  0  0  0  0
  149.4858  141.7213  154.7021 C   0  0  0  0  0  0  0  0  0  0  0  0
  150.2822  141.0874  155.7377 N   0  0  0  0  0  0  0  0  0  0  0  0
  150.5087  139.7692  155.8993 C   0  0  0  0  0  0  0  0  0  0  0  0
  151.2791  139.4048  156.9199 N   0  0  0  0  0  0  0  0  0  0  0  0
  151.5813  140.6283  157.4927 C   0  0  0  0  0  0  0  0  0  0  0  0
  152.3664  140.9426  158.6234 C   0  0  0  0  0  0  0  0  0  0  0  0
  152.5387  142.2831  159.0362 C   0  0  0  0  0  0  0  0  0  0  0  0
  153.3893  142.5751  160.2599 C   0  0  0  0  0  0  0  0  0  0  0  0
  151.9217  143.3347  158.3119 C   0  0  0  0  0  0  0  0  0  0  0  0
  152.0910  144.7818  158.7396 C   0  0  0  0  0  0  0  0  0  0  0  0
  151.1369  143.0387  157.1773 C   0  0  0  0  0  0  0  0  0  0  0  0
  150.9716  141.7007  156.7779 C   0  0  0  0  0  0  0  0  0  0  0  0
  146.5690  137.7617  153.4557 C   0  0  0  0  0  0  0  0  0  0  0  0
  144.7732  135.7206  150.2199 H   0  0  0  0  0  0  0  0  0  0  0  0
  146.5061  135.6000  150.4977 H   0  0  0  0  0  0  0  0  0  0  0  0
  145.7025  137.1691  150.5577 H   0  0  0  0  0  0  0  0  0  0  0  0
  144.4262  136.4291  152.6139 H   0  0  0  0  0  0  0  0  0  0  0  0
  145.1361  134.8439  152.4646 H   0  0  0  0  0  0  0  0  0  0  0  0
  146.4984  134.4505  154.1973 H   0  0  0  0  0  0  0  0  0  0  0  0
  147.6349  135.6383  154.7818 H   0  0  0  0  0  0  0  0  0  0  0  0
  144.5882  135.7960  155.1599 H   0  0  0  0  0  0  0  0  0  0  0  0
  145.7751  135.4408  156.3980 H   0  0  0  0  0  0  0  0  0  0  0  0
  144.5468  138.0234  154.2151 H   0  0  0  0  0  0  0  0  0  0  0  0
  144.8705  139.9958  155.5192 H   0  0  0  0  0  0  0  0  0  0  0  0
  146.6065  139.7535  155.6159 H   0  0  0  0  0  0  0  0  0  0  0  0
  145.6430  140.0043  152.9526 H   0  0  0  0  0  0  0  0  0  0  0  0
  147.9107  140.0591  153.1996 H   0  0  0  0  0  0  0  0  0  0  0  0
  147.3947  141.6840  152.7851 H   0  0  0  0  0  0  0  0  0  0  0  0
  147.8368  140.7048  155.6570 H   0  0  0  0  0  0  0  0  0  0  0  0
  147.9240  143.3552  155.1470 H   0  0  0  0  0  0  0  0  0  0  0  0
  149.8356  141.3571  153.7352 H   0  0  0  0  0  0  0  0  0  0  0  0
  149.6807  142.7948  154.7191 H   0  0  0  0  0  0  0  0  0  0  0  0
  150.0892  139.0360  155.2258 H   0  0  0  0  0  0  0  0  0  0  0  0
  152.8364  140.1415  159.1751 H   0  0  0  0  0  0  0  0  0  0  0  0
  152.8080  143.1084  161.0122 H   0  0  0  0  0  0  0  0  0  0  0  0
  154.2499  143.1866  159.9887 H   0  0  0  0  0  0  0  0  0  0  0  0
  153.7611  141.6568  160.7152 H   0  0  0  0  0  0  0  0  0  0  0  0
  151.5735  145.4611  158.0617 H   0  0  0  0  0  0  0  0  0  0  0  0
  153.1457  145.0574  158.7480 H   0  0  0  0  0  0  0  0  0  0  0  0
  151.6850  144.9340  159.7399 H   0  0  0  0  0  0  0  0  0  0  0  0
  150.6616  143.8301  156.6172 H   0  0  0  0  0  0  0  0  0  0  0  0
  147.5849  137.9781  153.7897 H   0  0  0  0  0  0  0  0  0  0  0  0
  146.4168  138.3561  152.5554 H   0  0  0  0  0  0  0  0  0  0  0  0
  145.3785  141.3367  153.8729 H   0  0  0  0  0  0  0  0  0  0  0  0
  147.3052  136.0836  152.6012 H   0  0  0  0  0  0  0  0  0  0  0  0
  1  2  1  0  0  0  0
  1 26  1  0  0  0  0
  1 27  1  0  0  0  0
  1 28  1  0  0  0  0
  2  3  1  0  0  0  0
  2 29  1  0  0  0  0
  2 30  1  0  0  0  0
  3 25  1  0  0  0  0
  3  4  1  0  0  0  0
  3 57  1  0  0  0  0
  4  5  1  0  0  0  0
  4 31  1  0  0  0  0
  4 32  1  0  0  0  0
  5  6  1  0  0  0  0
  5 33  1  0  0  0  0
  5 34  1  0  0  0  0
  6  7  1  0  0  0  0
  7  8  1  0  0  0  0
  7 25  1  0  0  0  0
  7 35  1  0  0  0  0
  8  9  1  0  0  0  0
  8 36  1  0  0  0  0
  8 37  1  0  0  0  0
  9 10  1  0  0  0  0
  9 38  1  0  0  0  0
  9 56  1  0  0  0  0
 10 11  1  0  0  0  0
 10 39  1  0  0  0  0
 10 40  1  0  0  0  0
 11 12  1  0  0  0  0
 11 13  1  0  0  0  0
 11 41  1  0  0  0  0
 12 42  1  0  0  0  0
 13 14  1  0  0  0  0
 13 43  1  0  0  0  0
 13 44  1  0  0  0  0
 14 24  1  0  0  0  0
 14 15  1  0  0  0  0
 15 16  2  0  0  0  0
 15 45  1  0  0  0  0
 16 17  1  0  0  0  0
 17 24  2  0  0  0  0
 17 18  1  0  0  0  0
 18 19  2  0  0  0  0
 18 46  1  0  0  0  0
 19 20  1  0  0  0  0
 19 21  1  0  0  0  0
 20 47  1  0  0  0  0
 20 48  1  0  0  0  0
 20 49  1  0  0  0  0
 21 22  1  0  0  0  0
 21 23  2  0  0  0  0
 22 50  1  0  0  0  0
 22 51  1  0  0  0  0
 22 52  1  0  0  0  0
 23 24  1  0  0  0  0
 23 53  1  0  0  0  0
 25 54  1  0  0  0  0
 25 55  1  0  0  0  0
M  CHG  1   3   1
M  CHG  1   9   1
M  END
> <s_m_source_file>
AV-unprocessed.smi

> <i_m_source_file_index>
1047

> <i_lp_mmshare_version>
43012

> <i_f3d_flags>
0

> <s_epik_input>
W0NIM11bQ0gyXU4xW0NIMl1bQ0gyXU9bQ0BIXShbQ0gyXTEpW0NIMl1bTkhdW0NIMl1bQ0BIXShbT0hdKVtDSDJdbihbY0hdbjIpYyhjMjMpW2NIXWMoW0NIM10pYyhbY0hdMylbQ0gzXQ==

> <s_epik_cmdline>
J2VwaWtfcHl0aG9uJywgJy1waCcsICc3LjAnLCAnLXRuJywgJzgnLCAnLW1hJywgJzIwMCcsICctbWV0YWxfYmluZGluZycsICctaW1hZScsICc8aW5maWxlLm1hZT4nLCAnLW9tYWUnLCAnPG91dGZpbGUubWFlPic=

> <r_epik_Ionization_Penalty>
0.528991

> <r_epik_Ionization_Penalty_Charging>
0.438567

> <r_epik_Ionization_Penalty_Neutral>
0.0904237

> <r_epik_State_Penalty>
0.533036

> <r_epik_Charging_Adjusted_Penalty>
0.971603

> <i_epik_Tot_Q>
2

> <i_epik_Tot_abs_Q>
2

> <r_epik_Metal_State_Penalty>
0.448985

> <b_epik_Metal_Only>
0

> <s_lp_Force_Field>
OPLS_2005

> <r_lp_Energy>
30.8403

> <b_lp_Chiralities_Consistent>
1

> <s_lp_Variant>
AV-unprocessed.smi:1047-2

> <Gold.Version>
5.8.1

> <Gold.Id.Protein>
6NUR|6NUR_protein|mol2

> <Gold.PLP.Fitness>
52.2971

> <Gold.PLP.PLP>
-44.8806

> <Gold.PLP.part.hbond>
-3.0000

> <Gold.PLP.part.metal>
0.0000

> <Gold.PLP.part.buried>
-1.5551

> <Gold.PLP.part.nonpolar>
-39.1965

> <Gold.PLP.part.repulsive>
0.0000

> <Gold.PLP.ligand.clash>
0.0000

> <Gold.PLP.ligand.torsion>
1.6324

> <Gold.PLP.Chemscore.Hbond>
3.3931

> <Gold.PLP.Chemscore.CHOScore>
0.0000

> <Gold.PLP.Chemscore.Metal>
0.0000

> <Gold.Chemscore.Hbonds>
donor molecule, donor type, donor heavy atom, donor atom, acceptor molecule, acceptor atom, score
      L1  H     3    57       P1  7948  2.00
      L1  H     9    38       P1 10175  0.40
      L1  H    12    42       P1  8028  1.00

> <Gold.PLP.Chemscore.Internal.Correction>
0.5019

> <Gold.Rescore>
     Score         DG    S(hbond)    S(metal)    S(lipo)     H(rot)  DE(clash)    DE(int)     intcor
     17.62     -19.09       1.91        0.00     120.70       2.70       0.03       1.44       ----

> <Gold.Chemscore.Fitness>
17.6179

> <Gold.Chemscore.DG>
-19.0894

> <Gold.Chemscore.ZeroCoef>
-5.4800

> <Gold.Chemscore.Hbond>
1.9148

> <Gold.Chemscore.Metal>
0.0000

> <Gold.Chemscore.Lipo>
120.7002

> <Gold.Chemscore.Internal_Hbond>
0.0000

> <Gold.Chemscore.DEClash>
0.0348

> <Gold.Chemscore.DEInternal>
1.4367

> <Gold.Chemscore.Rot>
2.6985

> <Gold.Chemscore.Internal.Correction>
   9.000000E+99

> <Gold.Chemscore.Hbonds>
donor molecule, donor type, donor heavy atom, donor atom, acceptor molecule, acceptor atom, score
      L1  H     3    57       P1  7948  1.00
      L1  H     9    38       P1 10175  0.19
      L1  H    12    42       P1  8028  0.65

> <Gold.Chemscore.Hbond.Weighted>
-6.3956

> <Gold.Chemscore.Metal.Weighted>
-0.0000

> <Gold.Chemscore.Lipo.Weighted>
-14.1219

> <Gold.Chemscore.Internal_Hbond.Weighted>
0.0000

> <Gold.Chemscore.DEClash.Weighted>
0.0348

> <Gold.Chemscore.DEInternal.Weighted>
1.4367

> <Gold.Chemscore.Rot.Weighted>
6.9081

> <Gold.Chemscore.Internal.Correction.Weighted>
   9.000000E+99

> <Gold.Protein.RotatedTorsions>
[ 6907 6896 6895 6894 ] final -110.54 input  -60.11 | X-H torsion
[ 7974 7965 7964 7962 ] final  -97.56 input  175.53 | X-H torsion
[ 8008 7997 7996 7995 ] final   35.84 input   59.86 | X-H torsion
[ 10167 10162 10161 10158 ] final  129.10 input  -65.29 | X-H torsion
[ 10718 10713 10712 10709 ] final  -89.78 input   66.30 | X-H torsion
[ 10763 10752 10751 10750 ] final   19.55 input  -60.55 | X-H torsion
[ 11005 11000 10999 10996 ] final -121.66 input  -57.11 | X-H torsion

> <Gold.Protein.ActiveResidues>
 VAL166  LYS551  ARG553  GLY616  TRP617  ASP618  TYR619  PRO620  LYS621  CYS622 
 ASP623  PHE694  ASN695  SER759  ASP760  ASP761  ALA762  ILE779  LEU786  VAL792 
 PHE793  MET794  SER795  GLU796  ALA797  LYS798  CYS799  TRP800  GLU811  SER814 

> <Gold.Protein.RotatedAtoms>
  150.7632  133.9366  159.3443 H   0  0  0  0  0  0  0  0  0  0  0  0  # atno 6907 bound_to 6896
  151.7270  135.0880  160.0303 H   0  0  0  0  0  0  0  0  0  0  0  0  # atno 6908 bound_to 6896
  152.3614  133.6263  159.6053 H   0  0  0  0  0  0  0  0  0  0  0  0  # atno 6909 bound_to 6896
  145.3322  140.9443  143.2655 H   0  0  0  0  0  0  0  0  0  0  0  0  # atno 7974 bound_to 7965
  155.1777  140.3297  155.4381 H   0  0  0  0  0  0  0  0  0  0  0  0  # atno 8008 bound_to 7997
  156.2488  140.1932  156.6827 H   0  0  0  0  0  0  0  0  0  0  0  0  # atno 8009 bound_to 7997
  154.6293  140.0584  156.9699 H   0  0  0  0  0  0  0  0  0  0  0  0  # atno 8010 bound_to 7997
  139.5494  144.6801  151.4370 H   0  0  0  0  0  0  0  0  0  0  0  0  # atno 10167 bound_to 10162
  155.9985  130.4885  150.5223 H   0  0  0  0  0  0  0  0  0  0  0  0  # atno 10718 bound_to 10713
  153.1152  135.6706  153.9430 H   0  0  0  0  0  0  0  0  0  0  0  0  # atno 10763 bound_to 10752
  153.8961  135.3041  155.3449 H   0  0  0  0  0  0  0  0  0  0  0  0  # atno 10764 bound_to 10752
  154.7569  135.5007  153.9470 H   0  0  0  0  0  0  0  0  0  0  0  0  # atno 10765 bound_to 10752
  141.0053  134.0343  157.3484 H   0  0  0  0  0  0  0  0  0  0  0  0  # atno 11005 bound_to 11000
  144.8855  139.4845  143.6702 LP  0  0  0  0  0  0  0  0  0  0  0  0  # atno 17320 bound_to 7965
  146.3041  139.7522  142.9069 LP  0  0  0  0  0  0  0  0  0  0  0  0  # atno 17321 bound_to 7965
  140.6752  143.8204  150.7050 LP  0  0  0  0  0  0  0  0  0  0  0  0  # atno 17342 bound_to 10162
  140.1641  143.4250  152.2046 LP  0  0  0  0  0  0  0  0  0  0  0  0  # atno 17343 bound_to 10162
  157.3182  131.0677  151.1951 LP  0  0  0  0  0  0  0  0  0  0  0  0  # atno 17370 bound_to 10713
  157.2873  130.6779  149.6096 LP  0  0  0  0  0  0  0  0  0  0  0  0  # atno 17371 bound_to 10713
  139.9060  135.0179  156.7488 LP  0  0  0  0  0  0  0  0  0  0  0  0  # atno 17394 bound_to 11000
  140.6822  133.9464  155.7917 LP  0  0  0  0  0  0  0  0  0  0  0  0  # atno 17395 bound_to 11000

$$$$
