AV-unprocessed.smi:287|AV-procd|sdf|2201|dock5
  -GOLD-   2262022 13D 1   1.00000     0.00000
 Structure written by MMmdl.
 55 58  0  0  0  0  0  0  0  0  1 V2000
  153.5974  141.3603  161.2340 C   0  0  0  0  0  0  0  0  0  0  0  0
  152.7808  141.5416  160.0008 C   0  0  0  0  0  0  0  0  0  0  0  0
  152.0791  140.6893  159.1991 C   0  0  0  0  0  0  0  0  0  0  0  0
  151.5010  141.4675  158.1520 C   0  0  0  0  0  0  0  0  0  0  0  0
  150.6302  140.9352  157.0218 C   0  0  1  0  0  0  0  0  0  0  0  0
  149.2521  141.6165  157.0604 C   0  0  0  0  0  0  0  0  0  0  0  0
  151.1539  141.2241  155.7398 O   0  0  0  0  0  0  0  0  0  0  0  0
  150.4644  139.3996  157.0813 C   0  0  0  0  0  0  0  0  0  0  0  0
  149.5388  138.9688  158.1213 N   0  0  0  0  0  0  0  0  0  0  0  0
  148.3756  138.3593  157.8107 C   0  0  0  0  0  0  0  0  0  0  0  0
  147.5423  138.1334  158.8540 N   0  0  0  0  0  0  0  0  0  0  0  0
  146.3629  137.5397  158.6552 C   0  0  0  0  0  0  0  0  0  0  0  0
  145.8333  137.1011  157.5126 N   0  0  0  0  0  0  0  0  0  0  0  0
  146.6663  137.3206  156.4545 C   0  0  0  0  0  0  0  0  0  0  0  0
  147.9484  137.9402  156.5151 C   0  0  0  0  0  0  0  0  0  0  0  0
  148.4942  137.9862  155.2362 N   0  0  0  0  0  0  0  0  0  0  0  0
  147.5899  137.4323  154.4758 C   0  0  0  0  0  0  0  0  0  0  0  0
  146.4589  136.9982  155.1279 N   0  0  0  0  0  0  0  0  0  0  0  0
  145.2622  136.3262  154.5287 C   0  0  2  0  0  0  0  0  0  0  0  0
  145.7032  135.2745  153.7294 O   0  0  0  0  0  0  0  0  0  0  0  0
  144.8387  135.1502  152.6070 C   0  0  2  0  0  0  0  0  0  0  0  0
  145.5023  134.3354  151.4825 C   0  0  0  0  0  0  0  0  0  0  0  0
  144.9629  134.7067  150.2319 O   0  0  0  0  0  0  0  0  0  0  0  0
  144.5038  136.6089  152.2625 C   0  0  2  0  0  0  0  0  0  0  0  0
  145.5074  137.1836  151.4428 O   0  0  0  0  0  0  0  0  0  0  0  0
  144.4165  137.2645  153.6407 C   0  0  2  0  0  0  0  0  0  0  0  0
  144.7954  138.6316  153.6503 O   0  0  0  0  0  0  0  0  0  0  0  0
  151.8985  142.7570  158.4134 C   0  0  0  0  0  0  0  0  0  0  0  0
  151.6595  144.0727  157.7483 C   0  0  0  0  0  0  0  0  0  0  0  0
  152.6766  142.8097  159.5305 O   0  0  0  0  0  0  0  0  0  0  0  0
  144.7040  135.9409  155.3832 H   0  0  0  0  0  0  0  0  0  0  0  0
  143.9191  134.6597  152.9331 H   0  0  0  0  0  0  0  0  0  0  0  0
  143.5577  136.6815  151.7254 H   0  0  0  0  0  0  0  0  0  0  0  0
  143.3891  137.1970  154.0004 H   0  0  0  0  0  0  0  0  0  0  0  0
  153.7785  140.3031  161.4287 H   0  0  0  0  0  0  0  0  0  0  0  0
  153.0867  141.7814  162.1002 H   0  0  0  0  0  0  0  0  0  0  0  0
  154.5637  141.8554  161.1358 H   0  0  0  0  0  0  0  0  0  0  0  0
  151.9924  139.6226  159.3440 H   0  0  0  0  0  0  0  0  0  0  0  0
  148.7402  141.4212  158.0033 H   0  0  0  0  0  0  0  0  0  0  0  0
  148.6057  141.2576  156.2584 H   0  0  0  0  0  0  0  0  0  0  0  0
  149.3411  142.6985  156.9543 H   0  0  0  0  0  0  0  0  0  0  0  0
  151.4929  142.1060  155.7460 H   0  0  0  0  0  0  0  0  0  0  0  0
  150.0560  139.0609  156.1282 H   0  0  0  0  0  0  0  0  0  0  0  0
  151.4312  138.9098  157.2054 H   0  0  0  0  0  0  0  0  0  0  0  0
  149.8109  139.1936  159.0676 H   0  0  0  0  0  0  0  0  0  0  0  0
  145.7569  137.3946  159.5373 H   0  0  0  0  0  0  0  0  0  0  0  0
  147.7270  137.3209  153.4100 H   0  0  0  0  0  0  0  0  0  0  0  0
  146.5722  134.5427  151.4494 H   0  0  0  0  0  0  0  0  0  0  0  0
  145.3821  133.2634  151.6432 H   0  0  0  0  0  0  0  0  0  0  0  0
  145.6453  134.6452  149.5808 H   0  0  0  0  0  0  0  0  0  0  0  0
  145.1254  137.9082  150.9693 H   0  0  0  0  0  0  0  0  0  0  0  0
  144.2164  139.1080  153.0752 H   0  0  0  0  0  0  0  0  0  0  0  0
  150.5915  144.2653  157.6456 H   0  0  0  0  0  0  0  0  0  0  0  0
  152.1049  144.0889  156.7535 H   0  0  0  0  0  0  0  0  0  0  0  0
  152.0926  144.8914  158.3237 H   0  0  0  0  0  0  0  0  0  0  0  0
  1  2  1  0  0  0  0
  1 35  1  0  0  0  0
  1 36  1  0  0  0  0
  1 37  1  0  0  0  0
  2 30  1  0  0  0  0
  2  3  2  0  0  0  0
  3  4  1  0  0  0  0
  3 38  1  0  0  0  0
  4  5  1  0  0  0  0
  4 28  2  0  0  0  0
  5  6  1  0  0  0  0
  5  7  1  0  0  0  0
  5  8  1  0  0  0  0
  6 39  1  0  0  0  0
  6 40  1  0  0  0  0
  6 41  1  0  0  0  0
  7 42  1  0  0  0  0
  8  9  1  0  0  0  0
  8 43  1  0  0  0  0
  8 44  1  0  0  0  0
  9 10  1  0  0  0  0
  9 45  1  0  0  0  0
 10 15  1  0  0  0  0
 10 11  2  0  0  0  0
 11 12  1  0  0  0  0
 12 13  2  0  0  0  0
 12 46  1  0  0  0  0
 13 14  1  0  0  0  0
 14 18  1  0  0  0  0
 14 15  2  0  0  0  0
 15 16  1  0  0  0  0
 16 17  2  0  0  0  0
 17 18  1  0  0  0  0
 17 47  1  0  0  0  0
 18 19  1  0  0  0  0
 19 31  1  0  0  0  0
 19 26  1  0  0  0  0
 19 20  1  0  0  0  0
 20 21  1  0  0  0  0
 21 32  1  0  0  0  0
 21 22  1  0  0  0  0
 21 24  1  0  0  0  0
 22 23  1  0  0  0  0
 22 48  1  0  0  0  0
 22 49  1  0  0  0  0
 23 50  1  0  0  0  0
 24 33  1  0  0  0  0
 24 25  1  0  0  0  0
 24 26  1  0  0  0  0
 25 51  1  0  0  0  0
 26 34  1  0  0  0  0
 26 27  1  0  0  0  0
 27 52  1  0  0  0  0
 28 29  1  0  0  0  0
 28 30  1  0  0  0  0
 29 53  1  0  0  0  0
 29 54  1  0  0  0  0
 29 55  1  0  0  0  0
M  END
> <s_m_source_file>
AV-unprocessed.smi

> <i_m_source_file_index>
287

> <i_lp_mmshare_version>
43012

> <i_f3d_flags>
0

> <s_epik_input>
W0NIM11jMVtjSF1jKGMobzEpW0NIM10pW0NAQF0oW0NIM10pKFtPSF0pW0NIMl1bTkhdYyhuW2NIXW4yKWMoYzIzKW5bY0hdbjNbQ0BASF00T1tDQEhdKFtDSDJdW09IXSlbQ0BASF0oW09IXSlbQ0BIXTRbT0hd

> <s_epik_cmdline>
J2VwaWtfcHl0aG9uJywgJy1waCcsICc3LjAnLCAnLXRuJywgJzgnLCAnLW1hJywgJzIwMCcsICctbWV0YWxfYmluZGluZycsICctaW1hZScsICc8aW5maWxlLm1hZT4nLCAnLW9tYWUnLCAnPG91dGZpbGUubWFlPic=

> <r_lp_tautomer_probability>
1

> <r_epik_Ionization_Penalty>
0.000992612

> <r_epik_Ionization_Penalty_Charging>
0

> <r_epik_Ionization_Penalty_Neutral>
0.000992612

> <r_epik_State_Penalty>
-0

> <r_epik_Charging_Adjusted_Penalty>
0

> <i_epik_Tot_Q>
0

> <i_epik_Tot_abs_Q>
0

> <r_epik_Metal_State_Penalty>
-0

> <b_epik_Metal_Only>
0

> <s_epik_Chemistry_Notes>
This compound contains an acetal/aminal-like group ( X-CH(R)-Y where X, Y are N, S, or O) that may be acid/base labile, releasing an aldehyde.

> <s_lp_Force_Field>
OPLS_2005

> <r_lp_Energy>
50.9422

> <b_lp_Chiralities_Consistent>
1

> <s_lp_Variant>
AV-unprocessed.smi:287-25

> <Gold.Version>
5.8.1

> <Gold.Id.Protein>
6NUR|6NUR_protein|mol2

> <Gold.PLP.Fitness>
46.3384

> <Gold.PLP.PLP>
-34.6661

> <Gold.PLP.part.hbond>
-4.6387

> <Gold.PLP.part.metal>
0.0000

> <Gold.PLP.part.buried>
-4.9850

> <Gold.PLP.part.nonpolar>
-25.2656

> <Gold.PLP.part.repulsive>
0.2958

> <Gold.PLP.ligand.clash>
0.0000

> <Gold.PLP.ligand.torsion>
0.6885

> <Gold.PLP.Chemscore.Hbond>
3.2846

> <Gold.PLP.Chemscore.CHOScore>
1.0000

> <Gold.PLP.Chemscore.Metal>
0.0000

> <Gold.Chemscore.Hbonds>
donor molecule, donor type, donor heavy atom, donor atom, acceptor molecule, acceptor atom, score
      L1  H    23    50       P1  7921  0.94
      L1  H    25    51       P1 10171  1.00
      L1  H    27    52       P1 10175  1.00
      P1  H  6934  6947       L1    11  0.16
      P1  H  7989  7998       L1     7  0.12
      L1  C    17    47       P1  7948  1.00

> <Gold.PLP.Chemscore.Internal.Correction>
0.1953

> <Gold.Rescore>
     Score         DG    S(hbond)    S(metal)    S(lipo)     H(rot)  DE(clash)    DE(int)     intcor
      9.74     -11.34       2.89        0.00      82.74       5.27       0.23       1.36       ----

> <Gold.Chemscore.Fitness>
9.7408

> <Gold.Chemscore.DG>
-11.3370

> <Gold.Chemscore.ZeroCoef>
-5.4800

> <Gold.Chemscore.Hbond>
2.8925

> <Gold.Chemscore.Metal>
0.0000

> <Gold.Chemscore.Lipo>
82.7354

> <Gold.Chemscore.Internal_Hbond>
0.0000

> <Gold.Chemscore.DEClash>
0.2320

> <Gold.Chemscore.DEInternal>
1.3642

> <Gold.Chemscore.Rot>
5.2672

> <Gold.Chemscore.Internal.Correction>
   9.000000E+99

> <Gold.Chemscore.Hbonds>
donor molecule, donor type, donor heavy atom, donor atom, acceptor molecule, acceptor atom, score
      L1  H    23    50       P1  7921  0.80
      L1  H    25    51       P1 10171  0.95
      L1  H    27    52       P1 10175  0.93
      P1  H  6934  6947       L1    11  0.04
      P1  H  7989  7998       L1     7  0.01

> <Gold.Chemscore.Hbond.Weighted>
-9.6609

> <Gold.Chemscore.Metal.Weighted>
-0.0000

> <Gold.Chemscore.Lipo.Weighted>
-9.6800

> <Gold.Chemscore.Internal_Hbond.Weighted>
0.0000

> <Gold.Chemscore.DEClash.Weighted>
0.2320

> <Gold.Chemscore.DEInternal.Weighted>
1.3642

> <Gold.Chemscore.Rot.Weighted>
13.4839

> <Gold.Chemscore.Internal.Correction.Weighted>
   9.000000E+99

> <Gold.Protein.RotatedTorsions>
[ 6907 6896 6895 6894 ] final   10.00 input  -60.11 | X-H torsion
[ 7974 7965 7964 7962 ] final   29.55 input  175.53 | X-H torsion
[ 8008 7997 7996 7995 ] final -169.66 input   59.86 | X-H torsion
[ 10167 10162 10161 10158 ] final -170.37 input  -65.29 | X-H torsion
[ 10718 10713 10712 10709 ] final -119.01 input   66.30 | X-H torsion
[ 10763 10752 10751 10750 ] final   77.12 input  -60.55 | X-H torsion
[ 11005 11000 10999 10996 ] final -159.13 input  -57.11 | X-H torsion

> <Gold.Protein.ActiveResidues>
 VAL166  LYS551  ARG553  GLY616  TRP617  ASP618  TYR619  PRO620  LYS621  CYS622 
 ASP623  PHE694  ASN695  SER759  ASP760  ASP761  ALA762  ILE779  LEU786  VAL792 
 PHE793  MET794  SER795  GLU796  ALA797  LYS798  CYS799  TRP800  GLU811  SER814 

> <Gold.Protein.RotatedAtoms>
  151.7312  135.0874  160.0300 H   0  0  0  0  0  0  0  0  0  0  0  0  # atno 6907 bound_to 6896
  152.3540  133.6210  159.5974 H   0  0  0  0  0  0  0  0  0  0  0  0  # atno 6908 bound_to 6896
  150.7558  133.9446  159.3508 H   0  0  0  0  0  0  0  0  0  0  0  0  # atno 6909 bound_to 6896
  146.1665  139.6907  142.8997 H   0  0  0  0  0  0  0  0  0  0  0  0  # atno 7974 bound_to 7965
  155.9079  140.1052  157.1301 H   0  0  0  0  0  0  0  0  0  0  0  0  # atno 8008 bound_to 7997
  154.4035  140.1280  156.4584 H   0  0  0  0  0  0  0  0  0  0  0  0  # atno 8009 bound_to 7997
  155.7345  140.3468  155.5077 H   0  0  0  0  0  0  0  0  0  0  0  0  # atno 8010 bound_to 7997
  139.5866  144.1305  152.1583 H   0  0  0  0  0  0  0  0  0  0  0  0  # atno 10167 bound_to 10162
  156.1148  130.6277  150.9362 H   0  0  0  0  0  0  0  0  0  0  0  0  # atno 10718 bound_to 10713
  153.0775  135.4926  154.8434 H   0  0  0  0  0  0  0  0  0  0  0  0  # atno 10763 bound_to 10752
  154.7106  135.3019  154.9204 H   0  0  0  0  0  0  0  0  0  0  0  0  # atno 10764 bound_to 10752
  153.9899  135.6779  153.4806 H   0  0  0  0  0  0  0  0  0  0  0  0  # atno 10765 bound_to 10752
  140.6459  134.4502  157.5234 H   0  0  0  0  0  0  0  0  0  0  0  0  # atno 11005 bound_to 11000
  145.4454  141.0425  143.2834 LP  0  0  0  0  0  0  0  0  0  0  0  0  # atno 17320 bound_to 7965
  144.8100  139.5981  143.7034 LP  0  0  0  0  0  0  0  0  0  0  0  0  # atno 17321 bound_to 7965
  140.0870  144.5653  150.7082 LP  0  0  0  0  0  0  0  0  0  0  0  0  # atno 17342 bound_to 10162
  140.7137  143.2526  151.4502 LP  0  0  0  0  0  0  0  0  0  0  0  0  # atno 17343 bound_to 10162
  157.6331  131.0919  150.8401 LP  0  0  0  0  0  0  0  0  0  0  0  0  # atno 17370 bound_to 10713
  156.8506  130.5079  149.5312 LP  0  0  0  0  0  0  0  0  0  0  0  0  # atno 17371 bound_to 10713
  139.9063  134.8442  156.1694 LP  0  0  0  0  0  0  0  0  0  0  0  0  # atno 17394 bound_to 11000
  141.0572  133.6859  156.1883 LP  0  0  0  0  0  0  0  0  0  0  0  0  # atno 17395 bound_to 11000

$$$$
