#       Name:                AV-unprocessed.smi:3270
#       Creating user name   scv26
#       Creation time:       Fri Mar 27 18:42:34 2020


#       File generated by GOLD software.
#

@<TRIPOS>MOLECULE
AV-unprocessed.smi:3270
    44    45     1
SMALL
NO_CHARGES


@<TRIPOS>ATOM
      1 ****        -3.8810  -1.9053   0.2765 C.3            1 S1                 0.0000
      2 ****        -3.1192  -0.8699  -0.5758 C.3            1 S1                 0.0000
      3 ****        -1.6088  -0.8542  -0.2872 C.2            1 S1                 0.0000
      4 ****        -1.0528  -1.8289   0.2208 O.2            1 S1                 0.0000
      5 ****        -0.9514   0.2697  -0.6155 N.am           1 S1                 0.0000
      6 ****         0.4813   0.4785  -0.4434 C.3            1 S1                 0.0000
      7 ****         0.8370   0.7849   1.0244 C.3            1 S1                 0.0000
      8 ****         2.2865   1.0406   1.2153 N.4            1 S1                 1.0000
      9 ****         2.5656   1.8018   2.4566 C.3            1 S1                 0.0000
     10 ****         4.0717   2.0835   2.5914 C.3            1 S1                 0.0000
     11 ****         4.7900   0.8567   2.5682 O.3            1 S1                 0.0000
     12 ****         4.6048   0.1563   1.3446 C.3            1 S1                 0.0000
     13 ****         3.1165  -0.1895   1.1661 C.3            1 S1                 0.0000
     14 ****        -3.3645  -1.0489  -2.0023 N.pl3          1 S1                 0.0000
     15 ****        -3.7279  -0.0913  -2.9278 C.2            1 S1                 0.0000
     16 ****        -3.8146  -0.7065  -4.1436 C.2            1 S1                 0.0000
     17 ****        -3.4726  -2.0584  -3.8631 C.2            1 S1                 0.0000
     18 ****        -3.1971  -2.2591  -2.5850 N.2            1 S1                 0.0000
     19 ****        -3.7333  -1.7227   1.3416 H              1 S1                 0.0000
     20 ****        -3.5579  -2.9263   0.0687 H              1 S1                 0.0000
     21 ****        -4.9527  -1.8535   0.0828 H              1 S1                 0.0000
     22 ****        -3.5069   0.1136  -0.3047 H              1 S1                 0.0000
     23 ****        -1.4788   1.0242  -1.0306 H              1 S1                 0.0000
     24 ****         1.0144  -0.3992  -0.8103 H              1 S1                 0.0000
     25 ****         0.7806   1.3117  -1.0797 H              1 S1                 0.0000
     26 ****         0.2753   1.6690   1.3303 H              1 S1                 0.0000
     27 ****         0.5204  -0.0240   1.6849 H              1 S1                 0.0000
     28 ****         2.0181   2.7451   2.4446 H              1 S1                 0.0000
     29 ****         2.2125   1.2362   3.3206 H              1 S1                 0.0000
     30 ****         4.4195   2.7390   1.7912 H              1 S1                 0.0000
     31 ****         4.2755   2.5944   3.5326 H              1 S1                 0.0000
     32 ****         4.9693   0.7559   0.5087 H              1 S1                 0.0000
     33 ****         5.2022  -0.7556   1.3660 H              1 S1                 0.0000
     34 ****         2.7991  -0.8777   1.9514 H              1 S1                 0.0000
     35 ****         2.9812  -0.7060   0.2165 H              1 S1                 0.0000
     36 ****        -3.8936   0.9385  -2.6471 H              1 S1                 0.0000
     37 ****        -4.0788  -0.2588  -5.0901 H              1 S1                 0.0000
     38 ****        -3.4126  -2.8931  -4.5459 H              1 S1                 0.0000
     39 ****         2.5814   1.6297   0.4495 H              1 S1                 0.0000
     40 ****        -1.5843  -2.6440   0.4509 LP             1 S1                 0.0000
     41 ****        -0.0698  -1.8051   0.4030 LP             1 S1                 0.0000
     42 ****         4.4714   0.2813   3.3214 LP             1 S1                 0.0000
     43 ****         5.7641   1.0502   2.6856 LP             1 S1                 0.0000
     44 ****        -2.9252  -3.1156  -2.1463 LP             1 S1                 0.0000
@<TRIPOS>BOND
    1    1    2 1     
    2    1   19 1     
    3    1   20 1     
    4    1   21 1     
    5    2    3 1     
    6    2   14 1     
    7    2   22 1     
    8    3    4 2     
    9    3    5 am    
   10    5    6 1     
   11    5   23 1     
   12    6    7 1     
   13    6   24 1     
   14    6   25 1     
   15    7    8 1     
   16    7   26 1     
   17    7   27 1     
   18    8   13 1     
   19    8    9 1     
   20    8   39 1     
   21    9   10 1     
   22    9   28 1     
   23    9   29 1     
   24   10   11 1     
   25   10   30 1     
   26   10   31 1     
   27   11   12 1     
   28   12   13 1     
   29   12   32 1     
   30   12   33 1     
   31   13   34 1     
   32   13   35 1     
   33   14   18 1     
   34   14   15 1     
   35   15   16 2     
   36   15   36 1     
   37   16   17 1     
   38   16   37 1     
   39   17   18 2     
   40   17   38 1     
   41    4   40 1     
   42    4   41 1     
   43   11   42 1     
   44   11   43 1     
   45   18   44 1     
@<TRIPOS>SUBSTRUCTURE
      1 S1             1
@<TRIPOS>SET
LONE_PAIRS      STATIC     ATOMS    <user>   **** ""
5 40 41 42 43 44
DONOR_HYDROGENS      STATIC     ATOMS    <user>   **** ""
2 23 39
ATOM$BLUE        STATIC     ATOMS    COLORGROUP SYSTEM
5 40 41 42 43 44
ATOM$RED        STATIC     ATOMS    COLORGROUP SYSTEM
2 23 39
