AV-unprocessed.smi:2340|AV-procd|sdf|9347|dock2
  -GOLD-   2272012563D 1   1.00000     0.00000
 Structure written by MMmdl.
 40 41  0  0  0  0  0  0  0  0  1 V2000
  154.2006  140.6146  161.8509 C   0  0  0  0  0  0  0  0  0  0  0  0
  153.4163  141.8220  161.4452 C   0  0  0  0  0  0  0  0  0  0  0  0
  153.0408  142.8721  162.2452 C   0  0  0  0  0  0  0  0  0  0  0  0
  152.1175  144.0595  161.3666 S   0  0  0  0  0  0  0  0  0  0  0  0
  152.2791  143.0708  159.9189 C   0  0  0  0  0  0  0  0  0  0  0  0
  151.6550  143.4312  158.6047 C   0  0  1  0  0  0  0  0  0  0  0  0
  152.4683  144.4962  157.8551 C   0  0  0  0  0  0  0  0  0  0  0  0
  151.3238  142.2025  157.7298 C   0  0  0  0  0  0  0  0  0  0  0  0
  150.4163  142.5319  156.6317 N   0  0  0  0  0  0  0  0  0  0  0  0
  149.7217  141.6467  155.9021 C   0  0  0  0  0  0  0  0  0  0  0  0
  149.7963  140.4258  156.0389 O   0  0  0  0  0  0  0  0  0  0  0  0
  148.9260  142.2549  155.0117 N   0  0  0  0  0  0  0  0  0  0  0  0
  148.0064  141.5760  154.0981 C   0  0  1  0  0  0  0  0  0  0  0  0
  148.6454  140.3046  153.5415 C   0  0  0  0  0  0  0  0  0  0  0  0
  147.5842  139.2303  153.7539 C   0  0  0  0  0  0  0  0  0  0  0  0
  146.9016  139.6719  154.9139 O   0  0  0  0  0  0  0  0  0  0  0  0
  146.7121  141.0728  154.7787 C   0  0  1  0  0  0  0  0  0  0  0  0
  146.3351  141.6876  156.1363 C   0  0  0  0  0  0  0  0  0  0  0  0
  152.9843  141.9540  160.1232 N   0  0  0  0  0  0  0  0  0  0  0  0
  154.4791  140.6543  162.9043 H   0  0  0  0  0  0  0  0  0  0  0  0
  155.1186  140.5276  161.2696 H   0  0  0  0  0  0  0  0  0  0  0  0
  153.6229  139.7028  161.6977 H   0  0  0  0  0  0  0  0  0  0  0  0
  153.2456  143.0166  163.2955 H   0  0  0  0  0  0  0  0  0  0  0  0
  150.6998  143.8997  158.8457 H   0  0  0  0  0  0  0  0  0  0  0  0
  152.6005  145.3907  158.4649 H   0  0  0  0  0  0  0  0  0  0  0  0
  151.9678  144.7956  156.9339 H   0  0  0  0  0  0  0  0  0  0  0  0
  153.4582  144.1245  157.5890 H   0  0  0  0  0  0  0  0  0  0  0  0
  152.2404  141.7987  157.2991 H   0  0  0  0  0  0  0  0  0  0  0  0
  150.9054  141.4066  158.3486 H   0  0  0  0  0  0  0  0  0  0  0  0
  150.2850  143.5130  156.4339 H   0  0  0  0  0  0  0  0  0  0  0  0
  148.9411  143.2634  154.9718 H   0  0  0  0  0  0  0  0  0  0  0  0
  147.7407  142.2373  153.2712 H   0  0  0  0  0  0  0  0  0  0  0  0
  148.9306  140.4007  152.4936 H   0  0  0  0  0  0  0  0  0  0  0  0
  149.5420  140.0387  154.1035 H   0  0  0  0  0  0  0  0  0  0  0  0
  146.8902  139.1957  152.9127 H   0  0  0  0  0  0  0  0  0  0  0  0
  148.0110  138.2363  153.8893 H   0  0  0  0  0  0  0  0  0  0  0  0
  145.8802  141.2218  154.0878 H   0  0  0  0  0  0  0  0  0  0  0  0
  146.1980  142.7661  156.0550 H   0  0  0  0  0  0  0  0  0  0  0  0
  147.0991  141.4974  156.8905 H   0  0  0  0  0  0  0  0  0  0  0  0
  145.4007  141.2634  156.5041 H   0  0  0  0  0  0  0  0  0  0  0  0
  1  2  1  0  0  0  0
  1 20  1  0  0  0  0
  1 21  1  0  0  0  0
  1 22  1  0  0  0  0
  2 19  1  0  0  0  0
  2  3  2  0  0  0  0
  3  4  1  0  0  0  0
  3 23  1  0  0  0  0
  4  5  1  0  0  0  0
  5  6  1  0  0  0  0
  5 19  2  0  0  0  0
  6  7  1  0  0  0  0
  6  8  1  0  0  0  0
  6 24  1  0  0  0  0
  7 25  1  0  0  0  0
  7 26  1  0  0  0  0
  7 27  1  0  0  0  0
  8  9  1  0  0  0  0
  8 28  1  0  0  0  0
  8 29  1  0  0  0  0
  9 10  1  0  0  0  0
  9 30  1  0  0  0  0
 10 11  2  0  0  0  0
 10 12  1  0  0  0  0
 12 13  1  0  0  0  0
 12 31  1  0  0  0  0
 13 17  1  0  0  0  0
 13 14  1  0  0  0  0
 13 32  1  0  0  0  0
 14 15  1  0  0  0  0
 14 33  1  0  0  0  0
 14 34  1  0  0  0  0
 15 16  1  0  0  0  0
 15 35  1  0  0  0  0
 15 36  1  0  0  0  0
 16 17  1  0  0  0  0
 17 18  1  0  0  0  0
 17 37  1  0  0  0  0
 18 38  1  0  0  0  0
 18 39  1  0  0  0  0
 18 40  1  0  0  0  0
M  END
> <s_m_source_file>
AV-unprocessed.smi

> <i_m_source_file_index>
2340

> <i_lp_mmshare_version>
43012

> <i_f3d_flags>
0

> <s_epik_input>
W0NIM11jMVtjSF1zYyhuMSlbQ0BIXShbQ0gzXSlbQ0gyXVtOSF1DKD1PKVtOSF1bQ0BASF0yW0NIMl1bQ0gyXU9bQ0BIXTJbQ0gzXQ==

> <s_epik_cmdline>
J2VwaWtfcHl0aG9uJywgJy1waCcsICc3LjAnLCAnLXRuJywgJzgnLCAnLW1hJywgJzIwMCcsICctbWV0YWxfYmluZGluZycsICctaW1hZScsICc8aW5maWxlLm1hZT4nLCAnLW9tYWUnLCAnPG91dGZpbGUubWFlPic=

> <r_epik_Ionization_Penalty>
0.00156622

> <r_epik_Ionization_Penalty_Charging>
0

> <r_epik_Ionization_Penalty_Neutral>
0.00156622

> <r_epik_State_Penalty>
0.00101902

> <r_epik_Charging_Adjusted_Penalty>
0.00101902

> <i_epik_Tot_Q>
0

> <i_epik_Tot_abs_Q>
0

> <r_epik_Metal_State_Penalty>
-0

> <b_epik_Metal_Only>
0

> <s_lp_Force_Field>
OPLS_2005

> <r_lp_Energy>
5.75985

> <b_lp_Chiralities_Consistent>
1

> <s_lp_Variant>
AV-unprocessed.smi:2340-4

> <Gold.Version>
5.8.1

> <Gold.Id.Protein>
6NUR|6NUR_protein|mol2

> <Gold.PLP.Fitness>
44.9729

> <Gold.PLP.PLP>
-41.5167

> <Gold.PLP.part.hbond>
-1.8626

> <Gold.PLP.part.metal>
0.0000

> <Gold.PLP.part.buried>
-2.0997

> <Gold.PLP.part.nonpolar>
-37.9716

> <Gold.PLP.part.repulsive>
0.3684

> <Gold.PLP.ligand.clash>
0.0000

> <Gold.PLP.ligand.torsion>
1.0357

> <Gold.PLP.Chemscore.Hbond>
1.8000

> <Gold.PLP.Chemscore.CHOScore>
0.0000

> <Gold.PLP.Chemscore.Metal>
0.0000

> <Gold.Chemscore.Hbonds>
donor molecule, donor type, donor heavy atom, donor atom, acceptor molecule, acceptor atom, score
      L1  H     9    30       P1  8028  0.80
      L1  H    12    31       P1  8028  1.00

> <Gold.PLP.Chemscore.Internal.Correction>
0.1277

> <Gold.Rescore>
     Score         DG    S(hbond)    S(metal)    S(lipo)     H(rot)  DE(clash)    DE(int)     intcor
     18.08     -21.60       1.86        0.00     118.10       1.53       1.65       1.86       ----

> <Gold.Chemscore.Fitness>
18.0833

> <Gold.Chemscore.DG>
-21.5966

> <Gold.Chemscore.ZeroCoef>
-5.4800

> <Gold.Chemscore.Hbond>
1.8629

> <Gold.Chemscore.Metal>
0.0000

> <Gold.Chemscore.Lipo>
118.1003

> <Gold.Chemscore.Internal_Hbond>
0.0000

> <Gold.Chemscore.DEClash>
1.6492

> <Gold.Chemscore.DEInternal>
1.8641

> <Gold.Chemscore.Rot>
1.5325

> <Gold.Chemscore.Internal.Correction>
   9.000000E+99

> <Gold.Chemscore.Hbonds>
donor molecule, donor type, donor heavy atom, donor atom, acceptor molecule, acceptor atom, score
      L1  H     9    30       P1  8028  0.77
      L1  H    12    31       P1  8028  0.96

> <Gold.Chemscore.Hbond.Weighted>
-6.2222

> <Gold.Chemscore.Metal.Weighted>
-0.0000

> <Gold.Chemscore.Lipo.Weighted>
-13.8177

> <Gold.Chemscore.Internal_Hbond.Weighted>
0.0000

> <Gold.Chemscore.DEClash.Weighted>
1.6492

> <Gold.Chemscore.DEInternal.Weighted>
1.8641

> <Gold.Chemscore.Rot.Weighted>
3.9233

> <Gold.Chemscore.Internal.Correction.Weighted>
   9.000000E+99

> <Gold.Protein.RotatedTorsions>
[ 6907 6896 6895 6894 ] final   96.67 input  -60.11 | X-H torsion
[ 7974 7965 7964 7962 ] final  -65.03 input  175.53 | X-H torsion
[ 8008 7997 7996 7995 ] final  114.33 input   59.86 | X-H torsion
[ 10167 10162 10161 10158 ] final -152.40 input  -65.29 | X-H torsion
[ 10718 10713 10712 10709 ] final  -74.09 input   66.30 | X-H torsion
[ 10763 10752 10751 10750 ] final -174.47 input  -60.55 | X-H torsion
[ 11005 11000 10999 10996 ] final -106.76 input  -57.11 | X-H torsion

> <Gold.Protein.ActiveResidues>
 VAL166  LYS551  ARG553  GLY616  TRP617  ASP618  TYR619  PRO620  LYS621  CYS622 
 ASP623  PHE694  ASN695  SER759  ASP760  ASP761  ALA762  ILE779  LEU786  VAL792 
 PHE793  MET794  SER795  GLU796  ALA797  LYS798  CYS799  TRP800  GLU811  SER814 

> <Gold.Protein.RotatedAtoms>
  152.5432  134.0851  159.8251 H   0  0  0  0  0  0  0  0  0  0  0  0  # atno 6907 bound_to 6896
  151.0947  133.5281  159.2620 H   0  0  0  0  0  0  0  0  0  0  0  0  # atno 6908 bound_to 6896
  151.2059  135.0470  159.8945 H   0  0  0  0  0  0  0  0  0  0  0  0  # atno 6909 bound_to 6896
  145.7593  140.8869  143.0438 H   0  0  0  0  0  0  0  0  0  0  0  0  # atno 7974 bound_to 7965
  156.2314  140.2961  156.0199 H   0  0  0  0  0  0  0  0  0  0  0  0  # atno 8008 bound_to 7997
  155.2213  140.0416  157.2966 H   0  0  0  0  0  0  0  0  0  0  0  0  # atno 8009 bound_to 7997
  154.6003  140.2425  155.7809 H   0  0  0  0  0  0  0  0  0  0  0  0  # atno 8010 bound_to 7997
  139.7184  143.8996  152.2494 H   0  0  0  0  0  0  0  0  0  0  0  0  # atno 10167 bound_to 10162
  156.0255  130.4409  150.2840 H   0  0  0  0  0  0  0  0  0  0  0  0  # atno 10718 bound_to 10713
  154.5959  135.2849  155.0587 H   0  0  0  0  0  0  0  0  0  0  0  0  # atno 10763 bound_to 10752
  154.1870  135.6447  153.5053 H   0  0  0  0  0  0  0  0  0  0  0  0  # atno 10764 bound_to 10752
  153.0138  135.5437  154.6660 H   0  0  0  0  0  0  0  0  0  0  0  0  # atno 10765 bound_to 10752
  141.0988  133.8922  157.1895 H   0  0  0  0  0  0  0  0  0  0  0  0  # atno 11005 bound_to 11000
  144.6833  139.9701  143.7482 LP  0  0  0  0  0  0  0  0  0  0  0  0  # atno 17320 bound_to 7965
  146.0280  139.3309  143.0773 LP  0  0  0  0  0  0  0  0  0  0  0  0  # atno 17321 bound_to 7965
  139.8885  144.6979  150.8797 LP  0  0  0  0  0  0  0  0  0  0  0  0  # atno 17342 bound_to 10162
  140.7748  143.3605  151.1838 LP  0  0  0  0  0  0  0  0  0  0  0  0  # atno 17343 bound_to 10162
  157.0943  131.0178  151.3110 LP  0  0  0  0  0  0  0  0  0  0  0  0  # atno 17370 bound_to 10713
  157.4829  130.7776  149.7432 LP  0  0  0  0  0  0  0  0  0  0  0  0  # atno 17371 bound_to 10713
  139.9833  135.0091  156.9801 LP  0  0  0  0  0  0  0  0  0  0  0  0  # atno 17394 bound_to 11000
  140.5074  134.1037  155.7263 LP  0  0  0  0  0  0  0  0  0  0  0  0  # atno 17395 bound_to 11000

$$$$
