AV-unprocessed.smi:3192|AV-procd|sdf|12200|dock1
  -GOLD-   2272018 33D 1   1.00000     0.00000
 Structure written by MMmdl.
 34 35  0  0  0  0  0  0  0  0  1 V2000
  150.3616  135.4389  155.1228 C   0  0  0  0  0  0  0  0  0  0  0  0
  151.3938  136.3808  154.8904 O   0  0  0  0  0  0  0  0  0  0  0  0
  151.6209  137.2253  156.0067 C   0  0  0  0  0  0  0  0  0  0  0  0
  152.6807  138.2668  155.6373 C   0  0  0  0  0  0  0  0  0  0  0  0
  152.3868  139.4776  156.3272 O   0  0  0  0  0  0  0  0  0  0  0  0
  151.2965  140.2252  155.9249 C   0  0  0  0  0  0  0  0  0  0  0  0
  150.6481  139.8614  154.7897 N   0  0  0  0  0  0  0  0  0  0  0  0
  149.5843  140.5903  154.3955 C   0  0  0  0  0  0  0  0  0  0  0  0
  149.1121  141.7096  155.1050 C   0  0  0  0  0  0  0  0  0  0  0  0
  149.7825  142.0867  156.2831 C   0  0  0  0  0  0  0  0  0  0  0  0
  150.9022  141.3343  156.7104 C   0  0  0  0  0  0  0  0  0  0  0  0
  151.6272  141.6411  157.8724 N   0  0  0  0  0  0  0  0  0  0  0  0
  151.3027  142.8023  158.6876 C   0  0  0  0  0  0  0  0  0  0  0  0
  151.8028  144.1454  158.1372 C   0  0  0  0  0  0  0  0  0  0  0  0
  152.1434  144.5217  159.5846 C   0  0  0  0  0  0  0  0  0  0  0  0
  152.2481  143.0194  159.8753 C   0  0  0  0  0  0  0  0  0  0  0  0
  150.2304  134.8143  154.2394 H   0  0  0  0  0  0  0  0  0  0  0  0
  149.4124  135.9354  155.3285 H   0  0  0  0  0  0  0  0  0  0  0  0
  150.6057  134.7869  155.9625 H   0  0  0  0  0  0  0  0  0  0  0  0
  150.6899  137.7295  156.2700 H   0  0  0  0  0  0  0  0  0  0  0  0
  151.9392  136.6489  156.8769 H   0  0  0  0  0  0  0  0  0  0  0  0
  153.6759  137.8959  155.8885 H   0  0  0  0  0  0  0  0  0  0  0  0
  152.6489  138.4459  154.5613 H   0  0  0  0  0  0  0  0  0  0  0  0
  149.0943  140.2718  153.4874 H   0  0  0  0  0  0  0  0  0  0  0  0
  148.2553  142.2654  154.7541 H   0  0  0  0  0  0  0  0  0  0  0  0
  149.4287  142.9427  156.8377 H   0  0  0  0  0  0  0  0  0  0  0  0
  152.4464  141.0968  158.1039 H   0  0  0  0  0  0  0  0  0  0  0  0
  150.2562  142.8347  158.9956 H   0  0  0  0  0  0  0  0  0  0  0  0
  152.6900  144.0559  157.5070 H   0  0  0  0  0  0  0  0  0  0  0  0
  151.0356  144.7643  157.6713 H   0  0  0  0  0  0  0  0  0  0  0  0
  153.0735  145.0773  159.7067 H   0  0  0  0  0  0  0  0  0  0  0  0
  151.3131  144.9994  160.1074 H   0  0  0  0  0  0  0  0  0  0  0  0
  151.8484  142.7088  160.8410 H   0  0  0  0  0  0  0  0  0  0  0  0
  153.2552  142.6318  159.7096 H   0  0  0  0  0  0  0  0  0  0  0  0
  1  2  1  0  0  0  0
  1 17  1  0  0  0  0
  1 18  1  0  0  0  0
  1 19  1  0  0  0  0
  2  3  1  0  0  0  0
  3  4  1  0  0  0  0
  3 20  1  0  0  0  0
  3 21  1  0  0  0  0
  4  5  1  0  0  0  0
  4 22  1  0  0  0  0
  4 23  1  0  0  0  0
  5  6  1  0  0  0  0
  6 11  1  0  0  0  0
  6  7  2  0  0  0  0
  7  8  1  0  0  0  0
  8  9  2  0  0  0  0
  8 24  1  0  0  0  0
  9 10  1  0  0  0  0
  9 25  1  0  0  0  0
 10 11  2  0  0  0  0
 10 26  1  0  0  0  0
 11 12  1  0  0  0  0
 12 13  1  0  0  0  0
 12 27  1  0  0  0  0
 13 16  1  0  0  0  0
 13 14  1  0  0  0  0
 13 28  1  0  0  0  0
 14 15  1  0  0  0  0
 14 29  1  0  0  0  0
 14 30  1  0  0  0  0
 15 16  1  0  0  0  0
 15 31  1  0  0  0  0
 15 32  1  0  0  0  0
 16 33  1  0  0  0  0
 16 34  1  0  0  0  0
M  END
> <s_m_source_file>
AV-unprocessed.smi

> <i_m_source_file_index>
3192

> <i_lp_mmshare_version>
43012

> <i_f3d_flags>
0

> <s_epik_input>
W0NIM11PW0NIMl1bQ0gyXU9jMW5bY0hdW2NIXVtjSF1jMVtOSF1bQ0hdMltDSDJdW0NIMl1bQ0gyXTI=

> <s_epik_cmdline>
J2VwaWtfcHl0aG9uJywgJy1waCcsICc3LjAnLCAnLXRuJywgJzgnLCAnLW1hJywgJzIwMCcsICctbWV0YWxfYmluZGluZycsICctaW1hZScsICc8aW5maWxlLm1hZT4nLCAnLW9tYWUnLCAnPG91dGZpbGUubWFlPic=

> <r_lp_tautomer_probability>
1

> <r_epik_Ionization_Penalty>
0.000851536

> <r_epik_Ionization_Penalty_Charging>
0

> <r_epik_Ionization_Penalty_Neutral>
0.000851536

> <r_epik_State_Penalty>
0.000481084

> <r_epik_Charging_Adjusted_Penalty>
0.000481084

> <i_epik_Tot_Q>
0

> <i_epik_Tot_abs_Q>
0

> <r_epik_Metal_State_Penalty>
-0

> <b_epik_Metal_Only>
0

> <s_lp_Force_Field>
OPLS_2005

> <r_lp_Energy>
16.6159

> <b_lp_Chiralities_Consistent>
1

> <s_lp_Variant>
AV-unprocessed.smi:3192-1

> <Gold.Version>
5.8.1

> <Gold.Id.Protein>
6NUR|6NUR_protein|mol2

> <Gold.PLP.Fitness>
44.4822

> <Gold.PLP.PLP>
-34.8167

> <Gold.PLP.part.hbond>
-3.0000

> <Gold.PLP.part.metal>
0.0000

> <Gold.PLP.part.buried>
1.7343

> <Gold.PLP.part.nonpolar>
-33.1068

> <Gold.PLP.part.repulsive>
0.3000

> <Gold.PLP.ligand.clash>
0.0000

> <Gold.PLP.ligand.torsion>
0.4449

> <Gold.PLP.Chemscore.Hbond>
2.4000

> <Gold.PLP.Chemscore.CHOScore>
1.0000

> <Gold.PLP.Chemscore.Metal>
0.0000

> <Gold.Chemscore.Hbonds>
donor molecule, donor type, donor heavy atom, donor atom, acceptor molecule, acceptor atom, score
      P1  H  7989  7998       L1     7  0.30
      P1  H  7997  8010       L1     5  0.72
      P1  H 10752 10764       L1     2  1.00
      L1  C     8    24       P1  7957  1.00

> <Gold.PLP.Chemscore.Internal.Correction>
0.3554

> <Gold.Rescore>
     Score         DG    S(hbond)    S(metal)    S(lipo)     H(rot)  DE(clash)    DE(int)     intcor
     14.58     -15.90       1.13        0.00      92.82       1.64       0.80       0.53       ----

> <Gold.Chemscore.Fitness>
14.5755

> <Gold.Chemscore.DG>
-15.8999

> <Gold.Chemscore.ZeroCoef>
-5.4800

> <Gold.Chemscore.Hbond>
1.1276

> <Gold.Chemscore.Metal>
0.0000

> <Gold.Chemscore.Lipo>
92.8166

> <Gold.Chemscore.Internal_Hbond>
0.0000

> <Gold.Chemscore.DEClash>
0.7983

> <Gold.Chemscore.DEInternal>
0.5261

> <Gold.Chemscore.Rot>
1.6430

> <Gold.Chemscore.Internal.Correction>
   9.000000E+99

> <Gold.Chemscore.Hbonds>
donor molecule, donor type, donor heavy atom, donor atom, acceptor molecule, acceptor atom, score
      P1  H  7997  8010       L1     5  0.10
      P1  H 10752 10764       L1     2  0.39

> <Gold.Chemscore.Hbond.Weighted>
-3.7663

> <Gold.Chemscore.Metal.Weighted>
-0.0000

> <Gold.Chemscore.Lipo.Weighted>
-10.8595

> <Gold.Chemscore.Internal_Hbond.Weighted>
0.0000

> <Gold.Chemscore.DEClash.Weighted>
0.7983

> <Gold.Chemscore.DEInternal.Weighted>
0.5261

> <Gold.Chemscore.Rot.Weighted>
4.2060

> <Gold.Chemscore.Internal.Correction.Weighted>
   9.000000E+99

> <Gold.Protein.RotatedTorsions>
[ 6907 6896 6895 6894 ] final  -83.86 input  -60.11 | X-H torsion
[ 7974 7965 7964 7962 ] final   33.44 input  175.53 | X-H torsion
[ 8008 7997 7996 7995 ] final   65.01 input   59.86 | X-H torsion
[ 10167 10162 10161 10158 ] final  123.16 input  -65.29 | X-H torsion
[ 10718 10713 10712 10709 ] final -112.95 input   66.30 | X-H torsion
[ 10763 10752 10751 10750 ] final  -59.37 input  -60.55 | X-H torsion
[ 11005 11000 10999 10996 ] final   97.40 input  -57.11 | X-H torsion

> <Gold.Protein.ActiveResidues>
 VAL166  LYS551  ARG553  GLY616  TRP617  ASP618  TYR619  PRO620  LYS621  CYS622 
 ASP623  PHE694  ASN695  SER759  ASP760  ASP761  ALA762  ILE779  LEU786  VAL792 
 PHE793  MET794  SER795  GLU796  ALA797  LYS798  CYS799  TRP800  GLU811  SER814 

> <Gold.Protein.RotatedAtoms>
  150.6881  134.3447  159.4882 H   0  0  0  0  0  0  0  0  0  0  0  0  # atno 6907 bound_to 6896
  152.1296  134.9142  160.0568 H   0  0  0  0  0  0  0  0  0  0  0  0  # atno 6908 bound_to 6896
  152.0317  133.3905  159.4337 H   0  0  0  0  0  0  0  0  0  0  0  0  # atno 6909 bound_to 6896
  146.1420  139.6396  142.9156 H   0  0  0  0  0  0  0  0  0  0  0  0  # atno 7974 bound_to 7965
  155.6550  140.3497  155.4762 H   0  0  0  0  0  0  0  0  0  0  0  0  # atno 8008 bound_to 7997
  155.9816  140.1175  157.0744 H   0  0  0  0  0  0  0  0  0  0  0  0  # atno 8009 bound_to 7997
  154.4193  140.1137  156.5430 H   0  0  0  0  0  0  0  0  0  0  0  0  # atno 8010 bound_to 7997
  139.5815  144.6988  151.3515 H   0  0  0  0  0  0  0  0  0  0  0  0  # atno 10167 bound_to 10162
  156.0737  130.5947  150.8578 H   0  0  0  0  0  0  0  0  0  0  0  0  # atno 10718 bound_to 10713
  154.2527  135.6323  153.5246 H   0  0  0  0  0  0  0  0  0  0  0  0  # atno 10763 bound_to 10752
  152.9909  135.5568  154.5790 H   0  0  0  0  0  0  0  0  0  0  0  0  # atno 10764 bound_to 10752
  154.5321  135.2889  155.1145 H   0  0  0  0  0  0  0  0  0  0  0  0  # atno 10765 bound_to 10752
  139.8776  134.8999  156.4301 H   0  0  0  0  0  0  0  0  0  0  0  0  # atno 11005 bound_to 11000
  145.5025  141.0437  143.2533 LP  0  0  0  0  0  0  0  0  0  0  0  0  # atno 17320 bound_to 7965
  144.7803  139.6540  143.7157 LP  0  0  0  0  0  0  0  0  0  0  0  0  # atno 17321 bound_to 7965
  140.7093  143.7432  150.7538 LP  0  0  0  0  0  0  0  0  0  0  0  0  # atno 17342 bound_to 10162
  140.0966  143.4827  152.2449 LP  0  0  0  0  0  0  0  0  0  0  0  0  # atno 17343 bound_to 10162
  157.5821  131.0946  150.9254 LP  0  0  0  0  0  0  0  0  0  0  0  0  # atno 17370 bound_to 10713
  156.9447  130.5398  149.5281 LP  0  0  0  0  0  0  0  0  0  0  0  0  # atno 17371 bound_to 10713
  140.9073  133.7737  155.9749 LP  0  0  0  0  0  0  0  0  0  0  0  0  # atno 17394 bound_to 11000
  140.8586  134.2868  157.5244 LP  0  0  0  0  0  0  0  0  0  0  0  0  # atno 17395 bound_to 11000

$$$$
