AV-unprocessed.smi:742|AV-procd|sdf|3558|dock4
  -GOLD-   22720 0553D 1   1.00000     0.00000
 Structure written by MMmdl.
 25 25  0  0  0  0  0  0  0  0  2 V2000
  147.3861  138.9032  152.0094 N   0  3  0  0  0  0  0  0  0  0  0  0
  147.2826  139.2298  153.4410 C   0  0  0  0  0  0  0  0  0  0  0  0
  148.6639  139.5154  154.0480 C   0  0  0  0  0  0  0  0  0  0  0  0
  149.5721  138.3909  153.8212 N   0  0  0  0  0  0  0  0  0  0  0  0
  150.5231  137.7123  155.0944 S   0  0  0  0  0  0  0  0  0  0  0  0
  149.7544  137.8240  156.3441 O   0  0  0  0  0  0  0  0  0  0  0  0
  150.9908  136.4009  154.6219 O   0  0  0  0  0  0  0  0  0  0  0  0
  151.9797  138.8478  155.1585 C   0  0  0  0  0  0  0  0  0  0  0  0
  151.9859  139.6408  156.4355 C   0  0  0  0  0  0  0  0  0  0  0  0
  151.1717  140.7543  156.7843 C   0  0  0  0  0  0  0  0  0  0  0  0
  151.5999  141.0823  158.0384 C   0  0  0  0  0  0  0  0  0  0  0  0
  152.5940  140.2482  158.4340 O   0  0  0  0  0  0  0  0  0  0  0  0
  152.8375  139.3352  157.4019 N   0  0  0  0  0  0  0  0  0  0  0  0
  146.4924  139.0557  151.5642 H   0  0  0  0  0  0  0  0  0  0  0  0
  147.6552  137.9359  151.9010 H   0  0  0  0  0  0  0  0  0  0  0  0
  146.6249  140.0927  153.5458 H   0  0  0  0  0  0  0  0  0  0  0  0
  146.8040  138.3980  153.9589 H   0  0  0  0  0  0  0  0  0  0  0  0
  149.0968  140.4109  153.6014 H   0  0  0  0  0  0  0  0  0  0  0  0
  148.5817  139.7004  155.1194 H   0  0  0  0  0  0  0  0  0  0  0  0
  149.3445  137.7564  153.0557 H   0  0  0  0  0  0  0  0  0  0  0  0
  152.8809  138.2384  155.0830 H   0  0  0  0  0  0  0  0  0  0  0  0
  151.9528  139.4975  154.2839 H   0  0  0  0  0  0  0  0  0  0  0  0
  150.3965  141.2352  156.2064 H   0  0  0  0  0  0  0  0  0  0  0  0
  151.3117  141.8464  158.7451 H   0  0  0  0  0  0  0  0  0  0  0  0
  148.0804  139.4973  151.5785 H   0  0  0  0  0  0  0  0  0  0  0  0
  1  2  1  0  0  0  0
  1 14  1  0  0  0  0
  1 15  1  0  0  0  0
  1 25  1  0  0  0  0
  2  3  1  0  0  0  0
  2 16  1  0  0  0  0
  2 17  1  0  0  0  0
  3  4  1  0  0  0  0
  3 18  1  0  0  0  0
  3 19  1  0  0  0  0
  4  5  1  0  0  0  0
  4 20  1  0  0  0  0
  5  6  2  0  0  0  0
  5  7  2  0  0  0  0
  5  8  1  0  0  0  0
  8  9  1  0  0  0  0
  8 21  1  0  0  0  0
  8 22  1  0  0  0  0
  9 13  2  0  0  0  0
  9 10  1  0  0  0  0
 10 11  2  0  0  0  0
 10 23  1  0  0  0  0
 11 12  1  0  0  0  0
 11 24  1  0  0  0  0
 12 13  1  0  0  0  0
M  CHG  1   1   1
M  END
> <s_m_source_file>
AV-unprocessed.smi

> <i_m_source_file_index>
742

> <i_lp_mmshare_version>
43012

> <i_f3d_flags>
0

> <s_epik_input>
W05IMl1bQ0gyXVtDSDJdW05IXVMoPU8pKD1PKVtDSDJdYzFbY0hdW2NIXW9uMQ==

> <s_epik_cmdline>
J2VwaWtfcHl0aG9uJywgJy1waCcsICc3LjAnLCAnLXRuJywgJzgnLCAnLW1hJywgJzIwMCcsICctbWV0YWxfYmluZGluZycsICctaW1hZScsICc8aW5maWxlLm1hZT4nLCAnLW9tYWUnLCAnPG91dGZpbGUubWFlPic=

> <r_lp_tautomer_probability>
1

> <r_epik_Ionization_Penalty>
0.00734165

> <r_epik_Ionization_Penalty_Charging>
0.00580839

> <r_epik_Ionization_Penalty_Neutral>
0.00153326

> <r_epik_State_Penalty>
-0

> <r_epik_Charging_Adjusted_Penalty>
0.00580839

> <i_epik_Tot_Q>
1

> <i_epik_Tot_abs_Q>
1

> <r_epik_Metal_State_Penalty>
0.322493

> <b_epik_Metal_Only>
0

> <s_lp_Force_Field>
OPLS_2005

> <r_lp_Energy>
-3.29025

> <b_lp_Chiralities_Consistent>
1

> <s_lp_Variant>
AV-unprocessed.smi:742-1

> <Gold.Version>
5.8.1

> <Gold.Id.Protein>
6NUR|6NUR_protein|mol2

> <Gold.PLP.Fitness>
40.0937

> <Gold.PLP.PLP>
-22.7910

> <Gold.PLP.part.hbond>
-6.0000

> <Gold.PLP.part.metal>
0.0000

> <Gold.PLP.part.buried>
-2.2347

> <Gold.PLP.part.nonpolar>
-15.7194

> <Gold.PLP.part.repulsive>
1.2716

> <Gold.PLP.ligand.clash>
0.0000

> <Gold.PLP.ligand.torsion>
0.8983

> <Gold.PLP.Chemscore.Hbond>
6.0000

> <Gold.PLP.Chemscore.CHOScore>
0.0000

> <Gold.PLP.Chemscore.Metal>
0.0000

> <Gold.Chemscore.Hbonds>
donor molecule, donor type, donor heavy atom, donor atom, acceptor molecule, acceptor atom, score
      L1  H     1    15       P1  7948  1.59
      L1  H     1    25       P1  7957  1.00
      L1  H     4    20       P1  7948  1.00
      P1  H  7997  8010       L1    13  0.80
      P1  H 10752 10764       L1     7  0.83

> <Gold.PLP.Chemscore.Internal.Correction>
1.0992

> <Gold.Rescore>
     Score         DG    S(hbond)    S(metal)    S(lipo)     H(rot)  DE(clash)    DE(int)     intcor
     19.17     -20.04       4.76        0.00      38.55       2.28       0.03       0.84       ----

> <Gold.Chemscore.Fitness>
19.1701

> <Gold.Chemscore.DG>
-20.0423

> <Gold.Chemscore.ZeroCoef>
-5.4800

> <Gold.Chemscore.Hbond>
4.7568

> <Gold.Chemscore.Metal>
0.0000

> <Gold.Chemscore.Lipo>
38.5546

> <Gold.Chemscore.Internal_Hbond>
0.0000

> <Gold.Chemscore.DEClash>
0.0348

> <Gold.Chemscore.DEInternal>
0.8373

> <Gold.Chemscore.Rot>
2.2798

> <Gold.Chemscore.Internal.Correction>
   9.000000E+99

> <Gold.Chemscore.Hbonds>
donor molecule, donor type, donor heavy atom, donor atom, acceptor molecule, acceptor atom, score
      L1  H     1    15       P1  7948  0.78
      L1  H     1    25       P1  7957  0.98
      L1  H     4    20       P1  7948  0.95
      P1  H  7997  8010       L1    13  0.07
      P1  H 10752 10764       L1     7  0.82

> <Gold.Chemscore.Hbond.Weighted>
-15.8876

> <Gold.Chemscore.Metal.Weighted>
-0.0000

> <Gold.Chemscore.Lipo.Weighted>
-4.5109

> <Gold.Chemscore.Internal_Hbond.Weighted>
0.0000

> <Gold.Chemscore.DEClash.Weighted>
0.0348

> <Gold.Chemscore.DEInternal.Weighted>
0.8373

> <Gold.Chemscore.Rot.Weighted>
5.8362

> <Gold.Chemscore.Internal.Correction.Weighted>
   9.000000E+99

> <Gold.Protein.RotatedTorsions>
[ 6907 6896 6895 6894 ] final -117.14 input  -60.11 | X-H torsion
[ 7974 7965 7964 7962 ] final -148.80 input  175.53 | X-H torsion
[ 8008 7997 7996 7995 ] final   43.82 input   59.86 | X-H torsion
[ 10167 10162 10161 10158 ] final  -17.21 input  -65.29 | X-H torsion
[ 10718 10713 10712 10709 ] final -155.66 input   66.30 | X-H torsion
[ 10763 10752 10751 10750 ] final  -60.51 input  -60.55 | X-H torsion
[ 11005 11000 10999 10996 ] final   16.85 input  -57.11 | X-H torsion

> <Gold.Protein.ActiveResidues>
 VAL166  LYS551  ARG553  GLY616  TRP617  ASP618  TYR619  PRO620  LYS621  CYS622 
 ASP623  PHE694  ASN695  SER759  ASP760  ASP761  ALA762  ILE779  LEU786  VAL792 
 PHE793  MET794  SER795  GLU796  ALA797  LYS798  CYS799  TRP800  GLU811  SER814 

> <Gold.Protein.RotatedAtoms>
  150.8112  133.8418  159.3181 H   0  0  0  0  0  0  0  0  0  0  0  0  # atno 6907 bound_to 6896
  151.6203  135.1031  160.0109 H   0  0  0  0  0  0  0  0  0  0  0  0  # atno 6908 bound_to 6896
  152.4204  133.7067  159.6512 H   0  0  0  0  0  0  0  0  0  0  0  0  # atno 6909 bound_to 6896
  144.8006  140.5148  143.5709 H   0  0  0  0  0  0  0  0  0  0  0  0  # atno 7974 bound_to 7965
  155.3091  140.3390  155.4244 H   0  0  0  0  0  0  0  0  0  0  0  0  # atno 8008 bound_to 7997
  156.1964  140.1716  156.8027 H   0  0  0  0  0  0  0  0  0  0  0  0  # atno 8009 bound_to 7997
  154.5504  140.0706  156.8643 H   0  0  0  0  0  0  0  0  0  0  0  0  # atno 8010 bound_to 7997
  140.7244  143.5038  150.9835 H   0  0  0  0  0  0  0  0  0  0  0  0  # atno 10167 bound_to 10162
  156.5159  130.8456  151.2664 H   0  0  0  0  0  0  0  0  0  0  0  0  # atno 10718 bound_to 10713
  154.2703  135.6291  153.5307 H   0  0  0  0  0  0  0  0  0  0  0  0  # atno 10763 bound_to 10752
  152.9881  135.5608  154.5608 H   0  0  0  0  0  0  0  0  0  0  0  0  # atno 10764 bound_to 10752
  154.5176  135.2880  155.1265 H   0  0  0  0  0  0  0  0  0  0  0  0  # atno 10765 bound_to 10752
  140.4425  134.1307  155.7692 H   0  0  0  0  0  0  0  0  0  0  0  0  # atno 11005 bound_to 11000
  145.5562  139.1478  143.3367 LP  0  0  0  0  0  0  0  0  0  0  0  0  # atno 17320 bound_to 7965
  146.2287  140.5699  142.8985 LP  0  0  0  0  0  0  0  0  0  0  0  0  # atno 17321 bound_to 7965
  139.8749  143.7145  152.3163 LP  0  0  0  0  0  0  0  0  0  0  0  0  # atno 17342 bound_to 10162
  139.7407  144.7560  151.0657 LP  0  0  0  0  0  0  0  0  0  0  0  0  # atno 17343 bound_to 10162
  157.7444  130.9934  150.2669 LP  0  0  0  0  0  0  0  0  0  0  0  0  # atno 17370 bound_to 10713
  156.3195  130.3784  149.7588 LP  0  0  0  0  0  0  0  0  0  0  0  0  # atno 17371 bound_to 10713
  141.1699  133.8629  157.1602 LP  0  0  0  0  0  0  0  0  0  0  0  0  # atno 17394 bound_to 11000
  140.0060  135.0008  157.0294 LP  0  0  0  0  0  0  0  0  0  0  0  0  # atno 17395 bound_to 11000

$$$$
