AV-unprocessed.smi:598|AV-procd|sdf|3021|dock10
  -GOLD-   2262023533D 1   1.00000     0.00000
 Structure written by MMmdl.
 43 44  0  0  0  0  0  0  0  0  3 V2000
  145.9582  132.9752  150.9517 C   0  0  0  0  0  0  0  0  0  0  0  0
  146.5987  133.8572  152.0386 C   0  0  2  0  0  0  0  0  0  0  0  0
  147.6227  133.0311  152.8443 C   0  0  0  0  0  0  0  0  0  0  0  0
  148.3109  133.8632  153.9347 C   0  0  0  0  0  0  0  0  0  0  0  0
  147.2787  134.5064  154.8731 C   0  0  0  0  0  0  0  0  0  0  0  0
  146.2453  135.3470  154.1004 C   0  0  1  0  0  0  0  0  0  0  0  0
  146.8904  136.5442  153.5570 N   0  0  0  0  0  0  0  0  0  0  0  0
  146.6845  137.8084  153.9572 C   0  0  0  0  0  0  0  0  0  0  0  0
  145.9425  138.1126  154.8916 O   0  0  0  0  0  0  0  0  0  0  0  0
  147.4350  138.8921  153.1735 C   0  0  0  0  0  0  0  0  0  0  0  0
  148.5116  139.5027  153.9696 N   0  0  0  0  0  0  0  0  0  0  0  0
  149.6563  138.7103  154.1859 C   0  0  0  0  0  0  0  0  0  0  0  0
  150.7204  139.1610  154.8781 C   0  0  0  0  0  0  0  0  0  0  0  0
  151.8905  138.3350  155.0793 N   0  3  0  0  0  0  0  0  0  0  0  0
  152.8633  138.8215  155.6464 O   0  0  0  0  0  0  0  0  0  0  0  0
  151.8771  137.1751  154.6773 O   0  5  0  0  0  0  0  0  0  0  0  0
  150.6564  140.5089  155.4087 C   0  0  0  0  0  0  0  0  0  0  0  0
  149.5658  141.2735  155.2024 C   0  0  0  0  0  0  0  0  0  0  0  0
  148.4111  140.7825  154.4426 C   0  0  0  0  0  0  0  0  0  0  0  0
  147.4175  141.4810  154.2428 O   0  0  0  0  0  0  0  0  0  0  0  0
  145.5550  134.5075  152.9895 C   0  0  1  0  0  0  0  0  0  0  0  0
  144.4786  135.3200  152.2407 C   0  0  0  0  0  0  0  0  0  0  0  0
  145.3363  132.1938  151.3895 H   0  0  0  0  0  0  0  0  0  0  0  0
  146.7216  132.4892  150.3435 H   0  0  0  0  0  0  0  0  0  0  0  0
  145.3377  133.5579  150.2713 H   0  0  0  0  0  0  0  0  0  0  0  0
  147.1409  134.6541  151.5275 H   0  0  0  0  0  0  0  0  0  0  0  0
  147.1237  132.1768  153.3043 H   0  0  0  0  0  0  0  0  0  0  0  0
  148.3790  132.6189  152.1753 H   0  0  0  0  0  0  0  0  0  0  0  0
  148.9893  133.2316  154.5091 H   0  0  0  0  0  0  0  0  0  0  0  0
  148.9279  134.6352  153.4735 H   0  0  0  0  0  0  0  0  0  0  0  0
  146.7616  133.7214  155.4263 H   0  0  0  0  0  0  0  0  0  0  0  0
  147.7836  135.1202  155.6203 H   0  0  0  0  0  0  0  0  0  0  0  0
  145.4832  135.6510  154.8200 H   0  0  0  0  0  0  0  0  0  0  0  0
  147.5262  136.3964  152.7868 H   0  0  0  0  0  0  0  0  0  0  0  0
  147.8125  138.4528  152.2489 H   0  0  0  0  0  0  0  0  0  0  0  0
  146.7364  139.6678  152.8545 H   0  0  0  0  0  0  0  0  0  0  0  0
  149.6066  137.7258  153.7430 H   0  0  0  0  0  0  0  0  0  0  0  0
  151.4826  140.9157  155.9728 H   0  0  0  0  0  0  0  0  0  0  0  0
  149.5400  142.2756  155.6052 H   0  0  0  0  0  0  0  0  0  0  0  0
  145.0289  133.6956  153.4944 H   0  0  0  0  0  0  0  0  0  0  0  0
  144.9217  136.0737  151.5890 H   0  0  0  0  0  0  0  0  0  0  0  0
  143.8182  135.8317  152.9413 H   0  0  0  0  0  0  0  0  0  0  0  0
  143.8479  134.6794  151.6250 H   0  0  0  0  0  0  0  0  0  0  0  0
  1  2  1  0  0  0  0
  1 23  1  0  0  0  0
  1 24  1  0  0  0  0
  1 25  1  0  0  0  0
  2 21  1  0  0  0  0
  2  3  1  0  0  0  0
  2 26  1  0  0  0  0
  3  4  1  0  0  0  0
  3 27  1  0  0  0  0
  3 28  1  0  0  0  0
  4  5  1  0  0  0  0
  4 29  1  0  0  0  0
  4 30  1  0  0  0  0
  5  6  1  0  0  0  0
  5 31  1  0  0  0  0
  5 32  1  0  0  0  0
  6  7  1  0  0  0  0
  6 21  1  0  0  0  0
  6 33  1  0  0  0  0
  7  8  1  0  0  0  0
  7 34  1  0  0  0  0
  8  9  2  0  0  0  0
  8 10  1  0  0  0  0
 10 11  1  0  0  0  0
 10 35  1  0  0  0  0
 10 36  1  0  0  0  0
 11 19  1  0  0  0  0
 11 12  1  0  0  0  0
 12 13  2  0  0  0  0
 12 37  1  0  0  0  0
 13 14  1  0  0  0  0
 13 17  1  0  0  0  0
 14 15  2  0  0  0  0
 14 16  1  0  0  0  0
 17 18  2  0  0  0  0
 17 38  1  0  0  0  0
 18 19  1  0  0  0  0
 18 39  1  0  0  0  0
 19 20  2  0  0  0  0
 21 22  1  0  0  0  0
 21 40  1  0  0  0  0
 22 41  1  0  0  0  0
 22 42  1  0  0  0  0
 22 43  1  0  0  0  0
M  CHG  1  14   1
M  CHG  1  16  -1
M  END
> <s_m_source_file>
AV-unprocessed.smi

> <i_m_source_file_index>
598

> <i_lp_mmshare_version>
43012

> <i_f3d_flags>
0

> <s_epik_input>
W0NIM11bQ0BASF0xW0NIMl1bQ0gyXVtDSDJdW0NASF0oW0NASF0xW0NIM10pW05IXUMoPU8pW0NIMl1uMltjSF1jKFtOK10oPU8pW08tXSlbY0hdW2NIXWMyPU8=

> <s_epik_cmdline>
J2VwaWtfcHl0aG9uJywgJy1waCcsICc3LjAnLCAnLXRuJywgJzgnLCAnLW1hJywgJzIwMCcsICctbWV0YWxfYmluZGluZycsICctaW1hZScsICc8aW5maWxlLm1hZT4nLCAnLW9tYWUnLCAnPG91dGZpbGUubWFlPic=

> <r_lp_tautomer_probability>
1

> <r_epik_Ionization_Penalty>
1.91291e-08

> <r_epik_Ionization_Penalty_Charging>
8.21931e-11

> <r_epik_Ionization_Penalty_Neutral>
1.90469e-08

> <r_epik_State_Penalty>
-0

> <r_epik_Charging_Adjusted_Penalty>
8.21931e-11

> <i_epik_Tot_Q>
0

> <i_epik_Tot_abs_Q>
2

> <r_epik_Metal_State_Penalty>
-0

> <b_epik_Metal_Only>
0

> <s_lp_Force_Field>
OPLS_2005

> <r_lp_Energy>
23.6598

> <b_lp_Chiralities_Consistent>
1

> <s_lp_Variant>
AV-unprocessed.smi:598-1

> <Gold.Version>
5.8.1

> <Gold.Id.Protein>
6NUR|6NUR_protein|mol2

> <Gold.PLP.Fitness>
46.7404

> <Gold.PLP.PLP>
-35.6394

> <Gold.PLP.part.hbond>
-3.0000

> <Gold.PLP.part.metal>
0.0000

> <Gold.PLP.part.buried>
-0.2931

> <Gold.PLP.part.nonpolar>
-32.1716

> <Gold.PLP.part.repulsive>
0.3329

> <Gold.PLP.ligand.clash>
0.0000

> <Gold.PLP.ligand.torsion>
0.3000

> <Gold.PLP.Chemscore.Hbond>
2.8960

> <Gold.PLP.Chemscore.CHOScore>
1.0000

> <Gold.PLP.Chemscore.Metal>
0.0000

> <Gold.Chemscore.Hbonds>
donor molecule, donor type, donor heavy atom, donor atom, acceptor molecule, acceptor atom, score
      L1  H     7    34       P1  7948  1.00
      P1  H  7997  8009       L1    15  0.93
      P1  H 10752 10763       L1    16  0.96
      L1  C    12    37       P1  7948  1.00

> <Gold.PLP.Chemscore.Internal.Correction>
0.0130

> <Gold.Rescore>
     Score         DG    S(hbond)    S(metal)    S(lipo)     H(rot)  DE(clash)    DE(int)     intcor
     18.79     -19.25       2.84        0.00      70.22       1.54       0.14       0.32       ----

> <Gold.Chemscore.Fitness>
18.7895

> <Gold.Chemscore.DG>
-19.2536

> <Gold.Chemscore.ZeroCoef>
-5.4800

> <Gold.Chemscore.Hbond>
2.8439

> <Gold.Chemscore.Metal>
0.0000

> <Gold.Chemscore.Lipo>
70.2203

> <Gold.Chemscore.Internal_Hbond>
0.0000

> <Gold.Chemscore.DEClash>
0.1407

> <Gold.Chemscore.DEInternal>
0.3235

> <Gold.Chemscore.Rot>
1.5393

> <Gold.Chemscore.Internal.Correction>
   9.000000E+99

> <Gold.Chemscore.Hbonds>
donor molecule, donor type, donor heavy atom, donor atom, acceptor molecule, acceptor atom, score
      L1  H     7    34       P1  7948  1.00
      P1  H  7997  8009       L1    15  0.88
      P1  H 10752 10763       L1    16  0.92

> <Gold.Chemscore.Hbond.Weighted>
-9.4986

> <Gold.Chemscore.Metal.Weighted>
-0.0000

> <Gold.Chemscore.Lipo.Weighted>
-8.2158

> <Gold.Chemscore.Internal_Hbond.Weighted>
0.0000

> <Gold.Chemscore.DEClash.Weighted>
0.1407

> <Gold.Chemscore.DEInternal.Weighted>
0.3235

> <Gold.Chemscore.Rot.Weighted>
3.9407

> <Gold.Chemscore.Internal.Correction.Weighted>
   9.000000E+99

> <Gold.Protein.RotatedTorsions>
[ 6907 6896 6895 6894 ] final  100.69 input  -60.11 | X-H torsion
[ 7974 7965 7964 7962 ] final  -93.86 input  175.53 | X-H torsion
[ 8008 7997 7996 7995 ] final -149.01 input   59.86 | X-H torsion
[ 10167 10162 10161 10158 ] final -150.46 input  -65.29 | X-H torsion
[ 10718 10713 10712 10709 ] final -159.11 input   66.30 | X-H torsion
[ 10763 10752 10751 10750 ] final   41.25 input  -60.55 | X-H torsion
[ 11005 11000 10999 10996 ] final  -13.28 input  -57.11 | X-H torsion

> <Gold.Protein.ActiveResidues>
 VAL166  LYS551  ARG553  GLY616  TRP617  ASP618  TYR619  PRO620  LYS621  CYS622 
 ASP623  PHE694  ASN695  SER759  ASP760  ASP761  ALA762  ILE779  LEU786  VAL792 
 PHE793  MET794  SER795  GLU796  ALA797  LYS798  CYS799  TRP800  GLU811  SER814 

> <Gold.Protein.RotatedAtoms>
  152.5366  134.0239  159.7993 H   0  0  0  0  0  0  0  0  0  0  0  0  # atno 6907 bound_to 6896
  151.0421  133.5689  159.2657 H   0  0  0  0  0  0  0  0  0  0  0  0  # atno 6908 bound_to 6896
  151.2655  135.0675  159.9168 H   0  0  0  0  0  0  0  0  0  0  0  0  # atno 6909 bound_to 6896
  145.3809  140.9517  143.2394 H   0  0  0  0  0  0  0  0  0  0  0  0  # atno 7974 bound_to 7965
  155.6007  140.0662  157.2733 H   0  0  0  0  0  0  0  0  0  0  0  0  # atno 8008 bound_to 7997
  154.4279  140.1819  156.1218 H   0  0  0  0  0  0  0  0  0  0  0  0  # atno 8009 bound_to 7997
  156.0161  140.3321  155.6994 H   0  0  0  0  0  0  0  0  0  0  0  0  # atno 8010 bound_to 7997
  139.7352  143.8747  152.2546 H   0  0  0  0  0  0  0  0  0  0  0  0  # atno 10167 bound_to 10162
  156.5635  130.8657  151.2816 H   0  0  0  0  0  0  0  0  0  0  0  0  # atno 10718 bound_to 10713
  152.9913  135.6167  154.2758 H   0  0  0  0  0  0  0  0  0  0  0  0  # atno 10763 bound_to 10752
  154.2489  135.2786  155.2826 H   0  0  0  0  0  0  0  0  0  0  0  0  # atno 10764 bound_to 10752
  154.5305  135.5789  153.6813 H   0  0  0  0  0  0  0  0  0  0  0  0  # atno 10765 bound_to 10752
  140.7745  133.8412  155.9236 H   0  0  0  0  0  0  0  0  0  0  0  0  # atno 11005 bound_to 11000
  144.8508  139.5325  143.6857 LP  0  0  0  0  0  0  0  0  0  0  0  0  # atno 17320 bound_to 7965
  146.2842  139.6959  142.9207 LP  0  0  0  0  0  0  0  0  0  0  0  0  # atno 17321 bound_to 7965
  139.8681  144.7082  150.9019 LP  0  0  0  0  0  0  0  0  0  0  0  0  # atno 17342 bound_to 10162
  140.7777  143.3761  151.1561 LP  0  0  0  0  0  0  0  0  0  0  0  0  # atno 17343 bound_to 10162
  157.7363  130.9777  150.2132 LP  0  0  0  0  0  0  0  0  0  0  0  0  # atno 17370 bound_to 10713
  156.2778  130.3729  149.7966 LP  0  0  0  0  0  0  0  0  0  0  0  0  # atno 17371 bound_to 10713
  140.9542  134.1739  157.4704 LP  0  0  0  0  0  0  0  0  0  0  0  0  # atno 17394 bound_to 11000
  139.8751  134.9920  156.5578 LP  0  0  0  0  0  0  0  0  0  0  0  0  # atno 17395 bound_to 11000

$$$$
