AV-unprocessed.smi:912|AV-procd|sdf|4144|dock9
  -GOLD-   22720 2 53D 1   1.00000     0.00000
 Structure written by MMmdl.
 27 27  0  0  0  0  0  0  0  0  2 V2000
  150.3392  142.0772  157.2353 C   0  0  0  0  0  0  0  0  0  0  0  0
  151.0632  143.3440  157.3283 N   0  0  0  0  0  0  0  0  0  0  0  0
  151.2131  143.9601  158.6608 C   0  0  1  0  0  0  0  0  0  0  0  0
  151.9662  145.2933  158.4086 C   0  0  0  0  0  0  0  0  0  0  0  0
  149.8444  144.2112  159.3521 C   0  0  0  0  0  0  0  0  0  0  0  0
  149.5791  145.4565  159.7627 N   0  0  0  0  0  0  0  0  0  0  0  0
  149.0341  143.2997  159.5111 O   0  0  0  0  0  0  0  0  0  0  0  0
  152.0457  143.0694  159.6074 C   0  0  0  0  0  0  0  0  0  0  0  0
  152.6559  141.8643  159.1689 C   0  0  0  0  0  0  0  0  0  0  0  0
  153.4026  141.0846  160.0755 C   0  0  0  0  0  0  0  0  0  0  0  0
  153.5326  141.4817  161.3583 N   0  3  0  0  0  0  0  0  0  0  0  0
  152.9686  142.6127  161.8301 C   0  0  0  0  0  0  0  0  0  0  0  0
  152.2108  143.4314  160.9690 C   0  0  0  0  0  0  0  0  0  0  0  0
  150.2037  141.8241  156.1840 H   0  0  0  0  0  0  0  0  0  0  0  0
  149.3494  142.1362  157.6873 H   0  0  0  0  0  0  0  0  0  0  0  0
  150.8846  141.2516  157.6919 H   0  0  0  0  0  0  0  0  0  0  0  0
  150.5458  143.9985  156.7588 H   0  0  0  0  0  0  0  0  0  0  0  0
  152.1311  145.8589  159.3257 H   0  0  0  0  0  0  0  0  0  0  0  0
  151.4238  145.9567  157.7346 H   0  0  0  0  0  0  0  0  0  0  0  0
  152.9464  145.1134  157.9649 H   0  0  0  0  0  0  0  0  0  0  0  0
  148.6918  145.6649  160.1972 H   0  0  0  0  0  0  0  0  0  0  0  0
  150.2597  146.1881  159.6169 H   0  0  0  0  0  0  0  0  0  0  0  0
  152.5627  141.5194  158.1500 H   0  0  0  0  0  0  0  0  0  0  0  0
  153.8948  140.1595  159.8136 H   0  0  0  0  0  0  0  0  0  0  0  0
  153.1360  142.8264  162.8756 H   0  0  0  0  0  0  0  0  0  0  0  0
  151.7553  144.3283  161.3618 H   0  0  0  0  0  0  0  0  0  0  0  0
  154.0765  140.9017  161.9979 H   0  0  0  0  0  0  0  0  0  0  0  0
  1  2  1  0  0  0  0
  1 14  1  0  0  0  0
  1 15  1  0  0  0  0
  1 16  1  0  0  0  0
  2  3  1  0  0  0  0
  2 17  1  0  0  0  0
  3  4  1  0  0  0  0
  3  5  1  0  0  0  0
  3  8  1  0  0  0  0
  4 18  1  0  0  0  0
  4 19  1  0  0  0  0
  4 20  1  0  0  0  0
  5  6  1  0  0  0  0
  5  7  2  0  0  0  0
  6 21  1  0  0  0  0
  6 22  1  0  0  0  0
  8 13  1  0  0  0  0
  8  9  2  0  0  0  0
  9 10  1  0  0  0  0
  9 23  1  0  0  0  0
 10 11  2  0  0  0  0
 10 24  1  0  0  0  0
 11 12  1  0  0  0  0
 11 27  1  0  0  0  0
 12 13  2  0  0  0  0
 12 25  1  0  0  0  0
 13 26  1  0  0  0  0
M  CHG  1  11   1
M  END
> <s_m_source_file>
AV-unprocessed.smi

> <i_m_source_file_index>
912

> <i_lp_mmshare_version>
43012

> <i_f3d_flags>
0

> <s_epik_input>
W0NIM11bTkhdW0NAQF0oW0NIM10pKEMoPU8pW05IMl0pYzFbY0hdW2NIXW5bY0hdW2NIXTE=

> <s_epik_cmdline>
J2VwaWtfcHl0aG9uJywgJy1waCcsICc3LjAnLCAnLXRuJywgJzgnLCAnLW1hJywgJzIwMCcsICctbWV0YWxfYmluZGluZycsICctaW1hZScsICc8aW5maWxlLm1hZT4nLCAnLW9tYWUnLCAnPG91dGZpbGUubWFlPic=

> <r_epik_Ionization_Penalty>
0.562542

> <r_epik_Ionization_Penalty_Charging>
0.554844

> <r_epik_Ionization_Penalty_Neutral>
0.00769834

> <r_epik_State_Penalty>
1.39075

> <r_epik_Charging_Adjusted_Penalty>
1.94559

> <i_epik_Tot_Q>
1

> <i_epik_Tot_abs_Q>
1

> <r_epik_Metal_State_Penalty>
1.55563

> <b_epik_Metal_Only>
0

> <s_lp_Force_Field>
OPLS_2005

> <r_lp_Energy>
17.994

> <b_lp_Chiralities_Consistent>
1

> <s_lp_Variant>
AV-unprocessed.smi:912-5

> <Gold.Version>
5.8.1

> <Gold.Id.Protein>
6NUR|6NUR_protein|mol2

> <Gold.PLP.Fitness>
34.0362

> <Gold.PLP.PLP>
-31.4361

> <Gold.PLP.part.hbond>
-2.8431

> <Gold.PLP.part.metal>
0.0000

> <Gold.PLP.part.buried>
-5.4477

> <Gold.PLP.part.nonpolar>
-24.4069

> <Gold.PLP.part.repulsive>
0.7384

> <Gold.PLP.ligand.clash>
0.0252

> <Gold.PLP.ligand.torsion>
0.3127

> <Gold.PLP.Chemscore.Hbond>
1.0732

> <Gold.PLP.Chemscore.CHOScore>
0.0000

> <Gold.PLP.Chemscore.Metal>
0.0000

> <Gold.Chemscore.Hbonds>
donor molecule, donor type, donor heavy atom, donor atom, acceptor molecule, acceptor atom, score
      L1  H     2    17       P1  8028  0.83
      P1  H  6933  6944       L1     7  0.24

> <Gold.PLP.Chemscore.Internal.Correction>
0.0313

> <Gold.Rescore>
     Score         DG    S(hbond)    S(metal)    S(lipo)     H(rot)  DE(clash)    DE(int)     intcor
     12.79     -15.26       1.45        0.00      81.99       1.82       1.06       1.40       ----

> <Gold.Chemscore.Fitness>
12.7943

> <Gold.Chemscore.DG>
-15.2615

> <Gold.Chemscore.ZeroCoef>
-5.4800

> <Gold.Chemscore.Hbond>
1.4535

> <Gold.Chemscore.Metal>
0.0000

> <Gold.Chemscore.Lipo>
81.9892

> <Gold.Chemscore.Internal_Hbond>
0.0000

> <Gold.Chemscore.DEClash>
1.0640

> <Gold.Chemscore.DEInternal>
1.4032

> <Gold.Chemscore.Rot>
1.8226

> <Gold.Chemscore.Internal.Correction>
   9.000000E+99

> <Gold.Chemscore.Hbonds>
donor molecule, donor type, donor heavy atom, donor atom, acceptor molecule, acceptor atom, score
      L1  H     2    17       P1  8028  0.81
      P1  H  6933  6944       L1     7  0.24

> <Gold.Chemscore.Hbond.Weighted>
-4.8546

> <Gold.Chemscore.Metal.Weighted>
-0.0000

> <Gold.Chemscore.Lipo.Weighted>
-9.5927

> <Gold.Chemscore.Internal_Hbond.Weighted>
0.0000

> <Gold.Chemscore.DEClash.Weighted>
1.0640

> <Gold.Chemscore.DEInternal.Weighted>
1.4032

> <Gold.Chemscore.Rot.Weighted>
4.6659

> <Gold.Chemscore.Internal.Correction.Weighted>
   9.000000E+99

> <Gold.Protein.RotatedTorsions>
[ 6907 6896 6895 6894 ] final -176.48 input  -60.11 | X-H torsion
[ 7974 7965 7964 7962 ] final  -11.60 input  175.53 | X-H torsion
[ 8008 7997 7996 7995 ] final   98.15 input   59.86 | X-H torsion
[ 10167 10162 10161 10158 ] final  162.92 input  -65.29 | X-H torsion
[ 10718 10713 10712 10709 ] final   65.98 input   66.30 | X-H torsion
[ 10763 10752 10751 10750 ] final  -62.71 input  -60.55 | X-H torsion
[ 11005 11000 10999 10996 ] final    1.96 input  -57.11 | X-H torsion

> <Gold.Protein.ActiveResidues>
 VAL166  LYS551  ARG553  GLY616  TRP617  ASP618  TYR619  PRO620  LYS621  CYS622 
 ASP623  PHE694  ASN695  SER759  ASP760  ASP761  ALA762  ILE779  LEU786  VAL792 
 PHE793  MET794  SER795  GLU796  ALA797  LYS798  CYS799  TRP800  GLU811  SER814 

> <Gold.Protein.RotatedAtoms>
  151.6055  133.3352  159.3056 H   0  0  0  0  0  0  0  0  0  0  0  0  # atno 6907 bound_to 6896
  150.8184  134.7382  159.6762 H   0  0  0  0  0  0  0  0  0  0  0  0  # atno 6908 bound_to 6896
  152.4279  134.5839  160.0007 H   0  0  0  0  0  0  0  0  0  0  0  0  # atno 6909 bound_to 6896
  146.2182  140.2934  142.8370 H   0  0  0  0  0  0  0  0  0  0  0  0  # atno 7974 bound_to 7965
  156.0974  140.3248  155.7896 H   0  0  0  0  0  0  0  0  0  0  0  0  # atno 8008 bound_to 7997
  155.4894  140.0560  157.2973 H   0  0  0  0  0  0  0  0  0  0  0  0  # atno 8009 bound_to 7997
  154.4675  140.1996  156.0095 H   0  0  0  0  0  0  0  0  0  0  0  0  # atno 8010 bound_to 7997
  139.4867  144.4389  151.8976 H   0  0  0  0  0  0  0  0  0  0  0  0  # atno 10167 bound_to 10162
  157.6140  130.9243  150.0048 H   0  0  0  0  0  0  0  0  0  0  0  0  # atno 10718 bound_to 10713
  154.3041  135.6229  153.5437 H   0  0  0  0  0  0  0  0  0  0  0  0  # atno 10763 bound_to 10752
  152.9837  135.5685  154.5251 H   0  0  0  0  0  0  0  0  0  0  0  0  # atno 10764 bound_to 10752
  154.4887  135.2866  155.1490 H   0  0  0  0  0  0  0  0  0  0  0  0  # atno 10765 bound_to 10752
  140.6096  133.9761  155.8171 H   0  0  0  0  0  0  0  0  0  0  0  0  # atno 11005 bound_to 11000
  144.9110  140.7757  143.5808 LP  0  0  0  0  0  0  0  0  0  0  0  0  # atno 17320 bound_to 7965
  145.2865  139.1899  143.4763 LP  0  0  0  0  0  0  0  0  0  0  0  0  # atno 17321 bound_to 7965
  140.3840  144.2700  150.5906 LP  0  0  0  0  0  0  0  0  0  0  0  0  # atno 17342 bound_to 10162
  140.5207  143.2266  151.8393 LP  0  0  0  0  0  0  0  0  0  0  0  0  # atno 17343 bound_to 10162
  156.1254  130.3644  149.9818 LP  0  0  0  0  0  0  0  0  0  0  0  0  # atno 17370 bound_to 10713
  156.7890  130.9249  151.3646 LP  0  0  0  0  0  0  0  0  0  0  0  0  # atno 17371 bound_to 10713
  141.0817  134.0052  157.3375 LP  0  0  0  0  0  0  0  0  0  0  0  0  # atno 17394 bound_to 11000
  139.9198  135.0199  156.8020 LP  0  0  0  0  0  0  0  0  0  0  0  0  # atno 17395 bound_to 11000

$$$$
