AV-unprocessed.smi:2751|AV-procd|sdf|10596|dock5
  -GOLD-   2272015 43D 1   1.00000     0.00000
 Structure written by MMmdl.
 34 35  0  0  0  0  0  0  0  0  1 V2000
  147.0222  138.8406  154.5543 O   0  0  0  0  0  0  0  0  0  0  0  0
  147.6959  139.1533  153.5721 C   0  0  0  0  0  0  0  0  0  0  0  0
  147.3044  138.9393  152.3075 N   0  0  0  0  0  0  0  0  0  0  0  0
  146.0519  138.3025  151.9164 C   0  0  0  0  0  0  0  0  0  0  0  0
  145.8785  136.9349  152.5994 C   0  0  0  0  0  0  0  0  0  0  0  0
  144.7587  136.0894  151.9726 C   0  0  1  0  0  0  0  0  0  0  0  0
  145.2364  135.3519  150.7060 C   0  0  0  0  0  0  0  0  0  0  0  0
  144.1226  134.4577  150.1501 C   0  0  0  0  0  0  0  0  0  0  0  0
  143.6035  133.5326  151.2555 C   0  0  0  0  0  0  0  0  0  0  0  0
  143.2124  134.3507  152.4962 C   0  0  0  0  0  0  0  0  0  0  0  0
  144.3217  135.1299  152.9339 O   0  0  0  0  0  0  0  0  0  0  0  0
  148.9034  139.7408  153.6173 N   0  0  0  0  0  0  0  0  0  0  0  0
  149.6422  140.1070  154.7707 C   0  0  0  0  0  0  0  0  0  0  0  0
  149.1533  140.3200  155.9936 N   0  0  0  0  0  0  0  0  0  0  0  0
  150.2617  140.6460  156.7616 C   0  0  0  0  0  0  0  0  0  0  0  0
  151.3680  140.6118  155.9521 C   0  0  0  0  0  0  0  0  0  0  0  0
  150.9888  140.2702  154.6814 O   0  0  0  0  0  0  0  0  0  0  0  0
  147.9197  139.2283  151.5612 H   0  0  0  0  0  0  0  0  0  0  0  0
  145.2104  138.9586  152.1457 H   0  0  0  0  0  0  0  0  0  0  0  0
  146.0606  138.1776  150.8333 H   0  0  0  0  0  0  0  0  0  0  0  0
  146.8192  136.3867  152.5337 H   0  0  0  0  0  0  0  0  0  0  0  0
  145.6770  137.0717  153.6628 H   0  0  0  0  0  0  0  0  0  0  0  0
  143.9250  136.7453  151.7146 H   0  0  0  0  0  0  0  0  0  0  0  0
  145.5512  136.0678  149.9461 H   0  0  0  0  0  0  0  0  0  0  0  0
  146.1102  134.7425  150.9419 H   0  0  0  0  0  0  0  0  0  0  0  0
  143.3067  135.0775  149.7764 H   0  0  0  0  0  0  0  0  0  0  0  0
  144.4879  133.8747  149.3043 H   0  0  0  0  0  0  0  0  0  0  0  0
  142.7496  132.9570  150.8970 H   0  0  0  0  0  0  0  0  0  0  0  0
  144.3771  132.8123  151.5245 H   0  0  0  0  0  0  0  0  0  0  0  0
  142.3602  134.9982  152.2835 H   0  0  0  0  0  0  0  0  0  0  0  0
  142.9105  133.6835  153.3039 H   0  0  0  0  0  0  0  0  0  0  0  0
  149.3463  139.9408  152.7329 H   0  0  0  0  0  0  0  0  0  0  0  0
  150.1775  140.8741  157.8139 H   0  0  0  0  0  0  0  0  0  0  0  0
  152.4206  140.7915  156.1133 H   0  0  0  0  0  0  0  0  0  0  0  0
  1  2  2  0  0  0  0
  2  3  1  0  0  0  0
  2 12  1  0  0  0  0
  3  4  1  0  0  0  0
  3 18  1  0  0  0  0
  4  5  1  0  0  0  0
  4 19  1  0  0  0  0
  4 20  1  0  0  0  0
  5  6  1  0  0  0  0
  5 21  1  0  0  0  0
  5 22  1  0  0  0  0
  6 11  1  0  0  0  0
  6  7  1  0  0  0  0
  6 23  1  0  0  0  0
  7  8  1  0  0  0  0
  7 24  1  0  0  0  0
  7 25  1  0  0  0  0
  8  9  1  0  0  0  0
  8 26  1  0  0  0  0
  8 27  1  0  0  0  0
  9 10  1  0  0  0  0
  9 28  1  0  0  0  0
  9 29  1  0  0  0  0
 10 11  1  0  0  0  0
 10 30  1  0  0  0  0
 10 31  1  0  0  0  0
 12 13  1  0  0  0  0
 12 32  1  0  0  0  0
 13 17  1  0  0  0  0
 13 14  2  0  0  0  0
 14 15  1  0  0  0  0
 15 16  2  0  0  0  0
 15 33  1  0  0  0  0
 16 17  1  0  0  0  0
 16 34  1  0  0  0  0
M  END
> <s_m_source_file>
AV-unprocessed.smi

> <i_m_source_file_index>
2751

> <i_lp_mmshare_version>
43012

> <i_f3d_flags>
0

> <s_epik_input>
bzFbY0hdW2NIXW5jMVtOSF1DKD1PKVtOSF1bQ0gyXVtDSDJdW0NAQEhdMltDSDJdW0NIMl1bQ0gyXVtDSDJdTzI=

> <s_epik_cmdline>
J2VwaWtfcHl0aG9uJywgJy1waCcsICc3LjAnLCAnLXRuJywgJzgnLCAnLW1hJywgJzIwMCcsICctbWV0YWxfYmluZGluZycsICctaW1hZScsICc8aW5maWxlLm1hZT4nLCAnLW9tYWUnLCAnPG91dGZpbGUubWFlPic=

> <r_lp_tautomer_probability>
0.785861

> <r_epik_Ionization_Penalty>
4.88827e-05

> <r_epik_Ionization_Penalty_Charging>
0

> <r_epik_Ionization_Penalty_Neutral>
4.88827e-05

> <r_epik_State_Penalty>
0.0434822

> <r_epik_Charging_Adjusted_Penalty>
0.0434822

> <i_epik_Tot_Q>
0

> <i_epik_Tot_abs_Q>
0

> <r_epik_Metal_State_Penalty>
0.0598982

> <b_epik_Metal_Only>
0

> <s_lp_Force_Field>
OPLS_2005

> <r_lp_Energy>
7.8545

> <b_lp_Chiralities_Consistent>
1

> <s_lp_Variant>
AV-unprocessed.smi:2751-2

> <Gold.Version>
5.8.1

> <Gold.Id.Protein>
6NUR|6NUR_protein|mol2

> <Gold.PLP.Fitness>
37.9576

> <Gold.PLP.PLP>
-30.1079

> <Gold.PLP.part.hbond>
-3.8386

> <Gold.PLP.part.metal>
0.0000

> <Gold.PLP.part.buried>
-0.8118

> <Gold.PLP.part.nonpolar>
-25.2215

> <Gold.PLP.part.repulsive>
0.5607

> <Gold.PLP.ligand.clash>
0.0000

> <Gold.PLP.ligand.torsion>
0.3960

> <Gold.PLP.Chemscore.Hbond>
2.8800

> <Gold.PLP.Chemscore.CHOScore>
0.0000

> <Gold.PLP.Chemscore.Metal>
0.0000

> <Gold.Chemscore.Hbonds>
donor molecule, donor type, donor heavy atom, donor atom, acceptor molecule, acceptor atom, score
      L1  H     3    18       P1  7957  0.93
      L1  H    12    32       P1  7957  1.00
      P1  H  7989  7998       L1    17  0.86

> <Gold.PLP.Chemscore.Internal.Correction>
0.0017

> <Gold.Rescore>
     Score         DG    S(hbond)    S(metal)    S(lipo)     H(rot)  DE(clash)    DE(int)     intcor
     14.47     -17.24       2.90        0.00      53.45       1.63       0.00       2.77       ----

> <Gold.Chemscore.Fitness>
14.4699

> <Gold.Chemscore.DG>
-17.2434

> <Gold.Chemscore.ZeroCoef>
-5.4800

> <Gold.Chemscore.Hbond>
2.9012

> <Gold.Chemscore.Metal>
0.0000

> <Gold.Chemscore.Lipo>
53.4476

> <Gold.Chemscore.Internal_Hbond>
0.0000

> <Gold.Chemscore.DEClash>
0.0029

> <Gold.Chemscore.DEInternal>
2.7706

> <Gold.Chemscore.Rot>
1.6328

> <Gold.Chemscore.Internal.Correction>
   9.000000E+99

> <Gold.Chemscore.Hbonds>
donor molecule, donor type, donor heavy atom, donor atom, acceptor molecule, acceptor atom, score
      L1  H     3    18       P1  7957  0.84
      L1  H    12    32       P1  7957  0.98
      P1  H  7989  7998       L1    17  0.82

> <Gold.Chemscore.Hbond.Weighted>
-9.6900

> <Gold.Chemscore.Metal.Weighted>
-0.0000

> <Gold.Chemscore.Lipo.Weighted>
-6.2534

> <Gold.Chemscore.Internal_Hbond.Weighted>
0.0000

> <Gold.Chemscore.DEClash.Weighted>
0.0029

> <Gold.Chemscore.DEInternal.Weighted>
2.7706

> <Gold.Chemscore.Rot.Weighted>
4.1799

> <Gold.Chemscore.Internal.Correction.Weighted>
   9.000000E+99

> <Gold.Protein.RotatedTorsions>
[ 6907 6896 6895 6894 ] final  -79.90 input  -60.11 | X-H torsion
[ 7974 7965 7964 7962 ] final   -1.97 input  175.53 | X-H torsion
[ 8008 7997 7996 7995 ] final  149.70 input   59.86 | X-H torsion
[ 10167 10162 10161 10158 ] final  166.09 input  -65.29 | X-H torsion
[ 10718 10713 10712 10709 ] final   18.78 input   66.30 | X-H torsion
[ 10763 10752 10751 10750 ] final -102.29 input  -60.55 | X-H torsion
[ 11005 11000 10999 10996 ] final -138.20 input  -57.11 | X-H torsion

> <Gold.Protein.ActiveResidues>
 VAL166  LYS551  ARG553  GLY616  TRP617  ASP618  TYR619  PRO620  LYS621  CYS622 
 ASP623  PHE694  ASN695  SER759  ASP760  ASP761  ALA762  ILE779  LEU786  VAL792 
 PHE793  MET794  SER795  GLU796  ALA797  LYS798  CYS799  TRP800  GLU811  SER814 

> <Gold.Protein.RotatedAtoms>
  150.6940  134.4052  159.5136 H   0  0  0  0  0  0  0  0  0  0  0  0  # atno 6907 bound_to 6896
  152.1819  134.8744  160.0535 H   0  0  0  0  0  0  0  0  0  0  0  0  # atno 6908 bound_to 6896
  151.9731  133.3698  159.4116 H   0  0  0  0  0  0  0  0  0  0  0  0  # atno 6909 bound_to 6896
  146.2410  140.1501  142.8334 H   0  0  0  0  0  0  0  0  0  0  0  0  # atno 7974 bound_to 7965
  156.2744  140.2094  156.5901 H   0  0  0  0  0  0  0  0  0  0  0  0  # atno 8008 bound_to 7997
  154.6989  140.0523  157.0462 H   0  0  0  0  0  0  0  0  0  0  0  0  # atno 8009 bound_to 7997
  155.0762  140.3182  155.4618 H   0  0  0  0  0  0  0  0  0  0  0  0  # atno 8010 bound_to 7997
  139.4918  144.4063  151.9351 H   0  0  0  0  0  0  0  0  0  0  0  0  # atno 10167 bound_to 10162
  157.1012  130.6469  149.5873 H   0  0  0  0  0  0  0  0  0  0  0  0  # atno 10718 bound_to 10713
  154.7722  135.4866  153.9672 H   0  0  0  0  0  0  0  0  0  0  0  0  # atno 10763 bound_to 10752
  153.1383  135.6767  153.9075 H   0  0  0  0  0  0  0  0  0  0  0  0  # atno 10764 bound_to 10752
  153.8758  135.3138  155.3422 H   0  0  0  0  0  0  0  0  0  0  0  0  # atno 10765 bound_to 10752
  140.8638  134.2136  157.4692 H   0  0  0  0  0  0  0  0  0  0  0  0  # atno 11005 bound_to 11000
  145.0175  140.8766  143.5187 LP  0  0  0  0  0  0  0  0  0  0  0  0  # atno 17320 bound_to 7965
  145.1544  139.2495  143.5424 LP  0  0  0  0  0  0  0  0  0  0  0  0  # atno 17321 bound_to 7965
  140.3504  144.3096  150.5950 LP  0  0  0  0  0  0  0  0  0  0  0  0  # atno 17342 bound_to 10162
  140.5490  143.2209  151.7958 LP  0  0  0  0  0  0  0  0  0  0  0  0  # atno 17343 bound_to 10162
  155.9873  130.4912  150.7119 LP  0  0  0  0  0  0  0  0  0  0  0  0  # atno 17370 bound_to 10713
  157.4639  131.0886  151.0716 LP  0  0  0  0  0  0  0  0  0  0  0  0  # atno 17371 bound_to 10713
  139.8708  134.9742  156.4838 LP  0  0  0  0  0  0  0  0  0  0  0  0  # atno 17394 bound_to 11000
  140.8652  133.8030  155.9306 LP  0  0  0  0  0  0  0  0  0  0  0  0  # atno 17395 bound_to 11000

$$$$
