AV-unprocessed.smi:235|AV-procd|sdf|1801|dock5
  -GOLD-   2262020373D 1   1.00000     0.00000
 Structure written by MMmdl.
 54 58  0  0  0  0  0  0  0  0  1 V2000
  151.0003  142.0231  159.0519 O   0  0  0  0  0  0  0  0  0  0  0  0
  150.7699  142.3672  157.8920 C   0  0  0  0  0  0  0  0  0  0  0  0
  150.7780  143.6445  157.4846 N   0  0  0  0  0  0  0  0  0  0  0  0
  151.0606  144.7766  158.3054 C   0  0  0  0  0  0  0  0  0  0  0  0
  152.1425  144.6308  159.3536 C   0  0  0  0  0  0  0  0  0  0  0  0
  150.6991  144.6863  159.7724 C   0  0  0  0  0  0  0  0  0  0  0  0
  150.4344  141.3230  156.8174 C   0  0  2  0  0  0  0  0  0  0  0  0
  149.8106  141.9601  155.5695 C   0  0  0  0  0  0  0  0  0  0  0  0
  149.0442  140.8011  154.9442 C   0  0  0  0  0  0  0  0  0  0  0  0
  148.5296  140.0298  156.1599 C   0  0  0  0  0  0  0  0  0  0  0  0
  149.4224  140.3637  157.2660 N   0  0  0  0  0  0  0  0  0  0  0  0
  149.8824  139.3137  157.9814 C   0  0  0  0  0  0  0  0  0  0  0  0
  149.0080  138.3129  158.2468 N   0  0  0  0  0  0  0  0  0  0  0  0
  149.4052  137.2499  158.9529 C   0  0  0  0  0  0  0  0  0  0  0  0
  150.6071  136.9955  159.4763 N   0  0  0  0  0  0  0  0  0  0  0  0
  151.4871  138.0024  159.2082 C   0  0  0  0  0  0  0  0  0  0  0  0
  151.2125  139.1882  158.4720 C   0  0  0  0  0  0  0  0  0  0  0  0
  152.3533  139.9795  158.4011 N   0  0  0  0  0  0  0  0  0  0  0  0
  153.2511  139.3006  159.0621 C   0  0  0  0  0  0  0  0  0  0  0  0
  152.8158  138.1004  159.5776 N   0  0  0  0  0  0  0  0  0  0  0  0
  153.5968  137.1459  160.3428 C   0  0  0  0  0  0  0  0  0  0  0  0
  154.6535  137.8256  161.2364 C   0  0  2  0  0  0  0  0  0  0  0  0
  155.7636  138.1929  160.4420 O   0  0  0  0  0  0  0  0  0  0  0  0
  155.1104  136.9781  162.4454 C   0  0  2  0  0  0  0  0  0  0  0  0
  153.9929  136.4446  163.3587 C   0  0  0  0  0  0  0  0  0  0  0  0
  154.3457  137.0071  164.7243 C   0  0  0  0  0  0  0  0  0  0  0  0
  155.8442  137.2541  164.6085 C   0  0  0  0  0  0  0  0  0  0  0  0
  155.9853  137.7307  163.2811 O   0  0  0  0  0  0  0  0  0  0  0  0
  150.5697  143.8294  156.5141 H   0  0  0  0  0  0  0  0  0  0  0  0
  150.9667  145.7615  157.8496 H   0  0  0  0  0  0  0  0  0  0  0  0
  152.6507  143.6715  159.4316 H   0  0  0  0  0  0  0  0  0  0  0  0
  152.7597  145.5024  159.5620 H   0  0  0  0  0  0  0  0  0  0  0  0
  150.3515  145.5953  160.2592 H   0  0  0  0  0  0  0  0  0  0  0  0
  150.2432  143.7644  160.1288 H   0  0  0  0  0  0  0  0  0  0  0  0
  151.3467  140.7979  156.5282 H   0  0  0  0  0  0  0  0  0  0  0  0
  149.1153  142.7572  155.8398 H   0  0  0  0  0  0  0  0  0  0  0  0
  150.5569  142.3785  154.8935 H   0  0  0  0  0  0  0  0  0  0  0  0
  148.2459  141.1253  154.2761 H   0  0  0  0  0  0  0  0  0  0  0  0
  149.7302  140.1741  154.3728 H   0  0  0  0  0  0  0  0  0  0  0  0
  147.5287  140.3714  156.4253 H   0  0  0  0  0  0  0  0  0  0  0  0
  148.4638  138.9601  155.9541 H   0  0  0  0  0  0  0  0  0  0  0  0
  148.6519  136.4948  159.1232 H   0  0  0  0  0  0  0  0  0  0  0  0
  154.2643  139.6549  159.1861 H   0  0  0  0  0  0  0  0  0  0  0  0
  152.9130  136.5493  160.9482 H   0  0  0  0  0  0  0  0  0  0  0  0
  154.0760  136.4572  159.6458 H   0  0  0  0  0  0  0  0  0  0  0  0
  154.2312  138.7546  161.6213 H   0  0  0  0  0  0  0  0  0  0  0  0
  156.4783  137.6076  160.6410 H   0  0  0  0  0  0  0  0  0  0  0  0
  155.6797  136.1205  162.0831 H   0  0  0  0  0  0  0  0  0  0  0  0
  152.9903  136.7366  163.0456 H   0  0  0  0  0  0  0  0  0  0  0  0
  154.0224  135.3545  163.3803 H   0  0  0  0  0  0  0  0  0  0  0  0
  153.8277  137.9542  164.8801 H   0  0  0  0  0  0  0  0  0  0  0  0
  154.0854  136.3375  165.5443 H   0  0  0  0  0  0  0  0  0  0  0  0
  156.2117  137.9767  165.3373 H   0  0  0  0  0  0  0  0  0  0  0  0
  156.4042  136.3252  164.7263 H   0  0  0  0  0  0  0  0  0  0  0  0
  1  2  2  0  0  0  0
  2  3  1  0  0  0  0
  2  7  1  0  0  0  0
  3  4  1  0  0  0  0
  3 29  1  0  0  0  0
  4  6  1  0  0  0  0
  4  5  1  0  0  0  0
  4 30  1  0  0  0  0
  5  6  1  0  0  0  0
  5 31  1  0  0  0  0
  5 32  1  0  0  0  0
  6 33  1  0  0  0  0
  6 34  1  0  0  0  0
  7 11  1  0  0  0  0
  7  8  1  0  0  0  0
  7 35  1  0  0  0  0
  8  9  1  0  0  0  0
  8 36  1  0  0  0  0
  8 37  1  0  0  0  0
  9 10  1  0  0  0  0
  9 38  1  0  0  0  0
  9 39  1  0  0  0  0
 10 11  1  0  0  0  0
 10 40  1  0  0  0  0
 10 41  1  0  0  0  0
 11 12  1  0  0  0  0
 12 17  1  0  0  0  0
 12 13  2  0  0  0  0
 13 14  1  0  0  0  0
 14 15  2  0  0  0  0
 14 42  1  0  0  0  0
 15 16  1  0  0  0  0
 16 20  1  0  0  0  0
 16 17  2  0  0  0  0
 17 18  1  0  0  0  0
 18 19  2  0  0  0  0
 19 20  1  0  0  0  0
 19 43  1  0  0  0  0
 20 21  1  0  0  0  0
 21 22  1  0  0  0  0
 21 44  1  0  0  0  0
 21 45  1  0  0  0  0
 22 23  1  0  0  0  0
 22 24  1  0  0  0  0
 22 46  1  0  0  0  0
 23 47  1  0  0  0  0
 24 28  1  0  0  0  0
 24 25  1  0  0  0  0
 24 48  1  0  0  0  0
 25 26  1  0  0  0  0
 25 49  1  0  0  0  0
 25 50  1  0  0  0  0
 26 27  1  0  0  0  0
 26 51  1  0  0  0  0
 26 52  1  0  0  0  0
 27 28  1  0  0  0  0
 27 53  1  0  0  0  0
 27 54  1  0  0  0  0
M  END
> <s_m_source_file>
AV-unprocessed.smi

> <i_m_source_file_index>
235

> <i_lp_mmshare_version>
43012

> <i_f3d_flags>
0

> <s_epik_input>
W0NIMl0xW0NIMl1bQ0hdMVtOSF1DKD1PKVtDQEBIXTJbQ0gyXVtDSDJdW0NIMl1OMmMobltjSF1uMyljKGMzNCluW2NIXW40W0NIMl1bQ0BIXShbT0hdKVtDQEBIXTVbQ0gyXVtDSDJdW0NIMl1PNQ==

> <s_epik_cmdline>
J2VwaWtfcHl0aG9uJywgJy1waCcsICc3LjAnLCAnLXRuJywgJzgnLCAnLW1hJywgJzIwMCcsICctbWV0YWxfYmluZGluZycsICctaW1hZScsICc8aW5maWxlLm1hZT4nLCAnLW9tYWUnLCAnPG91dGZpbGUubWFlPic=

> <r_lp_tautomer_probability>
1

> <r_epik_Ionization_Penalty>
0.000526714

> <r_epik_Ionization_Penalty_Charging>
0

> <r_epik_Ionization_Penalty_Neutral>
0.000526714

> <r_epik_State_Penalty>
0.000272704

> <r_epik_Charging_Adjusted_Penalty>
0.000272704

> <i_epik_Tot_Q>
0

> <i_epik_Tot_abs_Q>
0

> <r_epik_Metal_State_Penalty>
-0

> <b_epik_Metal_Only>
0

> <s_lp_Force_Field>
OPLS_2005

> <r_lp_Energy>
63.4887

> <b_lp_Chiralities_Consistent>
1

> <s_lp_Variant>
AV-unprocessed.smi:235-1

> <Gold.Version>
5.8.1

> <Gold.Id.Protein>
6NUR|6NUR_protein|mol2

> <Gold.PLP.Fitness>
45.9450

> <Gold.PLP.PLP>
-44.9875

> <Gold.PLP.part.hbond>
-2.1780

> <Gold.PLP.part.metal>
0.0000

> <Gold.PLP.part.buried>
-5.7047

> <Gold.PLP.part.nonpolar>
-37.6744

> <Gold.PLP.part.repulsive>
0.0231

> <Gold.PLP.ligand.clash>
0.8061

> <Gold.PLP.ligand.torsion>
1.6226

> <Gold.PLP.Chemscore.Hbond>
1.5868

> <Gold.PLP.Chemscore.CHOScore>
0.0000

> <Gold.PLP.Chemscore.Metal>
0.0000

> <Gold.Chemscore.Hbonds>
donor molecule, donor type, donor heavy atom, donor atom, acceptor molecule, acceptor atom, score
      L1  H     3    29       P1  8028  0.53
      P1  H  6896  6909       L1    15  1.00

> <Gold.PLP.Chemscore.Internal.Correction>
0.2484

> <Gold.Rescore>
     Score         DG    S(hbond)    S(metal)    S(lipo)     H(rot)  DE(clash)    DE(int)     intcor
      7.05     -15.46       1.88        0.00      97.34       3.00       1.08       7.33       ----

> <Gold.Chemscore.Fitness>
7.0535

> <Gold.Chemscore.DG>
-15.4575

> <Gold.Chemscore.ZeroCoef>
-5.4800

> <Gold.Chemscore.Hbond>
1.8761

> <Gold.Chemscore.Metal>
0.0000

> <Gold.Chemscore.Lipo>
97.3375

> <Gold.Chemscore.Internal_Hbond>
0.0000

> <Gold.Chemscore.DEClash>
1.0789

> <Gold.Chemscore.DEInternal>
7.3252

> <Gold.Chemscore.Rot>
2.9989

> <Gold.Chemscore.Internal.Correction>
   9.000000E+99

> <Gold.Chemscore.Hbonds>
donor molecule, donor type, donor heavy atom, donor atom, acceptor molecule, acceptor atom, score
      L1  H     3    29       P1  8028  0.52
      P1  H  6896  6909       L1    15  0.93

> <Gold.Chemscore.Hbond.Weighted>
-6.2662

> <Gold.Chemscore.Metal.Weighted>
-0.0000

> <Gold.Chemscore.Lipo.Weighted>
-11.3885

> <Gold.Chemscore.Internal_Hbond.Weighted>
0.0000

> <Gold.Chemscore.DEClash.Weighted>
1.0789

> <Gold.Chemscore.DEInternal.Weighted>
7.3252

> <Gold.Chemscore.Rot.Weighted>
7.6772

> <Gold.Chemscore.Internal.Correction.Weighted>
   9.000000E+99

> <Gold.Protein.RotatedTorsions>
[ 6907 6896 6895 6894 ] final   95.95 input  -60.11 | X-H torsion
[ 7974 7965 7964 7962 ] final -116.84 input  175.53 | X-H torsion
[ 8008 7997 7996 7995 ] final  174.54 input   59.86 | X-H torsion
[ 10167 10162 10161 10158 ] final   -1.60 input  -65.29 | X-H torsion
[ 10718 10713 10712 10709 ] final  146.73 input   66.30 | X-H torsion
[ 10763 10752 10751 10750 ] final   25.02 input  -60.55 | X-H torsion
[ 11005 11000 10999 10996 ] final   97.15 input  -57.11 | X-H torsion

> <Gold.Protein.ActiveResidues>
 VAL166  LYS551  ARG553  GLY616  TRP617  ASP618  TYR619  PRO620  LYS621  CYS622 
 ASP623  PHE694  ASN695  SER759  ASP760  ASP761  ALA762  ILE779  LEU786  VAL792 
 PHE793  MET794  SER795  GLU796  ALA797  LYS798  CYS799  TRP800  GLU811  SER814 

> <Gold.Protein.RotatedAtoms>
  152.5439  134.0960  159.8297 H   0  0  0  0  0  0  0  0  0  0  0  0  # atno 6907 bound_to 6896
  151.1044  133.5212  159.2616 H   0  0  0  0  0  0  0  0  0  0  0  0  # atno 6908 bound_to 6896
  151.1955  135.0429  159.8904 H   0  0  0  0  0  0  0  0  0  0  0  0  # atno 6909 bound_to 6896
  145.0921  140.8496  143.3976 H   0  0  0  0  0  0  0  0  0  0  0  0  # atno 7974 bound_to 7965
  156.0964  140.1432  156.9525 H   0  0  0  0  0  0  0  0  0  0  0  0  # atno 8008 bound_to 7997
  154.4674  140.0921  156.7102 H   0  0  0  0  0  0  0  0  0  0  0  0  # atno 8009 bound_to 7997
  155.4834  140.3445  155.4345 H   0  0  0  0  0  0  0  0  0  0  0  0  # atno 8010 bound_to 7997
  140.6817  143.6756  150.8148 H   0  0  0  0  0  0  0  0  0  0  0  0  # atno 10167 bound_to 10162
  157.3297  131.0918  151.1173 H   0  0  0  0  0  0  0  0  0  0  0  0  # atno 10718 bound_to 10713
  153.0722  135.6592  154.0223 H   0  0  0  0  0  0  0  0  0  0  0  0  # atno 10763 bound_to 10752
  153.9866  135.2950  155.3417 H   0  0  0  0  0  0  0  0  0  0  0  0  # atno 10764 bound_to 10752
  154.7099  135.5209  153.8721 H   0  0  0  0  0  0  0  0  0  0  0  0  # atno 10765 bound_to 10752
  139.8777  134.8987  156.4265 H   0  0  0  0  0  0  0  0  0  0  0  0  # atno 11005 bound_to 11000
  145.1054  139.2794  143.5665 LP  0  0  0  0  0  0  0  0  0  0  0  0  # atno 17320 bound_to 7965
  146.3531  140.0634  142.8628 LP  0  0  0  0  0  0  0  0  0  0  0  0  # atno 17321 bound_to 7965
  140.0457  143.5301  152.2697 LP  0  0  0  0  0  0  0  0  0  0  0  0  # atno 17342 bound_to 10162
  139.6144  144.7616  151.2879 LP  0  0  0  0  0  0  0  0  0  0  0  0  # atno 17343 bound_to 10162
  157.2426  130.6576  149.5896 LP  0  0  0  0  0  0  0  0  0  0  0  0  # atno 17370 bound_to 10713
  155.9694  130.4563  150.5922 LP  0  0  0  0  0  0  0  0  0  0  0  0  # atno 17371 bound_to 10713
  140.9097  133.7720  155.9777 LP  0  0  0  0  0  0  0  0  0  0  0  0  # atno 17394 bound_to 11000
  140.8560  134.2897  157.5255 LP  0  0  0  0  0  0  0  0  0  0  0  0  # atno 17395 bound_to 11000

$$$$
