#       Name:                AV-unprocessed.smi:640
#       Creating user name   scv26
#       Creation time:       Fri Mar 27 00:07:26 2020


#       File generated by GOLD software.
#

@<TRIPOS>MOLECULE
AV-unprocessed.smi:640
    44    46     1
SMALL
NO_CHARGES


@<TRIPOS>ATOM
      1 ****        -0.2923   0.7901  -0.6944 O.2            1 S1                 0.0000
      2 ****         0.3857  -0.1163  -0.2091 C.2            1 S1                 0.0000
      3 ****         1.9114   0.0186  -0.1111 C.3            1 S1                 0.0000
      4 ****         2.3514   1.4114   0.0747 N.am           1 S1                 0.0000
      5 ****         2.7537   2.1176  -1.0764 C.2            1 S1                 0.0000
      6 ****         3.1665   3.3992  -1.0220 C.2            1 S1                 0.0000
      7 ****         3.5692   4.1120  -2.2145 N.pl3          1 S1                 1.0000
      8 ****         3.9549   5.2715  -2.1050 O.2            1 S1                 0.0000
      9 ****         3.5142   3.5384  -3.2983 O.2            1 S1                -1.0000
     10 ****         3.1899   4.0454   0.2762 C.2            1 S1                 0.0000
     11 ****         2.8024   3.3765   1.3799 C.2            1 S1                 0.0000
     12 ****         2.3475   1.9838   1.3173 C.2            1 S1                 0.0000
     13 ****         1.9851   1.3695   2.3209 O.2            1 S1                 0.0000
     14 ****        -0.1343  -1.2700   0.2376 N.am           1 S1                 0.0000
     15 ****        -1.5496  -1.6248   0.2302 C.3            1 S1                 0.0000
     16 ****        -1.9282  -2.4429   1.4512 C.3            1 S1                 0.0000
     17 ****        -3.3357  -2.4327   1.9997 C.3            1 S1                 0.0000
     18 ****        -2.2147  -1.7782   2.7761 C.3            1 S1                 0.0000
     19 ****        -1.9553  -2.3511  -1.0411 C.3            1 S1                 0.0000
     20 ****        -2.3083  -1.5944  -2.2995 C.3            1 S1                 0.0000
     21 ****        -3.3826  -2.3346  -1.5357 C.3            1 S1                 0.0000
     22 ****         2.2865  -0.6066   0.7016 H              1 S1                 0.0000
     23 ****         2.3461  -0.4036  -1.0182 H              1 S1                 0.0000
     24 ****         2.6927   1.5505  -1.9941 H              1 S1                 0.0000
     25 ****         3.5170   5.0702   0.3730 H              1 S1                 0.0000
     26 ****         2.8268   3.8775   2.3366 H              1 S1                 0.0000
     27 ****         0.5015  -1.9584   0.6138 H              1 S1                 0.0000
     28 ****        -2.1343  -0.7037   0.2797 H              1 S1                 0.0000
     29 ****        -1.4105  -3.3989   1.5085 H              1 S1                 0.0000
     30 ****        -4.0643  -1.7763   1.5280 H              1 S1                 0.0000
     31 ****        -3.7323  -3.3711   2.3817 H              1 S1                 0.0000
     32 ****        -1.8650  -2.2805   3.6756 H              1 S1                 0.0000
     33 ****        -2.1957  -0.6906   2.8118 H              1 S1                 0.0000
     34 ****        -1.4203  -3.2873  -1.1912 H              1 S1                 0.0000
     35 ****        -2.3204  -0.5073  -2.2533 H              1 S1                 0.0000
     36 ****        -1.9802  -2.0172  -3.2468 H              1 S1                 0.0000
     37 ****        -3.7723  -3.2505  -1.9751 H              1 S1                 0.0000
     38 ****        -4.1070  -1.7344  -0.9889 H              1 S1                 0.0000
     39 ****         0.1508   1.6221  -1.0283 LP             1 S1                 0.0000
     40 ****        -1.2858   0.6941  -0.7545 LP             1 S1                 0.0000
     41 ****         3.9862   5.7051  -1.2044 LP             1 S1                 0.0000
     42 ****         4.2381   5.7830  -2.9163 LP             1 S1                 0.0000
     43 ****         1.6805   0.4202   2.2433 LP             1 S1                 0.0000
     44 ****         1.9954   1.8199   3.2137 LP             1 S1                 0.0000
@<TRIPOS>BOND
    1    1    2 2     
    2    2    3 1     
    3    2   14 am    
    4    3    4 1     
    5    3   22 1     
    6    3   23 1     
    7    4   12 am    
    8    4    5 1     
    9    5    6 2     
   10    5   24 1     
   11    6    7 1     
   12    6   10 1     
   13    7    8 2     
   14    7    9 1     
   15   10   11 2     
   16   10   25 1     
   17   11   12 1     
   18   11   26 1     
   19   12   13 2     
   20   14   15 1     
   21   14   27 1     
   22   15   16 1     
   23   15   19 1     
   24   15   28 1     
   25   16   18 1     
   26   16   17 1     
   27   16   29 1     
   28   17   18 1     
   29   17   30 1     
   30   17   31 1     
   31   18   32 1     
   32   18   33 1     
   33   19   21 1     
   34   19   20 1     
   35   19   34 1     
   36   20   21 1     
   37   20   35 1     
   38   20   36 1     
   39   21   37 1     
   40   21   38 1     
   41    1   39 1     
   42    1   40 1     
   43    8   41 1     
   44    8   42 1     
   45   13   43 1     
   46   13   44 1     
@<TRIPOS>SUBSTRUCTURE
      1 S1             1
@<TRIPOS>SET
LONE_PAIRS      STATIC     ATOMS    <user>   **** ""
7 39 40 41 42 9 43 44
DONOR_HYDROGENS      STATIC     ATOMS    <user>   **** ""
1 27
ATOM$BLUE        STATIC     ATOMS    COLORGROUP SYSTEM
7 39 40 41 42 9 43 44
ATOM$RED        STATIC     ATOMS    COLORGROUP SYSTEM
1 27
