AV-unprocessed.smi:3178|AV-procd|sdf|12130|dock8
  -GOLD-   2272017573D 1   1.00000     0.00000
 Structure written by MMmdl.
 35 35  0  0  0  0  0  0  0  0  1 V2000
  153.0157  144.0763  159.1344 C   0  0  0  0  0  0  0  0  0  0  0  0
  153.8095  142.9588  159.5134 O   0  0  0  0  0  0  0  0  0  0  0  0
  153.2899  142.0625  160.5021 C   0  0  0  0  0  0  0  0  0  0  0  0
  154.2104  140.8297  160.5944 C   0  0  0  0  0  0  0  0  0  0  0  0
  153.1534  142.7409  161.8858 C   0  0  0  0  0  0  0  0  0  0  0  0
  151.9059  141.6189  159.9679 C   0  0  0  0  0  0  0  0  0  0  0  0
  151.9689  141.2092  158.5685 N   0  0  0  0  0  0  0  0  0  0  0  0
  151.1876  140.2810  157.9944 C   0  0  0  0  0  0  0  0  0  0  0  0
  150.1989  139.7900  158.5387 O   0  0  0  0  0  0  0  0  0  0  0  0
  151.6170  139.8014  156.6077 C   0  0  0  0  0  0  0  0  0  0  0  0
  150.6081  140.2518  155.5820 C   0  0  0  0  0  0  0  0  0  0  0  0
  149.7222  141.3688  155.6503 C   0  0  0  0  0  0  0  0  0  0  0  0
  148.9999  141.3010  154.4931 C   0  0  0  0  0  0  0  0  0  0  0  0
  147.9029  142.1639  153.9686 C   0  0  0  0  0  0  0  0  0  0  0  0
  149.4724  140.2040  153.8102 N   0  0  0  0  0  0  0  0  0  0  0  0
  150.4545  139.5563  154.4638 N   0  0  0  0  0  0  0  0  0  0  0  0
  149.1380  139.8899  152.9103 H   0  0  0  0  0  0  0  0  0  0  0  0
  153.5910  144.7001  158.4509 H   0  0  0  0  0  0  0  0  0  0  0  0
  152.7351  144.6958  159.9852 H   0  0  0  0  0  0  0  0  0  0  0  0
  152.1140  143.7691  158.6048 H   0  0  0  0  0  0  0  0  0  0  0  0
  153.7826  140.0699  161.2494 H   0  0  0  0  0  0  0  0  0  0  0  0
  155.1928  141.0782  160.9946 H   0  0  0  0  0  0  0  0  0  0  0  0
  154.3579  140.3741  159.6147 H   0  0  0  0  0  0  0  0  0  0  0  0
  152.6227  142.0951  162.5861 H   0  0  0  0  0  0  0  0  0  0  0  0
  152.6053  143.6816  161.8238 H   0  0  0  0  0  0  0  0  0  0  0  0
  154.1252  142.9578  162.3294 H   0  0  0  0  0  0  0  0  0  0  0  0
  151.4925  140.8204  160.5867 H   0  0  0  0  0  0  0  0  0  0  0  0
  151.2000  142.4475  160.0334 H   0  0  0  0  0  0  0  0  0  0  0  0
  152.7486  141.5600  158.0311 H   0  0  0  0  0  0  0  0  0  0  0  0
  152.6025  140.2038  156.3701 H   0  0  0  0  0  0  0  0  0  0  0  0
  151.7153  138.7148  156.6197 H   0  0  0  0  0  0  0  0  0  0  0  0
  149.6229  142.0982  156.4406 H   0  0  0  0  0  0  0  0  0  0  0  0
  148.2234  143.2042  153.9131 H   0  0  0  0  0  0  0  0  0  0  0  0
  147.0303  142.1135  154.6200 H   0  0  0  0  0  0  0  0  0  0  0  0
  147.5959  141.8521  152.9699 H   0  0  0  0  0  0  0  0  0  0  0  0
  1  2  1  0  0  0  0
  1 18  1  0  0  0  0
  1 19  1  0  0  0  0
  1 20  1  0  0  0  0
  2  3  1  0  0  0  0
  3  4  1  0  0  0  0
  3  5  1  0  0  0  0
  3  6  1  0  0  0  0
  4 21  1  0  0  0  0
  4 22  1  0  0  0  0
  4 23  1  0  0  0  0
  5 24  1  0  0  0  0
  5 25  1  0  0  0  0
  5 26  1  0  0  0  0
  6  7  1  0  0  0  0
  6 27  1  0  0  0  0
  6 28  1  0  0  0  0
  7  8  1  0  0  0  0
  7 29  1  0  0  0  0
  8  9  2  0  0  0  0
  8 10  1  0  0  0  0
 10 11  1  0  0  0  0
 10 30  1  0  0  0  0
 10 31  1  0  0  0  0
 11 16  2  0  0  0  0
 11 12  1  0  0  0  0
 12 13  2  0  0  0  0
 12 32  1  0  0  0  0
 13 14  1  0  0  0  0
 13 15  1  0  0  0  0
 14 33  1  0  0  0  0
 14 34  1  0  0  0  0
 14 35  1  0  0  0  0
 15 17  1  0  0  0  0
 15 16  1  0  0  0  0
M  END
> <s_m_source_file>
AV-unprocessed.smi

> <i_m_source_file_index>
3178

> <i_lp_mmshare_version>
43012

> <i_f3d_flags>
0

> <s_epik_input>
W0NIM11PQyhbQ0gzXSkoW0NIM10pW0NIMl1bTkhdQyg9TylbQ0gyXWMxW2NIXWMoW0NIM10pW25IXW4x

> <s_epik_cmdline>
J2VwaWtfcHl0aG9uJywgJy1waCcsICc3LjAnLCAnLXRuJywgJzgnLCAnLW1hJywgJzIwMCcsICctbWV0YWxfYmluZGluZycsICctaW1hZScsICc8aW5maWxlLm1hZT4nLCAnLW9tYWUnLCAnPG91dGZpbGUubWFlPic=

> <r_lp_tautomer_probability>
0.5

> <r_epik_Ionization_Penalty>
8.10473e-05

> <r_epik_Ionization_Penalty_Charging>
0

> <r_epik_Ionization_Penalty_Neutral>
8.10473e-05

> <r_epik_State_Penalty>
0.41068

> <r_epik_Charging_Adjusted_Penalty>
0.41068

> <i_epik_Tot_Q>
0

> <i_epik_Tot_abs_Q>
0

> <r_epik_Metal_State_Penalty>
0.410702

> <b_epik_Metal_Only>
0

> <s_lp_Force_Field>
OPLS_2005

> <r_lp_Energy>
5.73531

> <b_lp_Chiralities_Consistent>
1

> <s_lp_Variant>
AV-unprocessed.smi:3178-1

> <Gold.Version>
5.8.1

> <Gold.Id.Protein>
6NUR|6NUR_protein|mol2

> <Gold.PLP.Fitness>
40.5720

> <Gold.PLP.PLP>
-36.8714

> <Gold.PLP.part.hbond>
-1.9438

> <Gold.PLP.part.metal>
0.0000

> <Gold.PLP.part.buried>
-4.4897

> <Gold.PLP.part.nonpolar>
-31.5169

> <Gold.PLP.part.repulsive>
1.6986

> <Gold.PLP.ligand.clash>
0.0000

> <Gold.PLP.ligand.torsion>
0.7339

> <Gold.PLP.Chemscore.Hbond>
1.7140

> <Gold.PLP.Chemscore.CHOScore>
0.0000

> <Gold.PLP.Chemscore.Metal>
0.0000

> <Gold.Chemscore.Hbonds>
donor molecule, donor type, donor heavy atom, donor atom, acceptor molecule, acceptor atom, score
      L1  H    15    17       P1  7957  0.77
      P1  H  7989  7998       L1    16  0.08

> <Gold.PLP.Chemscore.Internal.Correction>
0.0265

> <Gold.Rescore>
     Score         DG    S(hbond)    S(metal)    S(lipo)     H(rot)  DE(clash)    DE(int)     intcor
     11.74     -12.21       0.27        0.00      91.18       1.89       0.09       0.38       ----

> <Gold.Chemscore.Fitness>
11.7394

> <Gold.Chemscore.DG>
-12.2083

> <Gold.Chemscore.ZeroCoef>
-5.4800

> <Gold.Chemscore.Hbond>
0.2673

> <Gold.Chemscore.Metal>
0.0000

> <Gold.Chemscore.Lipo>
91.1790

> <Gold.Chemscore.Internal_Hbond>
0.0000

> <Gold.Chemscore.DEClash>
0.0899

> <Gold.Chemscore.DEInternal>
0.3789

> <Gold.Chemscore.Rot>
1.8877

> <Gold.Chemscore.Internal.Correction>
   9.000000E+99

> <Gold.Chemscore.Hbonds>
donor molecule, donor type, donor heavy atom, donor atom, acceptor molecule, acceptor atom, score
      L1  H    15    17       P1  7957  0.76

> <Gold.Chemscore.Hbond.Weighted>
-0.8928

> <Gold.Chemscore.Metal.Weighted>
-0.0000

> <Gold.Chemscore.Lipo.Weighted>
-10.6679

> <Gold.Chemscore.Internal_Hbond.Weighted>
0.0000

> <Gold.Chemscore.DEClash.Weighted>
0.0899

> <Gold.Chemscore.DEInternal.Weighted>
0.3789

> <Gold.Chemscore.Rot.Weighted>
4.8325

> <Gold.Chemscore.Internal.Correction.Weighted>
   9.000000E+99

> <Gold.Protein.RotatedTorsions>
[ 6907 6896 6895 6894 ] final  -16.03 input  -60.11 | X-H torsion
[ 7974 7965 7964 7962 ] final   62.24 input  175.53 | X-H torsion
[ 8008 7997 7996 7995 ] final   -5.76 input   59.86 | X-H torsion
[ 10167 10162 10161 10158 ] final  142.67 input  -65.29 | X-H torsion
[ 10718 10713 10712 10709 ] final -165.64 input   66.30 | X-H torsion
[ 10763 10752 10751 10750 ] final -132.57 input  -60.55 | X-H torsion
[ 11005 11000 10999 10996 ] final   92.01 input  -57.11 | X-H torsion

> <Gold.Protein.ActiveResidues>
 VAL166  LYS551  ARG553  GLY616  TRP617  ASP618  TYR619  PRO620  LYS621  CYS622 
 ASP623  PHE694  ASN695  SER759  ASP760  ASP761  ALA762  ILE779  LEU786  VAL792 
 PHE793  MET794  SER795  GLU796  ALA797  LYS798  CYS799  TRP800  GLU811  SER814 

> <Gold.Protein.RotatedAtoms>
  151.3148  135.0803  159.9284 H   0  0  0  0  0  0  0  0  0  0  0  0  # atno 6907 bound_to 6896
  152.5270  133.9699  159.7767 H   0  0  0  0  0  0  0  0  0  0  0  0  # atno 6908 bound_to 6896
  151.0009  133.6005  159.2725 H   0  0  0  0  0  0  0  0  0  0  0  0  # atno 6909 bound_to 6896
  145.8756  139.3408  143.0736 H   0  0  0  0  0  0  0  0  0  0  0  0  # atno 7974 bound_to 7965
  154.6006  140.2450  155.7798 H   0  0  0  0  0  0  0  0  0  0  0  0  # atno 8008 bound_to 7997
  156.2308  140.2967  156.0136 H   0  0  0  0  0  0  0  0  0  0  0  0  # atno 8009 bound_to 7997
  155.2218  140.0400  157.2940 H   0  0  0  0  0  0  0  0  0  0  0  0  # atno 8010 bound_to 7997
  139.4988  144.6091  151.6311 H   0  0  0  0  0  0  0  0  0  0  0  0  # atno 10167 bound_to 10162
  156.6563  130.9028  151.3022 H   0  0  0  0  0  0  0  0  0  0  0  0  # atno 10718 bound_to 10713
  154.8742  135.3794  154.4431 H   0  0  0  0  0  0  0  0  0  0  0  0  # atno 10763 bound_to 10752
  153.5114  135.7029  153.5784 H   0  0  0  0  0  0  0  0  0  0  0  0  # atno 10764 bound_to 10752
  153.4072  135.3933  155.1992 H   0  0  0  0  0  0  0  0  0  0  0  0  # atno 10765 bound_to 10752
  139.8830  134.8708  156.3511 H   0  0  0  0  0  0  0  0  0  0  0  0  # atno 11005 bound_to 11000
  145.9085  140.9196  143.0466 LP  0  0  0  0  0  0  0  0  0  0  0  0  # atno 17320 bound_to 7965
  144.6726  140.1128  143.7454 LP  0  0  0  0  0  0  0  0  0  0  0  0  # atno 17321 bound_to 7965
  140.5761  144.0026  150.6242 LP  0  0  0  0  0  0  0  0  0  0  0  0  # atno 17342 bound_to 10162
  140.3159  143.3168  152.0832 LP  0  0  0  0  0  0  0  0  0  0  0  0  # atno 17343 bound_to 10162
  157.7124  130.9457  150.1137 LP  0  0  0  0  0  0  0  0  0  0  0  0  # atno 17370 bound_to 10713
  156.2045  130.3662  149.8746 LP  0  0  0  0  0  0  0  0  0  0  0  0  # atno 17371 bound_to 10713
  140.9594  133.7399  156.0380 LP  0  0  0  0  0  0  0  0  0  0  0  0  # atno 17394 bound_to 11000
  140.8009  134.3510  157.5440 LP  0  0  0  0  0  0  0  0  0  0  0  0  # atno 17395 bound_to 11000

$$$$
