AV-unprocessed.smi:3272|AV-procd|sdf|12518|dock10
  -GOLD-   2272018433D 1   1.00000     0.00000
 Structure written by MMmdl.
 35 36  0  0  0  0  0  0  0  0  1 V2000
  143.7207  132.7574  148.5899 C   0  0  0  0  0  0  0  0  0  0  0  0
  143.8529  132.3244  150.0548 C   0  0  0  0  0  0  0  0  0  0  0  0
  144.3019  133.4149  150.8980 N   0  0  0  0  0  0  0  0  0  0  0  0
  145.3842  134.2511  150.7080 C   0  0  0  0  0  0  0  0  0  0  0  0
  145.3747  135.1131  151.7680 C   0  0  0  0  0  0  0  0  0  0  0  0
  146.2566  136.1825  152.0663 N   0  0  0  0  0  0  0  0  0  0  0  0
  145.9303  137.4167  152.4831 C   0  0  0  0  0  0  0  0  0  0  0  0
  144.7816  137.8269  152.6488 O   0  0  0  0  0  0  0  0  0  0  0  0
  147.0245  138.1632  152.6912 N   0  0  0  0  0  0  0  0  0  0  0  0
  147.0314  139.5552  153.1296 C   0  0  0  0  0  0  0  0  0  0  0  0
  148.1158  139.8111  154.1922 C   0  0  2  0  0  0  0  0  0  0  0  0
  148.4085  141.2785  154.4281 C   0  0  0  0  0  0  0  0  0  0  0  0
  149.7656  141.2246  155.1239 C   0  0  0  0  0  0  0  0  0  0  0  0
  150.4183  140.0625  154.6199 O   0  0  0  0  0  0  0  0  0  0  0  0
  149.5107  139.2925  153.8376 C   0  0  0  0  0  0  0  0  0  0  0  0
  144.2582  134.7404  152.5605 C   0  0  0  0  0  0  0  0  0  0  0  0
  143.6156  133.7115  152.0294 N   0  0  0  0  0  0  0  0  0  0  0  0
  143.3955  131.9239  147.9672 H   0  0  0  0  0  0  0  0  0  0  0  0
  144.6736  133.1145  148.1982 H   0  0  0  0  0  0  0  0  0  0  0  0
  142.9902  133.5594  148.4792 H   0  0  0  0  0  0  0  0  0  0  0  0
  142.8967  131.9586  150.4314 H   0  0  0  0  0  0  0  0  0  0  0  0
  144.5635  131.5017  150.1413 H   0  0  0  0  0  0  0  0  0  0  0  0
  146.0388  134.1578  149.8541 H   0  0  0  0  0  0  0  0  0  0  0  0
  147.2400  135.9859  151.9512 H   0  0  0  0  0  0  0  0  0  0  0  0
  147.9250  137.7374  152.5277 H   0  0  0  0  0  0  0  0  0  0  0  0
  147.1535  140.2333  152.2830 H   0  0  0  0  0  0  0  0  0  0  0  0
  146.0502  139.7724  153.5522 H   0  0  0  0  0  0  0  0  0  0  0  0
  147.8073  139.3659  155.1398 H   0  0  0  0  0  0  0  0  0  0  0  0
  148.4973  141.8069  153.4776 H   0  0  0  0  0  0  0  0  0  0  0  0
  147.6455  141.7779  155.0259 H   0  0  0  0  0  0  0  0  0  0  0  0
  150.3583  142.1226  154.9476 H   0  0  0  0  0  0  0  0  0  0  0  0
  149.6373  141.1097  156.2008 H   0  0  0  0  0  0  0  0  0  0  0  0
  149.6241  138.2260  154.0338 H   0  0  0  0  0  0  0  0  0  0  0  0
  149.7319  139.4676  152.7839 H   0  0  0  0  0  0  0  0  0  0  0  0
  143.8994  135.1725  153.4831 H   0  0  0  0  0  0  0  0  0  0  0  0
  1  2  1  0  0  0  0
  1 18  1  0  0  0  0
  1 19  1  0  0  0  0
  1 20  1  0  0  0  0
  2  3  1  0  0  0  0
  2 21  1  0  0  0  0
  2 22  1  0  0  0  0
  3 17  1  0  0  0  0
  3  4  1  0  0  0  0
  4  5  2  0  0  0  0
  4 23  1  0  0  0  0
  5  6  1  0  0  0  0
  5 16  1  0  0  0  0
  6  7  1  0  0  0  0
  6 24  1  0  0  0  0
  7  8  2  0  0  0  0
  7  9  1  0  0  0  0
  9 10  1  0  0  0  0
  9 25  1  0  0  0  0
 10 11  1  0  0  0  0
 10 26  1  0  0  0  0
 10 27  1  0  0  0  0
 11 15  1  0  0  0  0
 11 12  1  0  0  0  0
 11 28  1  0  0  0  0
 12 13  1  0  0  0  0
 12 29  1  0  0  0  0
 12 30  1  0  0  0  0
 13 14  1  0  0  0  0
 13 31  1  0  0  0  0
 13 32  1  0  0  0  0
 14 15  1  0  0  0  0
 15 33  1  0  0  0  0
 15 34  1  0  0  0  0
 16 17  2  0  0  0  0
 16 35  1  0  0  0  0
M  END
> <s_m_source_file>
AV-unprocessed.smi

> <i_m_source_file_index>
3272

> <i_lp_mmshare_version>
43012

> <i_f3d_flags>
0

> <s_epik_input>
W0NIM11bQ0gyXW4xW2NIXWMoW2NIXW4xKVtOSF1DKD1PKVtOSF1bQ0gyXVtDQEBIXTJbQ0gyXVtDSDJdT1tDSDJdMg==

> <s_epik_cmdline>
J2VwaWtfcHl0aG9uJywgJy1waCcsICc3LjAnLCAnLXRuJywgJzgnLCAnLW1hJywgJzIwMCcsICctbWV0YWxfYmluZGluZycsICctaW1hZScsICc8aW5maWxlLm1hZT4nLCAnLW9tYWUnLCAnPG91dGZpbGUubWFlPic=

> <r_lp_tautomer_probability>
1

> <r_epik_Ionization_Penalty>
0.000182896

> <r_epik_Ionization_Penalty_Charging>
0

> <r_epik_Ionization_Penalty_Neutral>
0.000182896

> <r_epik_State_Penalty>
-0

> <r_epik_Charging_Adjusted_Penalty>
0

> <i_epik_Tot_Q>
0

> <i_epik_Tot_abs_Q>
0

> <r_epik_Metal_State_Penalty>
-0

> <b_epik_Metal_Only>
0

> <s_lp_Force_Field>
OPLS_2005

> <r_lp_Energy>
22.7112

> <b_lp_Chiralities_Consistent>
1

> <s_lp_Variant>
AV-unprocessed.smi:3272-1

> <Gold.Version>
5.8.1

> <Gold.Id.Protein>
6NUR|6NUR_protein|mol2

> <Gold.PLP.Fitness>
41.9865

> <Gold.PLP.PLP>
-31.4995

> <Gold.PLP.part.hbond>
-3.0000

> <Gold.PLP.part.metal>
0.0000

> <Gold.PLP.part.buried>
-2.4265

> <Gold.PLP.part.nonpolar>
-28.1636

> <Gold.PLP.part.repulsive>
2.6249

> <Gold.PLP.ligand.clash>
0.0000

> <Gold.PLP.ligand.torsion>
0.6478

> <Gold.PLP.Chemscore.Hbond>
2.9760

> <Gold.PLP.Chemscore.CHOScore>
0.9492

> <Gold.PLP.Chemscore.Metal>
0.0000

> <Gold.Chemscore.Hbonds>
donor molecule, donor type, donor heavy atom, donor atom, acceptor molecule, acceptor atom, score
      L1  H     6    24       P1  7948  1.00
      L1  H     9    25       P1  7948  0.99
      P1  H  7989  7998       L1    14  0.95
      L1  C     4    23       P1  7921  1.00

> <Gold.PLP.Chemscore.Internal.Correction>
0.0071

> <Gold.Rescore>
     Score         DG    S(hbond)    S(metal)    S(lipo)     H(rot)  DE(clash)    DE(int)     intcor
     16.62     -18.86       2.53        0.00      72.80       1.41       1.63       0.62       ----

> <Gold.Chemscore.Fitness>
16.6158

> <Gold.Chemscore.DG>
-18.8578

> <Gold.Chemscore.ZeroCoef>
-5.4800

> <Gold.Chemscore.Hbond>
2.5331

> <Gold.Chemscore.Metal>
0.0000

> <Gold.Chemscore.Lipo>
72.7998

> <Gold.Chemscore.Internal_Hbond>
0.0000

> <Gold.Chemscore.DEClash>
1.6264

> <Gold.Chemscore.DEInternal>
0.6156

> <Gold.Chemscore.Rot>
1.4064

> <Gold.Chemscore.Internal.Correction>
   9.000000E+99

> <Gold.Chemscore.Hbonds>
donor molecule, donor type, donor heavy atom, donor atom, acceptor molecule, acceptor atom, score
      L1  H     6    24       P1  7948  1.00
      L1  H     9    25       P1  7948  0.93
      P1  H  7989  7998       L1    14  0.14

> <Gold.Chemscore.Hbond.Weighted>
-8.4606

> <Gold.Chemscore.Metal.Weighted>
-0.0000

> <Gold.Chemscore.Lipo.Weighted>
-8.5176

> <Gold.Chemscore.Internal_Hbond.Weighted>
0.0000

> <Gold.Chemscore.DEClash.Weighted>
1.6264

> <Gold.Chemscore.DEInternal.Weighted>
0.6156

> <Gold.Chemscore.Rot.Weighted>
3.6004

> <Gold.Chemscore.Internal.Correction.Weighted>
   9.000000E+99

> <Gold.Protein.RotatedTorsions>
[ 6907 6896 6895 6894 ] final -177.03 input  -60.11 | X-H torsion
[ 7974 7965 7964 7962 ] final   13.21 input  175.53 | X-H torsion
[ 8008 7997 7996 7995 ] final  160.71 input   59.86 | X-H torsion
[ 10167 10162 10161 10158 ] final -154.35 input  -65.29 | X-H torsion
[ 10718 10713 10712 10709 ] final   -6.17 input   66.30 | X-H torsion
[ 10763 10752 10751 10750 ] final   85.04 input  -60.55 | X-H torsion
[ 11005 11000 10999 10996 ] final  166.47 input  -57.11 | X-H torsion

> <Gold.Protein.ActiveResidues>
 VAL166  LYS551  ARG553  GLY616  TRP617  ASP618  TYR619  PRO620  LYS621  CYS622 
 ASP623  PHE694  ASN695  SER759  ASP760  ASP761  ALA762  ILE779  LEU786  VAL792 
 PHE793  MET794  SER795  GLU796  ALA797  LYS798  CYS799  TRP800  GLU811  SER814 

> <Gold.Protein.RotatedAtoms>
  151.6144  133.3344  159.3074 H   0  0  0  0  0  0  0  0  0  0  0  0  # atno 6907 bound_to 6896
  150.8139  134.7313  159.6724 H   0  0  0  0  0  0  0  0  0  0  0  0  # atno 6908 bound_to 6896
  152.4235  134.5916  160.0027 H   0  0  0  0  0  0  0  0  0  0  0  0  # atno 6909 bound_to 6896
  146.2334  139.9222  142.8508 H   0  0  0  0  0  0  0  0  0  0  0  0  # atno 7974 bound_to 7965
  156.2153  140.1797  156.7602 H   0  0  0  0  0  0  0  0  0  0  0  0  # atno 8008 bound_to 7997
  154.5783  140.0670  156.9095 H   0  0  0  0  0  0  0  0  0  0  0  0  # atno 8009 bound_to 7997
  155.2548  140.3331  155.4281 H   0  0  0  0  0  0  0  0  0  0  0  0  # atno 8010 bound_to 7997
  139.7021  143.9246  152.2433 H   0  0  0  0  0  0  0  0  0  0  0  0  # atno 10167 bound_to 10162
  156.7359  130.5194  149.5835 H   0  0  0  0  0  0  0  0  0  0  0  0  # atno 10718 bound_to 10713
  153.1438  135.4632  154.9535 H   0  0  0  0  0  0  0  0  0  0  0  0  # atno 10763 bound_to 10752
  154.7769  135.3176  154.8075 H   0  0  0  0  0  0  0  0  0  0  0  0  # atno 10764 bound_to 10752
  153.8593  135.6914  153.4838 H   0  0  0  0  0  0  0  0  0  0  0  0  # atno 10765 bound_to 10752
  140.2668  134.7859  157.3639 H   0  0  0  0  0  0  0  0  0  0  0  0  # atno 11005 bound_to 11000
  145.2125  140.9901  143.4092 LP  0  0  0  0  0  0  0  0  0  0  0  0  # atno 17320 bound_to 7965
  144.9679  139.3911  143.6323 LP  0  0  0  0  0  0  0  0  0  0  0  0  # atno 17321 bound_to 7965
  139.9092  144.6867  150.8581 LP  0  0  0  0  0  0  0  0  0  0  0  0  # atno 17342 bound_to 10162
  140.7712  143.3456  151.2118 LP  0  0  0  0  0  0  0  0  0  0  0  0  # atno 17343 bound_to 10162
  156.1497  130.6302  151.0579 LP  0  0  0  0  0  0  0  0  0  0  0  0  # atno 17370 bound_to 10713
  157.6839  131.0830  150.7295 LP  0  0  0  0  0  0  0  0  0  0  0  0  # atno 17371 bound_to 10713
  140.1412  134.4970  155.8030 LP  0  0  0  0  0  0  0  0  0  0  0  0  # atno 17394 bound_to 11000
  141.2183  133.6826  156.7213 LP  0  0  0  0  0  0  0  0  0  0  0  0  # atno 17395 bound_to 11000

$$$$
