#       Name:                AV-unprocessed.smi:1513
#       Creating user name   scv26
#       Creation time:       Fri Mar 27 06:24:44 2020


#       File generated by GOLD software.
#

@<TRIPOS>MOLECULE
AV-unprocessed.smi:1513
    38    39     1
SMALL
NO_CHARGES


@<TRIPOS>ATOM
      1 ****        -1.9952   2.6948   0.3995 N.pl3          1 S1                -1.0000
      2 ****        -2.3370   2.7254  -1.1834 S.o2           1 S1                 0.0000
      3 ****        -3.7886   2.5948  -1.3780 O.2            1 S1                 0.0000
      4 ****        -1.7140   3.8842  -1.8461 O.2            1 S1                 0.0000
      5 ****        -1.6032   1.3167  -1.5544 N.pl3          1 S1                -1.0000
      6 ****        -0.1789   1.2366  -1.8642 C.3            1 S1                 0.0000
      7 ****         0.3279  -0.2067  -1.7692 C.ar           1 S1                 0.0000
      8 ****         0.5592  -0.9178  -2.9736 C.ar           1 S1                 0.0000
      9 ****         1.0289  -2.2452  -2.9331 C.ar           1 S1                 0.0000
     10 ****         1.2596  -2.8496  -1.6855 C.ar           1 S1                 0.0000
     11 ****         1.0291  -2.1544  -0.5533 N.pl3          1 S1                 1.0000
     12 ****         0.5780  -0.8739  -0.5275 C.ar           1 S1                 0.0000
     13 ****         0.3720  -0.2983   0.7443 N.3            1 S1                 0.0000
     14 ****        -0.8183  -0.8069   1.4153 C.3            1 S1                 0.0000
     15 ****        -1.0513  -0.0504   2.7348 C.3            1 S1                 0.0000
     16 ****         0.1202  -0.1217   3.5430 O.3            1 S1                 0.0000
     17 ****         1.2428   0.4771   2.9024 C.3            1 S1                 0.0000
     18 ****         1.5502  -0.2839   1.6025 C.3            1 S1                 0.0000
     19 ****        -1.2410   3.3686   0.5784 H              1 S1                 0.0000
     20 ****         0.0400   1.6245  -2.8596 H              1 S1                 0.0000
     21 ****         0.4243   1.8358  -1.1815 H              1 S1                 0.0000
     22 ****         0.3812  -0.4649  -3.9400 H              1 S1                 0.0000
     23 ****         1.2061  -2.7907  -3.8482 H              1 S1                 0.0000
     24 ****         1.6151  -3.8616  -1.5585 H              1 S1                 0.0000
     25 ****        -1.6861  -0.6949   0.7639 H              1 S1                 0.0000
     26 ****        -0.6990  -1.8723   1.6151 H              1 S1                 0.0000
     27 ****        -1.3099   0.9924   2.5489 H              1 S1                 0.0000
     28 ****        -1.8868  -0.4917   3.2781 H              1 S1                 0.0000
     29 ****         1.0441   1.5313   2.7008 H              1 S1                 0.0000
     30 ****         2.0998   0.4361   3.5747 H              1 S1                 0.0000
     31 ****         1.8534  -1.3047   1.8382 H              1 S1                 0.0000
     32 ****         2.3806   0.1901   1.0777 H              1 S1                 0.0000
     33 ****         1.1971  -2.6199   0.3384 H              1 S1                 0.0000
     34 ****        -2.4416   2.1191   1.0845 LP             1 S1                 0.0000
     35 ****        -2.1482   0.4784  -1.5702 LP             1 S1                 0.0000
     36 ****         0.1938   0.6670   0.5534 LP             1 S1                 0.0000
     37 ****         0.3276  -1.0822   3.7281 LP             1 S1                 0.0000
     38 ****        -0.0522   0.3543   4.4054 LP             1 S1                 0.0000
@<TRIPOS>BOND
    1    1    2 1     
    2    1   19 1     
    3    2    3 2     
    4    2    4 2     
    5    2    5 1     
    6    5    6 1     
    7    6    7 1     
    8    6   20 1     
    9    6   21 1     
   10    7   12 ar    
   11    7    8 ar    
   12    8    9 ar    
   13    8   22 1     
   14    9   10 ar    
   15    9   23 1     
   16   10   11 ar    
   17   10   24 1     
   18   11   12 ar    
   19   11   33 1     
   20   12   13 1     
   21   13   18 1     
   22   13   14 1     
   23   14   15 1     
   24   14   25 1     
   25   14   26 1     
   26   15   16 1     
   27   15   27 1     
   28   15   28 1     
   29   16   17 1     
   30   17   18 1     
   31   17   29 1     
   32   17   30 1     
   33   18   31 1     
   34   18   32 1     
   35    1   34 1     
   36    5   35 1     
   37   13   36 1     
   38   16   37 1     
   39   16   38 1     
@<TRIPOS>SUBSTRUCTURE
      1 S1             1
@<TRIPOS>SET
LONE_PAIRS      STATIC     ATOMS    <user>   **** ""
7 34 3 4 35 36 37 38
DONOR_HYDROGENS      STATIC     ATOMS    <user>   **** ""
2 19 33
ATOM$BLUE        STATIC     ATOMS    COLORGROUP SYSTEM
7 34 3 4 35 36 37 38
ATOM$RED        STATIC     ATOMS    COLORGROUP SYSTEM
2 19 33
