#       Name:                AV-unprocessed.smi:2209
#       Creating user name   scv26
#       Creation time:       Fri Mar 27 12:16:31 2020


#       File generated by GOLD software.
#

@<TRIPOS>MOLECULE
AV-unprocessed.smi:2209
    30    31     1
SMALL
NO_CHARGES


@<TRIPOS>ATOM
      1 ****        -4.1316   1.8518   0.0181 C.3            1 S1                 0.0000
      2 ****        -2.6408   1.8380   0.0099 C.2            1 S1                 0.0000
      3 ****        -1.9385   2.9643   0.0125 N.2            1 S1                 0.0000
      4 ****        -0.6093   2.5175   0.0016 O.3            1 S1                 0.0000
      5 ****        -0.6736   1.1643  -0.0068 C.2            1 S1                 0.0000
      6 ****         0.6004   0.3788  -0.0162 C.3            1 S1                 0.0000
      7 ****         0.7408  -0.4818  -1.2861 C.3            1 S1                 0.0000
      8 ****         2.0519  -1.2823  -1.2521 C.3            1 S1                 0.0000
      9 ****         2.1591  -2.1084   0.0404 C.3            1 S1                 0.0000
     10 ****         2.0307  -1.2376   1.2292 N.4            1 S1                 1.0000
     11 ****         0.7610  -0.4775   1.2565 C.3            1 S1                 0.0000
     12 ****        -1.9161   0.6855   0.0013 N.2            1 S1                 0.0000
     13 ****        -4.5137   2.8733   0.0206 H              1 S1                 0.0000
     14 ****        -4.5079   1.3414   0.9049 H              1 S1                 0.0000
     15 ****        -4.5173   1.3425  -0.8652 H              1 S1                 0.0000
     16 ****         1.4167   1.1033  -0.0245 H              1 S1                 0.0000
     17 ****        -0.1020  -1.1700  -1.3643 H              1 S1                 0.0000
     18 ****         0.7119   0.1485  -2.1757 H              1 S1                 0.0000
     19 ****         2.1107  -1.9386  -2.1210 H              1 S1                 0.0000
     20 ****         2.9002  -0.6000  -1.3218 H              1 S1                 0.0000
     21 ****         1.3822  -2.8738   0.0682 H              1 S1                 0.0000
     22 ****         3.1181  -2.6256   0.0802 H              1 S1                 0.0000
     23 ****         2.0892  -1.8079   2.0609 H              1 S1                 0.0000
     24 ****         0.7492   0.1550   2.1447 H              1 S1                 0.0000
     25 ****        -0.0693  -1.1786   1.3539 H              1 S1                 0.0000
     26 ****         2.7991  -0.5818   1.2301 H              1 S1                 0.0000
     27 ****        -2.2762   3.9055   0.0204 LP             1 S1                 0.0000
     28 ****        -0.1278   2.8380   0.8173 LP             1 S1                 0.0000
     29 ****        -0.1376   2.8486  -0.8156 LP             1 S1                 0.0000
     30 ****        -2.2315  -0.2635   0.0011 LP             1 S1                 0.0000
@<TRIPOS>BOND
    1    1    2 1     
    2    1   13 1     
    3    1   14 1     
    4    1   15 1     
    5    2   12 1     
    6    2    3 2     
    7    3    4 1     
    8    4    5 1     
    9    5    6 1     
   10    5   12 2     
   11    6   11 1     
   12    6    7 1     
   13    6   16 1     
   14    7    8 1     
   15    7   17 1     
   16    7   18 1     
   17    8    9 1     
   18    8   19 1     
   19    8   20 1     
   20    9   10 1     
   21    9   21 1     
   22    9   22 1     
   23   10   11 1     
   24   10   23 1     
   25   10   26 1     
   26   11   24 1     
   27   11   25 1     
   28    3   27 1     
   29    4   28 1     
   30    4   29 1     
   31   12   30 1     
@<TRIPOS>SUBSTRUCTURE
      1 S1             1
@<TRIPOS>SET
LONE_PAIRS      STATIC     ATOMS    <user>   **** ""
4 27 28 29 30
DONOR_HYDROGENS      STATIC     ATOMS    <user>   **** ""
2 23 26
ATOM$BLUE        STATIC     ATOMS    COLORGROUP SYSTEM
4 27 28 29 30
ATOM$RED        STATIC     ATOMS    COLORGROUP SYSTEM
2 23 26
