AV-unprocessed.smi:561|AV-procd|sdf|2943|dock5
  -GOLD-   2262023443D 1   1.00000     0.00000
 Structure written by MMmdl.
 35 36  0  0  0  0  0  0  0  0  2 V2000
  152.4160  142.8532  162.2650 C   0  0  0  0  0  0  0  0  0  0  0  0
  153.2212  141.8277  161.4543 C   0  0  1  0  0  0  0  0  0  0  0  0
  153.4909  142.3320  160.0152 C   0  0  0  0  0  0  0  0  0  0  0  0
  152.2933  142.7573  159.2979 N   0  0  0  0  0  0  0  0  0  0  0  0
  152.0345  144.0171  158.7669 C   0  0  0  0  0  0  0  0  0  0  0  0
  150.7817  143.9590  158.2002 C   0  0  0  0  0  0  0  0  0  0  0  0
  150.2451  142.6861  158.3773 N   0  0  0  0  0  0  0  0  0  0  0  0
  151.1946  142.0321  159.0347 C   0  0  0  0  0  0  0  0  0  0  0  0
  154.4971  141.5805  162.1345 N   0  5  0  0  0  0  0  0  0  0  0  0
  154.8497  140.4217  162.7643 C   0  0  0  0  0  0  0  0  0  0  0  0
  155.2981  140.3197  163.9142 O   0  0  0  0  0  0  0  0  0  0  0  0
  154.6781  139.1452  162.0106 C   0  0  0  0  0  0  0  0  0  0  0  0
  154.6916  138.0261  162.6646 N   0  0  0  0  0  0  0  0  0  0  0  0
  154.5574  136.8026  162.0407 N   0  0  0  0  0  0  0  0  0  0  0  0
  154.8833  135.6674  162.9037 C   0  0  0  0  0  0  0  0  0  0  0  0
  154.1421  136.6362  160.7590 C   0  0  0  0  0  0  0  0  0  0  0  0
  154.0422  135.5434  160.2006 O   0  0  0  0  0  0  0  0  0  0  0  0
  153.7515  137.9066  159.9990 C   0  0  0  0  0  0  0  0  0  0  0  0
  154.5164  139.1465  160.4998 C   0  0  0  0  0  0  0  0  0  0  0  0
  151.4567  143.0602  161.7902 H   0  0  0  0  0  0  0  0  0  0  0  0
  152.9513  143.7990  162.3579 H   0  0  0  0  0  0  0  0  0  0  0  0
  152.2100  142.4851  163.2706 H   0  0  0  0  0  0  0  0  0  0  0  0
  152.6132  140.9247  161.3766 H   0  0  0  0  0  0  0  0  0  0  0  0
  154.1769  143.1795  160.0458 H   0  0  0  0  0  0  0  0  0  0  0  0
  153.9887  141.5593  159.4273 H   0  0  0  0  0  0  0  0  0  0  0  0
  152.7503  144.8233  158.8303 H   0  0  0  0  0  0  0  0  0  0  0  0
  150.2282  144.7309  157.6862 H   0  0  0  0  0  0  0  0  0  0  0  0
  151.0902  140.9994  159.3330 H   0  0  0  0  0  0  0  0  0  0  0  0
  154.7289  134.6957  162.4330 H   0  0  0  0  0  0  0  0  0  0  0  0
  154.2688  135.6927  163.8045 H   0  0  0  0  0  0  0  0  0  0  0  0
  155.9287  135.7197  163.2102 H   0  0  0  0  0  0  0  0  0  0  0  0
  153.9106  137.7696  158.9289 H   0  0  0  0  0  0  0  0  0  0  0  0
  152.6804  138.0563  160.1408 H   0  0  0  0  0  0  0  0  0  0  0  0
  153.9719  140.0310  160.1671 H   0  0  0  0  0  0  0  0  0  0  0  0
  155.5003  139.1956  160.0321 H   0  0  0  0  0  0  0  0  0  0  0  0
  1  2  1  0  0  0  0
  1 20  1  0  0  0  0
  1 21  1  0  0  0  0
  1 22  1  0  0  0  0
  2  3  1  0  0  0  0
  2  9  1  0  0  0  0
  2 23  1  0  0  0  0
  3  4  1  0  0  0  0
  3 24  1  0  0  0  0
  3 25  1  0  0  0  0
  4  8  1  0  0  0  0
  4  5  1  0  0  0  0
  5  6  2  0  0  0  0
  5 26  1  0  0  0  0
  6  7  1  0  0  0  0
  6 27  1  0  0  0  0
  7  8  2  0  0  0  0
  8 28  1  0  0  0  0
  9 10  1  0  0  0  0
 10 11  2  0  0  0  0
 10 12  1  0  0  0  0
 12 19  1  0  0  0  0
 12 13  2  0  0  0  0
 13 14  1  0  0  0  0
 14 15  1  0  0  0  0
 14 16  1  0  0  0  0
 15 29  1  0  0  0  0
 15 30  1  0  0  0  0
 15 31  1  0  0  0  0
 16 17  2  0  0  0  0
 16 18  1  0  0  0  0
 18 19  1  0  0  0  0
 18 32  1  0  0  0  0
 18 33  1  0  0  0  0
 19 34  1  0  0  0  0
 19 35  1  0  0  0  0
M  CHG  1   9  -1
M  END
> <s_m_source_file>
AV-unprocessed.smi

> <i_m_source_file_index>
561

> <i_lp_mmshare_version>
43012

> <i_f3d_flags>
0

> <s_epik_input>
W2NIXTFuW2NIXVtjSF1uMVtDSDJdW0NAQEhdKFtDSDNdKVtOSF1DKD1PKUMyPU5OKFtDSDNdKUMoPU8pW0NIMl1bQ0gyXTI=

> <s_epik_cmdline>
J2VwaWtfcHl0aG9uJywgJy1waCcsICc3LjAnLCAnLXRuJywgJzgnLCAnLW1hJywgJzIwMCcsICctbWV0YWxfYmluZGluZycsICctaW1hZScsICc8aW5maWxlLm1hZT4nLCAnLW9tYWUnLCAnPG91dGZpbGUubWFlPic=

> <r_lp_tautomer_probability>
1

> <r_epik_Ionization_Penalty>
6.06239

> <r_epik_Ionization_Penalty_Charging>
6.06239

> <r_epik_Ionization_Penalty_Neutral>
3.91387e-09

> <r_epik_State_Penalty>
5.76729

> <r_epik_Charging_Adjusted_Penalty>
11.8297

> <i_epik_Tot_Q>
-1

> <i_epik_Tot_abs_Q>
1

> <r_epik_Metal_State_Penalty>
2.02369

> <b_epik_Metal_Only>
1

> <s_epik_Chemistry_Notes>
This compound has an imine and may undergo hydrolysis.

> <s_lp_Force_Field>
OPLS_2005

> <r_lp_Energy>
27.3289

> <b_lp_Chiralities_Consistent>
1

> <s_lp_Variant>
AV-unprocessed.smi:561-8

> <Gold.Version>
5.8.1

> <Gold.Id.Protein>
6NUR|6NUR_protein|mol2

> <Gold.PLP.Fitness>
43.6092

> <Gold.PLP.PLP>
-38.9144

> <Gold.PLP.part.hbond>
-1.9980

> <Gold.PLP.part.metal>
0.0000

> <Gold.PLP.part.buried>
-2.7731

> <Gold.PLP.part.nonpolar>
-33.3857

> <Gold.PLP.part.repulsive>
0.1146

> <Gold.PLP.ligand.clash>
0.0000

> <Gold.PLP.ligand.torsion>
0.6671

> <Gold.PLP.Chemscore.Hbond>
1.0000

> <Gold.PLP.Chemscore.CHOScore>
0.9952

> <Gold.PLP.Chemscore.Metal>
0.0000

> <Gold.Chemscore.Hbonds>
donor molecule, donor type, donor heavy atom, donor atom, acceptor molecule, acceptor atom, score
      P1  H  6896  6909       L1    17  1.00
      L1  C     6    27       P1  8028  0.83
      L1  C     6    27       P1  8029  0.18

> <Gold.PLP.Chemscore.Internal.Correction>
0.0434

> <Gold.Rescore>
     Score         DG    S(hbond)    S(metal)    S(lipo)     H(rot)  DE(clash)    DE(int)     intcor
     12.43     -14.48       0.99        0.00      85.39       1.68       1.46       0.60       ----

> <Gold.Chemscore.Fitness>
12.4295

> <Gold.Chemscore.DG>
-14.4821

> <Gold.Chemscore.ZeroCoef>
-5.4800

> <Gold.Chemscore.Hbond>
0.9913

> <Gold.Chemscore.Metal>
0.0000

> <Gold.Chemscore.Lipo>
85.3917

> <Gold.Chemscore.Internal_Hbond>
0.0000

> <Gold.Chemscore.DEClash>
1.4555

> <Gold.Chemscore.DEInternal>
0.5971

> <Gold.Chemscore.Rot>
1.6796

> <Gold.Chemscore.Internal.Correction>
   9.000000E+99

> <Gold.Chemscore.Hbonds>
donor molecule, donor type, donor heavy atom, donor atom, acceptor molecule, acceptor atom, score
      P1  H  6896  6909       L1    17  1.00

> <Gold.Chemscore.Hbond.Weighted>
-3.3110

> <Gold.Chemscore.Metal.Weighted>
-0.0000

> <Gold.Chemscore.Lipo.Weighted>
-9.9908

> <Gold.Chemscore.Internal_Hbond.Weighted>
0.0000

> <Gold.Chemscore.DEClash.Weighted>
1.4555

> <Gold.Chemscore.DEInternal.Weighted>
0.5971

> <Gold.Chemscore.Rot.Weighted>
4.2997

> <Gold.Chemscore.Internal.Correction.Weighted>
   9.000000E+99

> <Gold.Protein.RotatedTorsions>
[ 6907 6896 6895 6894 ] final -167.59 input  -60.11 | X-H torsion
[ 7974 7965 7964 7962 ] final   12.45 input  175.53 | X-H torsion
[ 8008 7997 7996 7995 ] final   35.89 input   59.86 | X-H torsion
[ 10167 10162 10161 10158 ] final  169.61 input  -65.29 | X-H torsion
[ 10718 10713 10712 10709 ] final  -29.63 input   66.30 | X-H torsion
[ 10763 10752 10751 10750 ] final   17.06 input  -60.55 | X-H torsion
[ 11005 11000 10999 10996 ] final  142.04 input  -57.11 | X-H torsion

> <Gold.Protein.ActiveResidues>
 VAL166  LYS551  ARG553  GLY616  TRP617  ASP618  TYR619  PRO620  LYS621  CYS622 
 ASP623  PHE694  ASN695  SER759  ASP760  ASP761  ALA762  ILE779  LEU786  VAL792 
 PHE793  MET794  SER795  GLU796  ALA797  LYS798  CYS799  TRP800  GLU811  SER814 

> <Gold.Protein.RotatedAtoms>
  151.4620  133.3590  159.2810 H   0  0  0  0  0  0  0  0  0  0  0  0  # atno 6907 bound_to 6896
  150.9019  134.8433  159.7376 H   0  0  0  0  0  0  0  0  0  0  0  0  # atno 6908 bound_to 6896
  152.4884  134.4541  159.9636 H   0  0  0  0  0  0  0  0  0  0  0  0  # atno 6909 bound_to 6896
  146.2351  139.9335  142.8493 H   0  0  0  0  0  0  0  0  0  0  0  0  # atno 7974 bound_to 7965
  155.1784  140.3298  155.4379 H   0  0  0  0  0  0  0  0  0  0  0  0  # atno 8008 bound_to 7997
  156.2485  140.1931  156.6834 H   0  0  0  0  0  0  0  0  0  0  0  0  # atno 8009 bound_to 7997
  154.6288  140.0585  156.9693 H   0  0  0  0  0  0  0  0  0  0  0  0  # atno 8010 bound_to 7997
  139.4997  144.3687  151.9747 H   0  0  0  0  0  0  0  0  0  0  0  0  # atno 10167 bound_to 10162
  156.4100  130.4406  149.7259 H   0  0  0  0  0  0  0  0  0  0  0  0  # atno 10718 bound_to 10713
  153.1373  135.6753  153.9082 H   0  0  0  0  0  0  0  0  0  0  0  0  # atno 10763 bound_to 10752
  153.8550  135.3088  155.3436 H   0  0  0  0  0  0  0  0  0  0  0  0  # atno 10764 bound_to 10752
  154.7758  135.4915  153.9825 H   0  0  0  0  0  0  0  0  0  0  0  0  # atno 10765 bound_to 10752
  140.0447  134.9287  157.0907 H   0  0  0  0  0  0  0  0  0  0  0  0  # atno 11005 bound_to 11000
  145.2021  140.9859  143.4149 LP  0  0  0  0  0  0  0  0  0  0  0  0  # atno 17320 bound_to 7965
  144.9764  139.3827  143.6283 LP  0  0  0  0  0  0  0  0  0  0  0  0  # atno 17321 bound_to 7965
  140.3123  144.3523  150.6030 LP  0  0  0  0  0  0  0  0  0  0  0  0  # atno 17342 bound_to 10162
  140.5789  143.2174  151.7465 LP  0  0  0  0  0  0  0  0  0  0  0  0  # atno 17343 bound_to 10162
  156.4241  130.7783  151.2801 LP  0  0  0  0  0  0  0  0  0  0  0  0  # atno 17370 bound_to 10713
  157.7507  131.0174  150.3583 LP  0  0  0  0  0  0  0  0  0  0  0  0  # atno 17371 bound_to 10713
  140.4013  134.2080  155.7163 LP  0  0  0  0  0  0  0  0  0  0  0  0  # atno 17394 bound_to 11000
  141.1901  133.8225  157.0932 LP  0  0  0  0  0  0  0  0  0  0  0  0  # atno 17395 bound_to 11000

$$$$
