AV-unprocessed.smi:21|AV-procd|sdf|129|dock3
  -GOLD-   2262015313D 1   1.00000     0.00000
 Structure written by MMmdl.
 62 65  0  0  0  0  0  0  0  0  2 V2000
  145.0744  132.3756  149.3816 C   0  0  0  0  0  0  0  0  0  0  0  0
  144.1394  132.2812  150.4439 O   0  0  0  0  0  0  0  0  0  0  0  0
  144.6412  132.7599  151.6826 C   0  0  1  0  0  0  0  0  0  0  0  0
  145.9973  132.1374  151.9853 C   0  0  0  0  0  0  0  0  0  0  0  0
  146.6144  133.1301  152.9731 C   0  0  1  0  0  0  0  0  0  0  0  0
  148.1564  133.0600  153.0285 C   0  0  0  0  0  0  0  0  0  0  0  0
  148.6631  132.0805  153.9888 N   0  0  0  0  0  0  0  0  0  0  0  0
  149.0594  130.7791  153.4688 C   0  0  0  0  0  0  0  0  0  0  0  0
  149.4671  132.5070  154.9931 C   0  0  0  0  0  0  0  0  0  0  0  0
  149.7751  131.6041  155.9579 N   0  0  0  0  0  0  0  0  0  0  0  0
  150.5413  131.9600  156.9931 C   0  0  0  0  0  0  0  0  0  0  0  0
  151.0937  133.1464  157.2531 N   0  0  0  0  0  0  0  0  0  0  0  0
  150.7992  134.0536  156.2787 C   0  0  0  0  0  0  0  0  0  0  0  0
  150.0068  133.8211  155.1191 C   0  0  0  0  0  0  0  0  0  0  0  0
  149.9427  134.9820  154.3552 N   0  0  0  0  0  0  0  0  0  0  0  0
  150.6446  135.8510  155.0293 C   0  0  0  0  0  0  0  0  0  0  0  0
  151.1834  135.3799  156.2041 N   0  0  0  0  0  0  0  0  0  0  0  0
  151.9862  136.1247  157.1564 C   0  0  0  0  0  0  0  0  0  0  0  0
  151.2077  137.2655  157.8569 C   0  0  2  0  0  0  0  0  0  0  0  0
  149.9478  136.7670  158.6124 C   0  0  0  0  0  0  0  0  0  0  0  0
  150.2719  135.8223  159.6129 O   0  0  0  0  0  0  0  0  0  0  0  0
  150.9055  138.3979  156.8421 C   0  0  1  0  0  0  0  0  0  0  0  0
  150.5526  139.7557  157.4415 C   0  0  0  0  0  0  0  0  0  0  0  0
  151.0248  140.7206  156.3634 C   0  0  0  0  0  0  0  0  0  0  0  0
  152.2360  140.1278  155.9271 O   0  0  0  0  0  0  0  0  0  0  0  0
  152.0400  138.7202  155.8528 C   0  0  0  0  0  0  0  0  0  0  0  0
  146.1450  134.4615  152.5246 N   0  3  2  0  0  0  0  0  0  0  0  0
  145.9449  135.4314  153.6237 C   0  0  0  0  0  0  0  0  0  0  0  0
  144.9478  134.2638  151.6730 C   0  0  0  0  0  0  0  0  0  0  0  0
  143.9569  132.5204  152.4991 H   0  0  0  0  0  0  0  0  0  0  0  0
  146.1764  132.9395  153.9540 H   0  0  0  0  0  0  0  0  0  0  0  0
  144.6187  132.0080  148.4624 H   0  0  0  0  0  0  0  0  0  0  0  0
  145.9646  131.7763  149.5754 H   0  0  0  0  0  0  0  0  0  0  0  0
  145.3783  133.4097  149.2143 H   0  0  0  0  0  0  0  0  0  0  0  0
  145.9184  131.1284  152.3917 H   0  0  0  0  0  0  0  0  0  0  0  0
  146.5963  132.0873  151.0746 H   0  0  0  0  0  0  0  0  0  0  0  0
  148.5351  132.8018  152.0388 H   0  0  0  0  0  0  0  0  0  0  0  0
  148.5791  134.0380  153.2566 H   0  0  0  0  0  0  0  0  0  0  0  0
  148.9891  130.0129  154.2415 H   0  0  0  0  0  0  0  0  0  0  0  0
  150.0864  130.8061  153.1030 H   0  0  0  0  0  0  0  0  0  0  0  0
  148.4136  130.4772  152.6440 H   0  0  0  0  0  0  0  0  0  0  0  0
  150.7359  131.1846  157.7195 H   0  0  0  0  0  0  0  0  0  0  0  0
  150.7785  136.8688  154.6933 H   0  0  0  0  0  0  0  0  0  0  0  0
  152.3648  135.4162  157.8940 H   0  0  0  0  0  0  0  0  0  0  0  0
  152.8580  136.5234  156.6365 H   0  0  0  0  0  0  0  0  0  0  0  0
  151.8768  137.7082  158.5969 H   0  0  0  0  0  0  0  0  0  0  0  0
  149.4337  137.5896  159.1080 H   0  0  0  0  0  0  0  0  0  0  0  0
  149.2300  136.3224  157.9228 H   0  0  0  0  0  0  0  0  0  0  0  0
  150.0871  136.2063  160.4564 H   0  0  0  0  0  0  0  0  0  0  0  0
  150.0552  138.0830  156.2343 H   0  0  0  0  0  0  0  0  0  0  0  0
  149.4902  139.8595  157.6641 H   0  0  0  0  0  0  0  0  0  0  0  0
  151.1079  139.9469  158.3590 H   0  0  0  0  0  0  0  0  0  0  0  0
  150.3159  140.7639  155.5355 H   0  0  0  0  0  0  0  0  0  0  0  0
  151.1822  141.7317  156.7399 H   0  0  0  0  0  0  0  0  0  0  0  0
  152.9718  138.1993  156.0716 H   0  0  0  0  0  0  0  0  0  0  0  0
  151.7474  138.4496  154.8374 H   0  0  0  0  0  0  0  0  0  0  0  0
  145.1672  135.0941  154.3103 H   0  0  0  0  0  0  0  0  0  0  0  0
  145.6527  136.4034  153.2253 H   0  0  0  0  0  0  0  0  0  0  0  0
  146.8664  135.5659  154.1907 H   0  0  0  0  0  0  0  0  0  0  0  0
  145.2023  134.5941  150.6653 H   0  0  0  0  0  0  0  0  0  0  0  0
  144.0885  134.8500  152.0025 H   0  0  0  0  0  0  0  0  0  0  0  0
  146.8621  134.8354  151.9194 H   0  0  0  0  0  0  0  0  0  0  0  0
  1  2  1  0  0  0  0
  1 32  1  0  0  0  0
  1 33  1  0  0  0  0
  1 34  1  0  0  0  0
  2  3  1  0  0  0  0
  3 30  1  0  0  0  0
  3 29  1  0  0  0  0
  3  4  1  0  0  0  0
  4  5  1  0  0  0  0
  4 35  1  0  0  0  0
  4 36  1  0  0  0  0
  5 31  1  0  0  0  0
  5  6  1  0  0  0  0
  5 27  1  0  0  0  0
  6  7  1  0  0  0  0
  6 37  1  0  0  0  0
  6 38  1  0  0  0  0
  7  8  1  0  0  0  0
  7  9  1  0  0  0  0
  8 39  1  0  0  0  0
  8 40  1  0  0  0  0
  8 41  1  0  0  0  0
  9 14  1  0  0  0  0
  9 10  2  0  0  0  0
 10 11  1  0  0  0  0
 11 12  2  0  0  0  0
 11 42  1  0  0  0  0
 12 13  1  0  0  0  0
 13 17  1  0  0  0  0
 13 14  2  0  0  0  0
 14 15  1  0  0  0  0
 15 16  2  0  0  0  0
 16 17  1  0  0  0  0
 16 43  1  0  0  0  0
 17 18  1  0  0  0  0
 18 19  1  0  0  0  0
 18 44  1  0  0  0  0
 18 45  1  0  0  0  0
 19 20  1  0  0  0  0
 19 22  1  0  0  0  0
 19 46  1  0  0  0  0
 20 21  1  0  0  0  0
 20 47  1  0  0  0  0
 20 48  1  0  0  0  0
 21 49  1  0  0  0  0
 22 26  1  0  0  0  0
 22 23  1  0  0  0  0
 22 50  1  0  0  0  0
 23 24  1  0  0  0  0
 23 51  1  0  0  0  0
 23 52  1  0  0  0  0
 24 25  1  0  0  0  0
 24 53  1  0  0  0  0
 24 54  1  0  0  0  0
 25 26  1  0  0  0  0
 26 55  1  0  0  0  0
 26 56  1  0  0  0  0
 27 28  1  0  0  0  0
 27 29  1  0  0  0  0
 27 62  1  0  0  0  0
 28 57  1  0  0  0  0
 28 58  1  0  0  0  0
 28 59  1  0  0  0  0
 29 60  1  0  0  0  0
 29 61  1  0  0  0  0
M  CHG  1  27   1
M  END
> <s_m_source_file>
AV-unprocessed.smi

> <i_m_source_file_index>
21

> <i_lp_mmshare_version>
43012

> <i_f3d_flags>
0

> <s_epik_input>
W0NIM11PW0NASF0xW0NIMl1bQ0BIXShOKFtDSDNdKVtDSDJdMSlbQ0gyXU4oW0NIM10pYyhuW2NIXW4yKWMoYzIzKW5bY0hdbjNbQ0gyXVtDQEhdKFtDSDJdW09IXSlbQ0BASF00W0NIMl1bQ0gyXU9bQ0gyXTQ=

> <s_epik_cmdline>
J2VwaWtfcHl0aG9uJywgJy1waCcsICc3LjAnLCAnLXRuJywgJzgnLCAnLW1hJywgJzIwMCcsICctbWV0YWxfYmluZGluZycsICctaW1hZScsICc8aW5maWxlLm1hZT4nLCAnLW9tYWUnLCAnPG91dGZpbGUubWFlPic=

> <r_lp_tautomer_probability>
1

> <r_epik_Ionization_Penalty>
0.0157465

> <r_epik_Ionization_Penalty_Charging>
0.015354

> <r_epik_Ionization_Penalty_Neutral>
0.000392529

> <r_epik_State_Penalty>
0.0120612

> <r_epik_Charging_Adjusted_Penalty>
0.0274152

> <i_epik_Tot_Q>
1

> <i_epik_Tot_abs_Q>
1

> <r_epik_Metal_State_Penalty>
0.0121253

> <b_epik_Metal_Only>
0

> <s_lp_Force_Field>
OPLS_2005

> <r_lp_Energy>
59.3761

> <b_lp_Chiralities_Consistent>
1

> <s_lp_Variant>
AV-unprocessed.smi:21-9

> <Gold.Version>
5.8.1

> <Gold.Id.Protein>
6NUR|6NUR_protein|mol2

> <Gold.PLP.Fitness>
48.4222

> <Gold.PLP.PLP>
-39.1506

> <Gold.PLP.part.hbond>
-4.1795

> <Gold.PLP.part.metal>
0.0000

> <Gold.PLP.part.buried>
-2.5863

> <Gold.PLP.part.nonpolar>
-31.5580

> <Gold.PLP.part.repulsive>
1.2961

> <Gold.PLP.ligand.clash>
0.0000

> <Gold.PLP.ligand.torsion>
1.5453

> <Gold.PLP.Chemscore.Hbond>
3.7150

> <Gold.PLP.Chemscore.CHOScore>
0.0000

> <Gold.PLP.Chemscore.Metal>
0.0000

> <Gold.Chemscore.Hbonds>
donor molecule, donor type, donor heavy atom, donor atom, acceptor molecule, acceptor atom, score
      P1  H  6896  6907       L1    21  0.08
      P1  H  6896  6909       L1    12  0.85
      P1  H  7997  8009       L1    25  0.73

> <Gold.PLP.Chemscore.Internal.Correction>
1.2171

> <Gold.Rescore>
     Score         DG    S(hbond)    S(metal)    S(lipo)     H(rot)  DE(clash)    DE(int)     intcor
     13.62     -16.29       2.92        0.00      82.14       3.35       0.25       2.42       ----

> <Gold.Chemscore.Fitness>
13.6168

> <Gold.Chemscore.DG>
-16.2912

> <Gold.Chemscore.ZeroCoef>
-5.4800

> <Gold.Chemscore.Hbond>
2.9234

> <Gold.Chemscore.Metal>
0.0000

> <Gold.Chemscore.Lipo>
82.1416

> <Gold.Chemscore.Internal_Hbond>
0.0000

> <Gold.Chemscore.DEClash>
0.2541

> <Gold.Chemscore.DEInternal>
2.4203

> <Gold.Chemscore.Rot>
3.3452

> <Gold.Chemscore.Internal.Correction>
   9.000000E+99

> <Gold.Chemscore.Hbonds>
donor molecule, donor type, donor heavy atom, donor atom, acceptor molecule, acceptor atom, score
      L1  H    27    62       P1  7948  0.02
      P1  H  6896  6907       L1    21  0.04
      P1  H  6896  6909       L1    12  0.64
      P1  H  7997  8009       L1    25  0.18

> <Gold.Chemscore.Hbond.Weighted>
-9.7643

> <Gold.Chemscore.Metal.Weighted>
-0.0000

> <Gold.Chemscore.Lipo.Weighted>
-9.6106

> <Gold.Chemscore.Internal_Hbond.Weighted>
0.0000

> <Gold.Chemscore.DEClash.Weighted>
0.2541

> <Gold.Chemscore.DEInternal.Weighted>
2.4203

> <Gold.Chemscore.Rot.Weighted>
8.5636

> <Gold.Chemscore.Internal.Correction.Weighted>
   9.000000E+99

> <Gold.Protein.RotatedTorsions>
[ 6907 6896 6895 6894 ] final  -24.92 input  -60.11 | X-H torsion
[ 7974 7965 7964 7962 ] final  125.97 input  175.53 | X-H torsion
[ 8008 7997 7996 7995 ] final -146.41 input   59.86 | X-H torsion
[ 10167 10162 10161 10158 ] final   68.03 input  -65.29 | X-H torsion
[ 10718 10713 10712 10709 ] final -175.44 input   66.30 | X-H torsion
[ 10763 10752 10751 10750 ] final   24.72 input  -60.55 | X-H torsion
[ 11005 11000 10999 10996 ] final   -3.82 input  -57.11 | X-H torsion

> <Gold.Protein.ActiveResidues>
 VAL166  LYS551  ARG553  GLY616  TRP617  ASP618  TYR619  PRO620  LYS621  CYS622 
 ASP623  PHE694  ASN695  SER759  ASP760  ASP761  ALA762  ILE779  LEU786  VAL792 
 PHE793  MET794  SER795  GLU796  ALA797  LYS798  CYS799  TRP800  GLU811  SER814 

> <Gold.Protein.RotatedAtoms>
  151.1826  135.0367  159.8798 H   0  0  0  0  0  0  0  0  0  0  0  0  # atno 6907 bound_to 6896
  152.5444  134.1046  159.8342 H   0  0  0  0  0  0  0  0  0  0  0  0  # atno 6908 bound_to 6896
  151.1165  133.5088  159.2636 H   0  0  0  0  0  0  0  0  0  0  0  0  # atno 6909 bound_to 6896
  145.0669  139.3760  143.4977 H   0  0  0  0  0  0  0  0  0  0  0  0  # atno 7974 bound_to 7965
  155.5590  140.0623  157.2833 H   0  0  0  0  0  0  0  0  0  0  0  0  # atno 8008 bound_to 7997
  154.4396  140.1889  156.0808 H   0  0  0  0  0  0  0  0  0  0  0  0  # atno 8009 bound_to 7997
  156.0461  140.3290  155.7301 H   0  0  0  0  0  0  0  0  0  0  0  0  # atno 8010 bound_to 7997
  140.0831  144.5053  150.7148 H   0  0  0  0  0  0  0  0  0  0  0  0  # atno 10167 bound_to 10162
  156.7999  130.9548  151.3119 H   0  0  0  0  0  0  0  0  0  0  0  0  # atno 10718 bound_to 10713
  153.0743  135.6599  154.0179 H   0  0  0  0  0  0  0  0  0  0  0  0  # atno 10763 bound_to 10752
  153.9817  135.2954  155.3421 H   0  0  0  0  0  0  0  0  0  0  0  0  # atno 10764 bound_to 10752
  154.7127  135.5198  153.8761 H   0  0  0  0  0  0  0  0  0  0  0  0  # atno 10765 bound_to 10752
  140.6736  133.9215  155.8510 H   0  0  0  0  0  0  0  0  0  0  0  0  # atno 11005 bound_to 11000
  146.3527  140.0395  142.8644 LP  0  0  0  0  0  0  0  0  0  0  0  0  # atno 17320 bound_to 7965
  145.1339  140.9534  143.4528 LP  0  0  0  0  0  0  0  0  0  0  0  0  # atno 17321 bound_to 7965
  140.7067  143.2473  151.4704 LP  0  0  0  0  0  0  0  0  0  0  0  0  # atno 17342 bound_to 10162
  139.5768  144.1801  152.1914 LP  0  0  0  0  0  0  0  0  0  0  0  0  # atno 17343 bound_to 10162
  157.6559  130.8924  149.9727 LP  0  0  0  0  0  0  0  0  0  0  0  0  # atno 17370 bound_to 10713
  156.1107  130.3650  150.0054 LP  0  0  0  0  0  0  0  0  0  0  0  0  # atno 17371 bound_to 10713
  141.0373  134.0671  157.3944 LP  0  0  0  0  0  0  0  0  0  0  0  0  # atno 17394 bound_to 11000
  139.8974  135.0150  156.7097 LP  0  0  0  0  0  0  0  0  0  0  0  0  # atno 17395 bound_to 11000

$$$$
