AV-unprocessed.smi:2529|AV-procd|sdf|9960|dock6
  -GOLD-   2272014 03D 1   1.00000     0.00000
 Structure written by MMmdl.
 44 46  0  0  0  0  0  0  0  0  1 V2000
  153.1604  142.2381  162.1956 C   0  0  0  0  0  0  0  0  0  0  0  0
  153.1574  142.4759  160.6788 C   0  0  2  0  0  0  0  0  0  0  0  0
  152.1335  143.5522  160.2785 C   0  0  0  0  0  0  0  0  0  0  0  0
  152.1318  143.8027  158.7598 C   0  0  0  0  0  0  0  0  0  0  0  0
  151.9009  142.5139  157.9304 C   0  0  1  0  0  0  0  0  0  0  0  0
  150.5957  142.0253  158.1871 O   0  0  0  0  0  0  0  0  0  0  0  0
  152.0202  142.7113  156.3900 C   0  0  0  0  0  0  0  0  0  0  0  0
  151.2848  141.7237  155.5752 N   0  0  0  0  0  0  0  0  0  0  0  0
  150.1122  142.1893  154.9492 C   0  0  0  0  0  0  0  0  0  0  0  0
  149.3716  141.4165  154.2209 N   0  0  0  0  0  0  0  0  0  0  0  0
  149.7297  140.0757  154.0436 C   0  0  0  0  0  0  0  0  0  0  0  0
  148.8387  139.2222  153.1518 C   0  0  0  0  0  0  0  0  0  0  0  0
  147.6026  139.9241  152.5663 C   0  0  0  0  0  0  0  0  0  0  0  0
  146.8341  138.6172  152.7912 C   0  0  0  0  0  0  0  0  0  0  0  0
  147.8642  138.2761  153.8736 C   0  0  0  0  0  0  0  0  0  0  0  0
  150.8459  139.5783  154.6271 C   0  0  0  0  0  0  0  0  0  0  0  0
  151.6972  140.4258  155.4624 C   0  0  0  0  0  0  0  0  0  0  0  0
  152.7110  139.9998  156.0157 O   0  0  0  0  0  0  0  0  0  0  0  0
  152.8860  141.4090  158.3833 C   0  0  0  0  0  0  0  0  0  0  0  0
  152.8841  141.1749  159.9048 C   0  0  0  0  0  0  0  0  0  0  0  0
  152.1915  141.8778  162.5430 H   0  0  0  0  0  0  0  0  0  0  0  0
  153.3865  143.1575  162.7363 H   0  0  0  0  0  0  0  0  0  0  0  0
  153.9111  141.4988  162.4759 H   0  0  0  0  0  0  0  0  0  0  0  0
  154.1498  142.8334  160.3997 H   0  0  0  0  0  0  0  0  0  0  0  0
  151.1360  143.2518  160.6021 H   0  0  0  0  0  0  0  0  0  0  0  0
  152.3538  144.4854  160.7981 H   0  0  0  0  0  0  0  0  0  0  0  0
  151.3733  144.5509  158.5275 H   0  0  0  0  0  0  0  0  0  0  0  0
  153.0908  144.2411  158.4817 H   0  0  0  0  0  0  0  0  0  0  0  0
  149.9697  142.6326  157.8235 H   0  0  0  0  0  0  0  0  0  0  0  0
  151.6645  143.7110  156.1358 H   0  0  0  0  0  0  0  0  0  0  0  0
  153.0717  142.7354  156.0953 H   0  0  0  0  0  0  0  0  0  0  0  0
  149.8762  143.2407  155.1223 H   0  0  0  0  0  0  0  0  0  0  0  0
  149.4142  138.7031  152.3833 H   0  0  0  0  0  0  0  0  0  0  0  0
  147.2287  140.7394  153.1886 H   0  0  0  0  0  0  0  0  0  0  0  0
  147.6991  140.2240  151.5225 H   0  0  0  0  0  0  0  0  0  0  0  0
  145.8134  138.7417  153.1542 H   0  0  0  0  0  0  0  0  0  0  0  0
  146.8815  137.9444  151.9334 H   0  0  0  0  0  0  0  0  0  0  0  0
  148.1752  137.2315  153.8971 H   0  0  0  0  0  0  0  0  0  0  0  0
  147.5599  138.6295  154.8607 H   0  0  0  0  0  0  0  0  0  0  0  0
  151.1193  138.5437  154.4794 H   0  0  0  0  0  0  0  0  0  0  0  0
  152.6672  140.4719  157.8693 H   0  0  0  0  0  0  0  0  0  0  0  0
  153.8978  141.6855  158.0830 H   0  0  0  0  0  0  0  0  0  0  0  0
  153.6385  140.4286  160.1564 H   0  0  0  0  0  0  0  0  0  0  0  0
  151.9260  140.7546  160.2128 H   0  0  0  0  0  0  0  0  0  0  0  0
  1  2  1  0  0  0  0
  1 21  1  0  0  0  0
  1 22  1  0  0  0  0
  1 23  1  0  0  0  0
  2 20  1  0  0  0  0
  2  3  1  0  0  0  0
  2 24  1  0  0  0  0
  3  4  1  0  0  0  0
  3 25  1  0  0  0  0
  3 26  1  0  0  0  0
  4  5  1  0  0  0  0
  4 27  1  0  0  0  0
  4 28  1  0  0  0  0
  5  6  1  0  0  0  0
  5  7  1  0  0  0  0
  5 19  1  0  0  0  0
  6 29  1  0  0  0  0
  7  8  1  0  0  0  0
  7 30  1  0  0  0  0
  7 31  1  0  0  0  0
  8 17  1  0  0  0  0
  8  9  1  0  0  0  0
  9 10  2  0  0  0  0
  9 32  1  0  0  0  0
 10 11  1  0  0  0  0
 11 12  1  0  0  0  0
 11 16  2  0  0  0  0
 12 15  1  0  0  0  0
 12 13  1  0  0  0  0
 12 33  1  0  0  0  0
 13 14  1  0  0  0  0
 13 34  1  0  0  0  0
 13 35  1  0  0  0  0
 14 15  1  0  0  0  0
 14 36  1  0  0  0  0
 14 37  1  0  0  0  0
 15 38  1  0  0  0  0
 15 39  1  0  0  0  0
 16 17  1  0  0  0  0
 16 40  1  0  0  0  0
 17 18  2  0  0  0  0
 19 20  1  0  0  0  0
 19 41  1  0  0  0  0
 19 42  1  0  0  0  0
 20 43  1  0  0  0  0
 20 44  1  0  0  0  0
M  END
> <s_m_source_file>
AV-unprocessed.smi

> <i_m_source_file_index>
2529

> <i_lp_mmshare_version>
43012

> <i_f3d_flags>
0

> <s_epik_input>
W0NIMl0xW0NIMl1bQ0BIXShbQ0gzXSlbQ0gyXVtDSDJdW0NAQF0xKFtPSF0pW0NIMl1uMltjSF1uYyhbY0hdYzI9TylbQ0hdM1tDSDJdW0NIMl1bQ0gyXTM=

> <s_epik_cmdline>
J2VwaWtfcHl0aG9uJywgJy1waCcsICc3LjAnLCAnLXRuJywgJzgnLCAnLW1hJywgJzIwMCcsICctbWV0YWxfYmluZGluZycsICctaW1hZScsICc8aW5maWxlLm1hZT4nLCAnLW9tYWUnLCAnPG91dGZpbGUubWFlPic=

> <r_lp_tautomer_probability>
1

> <r_epik_Ionization_Penalty>
9.15498e-05

> <r_epik_Ionization_Penalty_Charging>
1.67865e-07

> <r_epik_Ionization_Penalty_Neutral>
9.13819e-05

> <r_epik_State_Penalty>
-0

> <r_epik_Charging_Adjusted_Penalty>
1.67865e-07

> <i_epik_Tot_Q>
0

> <i_epik_Tot_abs_Q>
0

> <r_epik_Metal_State_Penalty>
-0

> <b_epik_Metal_Only>
0

> <s_lp_Force_Field>
OPLS_2005

> <r_lp_Energy>
32.8679

> <b_lp_Chiralities_Consistent>
1

> <s_lp_Variant>
AV-unprocessed.smi:2529-1

> <Gold.Version>
5.8.1

> <Gold.Id.Protein>
6NUR|6NUR_protein|mol2

> <Gold.PLP.Fitness>
43.6516

> <Gold.PLP.PLP>
-38.7906

> <Gold.PLP.part.hbond>
-1.0000

> <Gold.PLP.part.metal>
0.0000

> <Gold.PLP.part.buried>
-2.7778

> <Gold.PLP.part.nonpolar>
-33.1117

> <Gold.PLP.part.repulsive>
0.1241

> <Gold.PLP.ligand.clash>
0.0000

> <Gold.PLP.ligand.torsion>
0.7823

> <Gold.PLP.Chemscore.Hbond>
1.0000

> <Gold.PLP.Chemscore.CHOScore>
0.9979

> <Gold.PLP.Chemscore.Metal>
0.0000

> <Gold.Chemscore.Hbonds>
donor molecule, donor type, donor heavy atom, donor atom, acceptor molecule, acceptor atom, score
      P1  H  7997  8010       L1    18  1.00
      P1  H  8011  8017       L1    10  0.31
      L1  C     9    32       P1  8028  0.55

> <Gold.PLP.Chemscore.Internal.Correction>
0.4317

> <Gold.Rescore>
     Score         DG    S(hbond)    S(metal)    S(lipo)     H(rot)  DE(clash)    DE(int)     intcor
     13.46     -17.30       1.00        0.00     111.84       1.80       1.71       2.13       ----

> <Gold.Chemscore.Fitness>
13.4596

> <Gold.Chemscore.DG>
-17.3049

> <Gold.Chemscore.ZeroCoef>
-5.4800

> <Gold.Chemscore.Hbond>
0.9999

> <Gold.Chemscore.Metal>
0.0000

> <Gold.Chemscore.Lipo>
111.8361

> <Gold.Chemscore.Internal_Hbond>
0.0000

> <Gold.Chemscore.DEClash>
1.7104

> <Gold.Chemscore.DEInternal>
2.1349

> <Gold.Chemscore.Rot>
1.7968

> <Gold.Chemscore.Internal.Correction>
   9.000000E+99

> <Gold.Chemscore.Hbonds>
donor molecule, donor type, donor heavy atom, donor atom, acceptor molecule, acceptor atom, score
      P1  H  7997  8010       L1    18  1.00
      P1  H  8011  8017       L1    10  0.02

> <Gold.Chemscore.Hbond.Weighted>
-3.3398

> <Gold.Chemscore.Metal.Weighted>
-0.0000

> <Gold.Chemscore.Lipo.Weighted>
-13.0848

> <Gold.Chemscore.Internal_Hbond.Weighted>
0.0000

> <Gold.Chemscore.DEClash.Weighted>
1.7104

> <Gold.Chemscore.DEInternal.Weighted>
2.1349

> <Gold.Chemscore.Rot.Weighted>
4.5997

> <Gold.Chemscore.Internal.Correction.Weighted>
   9.000000E+99

> <Gold.Protein.RotatedTorsions>
[ 6907 6896 6895 6894 ] final  -33.46 input  -60.11 | X-H torsion
[ 7974 7965 7964 7962 ] final   51.86 input  175.53 | X-H torsion
[ 8008 7997 7996 7995 ] final   87.20 input   59.86 | X-H torsion
[ 10167 10162 10161 10158 ] final   36.67 input  -65.29 | X-H torsion
[ 10718 10713 10712 10709 ] final  -52.53 input   66.30 | X-H torsion
[ 10763 10752 10751 10750 ] final -155.95 input  -60.55 | X-H torsion
[ 11005 11000 10999 10996 ] final  -54.28 input  -57.11 | X-H torsion

> <Gold.Protein.ActiveResidues>
 VAL166  LYS551  ARG553  GLY616  TRP617  ASP618  TYR619  PRO620  LYS621  CYS622 
 ASP623  PHE694  ASN695  SER759  ASP760  ASP761  ALA762  ILE779  LEU786  VAL792 
 PHE793  MET794  SER795  GLU796  ALA797  LYS798  CYS799  TRP800  GLU811  SER814 

> <Gold.Protein.RotatedAtoms>
  151.0653  134.9763  159.8280 H   0  0  0  0  0  0  0  0  0  0  0  0  # atno 6907 bound_to 6896
  152.5401  134.2366  159.8856 H   0  0  0  0  0  0  0  0  0  0  0  0  # atno 6908 bound_to 6896
  151.2388  133.4367  159.2640 H   0  0  0  0  0  0  0  0  0  0  0  0  # atno 6909 bound_to 6896
  145.9871  139.4300  143.0096 H   0  0  0  0  0  0  0  0  0  0  0  0  # atno 7974 bound_to 7965
  155.9724  140.3384  155.6588 H   0  0  0  0  0  0  0  0  0  0  0  0  # atno 8008 bound_to 7997
  155.6657  140.0721  157.2556 H   0  0  0  0  0  0  0  0  0  0  0  0  # atno 8009 bound_to 7997
  154.4170  140.1700  156.1812 H   0  0  0  0  0  0  0  0  0  0  0  0  # atno 8010 bound_to 7997
  140.4105  144.1599  150.6139 H   0  0  0  0  0  0  0  0  0  0  0  0  # atno 10167 bound_to 10162
  156.1613  130.4149  149.9788 H   0  0  0  0  0  0  0  0  0  0  0  0  # atno 10718 bound_to 10713
  154.7749  135.3156  154.8113 H   0  0  0  0  0  0  0  0  0  0  0  0  # atno 10763 bound_to 10752
  153.8839  135.6832  153.4769 H   0  0  0  0  0  0  0  0  0  0  0  0  # atno 10764 bound_to 10752
  153.1370  135.4755  154.9374 H   0  0  0  0  0  0  0  0  0  0  0  0  # atno 10765 bound_to 10752
  141.1018  133.6617  156.4297 H   0  0  0  0  0  0  0  0  0  0  0  0  # atno 11005 bound_to 11000
  145.7685  140.9906  143.1162 LP  0  0  0  0  0  0  0  0  0  0  0  0  # atno 17320 bound_to 7965
  144.6878  139.9418  143.7475 LP  0  0  0  0  0  0  0  0  0  0  0  0  # atno 17321 bound_to 7965
  140.4642  143.2437  151.9177 LP  0  0  0  0  0  0  0  0  0  0  0  0  # atno 17342 bound_to 10162
  139.4782  144.5436  151.8492 LP  0  0  0  0  0  0  0  0  0  0  0  0  # atno 17343 bound_to 10162
  156.7616  130.9153  151.3641 LP  0  0  0  0  0  0  0  0  0  0  0  0  # atno 17370 bound_to 10713
  157.6735  130.9072  150.0095 LP  0  0  0  0  0  0  0  0  0  0  0  0  # atno 17371 bound_to 10713
  140.5003  134.6492  157.5246 LP  0  0  0  0  0  0  0  0  0  0  0  0  # atno 17394 bound_to 11000
  139.9872  134.7043  155.9753 LP  0  0  0  0  0  0  0  0  0  0  0  0  # atno 17395 bound_to 11000

$$$$
