AV-unprocessed.smi:2228|AV-procd|sdf|9023|dock2
  -GOLD-   2272012223D 1   1.00000     0.00000
 Structure written by MMmdl.
 40 41  0  0  0  0  0  0  0  0  1 V2000
  150.9677  137.9368  154.2752 C   0  0  0  0  0  0  0  0  0  0  0  0
  150.4479  139.1161  153.6819 O   0  0  0  0  0  0  0  0  0  0  0  0
  149.3669  139.6918  154.4028 C   0  0  2  0  0  0  0  0  0  0  0  0
  148.0729  138.9578  154.0359 C   0  0  0  0  0  0  0  0  0  0  0  0
  146.9780  140.0053  154.2016 C   0  0  0  0  0  0  0  0  0  0  0  0
  147.6259  141.2893  153.6873 C   0  0  0  0  0  0  0  0  0  0  0  0
  149.1186  141.1776  154.0467 C   0  0  1  0  0  0  0  0  0  0  0  0
  149.4231  142.0406  155.1871 N   0  0  0  0  0  0  0  0  0  0  0  0
  150.4326  141.8708  156.0530 C   0  0  0  0  0  0  0  0  0  0  0  0
  151.2439  140.9473  155.9828 O   0  0  0  0  0  0  0  0  0  0  0  0
  150.4306  142.8336  156.9919 N   0  0  0  0  0  0  0  0  0  0  0  0
  151.3200  142.9935  158.0879 C   0  0  0  0  0  0  0  0  0  0  0  0
  151.2512  144.2463  158.7379 C   0  0  0  0  0  0  0  0  0  0  0  0
  152.0898  144.5039  159.8412 C   0  0  0  0  0  0  0  0  0  0  0  0
  152.0285  145.8378  160.5554 C   0  0  0  0  0  0  0  0  0  0  0  0
  152.9781  143.4971  160.2650 C   0  0  0  0  0  0  0  0  0  0  0  0
  152.9848  142.2772  159.5609 C   0  0  0  0  0  0  0  0  0  0  0  0
  153.9119  141.1499  159.9643 C   0  0  0  0  0  0  0  0  0  0  0  0
  152.1806  142.0316  158.5046 N   0  0  0  0  0  0  0  0  0  0  0  0
  151.7589  137.5311  153.6449 H   0  0  0  0  0  0  0  0  0  0  0  0
  150.1974  137.1718  154.3788 H   0  0  0  0  0  0  0  0  0  0  0  0
  151.3964  138.1359  155.2570 H   0  0  0  0  0  0  0  0  0  0  0  0
  149.5265  139.5712  155.4765 H   0  0  0  0  0  0  0  0  0  0  0  0
  148.1077  138.6399  152.9926 H   0  0  0  0  0  0  0  0  0  0  0  0
  147.9057  138.0701  154.6466 H   0  0  0  0  0  0  0  0  0  0  0  0
  146.0651  139.7496  153.6629 H   0  0  0  0  0  0  0  0  0  0  0  0
  146.7265  140.1140  155.2574 H   0  0  0  0  0  0  0  0  0  0  0  0
  147.5210  141.3318  152.6023 H   0  0  0  0  0  0  0  0  0  0  0  0
  147.1473  142.1836  154.0890 H   0  0  0  0  0  0  0  0  0  0  0  0
  149.7044  141.4599  153.1701 H   0  0  0  0  0  0  0  0  0  0  0  0
  148.8102  142.8303  155.3272 H   0  0  0  0  0  0  0  0  0  0  0  0
  149.7032  143.5293  156.9192 H   0  0  0  0  0  0  0  0  0  0  0  0
  150.5607  145.0045  158.3968 H   0  0  0  0  0  0  0  0  0  0  0  0
  152.7912  145.9081  161.3315 H   0  0  0  0  0  0  0  0  0  0  0  0
  151.0525  145.9701  161.0228 H   0  0  0  0  0  0  0  0  0  0  0  0
  152.1858  146.6534  159.8491 H   0  0  0  0  0  0  0  0  0  0  0  0
  153.6359  143.6547  161.1076 H   0  0  0  0  0  0  0  0  0  0  0  0
  154.6005  141.4651  160.7486 H   0  0  0  0  0  0  0  0  0  0  0  0
  154.5011  140.8168  159.1095 H   0  0  0  0  0  0  0  0  0  0  0  0
  153.3357  140.3025  160.3366 H   0  0  0  0  0  0  0  0  0  0  0  0
  1  2  1  0  0  0  0
  1 20  1  0  0  0  0
  1 21  1  0  0  0  0
  1 22  1  0  0  0  0
  2  3  1  0  0  0  0
  3  7  1  0  0  0  0
  3  4  1  0  0  0  0
  3 23  1  0  0  0  0
  4  5  1  0  0  0  0
  4 24  1  0  0  0  0
  4 25  1  0  0  0  0
  5  6  1  0  0  0  0
  5 26  1  0  0  0  0
  5 27  1  0  0  0  0
  6  7  1  0  0  0  0
  6 28  1  0  0  0  0
  6 29  1  0  0  0  0
  7  8  1  0  0  0  0
  7 30  1  0  0  0  0
  8  9  1  0  0  0  0
  8 31  1  0  0  0  0
  9 10  2  0  0  0  0
  9 11  1  0  0  0  0
 11 12  1  0  0  0  0
 11 32  1  0  0  0  0
 12 19  1  0  0  0  0
 12 13  2  0  0  0  0
 13 14  1  0  0  0  0
 13 33  1  0  0  0  0
 14 15  1  0  0  0  0
 14 16  2  0  0  0  0
 15 34  1  0  0  0  0
 15 35  1  0  0  0  0
 15 36  1  0  0  0  0
 16 17  1  0  0  0  0
 16 37  1  0  0  0  0
 17 18  1  0  0  0  0
 17 19  2  0  0  0  0
 18 38  1  0  0  0  0
 18 39  1  0  0  0  0
 18 40  1  0  0  0  0
M  END
> <s_m_source_file>
AV-unprocessed.smi

> <i_m_source_file_index>
2228

> <i_lp_mmshare_version>
43012

> <i_f3d_flags>
0

> <s_epik_input>
W0NIM11PW0NAQEhdMVtDSDJdW0NIMl1bQ0gyXVtDQEhdMVtOSF1DKD1PKVtOSF1jMltjSF1jKFtDSDNdKVtjSF1jKG4yKVtDSDNd

> <s_epik_cmdline>
J2VwaWtfcHl0aG9uJywgJy1waCcsICc3LjAnLCAnLXRuJywgJzgnLCAnLW1hJywgJzIwMCcsICctbWV0YWxfYmluZGluZycsICctaW1hZScsICc8aW5maWxlLm1hZT4nLCAnLW9tYWUnLCAnPG91dGZpbGUubWFlPic=

> <r_lp_tautomer_probability>
1

> <r_epik_Ionization_Penalty>
0.000275391

> <r_epik_Ionization_Penalty_Charging>
0

> <r_epik_Ionization_Penalty_Neutral>
0.000275391

> <r_epik_State_Penalty>
-0

> <r_epik_Charging_Adjusted_Penalty>
0

> <i_epik_Tot_Q>
0

> <i_epik_Tot_abs_Q>
0

> <r_epik_Metal_State_Penalty>
-0

> <b_epik_Metal_Only>
0

> <s_lp_Force_Field>
OPLS_2005

> <r_lp_Energy>
20.5825

> <b_lp_Chiralities_Consistent>
1

> <s_lp_Variant>
AV-unprocessed.smi:2228-1

> <Gold.Version>
5.8.1

> <Gold.Id.Protein>
6NUR|6NUR_protein|mol2

> <Gold.PLP.Fitness>
46.6922

> <Gold.PLP.PLP>
-41.2990

> <Gold.PLP.part.hbond>
-2.3588

> <Gold.PLP.part.metal>
0.0000

> <Gold.PLP.part.buried>
-3.4199

> <Gold.PLP.part.nonpolar>
-35.3661

> <Gold.PLP.part.repulsive>
1.4564

> <Gold.PLP.ligand.clash>
0.0000

> <Gold.PLP.ligand.torsion>
0.5684

> <Gold.PLP.Chemscore.Hbond>
2.1737

> <Gold.PLP.Chemscore.CHOScore>
0.0000

> <Gold.PLP.Chemscore.Metal>
0.0000

> <Gold.Chemscore.Hbonds>
donor molecule, donor type, donor heavy atom, donor atom, acceptor molecule, acceptor atom, score
      L1  H     8    31       P1  8028  0.82
      L1  H    11    32       P1  8028  0.85
      P1  H  7989  7998       L1     2  0.69

> <Gold.PLP.Chemscore.Internal.Correction>
0.0088

> <Gold.Rescore>
     Score         DG    S(hbond)    S(metal)    S(lipo)     H(rot)  DE(clash)    DE(int)     intcor
     16.95     -21.03       1.84        0.00     106.98       1.21       0.06       4.02       ----

> <Gold.Chemscore.Fitness>
16.9451

> <Gold.Chemscore.DG>
-21.0263

> <Gold.Chemscore.ZeroCoef>
-5.4800

> <Gold.Chemscore.Hbond>
1.8360

> <Gold.Chemscore.Metal>
0.0000

> <Gold.Chemscore.Lipo>
106.9797

> <Gold.Chemscore.Internal_Hbond>
0.0000

> <Gold.Chemscore.DEClash>
0.0627

> <Gold.Chemscore.DEInternal>
4.0185

> <Gold.Chemscore.Rot>
1.2119

> <Gold.Chemscore.Internal.Correction>
   9.000000E+99

> <Gold.Chemscore.Hbonds>
donor molecule, donor type, donor heavy atom, donor atom, acceptor molecule, acceptor atom, score
      L1  H     8    31       P1  8028  0.81
      L1  H    11    32       P1  8028  0.82
      P1  H  7989  7998       L1     2  0.13

> <Gold.Chemscore.Hbond.Weighted>
-6.1323

> <Gold.Chemscore.Metal.Weighted>
-0.0000

> <Gold.Chemscore.Lipo.Weighted>
-12.5166

> <Gold.Chemscore.Internal_Hbond.Weighted>
0.0000

> <Gold.Chemscore.DEClash.Weighted>
0.0627

> <Gold.Chemscore.DEInternal.Weighted>
4.0185

> <Gold.Chemscore.Rot.Weighted>
3.1026

> <Gold.Chemscore.Internal.Correction.Weighted>
   9.000000E+99

> <Gold.Protein.RotatedTorsions>
[ 6907 6896 6895 6894 ] final -166.08 input  -60.11 | X-H torsion
[ 7974 7965 7964 7962 ] final   39.30 input  175.53 | X-H torsion
[ 8008 7997 7996 7995 ] final  -63.33 input   59.86 | X-H torsion
[ 10167 10162 10161 10158 ] final  159.62 input  -65.29 | X-H torsion
[ 10718 10713 10712 10709 ] final  176.29 input   66.30 | X-H torsion
[ 10763 10752 10751 10750 ] final  176.41 input  -60.55 | X-H torsion
[ 11005 11000 10999 10996 ] final -163.31 input  -57.11 | X-H torsion

> <Gold.Protein.ActiveResidues>
 VAL166  LYS551  ARG553  GLY616  TRP617  ASP618  TYR619  PRO620  LYS621  CYS622 
 ASP623  PHE694  ASN695  SER759  ASP760  ASP761  ALA762  ILE779  LEU786  VAL792 
 PHE793  MET794  SER795  GLU796  ALA797  LYS798  CYS799  TRP800  GLU811  SER814 

> <Gold.Protein.RotatedAtoms>
  151.4379  133.3651  159.2777 H   0  0  0  0  0  0  0  0  0  0  0  0  # atno 6907 bound_to 6896
  150.9178  134.8597  159.7479 H   0  0  0  0  0  0  0  0  0  0  0  0  # atno 6908 bound_to 6896
  152.4966  134.4314  159.9565 H   0  0  0  0  0  0  0  0  0  0  0  0  # atno 6909 bound_to 6896
  146.0995  139.5669  142.9423 H   0  0  0  0  0  0  0  0  0  0  0  0  # atno 7974 bound_to 7965
  154.4548  140.0977  156.6726 H   0  0  0  0  0  0  0  0  0  0  0  0  # atno 8008 bound_to 7997
  155.5171  140.3478  155.4381 H   0  0  0  0  0  0  0  0  0  0  0  0  # atno 8009 bound_to 7997
  156.0756  140.1360  156.9765 H   0  0  0  0  0  0  0  0  0  0  0  0  # atno 8010 bound_to 7997
  139.4834  144.4712  151.8573 H   0  0  0  0  0  0  0  0  0  0  0  0  # atno 10167 bound_to 10162
  156.9223  130.9944  151.3002 H   0  0  0  0  0  0  0  0  0  0  0  0  # atno 10718 bound_to 10713
  154.4808  135.2775  155.1572 H   0  0  0  0  0  0  0  0  0  0  0  0  # atno 10763 bound_to 10752
  154.3283  135.6195  153.5543 H   0  0  0  0  0  0  0  0  0  0  0  0  # atno 10764 bound_to 10752
  152.9875  135.5759  154.5208 H   0  0  0  0  0  0  0  0  0  0  0  0  # atno 10765 bound_to 10752
  140.5995  134.4962  157.5203 H   0  0  0  0  0  0  0  0  0  0  0  0  # atno 11005 bound_to 11000
  145.5882  141.0373  143.2085 LP  0  0  0  0  0  0  0  0  0  0  0  0  # atno 17320 bound_to 7965
  144.7422  139.7419  143.7306 LP  0  0  0  0  0  0  0  0  0  0  0  0  # atno 17321 bound_to 7965
  140.4181  144.2280  150.5887 LP  0  0  0  0  0  0  0  0  0  0  0  0  # atno 17342 bound_to 10162
  140.4901  143.2350  151.8831 LP  0  0  0  0  0  0  0  0  0  0  0  0  # atno 17343 bound_to 10162
  157.5900  130.8436  149.8645 LP  0  0  0  0  0  0  0  0  0  0  0  0  # atno 17370 bound_to 10713
  156.0485  130.3722  150.1258 LP  0  0  0  0  0  0  0  0  0  0  0  0  # atno 17371 bound_to 10713
  139.9238  134.8095  156.1129 LP  0  0  0  0  0  0  0  0  0  0  0  0  # atno 17394 bound_to 11000
  141.0881  133.6725  156.2481 LP  0  0  0  0  0  0  0  0  0  0  0  0  # atno 17395 bound_to 11000

$$$$
