AV-unprocessed.smi:698|AV-procd|sdf|3397|dock10
  -GOLD-   22720 0383D 1   1.00000     0.00000
 Structure written by MMmdl.
 33 34  0  0  0  0  0  0  0  0  1 V2000
  153.2898  142.2503  161.8472 C   0  0  0  0  0  0  0  0  0  0  0  0
  154.0438  141.6040  160.6826 C   0  0  0  0  0  0  0  0  0  0  0  0
  153.1019  141.2060  159.6907 O   0  0  0  0  0  0  0  0  0  0  0  0
  152.5253  142.1815  158.9032 C   0  0  0  0  0  0  0  0  0  0  0  0
  152.8909  143.5246  159.1138 C   0  0  0  0  0  0  0  0  0  0  0  0
  152.3004  144.5149  158.3088 C   0  0  0  0  0  0  0  0  0  0  0  0
  151.3688  144.1267  157.3271 C   0  0  0  0  0  0  0  0  0  0  0  0
  151.0511  142.7591  157.1749 C   0  0  0  0  0  0  0  0  0  0  0  0
  150.1008  142.4679  156.1613 N   0  0  0  0  0  0  0  0  0  0  0  0
  150.0881  141.4329  155.2991 C   0  0  0  0  0  0  0  0  0  0  0  0
  150.9328  140.5371  155.2746 O   0  0  0  0  0  0  0  0  0  0  0  0
  148.9177  141.3875  154.3075 C   0  0  2  0  0  0  0  0  0  0  0  0
  147.8655  142.4733  154.5360 C   0  0  0  0  0  0  0  0  0  0  0  0
  146.6565  141.8671  153.8578 C   0  0  0  0  0  0  0  0  0  0  0  0
  146.8130  140.3778  154.1621 C   0  0  0  0  0  0  0  0  0  0  0  0
  148.1955  140.1642  154.4378 O   0  0  0  0  0  0  0  0  0  0  0  0
  151.6278  141.8134  157.9565 N   0  0  0  0  0  0  0  0  0  0  0  0
  153.9795  142.5640  162.6309 H   0  0  0  0  0  0  0  0  0  0  0  0
  152.5782  141.5517  162.2878 H   0  0  0  0  0  0  0  0  0  0  0  0
  152.7370  143.1296  161.5159 H   0  0  0  0  0  0  0  0  0  0  0  0
  154.7561  142.3183  160.2665 H   0  0  0  0  0  0  0  0  0  0  0  0
  154.6042  140.7407  161.0454 H   0  0  0  0  0  0  0  0  0  0  0  0
  153.6089  143.7885  159.8760 H   0  0  0  0  0  0  0  0  0  0  0  0
  152.5573  145.5554  158.4414 H   0  0  0  0  0  0  0  0  0  0  0  0
  150.9056  144.8747  156.6999 H   0  0  0  0  0  0  0  0  0  0  0  0
  149.3435  143.1293  156.0686 H   0  0  0  0  0  0  0  0  0  0  0  0
  149.3042  141.4528  153.2891 H   0  0  0  0  0  0  0  0  0  0  0  0
  147.6698  142.6147  155.6004 H   0  0  0  0  0  0  0  0  0  0  0  0
  148.1476  143.4352  154.1069 H   0  0  0  0  0  0  0  0  0  0  0  0
  145.7123  142.2787  154.2157 H   0  0  0  0  0  0  0  0  0  0  0  0
  146.7140  142.0356  152.7815 H   0  0  0  0  0  0  0  0  0  0  0  0
  146.2385  140.1017  155.0467 H   0  0  0  0  0  0  0  0  0  0  0  0
  146.4761  139.7555  153.3327 H   0  0  0  0  0  0  0  0  0  0  0  0
  1  2  1  0  0  0  0
  1 18  1  0  0  0  0
  1 19  1  0  0  0  0
  1 20  1  0  0  0  0
  2  3  1  0  0  0  0
  2 21  1  0  0  0  0
  2 22  1  0  0  0  0
  3  4  1  0  0  0  0
  4 17  1  0  0  0  0
  4  5  2  0  0  0  0
  5  6  1  0  0  0  0
  5 23  1  0  0  0  0
  6  7  2  0  0  0  0
  6 24  1  0  0  0  0
  7  8  1  0  0  0  0
  7 25  1  0  0  0  0
  8  9  1  0  0  0  0
  8 17  2  0  0  0  0
  9 10  1  0  0  0  0
  9 26  1  0  0  0  0
 10 11  2  0  0  0  0
 10 12  1  0  0  0  0
 12 16  1  0  0  0  0
 12 13  1  0  0  0  0
 12 27  1  0  0  0  0
 13 14  1  0  0  0  0
 13 28  1  0  0  0  0
 13 29  1  0  0  0  0
 14 15  1  0  0  0  0
 14 30  1  0  0  0  0
 14 31  1  0  0  0  0
 15 16  1  0  0  0  0
 15 32  1  0  0  0  0
 15 33  1  0  0  0  0
M  END
> <s_m_source_file>
AV-unprocessed.smi

> <i_m_source_file_index>
698

> <i_lp_mmshare_version>
43012

> <i_f3d_flags>
0

> <s_epik_input>
W0NIM11bQ0gyXU9jMVtjSF1bY0hdW2NIXWMobjEpW05IXUMoPU8pW0NAQEhdMltDSDJdW0NIMl1bQ0gyXU8y

> <s_epik_cmdline>
J2VwaWtfcHl0aG9uJywgJy1waCcsICc3LjAnLCAnLXRuJywgJzgnLCAnLW1hJywgJzIwMCcsICctbWV0YWxfYmluZGluZycsICctaW1hZScsICc8aW5maWxlLm1hZT4nLCAnLW9tYWUnLCAnPG91dGZpbGUubWFlPic=

> <r_lp_tautomer_probability>
1

> <r_epik_Ionization_Penalty>
3.42089e-05

> <r_epik_Ionization_Penalty_Charging>
0

> <r_epik_Ionization_Penalty_Neutral>
3.42089e-05

> <r_epik_State_Penalty>
-0

> <r_epik_Charging_Adjusted_Penalty>
0

> <i_epik_Tot_Q>
0

> <i_epik_Tot_abs_Q>
0

> <r_epik_Metal_State_Penalty>
-0

> <b_epik_Metal_Only>
0

> <s_lp_Force_Field>
OPLS_2005

> <r_lp_Energy>
21.1038

> <b_lp_Chiralities_Consistent>
1

> <s_lp_Variant>
AV-unprocessed.smi:698-1

> <Gold.Version>
5.8.1

> <Gold.Id.Protein>
6NUR|6NUR_protein|mol2

> <Gold.PLP.Fitness>
43.7015

> <Gold.PLP.PLP>
-39.8005

> <Gold.PLP.part.hbond>
-2.0000

> <Gold.PLP.part.metal>
0.0000

> <Gold.PLP.part.buried>
0.8243

> <Gold.PLP.part.nonpolar>
-38.1080

> <Gold.PLP.part.repulsive>
0.2687

> <Gold.PLP.ligand.clash>
0.5504

> <Gold.PLP.ligand.torsion>
0.3917

> <Gold.PLP.Chemscore.Hbond>
1.7408

> <Gold.PLP.Chemscore.CHOScore>
0.0000

> <Gold.PLP.Chemscore.Metal>
0.0000

> <Gold.Chemscore.Hbonds>
donor molecule, donor type, donor heavy atom, donor atom, acceptor molecule, acceptor atom, score
      L1  H     9    26       P1  8028  0.93
      P1  H  7989  7998       L1    11  0.86

> <Gold.PLP.Chemscore.Internal.Correction>
0.0125

> <Gold.Rescore>
     Score         DG    S(hbond)    S(metal)    S(lipo)     H(rot)  DE(clash)    DE(int)     intcor
     13.50     -16.44       1.28        0.00      88.10       1.42       1.75       1.19       ----

> <Gold.Chemscore.Fitness>
13.5022

> <Gold.Chemscore.DG>
-16.4361

> <Gold.Chemscore.ZeroCoef>
-5.4800

> <Gold.Chemscore.Hbond>
1.2814

> <Gold.Chemscore.Metal>
0.0000

> <Gold.Chemscore.Lipo>
88.0981

> <Gold.Chemscore.Internal_Hbond>
0.0000

> <Gold.Chemscore.DEClash>
1.7450

> <Gold.Chemscore.DEInternal>
1.1889

> <Gold.Chemscore.Rot>
1.4185

> <Gold.Chemscore.Internal.Correction>
   9.000000E+99

> <Gold.Chemscore.Hbonds>
donor molecule, donor type, donor heavy atom, donor atom, acceptor molecule, acceptor atom, score
      L1  H     9    26       P1  8028  0.91
      P1  H  7989  7998       L1    11  0.16

> <Gold.Chemscore.Hbond.Weighted>
-4.2799

> <Gold.Chemscore.Metal.Weighted>
-0.0000

> <Gold.Chemscore.Lipo.Weighted>
-10.3075

> <Gold.Chemscore.Internal_Hbond.Weighted>
0.0000

> <Gold.Chemscore.DEClash.Weighted>
1.7450

> <Gold.Chemscore.DEInternal.Weighted>
1.1889

> <Gold.Chemscore.Rot.Weighted>
3.6313

> <Gold.Chemscore.Internal.Correction.Weighted>
   9.000000E+99

> <Gold.Protein.RotatedTorsions>
[ 6907 6896 6895 6894 ] final  -77.98 input  -60.11 | X-H torsion
[ 7974 7965 7964 7962 ] final -172.09 input  175.53 | X-H torsion
[ 8008 7997 7996 7995 ] final   86.05 input   59.86 | X-H torsion
[ 10167 10162 10161 10158 ] final -104.98 input  -65.29 | X-H torsion
[ 10718 10713 10712 10709 ] final -142.83 input   66.30 | X-H torsion
[ 10763 10752 10751 10750 ] final -103.84 input  -60.55 | X-H torsion
[ 11005 11000 10999 10996 ] final   40.76 input  -57.11 | X-H torsion

> <Gold.Protein.ActiveResidues>
 VAL166  LYS551  ARG553  GLY616  TRP617  ASP618  TYR619  PRO620  LYS621  CYS622 
 ASP623  PHE694  ASN695  SER759  ASP760  ASP761  ALA762  ILE779  LEU786  VAL792 
 PHE793  MET794  SER795  GLU796  ALA797  LYS798  CYS799  TRP800  GLU811  SER814 

> <Gold.Protein.RotatedAtoms>
  150.6984  134.4341  159.5261 H   0  0  0  0  0  0  0  0  0  0  0  0  # atno 6907 bound_to 6896
  152.2062  134.8540  160.0511 H   0  0  0  0  0  0  0  0  0  0  0  0  # atno 6908 bound_to 6896
  151.9442  133.3612  159.4013 H   0  0  0  0  0  0  0  0  0  0  0  0  # atno 6909 bound_to 6896
  144.7150  140.1824  143.6357 H   0  0  0  0  0  0  0  0  0  0  0  0  # atno 7974 bound_to 7965
  155.9579  140.3396  155.6464 H   0  0  0  0  0  0  0  0  0  0  0  0  # atno 8008 bound_to 7997
  155.6836  140.0740  157.2493 H   0  0  0  0  0  0  0  0  0  0  0  0  # atno 8009 bound_to 7997
  154.4136  140.1670  156.1997 H   0  0  0  0  0  0  0  0  0  0  0  0  # atno 8010 bound_to 7997
  140.2035  143.3800  152.1110 H   0  0  0  0  0  0  0  0  0  0  0  0  # atno 10167 bound_to 10162
  156.3506  130.7686  151.1838 H   0  0  0  0  0  0  0  0  0  0  0  0  # atno 10718 bound_to 10713
  154.7836  135.4808  153.9897 H   0  0  0  0  0  0  0  0  0  0  0  0  # atno 10763 bound_to 10752
  153.1528  135.6794  153.8863 H   0  0  0  0  0  0  0  0  0  0  0  0  # atno 10764 bound_to 10752
  153.8502  135.3168  155.3410 H   0  0  0  0  0  0  0  0  0  0  0  0  # atno 10765 bound_to 10752
  140.1899  134.3999  155.8152 H   0  0  0  0  0  0  0  0  0  0  0  0  # atno 11005 bound_to 11000
  145.8844  139.2341  143.1586 LP  0  0  0  0  0  0  0  0  0  0  0  0  # atno 17320 bound_to 7965
  145.9964  140.8559  143.0041 LP  0  0  0  0  0  0  0  0  0  0  0  0  # atno 17321 bound_to 7965
  139.5208  144.7037  151.5417 LP  0  0  0  0  0  0  0  0  0  0  0  0  # atno 17342 bound_to 10162
  140.6374  143.8957  150.6660 LP  0  0  0  0  0  0  0  0  0  0  0  0  # atno 17343 bound_to 10162
  157.7460  131.0428  150.4715 LP  0  0  0  0  0  0  0  0  0  0  0  0  # atno 17370 bound_to 10713
  156.4909  130.4095  149.6407 LP  0  0  0  0  0  0  0  0  0  0  0  0  # atno 17371 bound_to 10713
  141.2226  133.7041  156.8077 LP  0  0  0  0  0  0  0  0  0  0  0  0  # atno 17394 bound_to 11000
  140.2171  134.8784  157.3337 LP  0  0  0  0  0  0  0  0  0  0  0  0  # atno 17395 bound_to 11000

$$$$
