AV-unprocessed.smi:2188|AV-procd|sdf|8882|dock4
  -GOLD-   2272012 83D 1   1.00000     0.00000
 Structure written by MMmdl.
 38 40  0  0  0  0  0  0  0  0  2 V2000
  151.7149  140.2152  155.4109 O   0  0  0  0  0  0  0  0  0  0  0  0
  151.0100  141.0199  156.0342 C   0  0  0  0  0  0  0  0  0  0  0  0
  149.7550  141.4179  155.6577 N   0  5  0  0  0  0  0  0  0  0  0  0
  149.1220  141.1385  154.3680 C   0  0  0  0  0  0  0  0  0  0  0  0
  147.6657  140.6853  154.5950 C   0  0  0  0  0  0  0  0  0  0  0  0
  146.6713  141.8355  154.6827 C   0  0  0  0  0  0  0  0  0  0  0  0
  146.5033  142.7343  153.6065 C   0  0  0  0  0  0  0  0  0  0  0  0
  145.5802  143.7892  153.7381 C   0  0  0  0  0  0  0  0  0  0  0  0
  144.8641  143.9061  154.9458 C   0  0  0  0  0  0  0  0  0  0  0  0
  145.0188  143.0585  155.9854 N   0  0  0  0  0  0  0  0  0  0  0  0
  145.9053  142.0482  155.8507 C   0  0  0  0  0  0  0  0  0  0  0  0
  151.5454  141.6363  157.2661 C   0  0  0  0  0  0  0  0  0  0  0  0
  151.1841  142.9130  157.5635 C   0  0  0  0  0  0  0  0  0  0  0  0
  151.6497  143.5808  158.7531 C   0  0  0  0  0  0  0  0  0  0  0  0
  152.4870  142.9187  159.5576 C   0  0  0  0  0  0  0  0  0  0  0  0
  152.9270  141.6216  159.3006 N   0  0  0  0  0  0  0  0  0  0  0  0
  153.9197  141.0681  160.2155 C   0  0  0  0  0  0  0  0  0  0  0  0
  153.6117  139.6120  160.5123 C   0  0  0  0  0  0  0  0  0  0  0  0
  153.7721  138.7358  158.9160 S   0  0  0  0  0  0  0  0  0  0  0  0
  155.1486  138.9218  158.4304 O   0  0  0  0  0  0  0  0  0  0  0  0
  153.2462  137.3731  159.0884 O   0  0  0  0  0  0  0  0  0  0  0  0
  152.7253  139.6367  157.9690 N   0  0  0  0  0  0  0  0  0  0  0  0
  152.4411  140.8915  158.1785 C   0  0  0  0  0  0  0  0  0  0  0  0
  149.1144  142.0099  153.7116 H   0  0  0  0  0  0  0  0  0  0  0  0
  149.6571  140.3601  153.8232 H   0  0  0  0  0  0  0  0  0  0  0  0
  147.3556  140.0171  153.7901 H   0  0  0  0  0  0  0  0  0  0  0  0
  147.5988  140.1024  155.5150 H   0  0  0  0  0  0  0  0  0  0  0  0
  147.0690  142.6146  152.6940 H   0  0  0  0  0  0  0  0  0  0  0  0
  145.4247  144.4913  152.9323 H   0  0  0  0  0  0  0  0  0  0  0  0
  144.1487  144.7038  155.0805 H   0  0  0  0  0  0  0  0  0  0  0  0
  146.0058  141.3895  156.7010 H   0  0  0  0  0  0  0  0  0  0  0  0
  150.5376  143.4771  156.9061 H   0  0  0  0  0  0  0  0  0  0  0  0
  151.3310  144.5860  158.9859 H   0  0  0  0  0  0  0  0  0  0  0  0
  152.8715  143.3668  160.4623 H   0  0  0  0  0  0  0  0  0  0  0  0
  154.9129  141.1746  159.7780 H   0  0  0  0  0  0  0  0  0  0  0  0
  153.9320  141.6225  161.1544 H   0  0  0  0  0  0  0  0  0  0  0  0
  154.3203  139.1831  161.2204 H   0  0  0  0  0  0  0  0  0  0  0  0
  152.6022  139.4754  160.9018 H   0  0  0  0  0  0  0  0  0  0  0  0
  1  2  2  0  0  0  0
  2  3  1  0  0  0  0
  2 12  1  0  0  0  0
  3  4  1  0  0  0  0
  4  5  1  0  0  0  0
  4 24  1  0  0  0  0
  4 25  1  0  0  0  0
  5  6  1  0  0  0  0
  5 26  1  0  0  0  0
  5 27  1  0  0  0  0
  6 11  1  0  0  0  0
  6  7  2  0  0  0  0
  7  8  1  0  0  0  0
  7 28  1  0  0  0  0
  8  9  2  0  0  0  0
  8 29  1  0  0  0  0
  9 10  1  0  0  0  0
  9 30  1  0  0  0  0
 10 11  2  0  0  0  0
 11 31  1  0  0  0  0
 12 23  1  0  0  0  0
 12 13  2  0  0  0  0
 13 14  1  0  0  0  0
 13 32  1  0  0  0  0
 14 15  2  0  0  0  0
 14 33  1  0  0  0  0
 15 16  1  0  0  0  0
 15 34  1  0  0  0  0
 16 23  1  0  0  0  0
 16 17  1  0  0  0  0
 17 18  1  0  0  0  0
 17 35  1  0  0  0  0
 17 36  1  0  0  0  0
 18 19  1  0  0  0  0
 18 37  1  0  0  0  0
 18 38  1  0  0  0  0
 19 20  2  0  0  0  0
 19 21  2  0  0  0  0
 19 22  1  0  0  0  0
 22 23  2  0  0  0  0
M  CHG  1   3  -1
M  END
> <s_m_source_file>
AV-unprocessed.smi

> <i_m_source_file_index>
2188

> <i_lp_mmshare_version>
43012

> <i_f3d_flags>
0

> <s_epik_input>
W0NIMl0xW0NIMl1TKD1PKSg9TylOPUMoTjEyKUMoPVtDSF1bQ0hdPVtDSF0yKUMoPU8pW05IXVtDSDJdW0NIMl1jM1tjSF1bY0hdW2NIXW5bY0hdMw==

> <s_epik_cmdline>
J2VwaWtfcHl0aG9uJywgJy1waCcsICc3LjAnLCAnLXRuJywgJzgnLCAnLW1hJywgJzIwMCcsICctbWV0YWxfYmluZGluZycsICctaW1hZScsICc8aW5maWxlLm1hZT4nLCAnLW9tYWUnLCAnPG91dGZpbGUubWFlPic=

> <r_epik_Ionization_Penalty>
5.61471

> <r_epik_Ionization_Penalty_Charging>
5.5942

> <r_epik_Ionization_Penalty_Neutral>
0.0205175

> <r_epik_State_Penalty>
5.60129

> <r_epik_Charging_Adjusted_Penalty>
11.1955

> <i_epik_Tot_Q>
-1

> <i_epik_Tot_abs_Q>
1

> <r_epik_Metal_State_Penalty>
1.60393

> <b_epik_Metal_Only>
1

> <s_lp_Force_Field>
OPLS_2005

> <r_lp_Energy>
34.9518

> <b_lp_Chiralities_Consistent>
1

> <s_lp_Variant>
AV-unprocessed.smi:2188-3

> <Gold.Version>
5.8.1

> <Gold.Id.Protein>
6NUR|6NUR_protein|mol2

> <Gold.PLP.Fitness>
49.1319

> <Gold.PLP.PLP>
-44.6736

> <Gold.PLP.part.hbond>
-2.6850

> <Gold.PLP.part.metal>
0.0000

> <Gold.PLP.part.buried>
-8.2737

> <Gold.PLP.part.nonpolar>
-34.6666

> <Gold.PLP.part.repulsive>
0.2273

> <Gold.PLP.ligand.clash>
0.0000

> <Gold.PLP.ligand.torsion>
0.7372

> <Gold.PLP.Chemscore.Hbond>
1.8800

> <Gold.PLP.Chemscore.CHOScore>
0.0000

> <Gold.PLP.Chemscore.Metal>
0.0000

> <Gold.Chemscore.Hbonds>
donor molecule, donor type, donor heavy atom, donor atom, acceptor molecule, acceptor atom, score
      P1  H  7989  7998       L1     1  0.86
      P1  H  7997  8010       L1    20  1.00

> <Gold.PLP.Chemscore.Internal.Correction>
0.2927

> <Gold.Rescore>
     Score         DG    S(hbond)    S(metal)    S(lipo)     H(rot)  DE(clash)    DE(int)     intcor
     16.37     -18.71       1.68        0.00      96.83       1.44       0.14       2.20       ----

> <Gold.Chemscore.Fitness>
16.3726

> <Gold.Chemscore.DG>
-18.7144

> <Gold.Chemscore.ZeroCoef>
-5.4800

> <Gold.Chemscore.Hbond>
1.6768

> <Gold.Chemscore.Metal>
0.0000

> <Gold.Chemscore.Lipo>
96.8271

> <Gold.Chemscore.Internal_Hbond>
0.0000

> <Gold.Chemscore.DEClash>
0.1385

> <Gold.Chemscore.DEInternal>
2.2033

> <Gold.Chemscore.Rot>
1.4433

> <Gold.Chemscore.Internal.Correction>
   9.000000E+99

> <Gold.Chemscore.Hbonds>
donor molecule, donor type, donor heavy atom, donor atom, acceptor molecule, acceptor atom, score
      P1  H  7989  7998       L1     1  0.37
      P1  H  7997  8010       L1    20  0.47

> <Gold.Chemscore.Hbond.Weighted>
-5.6005

> <Gold.Chemscore.Metal.Weighted>
-0.0000

> <Gold.Chemscore.Lipo.Weighted>
-11.3288

> <Gold.Chemscore.Internal_Hbond.Weighted>
0.0000

> <Gold.Chemscore.DEClash.Weighted>
0.1385

> <Gold.Chemscore.DEInternal.Weighted>
2.2033

> <Gold.Chemscore.Rot.Weighted>
3.6949

> <Gold.Chemscore.Internal.Correction.Weighted>
   9.000000E+99

> <Gold.Protein.RotatedTorsions>
[ 6907 6896 6895 6894 ] final  107.36 input  -60.11 | X-H torsion
[ 7974 7965 7964 7962 ] final   19.47 input  175.53 | X-H torsion
[ 8008 7997 7996 7995 ] final    6.27 input   59.86 | X-H torsion
[ 10167 10162 10161 10158 ] final  159.20 input  -65.29 | X-H torsion
[ 10718 10713 10712 10709 ] final -169.41 input   66.30 | X-H torsion
[ 10763 10752 10751 10750 ] final    9.00 input  -60.55 | X-H torsion
[ 11005 11000 10999 10996 ] final -156.79 input  -57.11 | X-H torsion

> <Gold.Protein.ActiveResidues>
 VAL166  LYS551  ARG553  GLY616  TRP617  ASP618  TYR619  PRO620  LYS621  CYS622 
 ASP623  PHE694  ASN695  SER759  ASP760  ASP761  ALA762  ILE779  LEU786  VAL792 
 PHE793  MET794  SER795  GLU796  ALA797  LYS798  CYS799  TRP800  GLU811  SER814 

> <Gold.Protein.RotatedAtoms>
  152.5157  133.9246  159.7550 H   0  0  0  0  0  0  0  0  0  0  0  0  # atno 6907 bound_to 6896
  150.9610  133.6437  159.2761 H   0  0  0  0  0  0  0  0  0  0  0  0  # atno 6908 bound_to 6896
  151.3682  135.0923  159.9509 H   0  0  0  0  0  0  0  0  0  0  0  0  # atno 6909 bound_to 6896
  146.2148  139.8309  142.8660 H   0  0  0  0  0  0  0  0  0  0  0  0  # atno 7974 bound_to 7965
  154.7389  140.2745  155.6391 H   0  0  0  0  0  0  0  0  0  0  0  0  # atno 8008 bound_to 7997
  156.2868  140.2701  156.2036 H   0  0  0  0  0  0  0  0  0  0  0  0  # atno 8009 bound_to 7997
  155.0284  140.0371  157.2454 H   0  0  0  0  0  0  0  0  0  0  0  0  # atno 8010 bound_to 7997
  139.4831  144.4753  151.8520 H   0  0  0  0  0  0  0  0  0  0  0  0  # atno 10167 bound_to 10162
  156.7112  130.9234  151.3089 H   0  0  0  0  0  0  0  0  0  0  0  0  # atno 10718 bound_to 10713
  153.2188  135.6878  153.8025 H   0  0  0  0  0  0  0  0  0  0  0  0  # atno 10763 bound_to 10752
  153.7231  135.3264  155.3271 H   0  0  0  0  0  0  0  0  0  0  0  0  # atno 10764 bound_to 10752
  154.8259  135.4618  154.1027 H   0  0  0  0  0  0  0  0  0  0  0  0  # atno 10765 bound_to 10752
  140.6717  134.4240  157.5231 H   0  0  0  0  0  0  0  0  0  0  0  0  # atno 11005 bound_to 11000
  145.2998  141.0191  143.3615 LP  0  0  0  0  0  0  0  0  0  0  0  0  # atno 17320 bound_to 7965
  144.9014  139.4644  143.6630 LP  0  0  0  0  0  0  0  0  0  0  0  0  # atno 17321 bound_to 7965
  140.4225  144.2225  150.5887 LP  0  0  0  0  0  0  0  0  0  0  0  0  # atno 17342 bound_to 10162
  140.4860  143.2363  151.8887 LP  0  0  0  0  0  0  0  0  0  0  0  0  # atno 17343 bound_to 10162
  157.6935  130.9258  150.0580 LP  0  0  0  0  0  0  0  0  0  0  0  0  # atno 17370 bound_to 10713
  156.1660  130.3645  149.9232 LP  0  0  0  0  0  0  0  0  0  0  0  0  # atno 17371 bound_to 10713
  139.8979  134.8625  156.2022 LP  0  0  0  0  0  0  0  0  0  0  0  0  # atno 17394 bound_to 11000
  141.0387  133.6949  156.1559 LP  0  0  0  0  0  0  0  0  0  0  0  0  # atno 17395 bound_to 11000

$$$$
