AV-unprocessed.smi:3123|AV-procd|sdf|11901|dock7
  -GOLD-   2272017283D 1   1.00000     0.00000
 Structure written by MMmdl.
 29 30  0  0  0  0  0  0  0  0  1 V2000
  149.1904  140.4624  153.5622 N   0  0  0  0  0  0  0  0  0  0  0  0
  149.6452  141.4549  154.5145 C   0  0  0  0  0  0  0  0  0  0  0  0
  150.6493  140.8892  155.4964 C   0  0  0  0  0  0  0  0  0  0  0  0
  151.1604  139.5863  155.3307 C   0  0  0  0  0  0  0  0  0  0  0  0
  152.0861  139.1055  156.2770 C   0  0  0  0  0  0  0  0  0  0  0  0
  152.5079  139.8295  157.3354 N   0  0  0  0  0  0  0  0  0  0  0  0
  152.0138  141.0813  157.4947 C   0  0  0  0  0  0  0  0  0  0  0  0
  152.4532  141.8376  158.5907 N   0  0  0  0  0  0  0  0  0  0  0  0
  151.4605  142.7876  159.0773 C   0  0  0  0  0  0  0  0  0  0  0  0
  152.0664  143.6564  160.1936 C   0  0  0  0  0  0  0  0  0  0  0  0
  152.5728  142.8202  161.2306 O   0  0  0  0  0  0  0  0  0  0  0  0
  153.5947  141.9451  160.7610 C   0  0  0  0  0  0  0  0  0  0  0  0
  153.0258  141.0316  159.6619 C   0  0  0  0  0  0  0  0  0  0  0  0
  151.0811  141.6498  156.6018 C   0  0  0  0  0  0  0  0  0  0  0  0
  149.7265  140.5368  152.7096 H   0  0  0  0  0  0  0  0  0  0  0  0
  149.3598  139.5383  153.9329 H   0  0  0  0  0  0  0  0  0  0  0  0
  150.1019  142.2833  153.9719 H   0  0  0  0  0  0  0  0  0  0  0  0
  148.7856  141.8596  155.0495 H   0  0  0  0  0  0  0  0  0  0  0  0
  150.8523  138.9690  154.4996 H   0  0  0  0  0  0  0  0  0  0  0  0
  152.4997  138.1124  156.1811 H   0  0  0  0  0  0  0  0  0  0  0  0
  151.1182  143.4182  158.2559 H   0  0  0  0  0  0  0  0  0  0  0  0
  150.5901  142.2509  159.4577 H   0  0  0  0  0  0  0  0  0  0  0  0
  152.8631  144.2912  159.8030 H   0  0  0  0  0  0  0  0  0  0  0  0
  151.3067  144.3178  160.6099 H   0  0  0  0  0  0  0  0  0  0  0  0
  154.4407  142.5241  160.3866 H   0  0  0  0  0  0  0  0  0  0  0  0
  153.9616  141.3467  161.5949 H   0  0  0  0  0  0  0  0  0  0  0  0
  152.2605  140.3789  160.0842 H   0  0  0  0  0  0  0  0  0  0  0  0
  153.8127  140.3909  159.2620 H   0  0  0  0  0  0  0  0  0  0  0  0
  150.7054  142.6504  156.7610 H   0  0  0  0  0  0  0  0  0  0  0  0
  1  2  1  0  0  0  0
  1 15  1  0  0  0  0
  1 16  1  0  0  0  0
  2  3  1  0  0  0  0
  2 17  1  0  0  0  0
  2 18  1  0  0  0  0
  3 14  1  0  0  0  0
  3  4  2  0  0  0  0
  4  5  1  0  0  0  0
  4 19  1  0  0  0  0
  5  6  2  0  0  0  0
  5 20  1  0  0  0  0
  6  7  1  0  0  0  0
  7  8  1  0  0  0  0
  7 14  2  0  0  0  0
  8 13  1  0  0  0  0
  8  9  1  0  0  0  0
  9 10  1  0  0  0  0
  9 21  1  0  0  0  0
  9 22  1  0  0  0  0
 10 11  1  0  0  0  0
 10 23  1  0  0  0  0
 10 24  1  0  0  0  0
 11 12  1  0  0  0  0
 12 13  1  0  0  0  0
 12 25  1  0  0  0  0
 12 26  1  0  0  0  0
 13 27  1  0  0  0  0
 13 28  1  0  0  0  0
 14 29  1  0  0  0  0
M  END
> <s_m_source_file>
AV-unprocessed.smi

> <i_m_source_file_index>
3123

> <i_lp_mmshare_version>
43012

> <i_f3d_flags>
0

> <s_epik_input>
W05IMl1bQ0gyXWMxW2NIXVtjSF1uYyhbY0hdMSlOMltDSDJdW0NIMl1PW0NIMl1bQ0gyXTI=

> <s_epik_cmdline>
J2VwaWtfcHl0aG9uJywgJy1waCcsICc3LjAnLCAnLXRuJywgJzgnLCAnLW1hJywgJzIwMCcsICctbWV0YWxfYmluZGluZycsICctaW1hZScsICc8aW5maWxlLm1hZT4nLCAnLW9tYWUnLCAnPG91dGZpbGUubWFlPic=

> <r_lp_tautomer_probability>
1

> <r_epik_Ionization_Penalty>
1.26929

> <r_epik_Ionization_Penalty_Charging>
0

> <r_epik_Ionization_Penalty_Neutral>
1.26929

> <r_epik_State_Penalty>
2.46732

> <r_epik_Charging_Adjusted_Penalty>
2.46732

> <i_epik_Tot_Q>
0

> <i_epik_Tot_abs_Q>
0

> <r_epik_Metal_State_Penalty>
2.44539

> <b_epik_Metal_Only>
0

> <s_lp_Force_Field>
OPLS_2005

> <r_lp_Energy>
17.6888

> <b_lp_Chiralities_Consistent>
1

> <s_lp_Variant>
AV-unprocessed.smi:3123-2

> <Gold.Version>
5.8.1

> <Gold.Id.Protein>
6NUR|6NUR_protein|mol2

> <Gold.PLP.Fitness>
35.3792

> <Gold.PLP.PLP>
-30.7067

> <Gold.PLP.part.hbond>
-2.0000

> <Gold.PLP.part.metal>
0.0000

> <Gold.PLP.part.buried>
-4.3127

> <Gold.PLP.part.nonpolar>
-24.2247

> <Gold.PLP.part.repulsive>
0.0551

> <Gold.PLP.ligand.clash>
0.0000

> <Gold.PLP.ligand.torsion>
0.7155

> <Gold.PLP.Chemscore.Hbond>
2.0000

> <Gold.PLP.Chemscore.CHOScore>
0.0000

> <Gold.PLP.Chemscore.Metal>
0.0000

> <Gold.Chemscore.Hbonds>
donor molecule, donor type, donor heavy atom, donor atom, acceptor molecule, acceptor atom, score
      L1  H     1    15       P1  7957  0.77
      P1  H  7997  8008       L1     6  0.85

> <Gold.PLP.Chemscore.Internal.Correction>
0.1035

> <Gold.Rescore>
     Score         DG    S(hbond)    S(metal)    S(lipo)     H(rot)  DE(clash)    DE(int)     intcor
     15.51     -16.22       1.55        0.00      75.60       1.29       0.02       0.69       ----

> <Gold.Chemscore.Fitness>
15.5060

> <Gold.Chemscore.DG>
-16.2218

> <Gold.Chemscore.ZeroCoef>
-5.4800

> <Gold.Chemscore.Hbond>
1.5547

> <Gold.Chemscore.Metal>
0.0000

> <Gold.Chemscore.Lipo>
75.5984

> <Gold.Chemscore.Internal_Hbond>
0.0000

> <Gold.Chemscore.DEClash>
0.0234

> <Gold.Chemscore.DEInternal>
0.6924

> <Gold.Chemscore.Rot>
1.2875

> <Gold.Chemscore.Internal.Correction>
   9.000000E+99

> <Gold.Chemscore.Hbonds>
donor molecule, donor type, donor heavy atom, donor atom, acceptor molecule, acceptor atom, score
      L1  H     1    15       P1  7957  0.77
      P1  H  7997  8008       L1     6  0.07

> <Gold.Chemscore.Hbond.Weighted>
-5.1928

> <Gold.Chemscore.Metal.Weighted>
-0.0000

> <Gold.Chemscore.Lipo.Weighted>
-8.8450

> <Gold.Chemscore.Internal_Hbond.Weighted>
0.0000

> <Gold.Chemscore.DEClash.Weighted>
0.0234

> <Gold.Chemscore.DEInternal.Weighted>
0.6924

> <Gold.Chemscore.Rot.Weighted>
3.2961

> <Gold.Chemscore.Internal.Correction.Weighted>
   9.000000E+99

> <Gold.Protein.RotatedTorsions>
[ 6907 6896 6895 6894 ] final   25.24 input  -60.11 | X-H torsion
[ 7974 7965 7964 7962 ] final  175.88 input  175.53 | X-H torsion
[ 8008 7997 7996 7995 ] final  -64.70 input   59.86 | X-H torsion
[ 10167 10162 10161 10158 ] final  -43.33 input  -65.29 | X-H torsion
[ 10718 10713 10712 10709 ] final  -94.39 input   66.30 | X-H torsion
[ 10763 10752 10751 10750 ] final   80.80 input  -60.55 | X-H torsion
[ 11005 11000 10999 10996 ] final   35.75 input  -57.11 | X-H torsion

> <Gold.Protein.ActiveResidues>
 VAL166  LYS551  ARG553  GLY616  TRP617  ASP618  TYR619  PRO620  LYS621  CYS622 
 ASP623  PHE694  ASN695  SER759  ASP760  ASP761  ALA762  ILE779  LEU786  VAL792 
 PHE793  MET794  SER795  GLU796  ALA797  LYS798  CYS799  TRP800  GLU811  SER814 

> <Gold.Protein.RotatedAtoms>
  151.9696  135.0083  160.0551 H   0  0  0  0  0  0  0  0  0  0  0  0  # atno 6907 bound_to 6896
  152.1795  133.4693  159.4959 H   0  0  0  0  0  0  0  0  0  0  0  0  # atno 6908 bound_to 6896
  150.6915  134.1768  159.4276 H   0  0  0  0  0  0  0  0  0  0  0  0  # atno 6909 bound_to 6896
  144.7194  140.0013  143.6440 H   0  0  0  0  0  0  0  0  0  0  0  0  # atno 7974 bound_to 7965
  154.4627  140.0948  156.6938 H   0  0  0  0  0  0  0  0  0  0  0  0  # atno 8008 bound_to 7997
  155.4946  140.3472  155.4342 H   0  0  0  0  0  0  0  0  0  0  0  0  # atno 8009 bound_to 7997
  156.0901  140.1395  156.9592 H   0  0  0  0  0  0  0  0  0  0  0  0  # atno 8010 bound_to 7997
  140.6938  143.2989  151.3337 H   0  0  0  0  0  0  0  0  0  0  0  0  # atno 10167 bound_to 10162
  156.0026  130.5066  150.5920 H   0  0  0  0  0  0  0  0  0  0  0  0  # atno 10718 bound_to 10713
  153.1063  135.4789  154.8957 H   0  0  0  0  0  0  0  0  0  0  0  0  # atno 10763 bound_to 10752
  154.7434  135.3088  154.8691 H   0  0  0  0  0  0  0  0  0  0  0  0  # atno 10764 bound_to 10752
  153.9292  135.6846  153.4799 H   0  0  0  0  0  0  0  0  0  0  0  0  # atno 10765 bound_to 10752
  140.2395  134.3431  155.7931 H   0  0  0  0  0  0  0  0  0  0  0  0  # atno 11005 bound_to 11000
  146.0333  139.3354  143.0742 LP  0  0  0  0  0  0  0  0  0  0  0  0  # atno 17320 bound_to 7965
  145.8426  140.9572  143.0791 LP  0  0  0  0  0  0  0  0  0  0  0  0  # atno 17321 bound_to 7965
  139.6369  144.0614  152.2523 LP  0  0  0  0  0  0  0  0  0  0  0  0  # atno 17342 bound_to 10162
  140.0107  144.6226  150.7650 LP  0  0  0  0  0  0  0  0  0  0  0  0  # atno 17343 bound_to 10162
  157.3783  131.0777  151.1499 LP  0  0  0  0  0  0  0  0  0  0  0  0  # atno 17370 bound_to 10713
  157.2230  130.6490  149.5818 LP  0  0  0  0  0  0  0  0  0  0  0  0  # atno 17371 bound_to 10713
  141.2211  133.7291  156.8863 LP  0  0  0  0  0  0  0  0  0  0  0  0  # atno 17394 bound_to 11000
  140.1667  134.9128  157.2783 LP  0  0  0  0  0  0  0  0  0  0  0  0  # atno 17395 bound_to 11000

$$$$
