#       Name:                AV-unprocessed.smi:886
#       Creating user name   scv26
#       Creation time:       Fri Mar 27 01:53:45 2020


#       File generated by GOLD software.
#

@<TRIPOS>MOLECULE
AV-unprocessed.smi:886
    40    42     1
SMALL
NO_CHARGES


@<TRIPOS>ATOM
      1 ****        -3.5633  -3.5892   0.3888 C.3            1 S1                 0.0000
      2 ****        -2.1290  -3.3469   0.3761 N.am           1 S1                 0.0000
      3 ****        -1.5510  -2.2709  -0.1794 C.2            1 S1                 0.0000
      4 ****        -2.1876  -1.3680  -0.7239 O.2            1 S1                 0.0000
      5 ****        -0.0490  -2.2164  -0.0644 C.ar           1 S1                 0.0000
      6 ****         0.7098  -3.3878  -0.2962 C.ar           1 S1                 0.0000
      7 ****         2.1129  -3.3340  -0.2215 C.ar           1 S1                 0.0000
      8 ****         2.7152  -2.1004   0.0784 C.ar           1 S1                 0.0000
      9 ****         2.0114  -0.9719   0.2985 N.ar           1 S1                 0.0000
     10 ****         0.6581  -1.0140   0.2284 C.ar           1 S1                 0.0000
     11 ****        -0.0324   0.1838   0.4883 N.pl3          1 S1                 0.0000
     12 ****         0.6340   1.4759   0.3651 C.3            1 S1                 0.0000
     13 ****         0.9593   1.8459  -1.0880 C.3            1 S1                 0.0000
     14 ****         0.2447   3.1943  -1.2409 C.3            1 S1                 0.0000
     15 ****         0.9141   4.3039  -0.4189 C.3            1 S1                 0.0000
     16 ****         0.5097   3.9242   1.0052 C.3            1 S1                 0.0000
     17 ****        -0.2906   2.6351   0.7739 C.3            1 S1                 0.0000
     18 ****        -0.9126   2.9518  -0.4613 O.3            1 S1                 0.0000
     19 ****        -3.7784  -4.5215   0.9108 H              1 S1                 0.0000
     20 ****        -3.9524  -3.6689  -0.6272 H              1 S1                 0.0000
     21 ****        -4.0890  -2.7825   0.9013 H              1 S1                 0.0000
     22 ****        -1.5389  -4.0366   0.8186 H              1 S1                 0.0000
     23 ****         0.2282  -4.3243  -0.5379 H              1 S1                 0.0000
     24 ****         2.7122  -4.2154  -0.3950 H              1 S1                 0.0000
     25 ****         3.7899  -2.0164   0.1427 H              1 S1                 0.0000
     26 ****        -1.0369   0.1750   0.3804 H              1 S1                 0.0000
     27 ****         1.5278   1.4829   0.9905 H              1 S1                 0.0000
     28 ****         2.0317   1.9192  -1.2711 H              1 S1                 0.0000
     29 ****         0.5459   1.1212  -1.7912 H              1 S1                 0.0000
     30 ****         0.0392   3.4708  -2.2754 H              1 S1                 0.0000
     31 ****         1.9949   4.3291  -0.5611 H              1 S1                 0.0000
     32 ****         0.5097   5.2817  -0.6831 H              1 S1                 0.0000
     33 ****         1.3656   3.7723   1.6638 H              1 S1                 0.0000
     34 ****        -0.1229   4.6983   1.4411 H              1 S1                 0.0000
     35 ****        -0.9807   2.3999   1.5851 H              1 S1                 0.0000
     36 ****        -3.1855  -1.4157  -0.7672 LP             1 S1                 0.0000
     37 ****        -1.7065  -0.5873  -1.1227 LP             1 S1                 0.0000
     38 ****         2.4813  -0.1151   0.5107 LP             1 S1                 0.0000
     39 ****        -1.4499   2.1870  -0.8168 LP             1 S1                 0.0000
     40 ****        -1.4933   3.7629  -0.3909 LP             1 S1                 0.0000
@<TRIPOS>BOND
    1    1    2 1     
    2    1   19 1     
    3    1   20 1     
    4    1   21 1     
    5    2    3 am    
    6    2   22 1     
    7    3    4 2     
    8    3    5 1     
    9    5   10 ar    
   10    5    6 ar    
   11    6    7 ar    
   12    6   23 1     
   13    7    8 ar    
   14    7   24 1     
   15    8    9 ar    
   16    8   25 1     
   17    9   10 ar    
   18   10   11 1     
   19   11   12 1     
   20   11   26 1     
   21   12   17 1     
   22   12   13 1     
   23   12   27 1     
   24   13   14 1     
   25   13   28 1     
   26   13   29 1     
   27   14   18 1     
   28   14   15 1     
   29   14   30 1     
   30   15   16 1     
   31   15   31 1     
   32   15   32 1     
   33   16   17 1     
   34   16   33 1     
   35   16   34 1     
   36   17   18 1     
   37   17   35 1     
   38    4   36 1     
   39    4   37 1     
   40    9   38 1     
   41   18   39 1     
   42   18   40 1     
@<TRIPOS>SUBSTRUCTURE
      1 S1             1
@<TRIPOS>SET
LONE_PAIRS      STATIC     ATOMS    <user>   **** ""
5 36 37 38 39 40
DONOR_HYDROGENS      STATIC     ATOMS    <user>   **** ""
2 22 26
ATOM$BLUE        STATIC     ATOMS    COLORGROUP SYSTEM
5 36 37 38 39 40
ATOM$RED        STATIC     ATOMS    COLORGROUP SYSTEM
2 22 26
