AV-unprocessed.smi:3133|AV-procd|sdf|11937|dock5
  -GOLD-   2272017323D 1   1.00000     0.00000
 Structure written by MMmdl.
 32 33  0  0  0  0  0  0  0  0  1 V2000
  148.3616  140.3980  153.4057 C   0  0  0  0  0  0  0  0  0  0  0  0
  148.4624  141.4577  154.5222 C   0  0  2  0  0  0  0  0  0  0  0  0
  149.7951  141.3999  155.2888 C   0  0  0  0  0  0  0  0  0  0  0  0
  150.5806  140.4671  155.1173 O   0  0  0  0  0  0  0  0  0  0  0  0
  150.0407  142.4184  156.1293 N   0  0  0  0  0  0  0  0  0  0  0  0
  151.2323  142.5673  156.9584 C   0  0  0  0  0  0  0  0  0  0  0  0
  151.2855  143.9455  157.6383 C   0  0  2  0  0  0  0  0  0  0  0  0
  152.5815  144.2472  158.3938 C   0  0  0  0  0  0  0  0  0  0  0  0
  152.1101  145.2525  159.4188 C   0  0  0  0  0  0  0  0  0  0  0  0
  150.7426  144.6891  159.7908 C   0  0  0  0  0  0  0  0  0  0  0  0
  150.2515  144.0512  158.6145 O   0  0  0  0  0  0  0  0  0  0  0  0
  147.3359  141.3836  155.4453 N   0  0  0  0  0  0  0  0  0  0  0  0
  147.0861  142.0865  156.5522 C   0  0  0  0  0  0  0  0  0  0  0  0
  145.9765  141.7252  157.1814 N   0  0  0  0  0  0  0  0  0  0  0  0
  145.5650  140.7171  156.3565 C   0  0  0  0  0  0  0  0  0  0  0  0
  146.3467  140.4657  155.3067 N   0  0  0  0  0  0  0  0  0  0  0  0
  149.1757  140.5030  152.6877 H   0  0  0  0  0  0  0  0  0  0  0  0
  147.4265  140.5028  152.8549 H   0  0  0  0  0  0  0  0  0  0  0  0
  148.3986  139.3821  153.8013 H   0  0  0  0  0  0  0  0  0  0  0  0
  148.4179  142.4362  154.0413 H   0  0  0  0  0  0  0  0  0  0  0  0
  149.3436  143.1444  156.2071 H   0  0  0  0  0  0  0  0  0  0  0  0
  151.2024  141.7888  157.7209 H   0  0  0  0  0  0  0  0  0  0  0  0
  152.1411  142.3900  156.3808 H   0  0  0  0  0  0  0  0  0  0  0  0
  151.1121  144.7299  156.8999 H   0  0  0  0  0  0  0  0  0  0  0  0
  152.9530  143.3529  158.8960 H   0  0  0  0  0  0  0  0  0  0  0  0
  153.3724  144.6308  157.7488 H   0  0  0  0  0  0  0  0  0  0  0  0
  152.7815  145.3445  160.2729 H   0  0  0  0  0  0  0  0  0  0  0  0
  152.0011  146.2354  158.9583 H   0  0  0  0  0  0  0  0  0  0  0  0
  150.8428  143.9376  160.5748 H   0  0  0  0  0  0  0  0  0  0  0  0
  150.0565  145.4589  160.1446 H   0  0  0  0  0  0  0  0  0  0  0  0
  147.7317  142.8759  156.9080 H   0  0  0  0  0  0  0  0  0  0  0  0
  144.6650  140.1483  156.5386 H   0  0  0  0  0  0  0  0  0  0  0  0
  1  2  1  0  0  0  0
  1 17  1  0  0  0  0
  1 18  1  0  0  0  0
  1 19  1  0  0  0  0
  2  3  1  0  0  0  0
  2 12  1  0  0  0  0
  2 20  1  0  0  0  0
  3  4  2  0  0  0  0
  3  5  1  0  0  0  0
  5  6  1  0  0  0  0
  5 21  1  0  0  0  0
  6  7  1  0  0  0  0
  6 22  1  0  0  0  0
  6 23  1  0  0  0  0
  7 11  1  0  0  0  0
  7  8  1  0  0  0  0
  7 24  1  0  0  0  0
  8  9  1  0  0  0  0
  8 25  1  0  0  0  0
  8 26  1  0  0  0  0
  9 10  1  0  0  0  0
  9 27  1  0  0  0  0
  9 28  1  0  0  0  0
 10 11  1  0  0  0  0
 10 29  1  0  0  0  0
 10 30  1  0  0  0  0
 12 16  1  0  0  0  0
 12 13  1  0  0  0  0
 13 14  2  0  0  0  0
 13 31  1  0  0  0  0
 14 15  1  0  0  0  0
 15 16  2  0  0  0  0
 15 32  1  0  0  0  0
M  END
> <s_m_source_file>
AV-unprocessed.smi

> <i_m_source_file_index>
3133

> <i_lp_mmshare_version>
43012

> <i_f3d_flags>
0

> <s_epik_input>
bjFbY0hdbltjSF1uMVtDQEhdKFtDSDNdKUMoPU8pW05IXVtDSDJdW0NAQEhdMltDSDJdW0NIMl1bQ0gyXU8y

> <s_epik_cmdline>
J2VwaWtfcHl0aG9uJywgJy1waCcsICc3LjAnLCAnLXRuJywgJzgnLCAnLW1hJywgJzIwMCcsICctbWV0YWxfYmluZGluZycsICctaW1hZScsICc8aW5maWxlLm1hZT4nLCAnLW9tYWUnLCAnPG91dGZpbGUubWFlPic=

> <r_lp_tautomer_probability>
1

> <r_epik_Ionization_Penalty>
1.2027e-05

> <r_epik_Ionization_Penalty_Charging>
0

> <r_epik_Ionization_Penalty_Neutral>
1.2027e-05

> <r_epik_State_Penalty>
-0

> <r_epik_Charging_Adjusted_Penalty>
0

> <i_epik_Tot_Q>
0

> <i_epik_Tot_abs_Q>
0

> <r_epik_Metal_State_Penalty>
-0

> <b_epik_Metal_Only>
0

> <s_lp_Force_Field>
OPLS_2005

> <r_lp_Energy>
23.5717

> <b_lp_Chiralities_Consistent>
1

> <s_lp_Variant>
AV-unprocessed.smi:3133-1

> <Gold.Version>
5.8.1

> <Gold.Id.Protein>
6NUR|6NUR_protein|mol2

> <Gold.PLP.Fitness>
36.9442

> <Gold.PLP.PLP>
-29.2820

> <Gold.PLP.part.hbond>
-2.0000

> <Gold.PLP.part.metal>
0.0000

> <Gold.PLP.part.buried>
-0.6235

> <Gold.PLP.part.nonpolar>
-27.1371

> <Gold.PLP.part.repulsive>
0.4753

> <Gold.PLP.ligand.clash>
0.0000

> <Gold.PLP.ligand.torsion>
0.2340

> <Gold.PLP.Chemscore.Hbond>
1.9280

> <Gold.PLP.Chemscore.CHOScore>
0.7429

> <Gold.PLP.Chemscore.Metal>
0.0000

> <Gold.Chemscore.Hbonds>
donor molecule, donor type, donor heavy atom, donor atom, acceptor molecule, acceptor atom, score
      L1  H     5    21       P1  8028  0.90
      P1  H  7989  7998       L1     4  1.00
      L1  C    13    31       P1  8028  0.75

> <Gold.PLP.Chemscore.Internal.Correction>
0.1174

> <Gold.Rescore>
     Score         DG    S(hbond)    S(metal)    S(lipo)     H(rot)  DE(clash)    DE(int)     intcor
     12.88     -14.09       1.62        0.00      76.56       2.26       0.91       0.30       ----

> <Gold.Chemscore.Fitness>
12.8827

> <Gold.Chemscore.DG>
-14.0855

> <Gold.Chemscore.ZeroCoef>
-5.4800

> <Gold.Chemscore.Hbond>
1.6234

> <Gold.Chemscore.Metal>
0.0000

> <Gold.Chemscore.Lipo>
76.5638

> <Gold.Chemscore.Internal_Hbond>
0.0000

> <Gold.Chemscore.DEClash>
0.9076

> <Gold.Chemscore.DEInternal>
0.2951

> <Gold.Chemscore.Rot>
2.2558

> <Gold.Chemscore.Internal.Correction>
   9.000000E+99

> <Gold.Chemscore.Hbonds>
donor molecule, donor type, donor heavy atom, donor atom, acceptor molecule, acceptor atom, score
      L1  H     5    21       P1  8028  0.88
      P1  H  7989  7998       L1     4  0.57

> <Gold.Chemscore.Hbond.Weighted>
-5.4222

> <Gold.Chemscore.Metal.Weighted>
-0.0000

> <Gold.Chemscore.Lipo.Weighted>
-8.9580

> <Gold.Chemscore.Internal_Hbond.Weighted>
0.0000

> <Gold.Chemscore.DEClash.Weighted>
0.9076

> <Gold.Chemscore.DEInternal.Weighted>
0.2951

> <Gold.Chemscore.Rot.Weighted>
5.7747

> <Gold.Chemscore.Internal.Correction.Weighted>
   9.000000E+99

> <Gold.Protein.RotatedTorsions>
[ 6907 6896 6895 6894 ] final -113.12 input  -60.11 | X-H torsion
[ 7974 7965 7964 7962 ] final  135.92 input  175.53 | X-H torsion
[ 8008 7997 7996 7995 ] final  -77.02 input   59.86 | X-H torsion
[ 10167 10162 10161 10158 ] final   36.90 input  -65.29 | X-H torsion
[ 10718 10713 10712 10709 ] final   77.82 input   66.30 | X-H torsion
[ 10763 10752 10751 10750 ] final  -39.51 input  -60.55 | X-H torsion
[ 11005 11000 10999 10996 ] final  -92.23 input  -57.11 | X-H torsion

> <Gold.Protein.ActiveResidues>
 VAL166  LYS551  ARG553  GLY616  TRP617  ASP618  TYR619  PRO620  LYS621  CYS622 
 ASP623  PHE694  ASN695  SER759  ASP760  ASP761  ALA762  ILE779  LEU786  VAL792 
 PHE793  MET794  SER795  GLU796  ALA797  LYS798  CYS799  TRP800  GLU811  SER814 

> <Gold.Protein.RotatedAtoms>
  150.7806  133.8990  159.3335 H   0  0  0  0  0  0  0  0  0  0  0  0  # atno 6907 bound_to 6896
  151.6854  135.0953  160.0233 H   0  0  0  0  0  0  0  0  0  0  0  0  # atno 6908 bound_to 6896
  152.3857  133.6569  159.6232 H   0  0  0  0  0  0  0  0  0  0  0  0  # atno 6909 bound_to 6896
  144.9616  139.4704  143.5477 H   0  0  0  0  0  0  0  0  0  0  0  0  # atno 7974 bound_to 7965
  154.5557  140.0717  156.8740 H   0  0  0  0  0  0  0  0  0  0  0  0  # atno 8008 bound_to 7997
  155.2906  140.3378  155.4234 H   0  0  0  0  0  0  0  0  0  0  0  0  # atno 8009 bound_to 7997
  156.2000  140.1718  156.7904 H   0  0  0  0  0  0  0  0  0  0  0  0  # atno 8010 bound_to 7997
  140.4084  144.1627  150.6137 H   0  0  0  0  0  0  0  0  0  0  0  0  # atno 10167 bound_to 10162
  157.6724  130.9839  150.1696 H   0  0  0  0  0  0  0  0  0  0  0  0  # atno 10718 bound_to 10713
  153.9306  135.6772  153.4745 H   0  0  0  0  0  0  0  0  0  0  0  0  # atno 10763 bound_to 10752
  153.0982  135.4841  154.8814 H   0  0  0  0  0  0  0  0  0  0  0  0  # atno 10764 bound_to 10752
  154.7430  135.3165  154.8652 H   0  0  0  0  0  0  0  0  0  0  0  0  # atno 10765 bound_to 10752
  141.1526  133.7807  156.9991 H   0  0  0  0  0  0  0  0  0  0  0  0  # atno 11005 bound_to 11000
  146.3354  139.8769  142.8831 LP  0  0  0  0  0  0  0  0  0  0  0  0  # atno 17320 bound_to 7965
  145.2692  141.0103  143.3782 LP  0  0  0  0  0  0  0  0  0  0  0  0  # atno 17321 bound_to 7965
  140.4664  143.2429  151.9149 LP  0  0  0  0  0  0  0  0  0  0  0  0  # atno 17342 bound_to 10162
  139.4783  144.5414  151.8522 LP  0  0  0  0  0  0  0  0  0  0  0  0  # atno 17343 bound_to 10162
  156.2454  130.3695  149.8291 LP  0  0  0  0  0  0  0  0  0  0  0  0  # atno 17370 bound_to 10713
  156.6079  130.8574  151.3447 LP  0  0  0  0  0  0  0  0  0  0  0  0  # atno 17371 bound_to 10713
  140.0952  134.9569  157.1838 LP  0  0  0  0  0  0  0  0  0  0  0  0  # atno 17394 bound_to 11000
  140.3392  134.2722  155.7215 LP  0  0  0  0  0  0  0  0  0  0  0  0  # atno 17395 bound_to 11000

$$$$
