AV-unprocessed.smi:1492|AV-procd|sdf|6044|dock6
  -GOLD-   22720 6153D 1   1.00000     0.00000
 Structure written by MMmdl.
 51 52  0  0  0  0  0  0  0  0  2 V2000
  146.6934  139.0892  152.9035 C   0  0  0  0  0  0  0  0  0  0  0  0
  147.9352  139.6305  153.6324 C   0  0  0  0  0  0  0  0  0  0  0  0
  148.0863  139.1846  155.1249 C   0  0  1  0  0  0  0  0  0  0  0  0
  147.1717  140.1223  155.9573 C   0  0  0  0  0  0  0  0  0  0  0  0
  147.5437  137.7220  155.2709 C   0  0  0  0  0  0  0  0  0  0  0  0
  147.6195  137.1921  156.6296 N   0  0  0  0  0  0  0  0  0  0  0  0
  146.5928  136.9863  157.4678 C   0  0  0  0  0  0  0  0  0  0  0  0
  145.4382  137.3460  157.2387 O   0  0  0  0  0  0  0  0  0  0  0  0
  146.9236  136.2209  158.7495 C   0  0  0  0  0  0  0  0  0  0  0  0
  146.7238  137.0205  160.0381 C   0  0  0  0  0  0  0  0  0  0  0  0
  146.1660  136.4925  161.1649 C   0  0  0  0  0  0  0  0  0  0  0  0
  145.6649  135.0613  161.2459 C   0  0  0  0  0  0  0  0  0  0  0  0
  146.0324  137.2564  162.3367 N   0  0  0  0  0  0  0  0  0  0  0  0
  146.4483  138.4653  162.3506 C   0  0  0  0  0  0  0  0  0  0  0  0
  146.3070  139.2832  163.6164 C   0  0  0  0  0  0  0  0  0  0  0  0
  147.0290  139.0909  161.2704 N   0  5  0  0  0  0  0  0  0  0  0  0
  147.1909  138.4176  160.0963 C   0  0  0  0  0  0  0  0  0  0  0  0
  147.7204  138.9358  159.1139 O   0  0  0  0  0  0  0  0  0  0  0  0
  149.5113  139.2518  155.5701 N   0  0  0  0  0  0  0  0  0  0  0  0
  150.4201  138.2988  154.9179 C   0  0  0  0  0  0  0  0  0  0  0  0
  151.8359  138.3414  155.5166 C   0  0  0  0  0  0  0  0  0  0  0  0
  152.3562  139.6611  155.4231 O   0  0  0  0  0  0  0  0  0  0  0  0
  151.5408  140.6100  156.0983 C   0  0  0  0  0  0  0  0  0  0  0  0
  150.1193  140.5878  155.5108 C   0  0  0  0  0  0  0  0  0  0  0  0
  146.6865  139.4216  151.8655 H   0  0  0  0  0  0  0  0  0  0  0  0
  145.7697  139.4431  153.3610 H   0  0  0  0  0  0  0  0  0  0  0  0
  146.6719  137.9995  152.8994 H   0  0  0  0  0  0  0  0  0  0  0  0
  148.8227  139.3622  153.0606 H   0  0  0  0  0  0  0  0  0  0  0  0
  147.9203  140.7184  153.5591 H   0  0  0  0  0  0  0  0  0  0  0  0
  146.1467  140.1142  155.5866 H   0  0  0  0  0  0  0  0  0  0  0  0
  147.4968  141.1611  155.9164 H   0  0  0  0  0  0  0  0  0  0  0  0
  147.1280  139.8285  157.0057 H   0  0  0  0  0  0  0  0  0  0  0  0
  146.4966  137.6820  154.9694 H   0  0  0  0  0  0  0  0  0  0  0  0
  148.0683  137.0389  154.6025 H   0  0  0  0  0  0  0  0  0  0  0  0
  148.5275  136.8638  156.9273 H   0  0  0  0  0  0  0  0  0  0  0  0
  146.3400  135.2998  158.7680 H   0  0  0  0  0  0  0  0  0  0  0  0
  147.9614  135.8909  158.6977 H   0  0  0  0  0  0  0  0  0  0  0  0
  144.8346  134.9086  160.5564 H   0  0  0  0  0  0  0  0  0  0  0  0
  145.3149  134.8222  162.2507 H   0  0  0  0  0  0  0  0  0  0  0  0
  146.4597  134.3590  160.9947 H   0  0  0  0  0  0  0  0  0  0  0  0
  145.6240  140.1172  163.4523 H   0  0  0  0  0  0  0  0  0  0  0  0
  147.2753  139.6830  163.9189 H   0  0  0  0  0  0  0  0  0  0  0  0
  145.9180  138.6768  164.4354 H   0  0  0  0  0  0  0  0  0  0  0  0
  150.0597  137.2777  155.0207 H   0  0  0  0  0  0  0  0  0  0  0  0
  150.4867  138.5078  153.8502 H   0  0  0  0  0  0  0  0  0  0  0  0
  151.8239  138.0183  156.5588 H   0  0  0  0  0  0  0  0  0  0  0  0
  152.4949  137.6606  154.9779 H   0  0  0  0  0  0  0  0  0  0  0  0
  151.5203  140.3888  157.1665 H   0  0  0  0  0  0  0  0  0  0  0  0
  151.9811  141.6007  155.9854 H   0  0  0  0  0  0  0  0  0  0  0  0
  150.1595  140.9380  154.4793 H   0  0  0  0  0  0  0  0  0  0  0  0
  149.5310  141.3126  156.0694 H   0  0  0  0  0  0  0  0  0  0  0  0
  1  2  1  0  0  0  0
  1 25  1  0  0  0  0
  1 26  1  0  0  0  0
  1 27  1  0  0  0  0
  2  3  1  0  0  0  0
  2 28  1  0  0  0  0
  2 29  1  0  0  0  0
  3  4  1  0  0  0  0
  3  5  1  0  0  0  0
  3 19  1  0  0  0  0
  4 30  1  0  0  0  0
  4 31  1  0  0  0  0
  4 32  1  0  0  0  0
  5  6  1  0  0  0  0
  5 33  1  0  0  0  0
  5 34  1  0  0  0  0
  6  7  1  0  0  0  0
  6 35  1  0  0  0  0
  7  8  2  0  0  0  0
  7  9  1  0  0  0  0
  9 10  1  0  0  0  0
  9 36  1  0  0  0  0
  9 37  1  0  0  0  0
 10 17  1  0  0  0  0
 10 11  2  0  0  0  0
 11 12  1  0  0  0  0
 11 13  1  0  0  0  0
 12 38  1  0  0  0  0
 12 39  1  0  0  0  0
 12 40  1  0  0  0  0
 13 14  2  0  0  0  0
 14 15  1  0  0  0  0
 14 16  1  0  0  0  0
 15 41  1  0  0  0  0
 15 42  1  0  0  0  0
 15 43  1  0  0  0  0
 16 17  1  0  0  0  0
 17 18  2  0  0  0  0
 19 24  1  0  0  0  0
 19 20  1  0  0  0  0
 20 21  1  0  0  0  0
 20 44  1  0  0  0  0
 20 45  1  0  0  0  0
 21 22  1  0  0  0  0
 21 46  1  0  0  0  0
 21 47  1  0  0  0  0
 22 23  1  0  0  0  0
 23 24  1  0  0  0  0
 23 48  1  0  0  0  0
 23 49  1  0  0  0  0
 24 50  1  0  0  0  0
 24 51  1  0  0  0  0
M  CHG  1  16  -1
M  END
> <s_m_source_file>
AV-unprocessed.smi

> <i_m_source_file_index>
1492

> <i_lp_mmshare_version>
43012

> <i_f3d_flags>
0

> <s_epik_input>
W0NIMl0xW0NIMl1PW0NIMl1bQ0gyXU4xW0NAQF0oW0NIM10pKFtDSDJdW0NIM10pW0NIMl1bTkhdQyg9TylbQ0gyXWMyYyhbQ0gzXSluYyhbQ0gzXSlbbkhdYzI9Tw==

> <s_epik_cmdline>
J2VwaWtfcHl0aG9uJywgJy1waCcsICc3LjAnLCAnLXRuJywgJzgnLCAnLW1hJywgJzIwMCcsICctbWV0YWxfYmluZGluZycsICctaW1hZScsICc8aW5maWxlLm1hZT4nLCAnLW9tYWUnLCAnPG91dGZpbGUubWFlPic=

> <r_lp_tautomer_probability>
0.839158

> <r_epik_Ionization_Penalty>
6.88574

> <r_epik_Ionization_Penalty_Charging>
6.74373e-08

> <r_epik_Ionization_Penalty_Neutral>
6.88574

> <r_epik_State_Penalty>
4.79448

> <r_epik_Charging_Adjusted_Penalty>
4.79448

> <i_epik_Tot_Q>
-1

> <i_epik_Tot_abs_Q>
1

> <r_epik_Metal_State_Penalty>
1.16421

> <b_epik_Metal_Only>
1

> <s_lp_Force_Field>
OPLS_2005

> <r_lp_Energy>
44.9842

> <b_lp_Chiralities_Consistent>
1

> <s_lp_Variant>
AV-unprocessed.smi:1492-9

> <Gold.Version>
5.8.1

> <Gold.Id.Protein>
6NUR|6NUR_protein|mol2

> <Gold.PLP.Fitness>
45.2436

> <Gold.PLP.PLP>
-31.8094

> <Gold.PLP.part.hbond>
-4.1143

> <Gold.PLP.part.metal>
0.0000

> <Gold.PLP.part.buried>
-2.9072

> <Gold.PLP.part.nonpolar>
-25.2462

> <Gold.PLP.part.repulsive>
0.0545

> <Gold.PLP.ligand.clash>
0.0000

> <Gold.PLP.ligand.torsion>
0.7288

> <Gold.PLP.Chemscore.Hbond>
4.9192

> <Gold.PLP.Chemscore.CHOScore>
0.0000

> <Gold.PLP.Chemscore.Metal>
0.0000

> <Gold.Chemscore.Hbonds>
donor molecule, donor type, donor heavy atom, donor atom, acceptor molecule, acceptor atom, score
      P1  H  7989  7998       L1    22  0.02
      P1  H  7997  8008       L1    22  0.63

> <Gold.PLP.Chemscore.Internal.Correction>
0.1343

> <Gold.Rescore>
     Score         DG    S(hbond)    S(metal)    S(lipo)     H(rot)  DE(clash)    DE(int)     intcor
     12.49     -14.36       1.86        0.00      67.58       2.05       0.13       1.74       ----

> <Gold.Chemscore.Fitness>
12.4942

> <Gold.Chemscore.DG>
-14.3625

> <Gold.Chemscore.ZeroCoef>
-5.4800

> <Gold.Chemscore.Hbond>
1.8603

> <Gold.Chemscore.Metal>
0.0000

> <Gold.Chemscore.Lipo>
67.5835

> <Gold.Chemscore.Internal_Hbond>
0.0000

> <Gold.Chemscore.DEClash>
0.1311

> <Gold.Chemscore.DEInternal>
1.7372

> <Gold.Chemscore.Rot>
2.0461

> <Gold.Chemscore.Internal.Correction>
   9.000000E+99

> <Gold.Chemscore.Hbonds>
donor molecule, donor type, donor heavy atom, donor atom, acceptor molecule, acceptor atom, score
      P1  H  7997  8008       L1    22  0.28

> <Gold.Chemscore.Hbond.Weighted>
-6.2133

> <Gold.Chemscore.Metal.Weighted>
-0.0000

> <Gold.Chemscore.Lipo.Weighted>
-7.9073

> <Gold.Chemscore.Internal_Hbond.Weighted>
0.0000

> <Gold.Chemscore.DEClash.Weighted>
0.1311

> <Gold.Chemscore.DEInternal.Weighted>
1.7372

> <Gold.Chemscore.Rot.Weighted>
5.2381

> <Gold.Chemscore.Internal.Correction.Weighted>
   9.000000E+99

> <Gold.Protein.RotatedTorsions>
[ 6907 6896 6895 6894 ] final -142.55 input  -60.11 | X-H torsion
[ 7974 7965 7964 7962 ] final   68.03 input  175.53 | X-H torsion
[ 8008 7997 7996 7995 ] final  -26.67 input   59.86 | X-H torsion
[ 10167 10162 10161 10158 ] final  111.26 input  -65.29 | X-H torsion
[ 10718 10713 10712 10709 ] final   33.16 input   66.30 | X-H torsion
[ 10763 10752 10751 10750 ] final -106.80 input  -60.55 | X-H torsion
[ 11005 11000 10999 10996 ] final  -95.41 input  -57.11 | X-H torsion

> <Gold.Protein.ActiveResidues>
 VAL166  LYS551  ARG553  GLY616  TRP617  ASP618  TYR619  PRO620  LYS621  CYS622 
 ASP623  PHE694  ASN695  SER759  ASP760  ASP761  ALA762  ILE779  LEU786  VAL792 
 PHE793  MET794  SER795  GLU796  ALA797  LYS798  CYS799  TRP800  GLU811  SER814 

> <Gold.Protein.RotatedAtoms>
  151.0886  133.5333  159.2616 H   0  0  0  0  0  0  0  0  0  0  0  0  # atno 6907 bound_to 6896
  151.2209  135.0517  159.8959 H   0  0  0  0  0  0  0  0  0  0  0  0  # atno 6908 bound_to 6896
  152.5432  134.0689  159.8238 H   0  0  0  0  0  0  0  0  0  0  0  0  # atno 6909 bound_to 6896
  145.8075  139.3015  143.1118 H   0  0  0  0  0  0  0  0  0  0  0  0  # atno 7974 bound_to 7965
  154.4414  140.1893  156.0812 H   0  0  0  0  0  0  0  0  0  0  0  0  # atno 8008 bound_to 7997
  156.0437  140.3317  155.7246 H   0  0  0  0  0  0  0  0  0  0  0  0  # atno 8009 bound_to 7997
  155.5661  140.0608  157.2808 H   0  0  0  0  0  0  0  0  0  0  0  0  # atno 8010 bound_to 7997
  139.6625  144.7128  151.1838 H   0  0  0  0  0  0  0  0  0  0  0  0  # atno 10167 bound_to 10162
  157.2944  130.7319  149.6629 H   0  0  0  0  0  0  0  0  0  0  0  0  # atno 10718 bound_to 10713
  154.8035  135.4698  154.0335 H   0  0  0  0  0  0  0  0  0  0  0  0  # atno 10763 bound_to 10752
  153.1822  135.6842  153.8470 H   0  0  0  0  0  0  0  0  0  0  0  0  # atno 10764 bound_to 10752
  153.8016  135.3229  155.3368 H   0  0  0  0  0  0  0  0  0  0  0  0  # atno 10765 bound_to 10752
  141.1443  133.8024  157.0431 H   0  0  0  0  0  0  0  0  0  0  0  0  # atno 11005 bound_to 11000
  145.9812  140.8681  143.0113 LP  0  0  0  0  0  0  0  0  0  0  0  0  # atno 17320 bound_to 7965
  144.6761  140.2083  143.7380 LP  0  0  0  0  0  0  0  0  0  0  0  0  # atno 17321 bound_to 7965
  140.7586  143.5971  150.8737 LP  0  0  0  0  0  0  0  0  0  0  0  0  # atno 17342 bound_to 10162
  139.9630  143.6142  152.2997 LP  0  0  0  0  0  0  0  0  0  0  0  0  # atno 17343 bound_to 10162
  155.9668  130.4299  150.4853 LP  0  0  0  0  0  0  0  0  0  0  0  0  # atno 17370 bound_to 10713
  157.2821  131.0609  151.2190 LP  0  0  0  0  0  0  0  0  0  0  0  0  # atno 17371 bound_to 10713
  140.0680  134.9718  157.1419 LP  0  0  0  0  0  0  0  0  0  0  0  0  # atno 17394 bound_to 11000
  140.3752  134.2347  155.7175 LP  0  0  0  0  0  0  0  0  0  0  0  0  # atno 17395 bound_to 11000

$$$$
