AV-unprocessed.smi:2629|AV-procd|sdf|10244|dock1
  -GOLD-   2272014253D 1   1.00000     0.00000
 Structure written by MMmdl.
 24 25  0  0  0  0  0  0  0  0  3 V2000
  153.3122  135.8706  158.4400 O   0  0  0  0  0  0  0  0  0  0  0  0
  152.8509  136.7883  157.7658 C   0  0  0  0  0  0  0  0  0  0  0  0
  151.9727  136.4845  156.5766 N   0  0  0  0  0  0  0  0  0  0  0  0
  151.5101  137.4347  155.8977 N   0  3  0  0  0  0  0  0  0  0  0  0
  151.7429  138.8259  156.1508 C   0  0  0  0  0  0  0  0  0  0  0  0
  151.1772  139.7813  155.3277 N   0  0  0  0  0  0  0  0  0  0  0  0
  151.0339  141.1721  155.7275 C   0  0  0  0  0  0  0  0  0  0  0  0
  149.5503  141.5003  155.9692 C   0  0  0  0  0  0  0  0  0  0  0  0
  148.7954  141.1845  154.8024 O   0  0  0  0  0  0  0  0  0  0  0  0
  148.8838  139.8040  154.4596 C   0  0  0  0  0  0  0  0  0  0  0  0
  150.3514  139.4348  154.1819 C   0  0  0  0  0  0  0  0  0  0  0  0
  152.5483  139.1177  157.2418 C   0  0  0  0  0  0  0  0  0  0  0  0
  152.9668  140.1733  157.7655 O   0  5  0  0  0  0  0  0  0  0  0  0
  153.0783  138.0892  158.0177 N   0  0  0  0  0  0  0  0  0  0  0  0
  150.9243  137.1945  155.1053 H   0  0  0  0  0  0  0  0  0  0  0  0
  151.4395  141.8099  154.9415 H   0  0  0  0  0  0  0  0  0  0  0  0
  151.6178  141.3655  156.6282 H   0  0  0  0  0  0  0  0  0  0  0  0
  149.1647  140.9445  156.8255 H   0  0  0  0  0  0  0  0  0  0  0  0
  149.4303  142.5598  156.1956 H   0  0  0  0  0  0  0  0  0  0  0  0
  148.4756  139.1919  155.2655 H   0  0  0  0  0  0  0  0  0  0  0  0
  148.2741  139.6167  153.5757 H   0  0  0  0  0  0  0  0  0  0  0  0
  150.4405  138.3699  153.9639 H   0  0  0  0  0  0  0  0  0  0  0  0
  150.7178  139.9714  153.3061 H   0  0  0  0  0  0  0  0  0  0  0  0
  153.6585  138.3520  158.8013 H   0  0  0  0  0  0  0  0  0  0  0  0
  1  2  2  0  0  0  0
  2 14  1  0  0  0  0
  2  3  1  0  0  0  0
  3  4  2  0  0  0  0
  4 15  1  0  0  0  0
  4  5  1  0  0  0  0
  5 12  2  0  0  0  0
  5  6  1  0  0  0  0
  6 11  1  0  0  0  0
  6  7  1  0  0  0  0
  7  8  1  0  0  0  0
  7 16  1  0  0  0  0
  7 17  1  0  0  0  0
  8  9  1  0  0  0  0
  8 18  1  0  0  0  0
  8 19  1  0  0  0  0
  9 10  1  0  0  0  0
 10 11  1  0  0  0  0
 10 20  1  0  0  0  0
 10 21  1  0  0  0  0
 11 22  1  0  0  0  0
 11 23  1  0  0  0  0
 12 13  1  0  0  0  0
 12 14  1  0  0  0  0
 14 24  1  0  0  0  0
M  CHG  1   4   1
M  CHG  1  13  -1
M  END
> <s_m_source_file>
AV-unprocessed.smi

> <i_m_source_file_index>
2629

> <i_lp_mmshare_version>
43012

> <i_f3d_flags>
0

> <s_epik_input>
Tz1jMVtuSF1uYyhjKD1PKVtuSF0xKU4yW0NIMl1bQ0gyXU9bQ0gyXVtDSDJdMg==

> <s_epik_cmdline>
J2VwaWtfcHl0aG9uJywgJy1waCcsICc3LjAnLCAnLXRuJywgJzgnLCAnLW1hJywgJzIwMCcsICctbWV0YWxfYmluZGluZycsICctaW1hZScsICc8aW5maWxlLm1hZT4nLCAnLW9tYWUnLCAnPG91dGZpbGUubWFlPic=

> <r_lp_tautomer_probability>
1

> <r_epik_Ionization_Penalty>
6.1095

> <r_epik_Ionization_Penalty_Charging>
6.1095

> <r_epik_Ionization_Penalty_Neutral>
3.71443e-10

> <r_epik_State_Penalty>
-0

> <r_epik_Charging_Adjusted_Penalty>
6.1095

> <i_epik_Tot_Q>
0

> <i_epik_Tot_abs_Q>
2

> <r_epik_Metal_State_Penalty>
6.62767

> <b_epik_Metal_Only>
0

> <s_lp_Force_Field>
OPLS_2005

> <r_lp_Energy>
17.9127

> <b_lp_Chiralities_Consistent>
1

> <s_lp_Variant>
AV-unprocessed.smi:2629-1

> <Gold.Version>
5.8.1

> <Gold.Id.Protein>
6NUR|6NUR_protein|mol2

> <Gold.PLP.Fitness>
27.8574

> <Gold.PLP.PLP>
-17.8737

> <Gold.PLP.part.hbond>
-3.0000

> <Gold.PLP.part.metal>
0.0000

> <Gold.PLP.part.buried>
-0.6087

> <Gold.PLP.part.nonpolar>
-14.3740

> <Gold.PLP.part.repulsive>
0.3349

> <Gold.PLP.ligand.clash>
0.0000

> <Gold.PLP.ligand.torsion>
0.0757

> <Gold.PLP.Chemscore.Hbond>
3.3544

> <Gold.PLP.Chemscore.CHOScore>
0.0000

> <Gold.PLP.Chemscore.Metal>
0.0000

> <Gold.Chemscore.Hbonds>
donor molecule, donor type, donor heavy atom, donor atom, acceptor molecule, acceptor atom, score
      P1  H  6896  6907       L1     1  0.37
      P1  H  7997  8008       L1    13  1.27
      P1  H 10752 10765       L1     3  0.67

> <Gold.PLP.Chemscore.Internal.Correction>
0.0720

> <Gold.Rescore>
     Score         DG    S(hbond)    S(metal)    S(lipo)     H(rot)  DE(clash)    DE(int)     intcor
     12.62     -13.78       1.54        0.00      26.94       0.00       0.04       1.12       ----

> <Gold.Chemscore.Fitness>
12.6203

> <Gold.Chemscore.DG>
-13.7764

> <Gold.Chemscore.ZeroCoef>
-5.4800

> <Gold.Chemscore.Hbond>
1.5402

> <Gold.Chemscore.Metal>
0.0000

> <Gold.Chemscore.Lipo>
26.9406

> <Gold.Chemscore.Internal_Hbond>
0.0000

> <Gold.Chemscore.DEClash>
0.0351

> <Gold.Chemscore.DEInternal>
1.1209

> <Gold.Chemscore.Rot>
0.0000

> <Gold.Chemscore.Internal.Correction>
   9.000000E+99

> <Gold.Chemscore.Hbonds>
donor molecule, donor type, donor heavy atom, donor atom, acceptor molecule, acceptor atom, score
      P1  H  6896  6907       L1     1  0.36
      P1  H  7997  8008       L1    13  0.05
      P1  H 10752 10765       L1     3  0.11

> <Gold.Chemscore.Hbond.Weighted>
-5.1443

> <Gold.Chemscore.Metal.Weighted>
-0.0000

> <Gold.Chemscore.Lipo.Weighted>
-3.1520

> <Gold.Chemscore.Internal_Hbond.Weighted>
0.0000

> <Gold.Chemscore.DEClash.Weighted>
0.0351

> <Gold.Chemscore.DEInternal.Weighted>
1.1209

> <Gold.Chemscore.Rot.Weighted>
0.0000

> <Gold.Chemscore.Internal.Correction.Weighted>
   9.000000E+99

> <Gold.Protein.RotatedTorsions>
[ 6907 6896 6895 6894 ] final   69.72 input  -60.11 | X-H torsion
[ 7974 7965 7964 7962 ] final   60.66 input  175.53 | X-H torsion
[ 8008 7997 7996 7995 ] final  -80.78 input   59.86 | X-H torsion
[ 10167 10162 10161 10158 ] final  150.83 input  -65.29 | X-H torsion
[ 10718 10713 10712 10709 ] final   95.66 input   66.30 | X-H torsion
[ 10763 10752 10751 10750 ] final -148.38 input  -60.55 | X-H torsion
[ 11005 11000 10999 10996 ] final -163.02 input  -57.11 | X-H torsion

> <Gold.Protein.ActiveResidues>
 VAL166  LYS551  ARG553  GLY616  TRP617  ASP618  TYR619  PRO620  LYS621  CYS622 
 ASP623  PHE694  ASN695  SER759  ASP760  ASP761  ALA762  ILE779  LEU786  VAL792 
 PHE793  MET794  SER795  GLU796  ALA797  LYS798  CYS799  TRP800  GLU811  SER814 

> <Gold.Protein.RotatedAtoms>
  152.4704  134.4974  159.9714 H   0  0  0  0  0  0  0  0  0  0  0  0  # atno 6907 bound_to 6896
  151.5002  133.3500  159.2875 H   0  0  0  0  0  0  0  0  0  0  0  0  # atno 6908 bound_to 6896
  150.8711  134.8112  159.7217 H   0  0  0  0  0  0  0  0  0  0  0  0  # atno 6909 bound_to 6896
  145.8935  139.3529  143.0635 H   0  0  0  0  0  0  0  0  0  0  0  0  # atno 7974 bound_to 7965
  154.5917  140.0658  156.9248 H   0  0  0  0  0  0  0  0  0  0  0  0  # atno 8008 bound_to 7997
  155.2284  140.3335  155.4288 H   0  0  0  0  0  0  0  0  0  0  0  0  # atno 8009 bound_to 7997
  156.2260  140.1819  156.7346 H   0  0  0  0  0  0  0  0  0  0  0  0  # atno 8010 bound_to 7997
  139.4846  144.5490  151.7433 H   0  0  0  0  0  0  0  0  0  0  0  0  # atno 10167 bound_to 10162
  157.6936  131.0553  150.4373 H   0  0  0  0  0  0  0  0  0  0  0  0  # atno 10718 bound_to 10713
  154.8236  135.3336  154.6965 H   0  0  0  0  0  0  0  0  0  0  0  0  # atno 10763 bound_to 10752
  153.7594  135.6933  153.4933 H   0  0  0  0  0  0  0  0  0  0  0  0  # atno 10764 bound_to 10752
  153.2120  135.4478  155.0341 H   0  0  0  0  0  0  0  0  0  0  0  0  # atno 10765 bound_to 10752
  140.6028  134.4930  157.5207 H   0  0  0  0  0  0  0  0  0  0  0  0  # atno 11005 bound_to 11000
  145.8879  140.9322  143.0567 LP  0  0  0  0  0  0  0  0  0  0  0  0  # atno 17320 bound_to 7965
  144.6731  140.0866  143.7467 LP  0  0  0  0  0  0  0  0  0  0  0  0  # atno 17321 bound_to 7965
  140.5041  144.1124  150.5978 LP  0  0  0  0  0  0  0  0  0  0  0  0  # atno 17342 bound_to 10162
  140.4027  143.2695  151.9928 LP  0  0  0  0  0  0  0  0  0  0  0  0  # atno 17343 bound_to 10162
  156.4734  130.4058  149.6504 LP  0  0  0  0  0  0  0  0  0  0  0  0  # atno 17370 bound_to 10713
  156.3576  130.7465  151.2433 LP  0  0  0  0  0  0  0  0  0  0  0  0  # atno 17371 bound_to 10713
  139.9225  134.8120  156.1168 LP  0  0  0  0  0  0  0  0  0  0  0  0  # atno 17394 bound_to 11000
  141.0861  133.6734  156.2438 LP  0  0  0  0  0  0  0  0  0  0  0  0  # atno 17395 bound_to 11000

$$$$
