#       Name:                AV-unprocessed.smi:3246
#       Creating user name   scv26
#       Creation time:       Fri Mar 27 18:29:23 2020


#       File generated by GOLD software.
#

@<TRIPOS>MOLECULE
AV-unprocessed.smi:3246
    40    41     1
SMALL
NO_CHARGES


@<TRIPOS>ATOM
      1 ****        -0.7273   2.1518   1.6374 O.2            1 S1                 0.0000
      2 ****        -1.2790   1.2307   1.0360 C.2            1 S1                 0.0000
      3 ****        -2.7847   1.3318   0.7404 C.3            1 S1                 0.0000
      4 ****        -3.3577   0.1820   0.0357 N.am           1 S1                 0.0000
      5 ****        -3.5471   0.2165  -1.4053 C.3            1 S1                 0.0000
      6 ****        -3.9466  -1.2154  -1.7892 C.3            1 S1                 0.0000
      7 ****        -4.3065  -1.9148  -0.4739 C.3            1 S1                 0.0000
      8 ****        -3.7742  -0.9656   0.5858 C.2            1 S1                 0.0000
      9 ****        -3.7376  -1.2513   1.7815 O.2            1 S1                 0.0000
     10 ****        -0.6151   0.1383   0.6200 N.am           1 S1                 0.0000
     11 ****         0.8071  -0.1066   0.8235 C.3            1 S1                 0.0000
     12 ****         1.6605   0.6310  -0.2209 C.3            1 S1                 0.0000
     13 ****         3.1439   0.3978  -0.0132 C.ar           1 S1                 0.0000
     14 ****         3.8037  -0.6700  -0.6610 C.ar           1 S1                 0.0000
     15 ****         5.1843  -0.8624  -0.4446 C.ar           1 S1                 0.0000
     16 ****         5.8738   0.0175   0.4150 C.ar           1 S1                 0.0000
     17 ****         5.2085   1.0271   1.0185 N.pl3          1 S1                 1.0000
     18 ****         3.8872   1.2447   0.8374 C.ar           1 S1                 0.0000
     19 ****        -3.3148   1.4815   1.6824 H              1 S1                 0.0000
     20 ****        -2.9576   2.2327   0.1503 H              1 S1                 0.0000
     21 ****        -4.3425   0.9227  -1.6473 H              1 S1                 0.0000
     22 ****        -2.6386   0.5345  -1.9186 H              1 S1                 0.0000
     23 ****        -4.7757  -1.2261  -2.4975 H              1 S1                 0.0000
     24 ****        -3.1056  -1.7252  -2.2612 H              1 S1                 0.0000
     25 ****        -5.3860  -2.0178  -0.3596 H              1 S1                 0.0000
     26 ****        -3.8488  -2.9012  -0.3925 H              1 S1                 0.0000
     27 ****        -1.1382  -0.5770   0.1355 H              1 S1                 0.0000
     28 ****         1.0950   0.1900   1.8338 H              1 S1                 0.0000
     29 ****         0.9794  -1.1810   0.7549 H              1 S1                 0.0000
     30 ****         1.3839   0.3080  -1.2255 H              1 S1                 0.0000
     31 ****         1.4668   1.7039  -0.1798 H              1 S1                 0.0000
     32 ****         3.2598  -1.3356  -1.3156 H              1 S1                 0.0000
     33 ****         5.7065  -1.6731  -0.9314 H              1 S1                 0.0000
     34 ****         6.9286  -0.0556   0.6370 H              1 S1                 0.0000
     35 ****         3.4678   2.0828   1.3755 H              1 S1                 0.0000
     36 ****         5.7260   1.6522   1.6375 H              1 S1                 0.0000
     37 ****        -1.2574   2.9493   1.9254 LP             1 S1                 0.0000
     38 ****         0.2512   2.1028   1.8380 LP             1 S1                 0.0000
     39 ****        -3.3705  -0.5955   2.4412 LP             1 S1                 0.0000
     40 ****        -4.0749  -2.1393   2.0939 LP             1 S1                 0.0000
@<TRIPOS>BOND
    1    1    2 2     
    2    2    3 1     
    3    2   10 am    
    4    3    4 1     
    5    3   19 1     
    6    3   20 1     
    7    4    8 am    
    8    4    5 1     
    9    5    6 1     
   10    5   21 1     
   11    5   22 1     
   12    6    7 1     
   13    6   23 1     
   14    6   24 1     
   15    7    8 1     
   16    7   25 1     
   17    7   26 1     
   18    8    9 2     
   19   10   11 1     
   20   10   27 1     
   21   11   12 1     
   22   11   28 1     
   23   11   29 1     
   24   12   13 1     
   25   12   30 1     
   26   12   31 1     
   27   13   18 ar    
   28   13   14 ar    
   29   14   15 ar    
   30   14   32 1     
   31   15   16 ar    
   32   15   33 1     
   33   16   17 ar    
   34   16   34 1     
   35   17   18 ar    
   36   17   36 1     
   37   18   35 1     
   38    1   37 1     
   39    1   38 1     
   40    9   39 1     
   41    9   40 1     
@<TRIPOS>SUBSTRUCTURE
      1 S1             1
@<TRIPOS>SET
LONE_PAIRS      STATIC     ATOMS    <user>   **** ""
4 37 38 39 40
DONOR_HYDROGENS      STATIC     ATOMS    <user>   **** ""
2 27 36
ATOM$BLUE        STATIC     ATOMS    COLORGROUP SYSTEM
4 37 38 39 40
ATOM$RED        STATIC     ATOMS    COLORGROUP SYSTEM
2 27 36
