AV-unprocessed.smi:1951|AV-procd|sdf|7881|dock10
  -GOLD-   2272010 33D 1   1.00000     0.00000
 Structure written by MMmdl.
 46 47  0  0  0  0  0  0  0  0  2 V2000
  153.4247  138.3126  154.7217 C   0  0  0  0  0  0  0  0  0  0  0  0
  152.0304  138.5582  154.5730 O   0  0  0  0  0  0  0  0  0  0  0  0
  151.4767  139.6385  155.2331 C   0  0  0  0  0  0  0  0  0  0  0  0
  152.2035  140.2422  156.2068 N   0  0  0  0  0  0  0  0  0  0  0  0
  151.6625  141.2952  156.8533 C   0  0  0  0  0  0  0  0  0  0  0  0
  150.3774  141.7945  156.5725 C   0  0  0  0  0  0  0  0  0  0  0  0
  149.6221  141.1712  155.5622 C   0  0  0  0  0  0  0  0  0  0  0  0
  150.1827  140.0745  154.8637 C   0  0  0  0  0  0  0  0  0  0  0  0
  149.4979  139.3629  153.8411 N   0  0  0  0  0  0  0  0  0  0  0  0
  148.2572  139.5718  153.3701 C   0  0  0  0  0  0  0  0  0  0  0  0
  147.4821  140.4431  153.7640 O   0  0  0  0  0  0  0  0  0  0  0  0
  147.9642  138.7185  152.3785 N   0  0  0  0  0  0  0  0  0  0  0  0
  146.7112  138.7078  151.6329 C   0  0  0  0  0  0  0  0  0  0  0  0
  145.5763  138.0644  152.4528 C   0  0  0  0  0  0  0  0  0  0  0  0
  144.9917  136.8780  151.7787 N   0  3  2  0  0  0  0  0  0  0  0  0
  143.9326  136.2340  152.5981 C   0  0  0  0  0  0  0  0  0  0  0  0
  143.2512  135.0892  151.8300 C   0  0  0  0  0  0  0  0  0  0  0  0
  144.2759  134.0406  151.3673 C   0  0  1  0  0  0  0  0  0  0  0  0
  143.6100  132.9062  150.5760 C   0  0  0  0  0  0  0  0  0  0  0  0
  145.3762  134.7376  150.5500 C   0  0  0  0  0  0  0  0  0  0  0  0
  146.0155  135.8913  151.3415 C   0  0  0  0  0  0  0  0  0  0  0  0
  153.6998  137.4337  154.1392 H   0  0  0  0  0  0  0  0  0  0  0  0
  153.6865  138.1145  155.7621 H   0  0  0  0  0  0  0  0  0  0  0  0
  154.0192  139.1509  154.3558 H   0  0  0  0  0  0  0  0  0  0  0  0
  152.2697  141.7492  157.6223 H   0  0  0  0  0  0  0  0  0  0  0  0
  149.9787  142.6335  157.1233 H   0  0  0  0  0  0  0  0  0  0  0  0
  148.6273  141.5337  155.3534 H   0  0  0  0  0  0  0  0  0  0  0  0
  150.0495  138.6707  153.3555 H   0  0  0  0  0  0  0  0  0  0  0  0
  148.6592  138.0337  152.1181 H   0  0  0  0  0  0  0  0  0  0  0  0
  146.4537  139.7385  151.3880 H   0  0  0  0  0  0  0  0  0  0  0  0
  146.8646  138.1932  150.6839 H   0  0  0  0  0  0  0  0  0  0  0  0
  145.9187  137.7843  153.4504 H   0  0  0  0  0  0  0  0  0  0  0  0
  144.7996  138.8171  152.5963 H   0  0  0  0  0  0  0  0  0  0  0  0
  144.3666  135.8595  153.5269 H   0  0  0  0  0  0  0  0  0  0  0  0
  143.1795  136.9725  152.8747 H   0  0  0  0  0  0  0  0  0  0  0  0
  142.4977  134.6206  152.4641 H   0  0  0  0  0  0  0  0  0  0  0  0
  142.7203  135.4948  150.9676 H   0  0  0  0  0  0  0  0  0  0  0  0
  144.7370  133.6005  152.2528 H   0  0  0  0  0  0  0  0  0  0  0  0
  143.1312  133.2806  149.6707 H   0  0  0  0  0  0  0  0  0  0  0  0
  142.8469  132.4070  151.1738 H   0  0  0  0  0  0  0  0  0  0  0  0
  144.3403  132.1528  150.2795 H   0  0  0  0  0  0  0  0  0  0  0  0
  146.1450  134.0167  150.2690 H   0  0  0  0  0  0  0  0  0  0  0  0
  144.9593  135.1228  149.6182 H   0  0  0  0  0  0  0  0  0  0  0  0
  146.7644  136.3736  150.7146 H   0  0  0  0  0  0  0  0  0  0  0  0
  146.5415  135.4997  152.2140 H   0  0  0  0  0  0  0  0  0  0  0  0
  144.5334  137.2186  150.9456 H   0  0  0  0  0  0  0  0  0  0  0  0
  1  2  1  0  0  0  0
  1 22  1  0  0  0  0
  1 23  1  0  0  0  0
  1 24  1  0  0  0  0
  2  3  1  0  0  0  0
  3  8  1  0  0  0  0
  3  4  2  0  0  0  0
  4  5  1  0  0  0  0
  5  6  2  0  0  0  0
  5 25  1  0  0  0  0
  6  7  1  0  0  0  0
  6 26  1  0  0  0  0
  7  8  2  0  0  0  0
  7 27  1  0  0  0  0
  8  9  1  0  0  0  0
  9 10  1  0  0  0  0
  9 28  1  0  0  0  0
 10 11  2  0  0  0  0
 10 12  1  0  0  0  0
 12 13  1  0  0  0  0
 12 29  1  0  0  0  0
 13 14  1  0  0  0  0
 13 30  1  0  0  0  0
 13 31  1  0  0  0  0
 14 15  1  0  0  0  0
 14 32  1  0  0  0  0
 14 33  1  0  0  0  0
 15 21  1  0  0  0  0
 15 16  1  0  0  0  0
 15 46  1  0  0  0  0
 16 17  1  0  0  0  0
 16 34  1  0  0  0  0
 16 35  1  0  0  0  0
 17 18  1  0  0  0  0
 17 36  1  0  0  0  0
 17 37  1  0  0  0  0
 18 19  1  0  0  0  0
 18 20  1  0  0  0  0
 18 38  1  0  0  0  0
 19 39  1  0  0  0  0
 19 40  1  0  0  0  0
 19 41  1  0  0  0  0
 20 21  1  0  0  0  0
 20 42  1  0  0  0  0
 20 43  1  0  0  0  0
 21 44  1  0  0  0  0
 21 45  1  0  0  0  0
M  CHG  1  15   1
M  END
> <s_m_source_file>
AV-unprocessed.smi

> <i_m_source_file_index>
1951

> <i_lp_mmshare_version>
43012

> <i_f3d_flags>
0

> <s_epik_input>
W0NIM11PYzFuW2NIXVtjSF1bY0hdYzFbTkhdQyg9TylbTkhdW0NIMl1bQ0gyXU4yW0NIMl1bQ0gyXVtDSF0oW0NIM10pW0NIMl1bQ0gyXTI=

> <s_epik_cmdline>
J2VwaWtfcHl0aG9uJywgJy1waCcsICc3LjAnLCAnLXRuJywgJzgnLCAnLW1hJywgJzIwMCcsICctbWV0YWxfYmluZGluZycsICctaW1hZScsICc8aW5maWxlLm1hZT4nLCAnLW9tYWUnLCAnPG91dGZpbGUubWFlPic=

> <r_lp_tautomer_probability>
1

> <r_epik_Ionization_Penalty>
0.00147101

> <r_epik_Ionization_Penalty_Charging>
0.00139388

> <r_epik_Ionization_Penalty_Neutral>
7.71355e-05

> <r_epik_State_Penalty>
0.000929204

> <r_epik_Charging_Adjusted_Penalty>
0.00232308

> <i_epik_Tot_Q>
1

> <i_epik_Tot_abs_Q>
1

> <r_epik_Metal_State_Penalty>
-0

> <b_epik_Metal_Only>
0

> <s_lp_Force_Field>
OPLS_2005

> <r_lp_Energy>
18.8997

> <b_lp_Chiralities_Consistent>
1

> <s_lp_Variant>
AV-unprocessed.smi:1951-1

> <Gold.Version>
5.8.1

> <Gold.Id.Protein>
6NUR|6NUR_protein|mol2

> <Gold.PLP.Fitness>
42.7970

> <Gold.PLP.PLP>
-36.3758

> <Gold.PLP.part.hbond>
-4.7500

> <Gold.PLP.part.metal>
0.0000

> <Gold.PLP.part.buried>
2.1998

> <Gold.PLP.part.nonpolar>
-33.4501

> <Gold.PLP.part.repulsive>
0.3930

> <Gold.PLP.ligand.clash>
0.0000

> <Gold.PLP.ligand.torsion>
0.6766

> <Gold.PLP.Chemscore.Hbond>
2.5853

> <Gold.PLP.Chemscore.CHOScore>
0.0000

> <Gold.PLP.Chemscore.Metal>
0.0000

> <Gold.Chemscore.Hbonds>
donor molecule, donor type, donor heavy atom, donor atom, acceptor molecule, acceptor atom, score
      L1  H    12    29       P1  7948  0.91
      L1  H    15    46       P1 10171  1.00
      P1  H  7997  8008       L1     4  0.75

> <Gold.PLP.Chemscore.Internal.Correction>
0.0186

> <Gold.Rescore>
     Score         DG    S(hbond)    S(metal)    S(lipo)     H(rot)  DE(clash)    DE(int)     intcor
     16.15     -18.40       2.26        0.00      83.45       1.71       0.38       1.87       ----

> <Gold.Chemscore.Fitness>
16.1529

> <Gold.Chemscore.DG>
-18.3964

> <Gold.Chemscore.ZeroCoef>
-5.4800

> <Gold.Chemscore.Hbond>
2.2552

> <Gold.Chemscore.Metal>
0.0000

> <Gold.Chemscore.Lipo>
83.4498

> <Gold.Chemscore.Internal_Hbond>
0.0000

> <Gold.Chemscore.DEClash>
0.3751

> <Gold.Chemscore.DEInternal>
1.8684

> <Gold.Chemscore.Rot>
1.7107

> <Gold.Chemscore.Internal.Correction>
   9.000000E+99

> <Gold.Chemscore.Hbonds>
donor molecule, donor type, donor heavy atom, donor atom, acceptor molecule, acceptor atom, score
      L1  H    12    29       P1  7948  0.88
      L1  H    15    46       P1 10171  0.97
      P1  H  7997  8008       L1     4  0.64

> <Gold.Chemscore.Hbond.Weighted>
-7.5322

> <Gold.Chemscore.Metal.Weighted>
-0.0000

> <Gold.Chemscore.Lipo.Weighted>
-9.7636

> <Gold.Chemscore.Internal_Hbond.Weighted>
0.0000

> <Gold.Chemscore.DEClash.Weighted>
0.3751

> <Gold.Chemscore.DEInternal.Weighted>
1.8684

> <Gold.Chemscore.Rot.Weighted>
4.3794

> <Gold.Chemscore.Internal.Correction.Weighted>
   9.000000E+99

> <Gold.Protein.RotatedTorsions>
[ 6907 6896 6895 6894 ] final -171.49 input  -60.11 | X-H torsion
[ 7974 7965 7964 7962 ] final   70.05 input  175.53 | X-H torsion
[ 8008 7997 7996 7995 ] final  -39.43 input   59.86 | X-H torsion
[ 10167 10162 10161 10158 ] final  -94.01 input  -65.29 | X-H torsion
[ 10718 10713 10712 10709 ] final  -57.43 input   66.30 | X-H torsion
[ 10763 10752 10751 10750 ] final    9.04 input  -60.55 | X-H torsion
[ 11005 11000 10999 10996 ] final   71.18 input  -57.11 | X-H torsion

> <Gold.Protein.ActiveResidues>
 VAL166  LYS551  ARG553  GLY616  TRP617  ASP618  TYR619  PRO620  LYS621  CYS622 
 ASP623  PHE694  ASN695  SER759  ASP760  ASP761  ALA762  ILE779  LEU786  VAL792 
 PHE793  MET794  SER795  GLU796  ALA797  LYS798  CYS799  TRP800  GLU811  SER814 

> <Gold.Protein.RotatedAtoms>
  151.5246  133.3460  159.2907 H   0  0  0  0  0  0  0  0  0  0  0  0  # atno 6907 bound_to 6896
  150.8631  134.7990  159.7109 H   0  0  0  0  0  0  0  0  0  0  0  0  # atno 6908 bound_to 6896
  152.4644  134.5119  159.9808 H   0  0  0  0  0  0  0  0  0  0  0  0  # atno 6909 bound_to 6896
  145.7830  139.2896  143.1255 H   0  0  0  0  0  0  0  0  0  0  0  0  # atno 7974 bound_to 7965
  154.4023  140.1552  156.2862 H   0  0  0  0  0  0  0  0  0  0  0  0  # atno 8008 bound_to 7997
  155.8826  140.3443  155.5876 H   0  0  0  0  0  0  0  0  0  0  0  0  # atno 8009 bound_to 7997
  155.7650  140.0822  157.2127 H   0  0  0  0  0  0  0  0  0  0  0  0  # atno 8010 bound_to 7997
  140.3188  143.3061  152.0068 H   0  0  0  0  0  0  0  0  0  0  0  0  # atno 10167 bound_to 10162
  156.1211  130.4166  150.0439 H   0  0  0  0  0  0  0  0  0  0  0  0  # atno 10718 bound_to 10713
  153.2184  135.6878  153.8029 H   0  0  0  0  0  0  0  0  0  0  0  0  # atno 10763 bound_to 10752
  153.7237  135.3263  155.3273 H   0  0  0  0  0  0  0  0  0  0  0  0  # atno 10764 bound_to 10752
  154.8257  135.4619  154.1021 H   0  0  0  0  0  0  0  0  0  0  0  0  # atno 10765 bound_to 10752
  139.9557  134.7148  156.0758 H   0  0  0  0  0  0  0  0  0  0  0  0  # atno 11005 bound_to 11000
  146.0055  140.8482  142.9997 LP  0  0  0  0  0  0  0  0  0  0  0  0  # atno 17320 bound_to 7965
  144.6793  140.2414  143.7343 LP  0  0  0  0  0  0  0  0  0  0  0  0  # atno 17321 bound_to 7965
  139.4878  144.6327  151.7038 LP  0  0  0  0  0  0  0  0  0  0  0  0  # atno 17342 bound_to 10162
  140.5502  144.0438  150.6124 LP  0  0  0  0  0  0  0  0  0  0  0  0  # atno 17343 bound_to 10162
  156.8377  130.9415  151.3633 LP  0  0  0  0  0  0  0  0  0  0  0  0  # atno 17370 bound_to 10713
  157.6395  130.8794  149.9421 LP  0  0  0  0  0  0  0  0  0  0  0  0  # atno 17371 bound_to 10713
  141.1228  133.6608  156.3259 LP  0  0  0  0  0  0  0  0  0  0  0  0  # atno 17394 bound_to 11000
  140.5614  134.5930  157.5434 LP  0  0  0  0  0  0  0  0  0  0  0  0  # atno 17395 bound_to 11000

$$$$
