#       Name:                AV-unprocessed.smi:2123
#       Creating user name   scv26
#       Creation time:       Fri Mar 27 11:39:39 2020


#       File generated by GOLD software.
#

@<TRIPOS>MOLECULE
AV-unprocessed.smi:2123
    53    54     1
SMALL
NO_CHARGES


@<TRIPOS>ATOM
      1 ****        -6.9459   3.2940   1.6851 C.3            1 S1                 0.0000
      2 ****        -5.5139   3.3231   2.7942 S.3            1 S1                 0.0000
      3 ****        -4.9732   1.5970   2.6303 C.3            1 S1                 0.0000
      4 ****        -3.7201   1.2903   3.4724 C.3            1 S1                 0.0000
      5 ****        -2.4015   1.7811   2.8614 C.2            1 S1                 0.0000
      6 ****        -2.3873   2.4708   1.8410 O.2            1 S1                 0.0000
      7 ****        -1.2860   1.3987   3.5018 N.am           1 S1                 0.0000
      8 ****         0.0741   1.7264   3.0840 C.3            1 S1                 0.0000
      9 ****         0.5896   0.9214   1.8977 C.ar           1 S1                 0.0000
     10 ****         0.0790  -0.3524   1.5677 C.ar           1 S1                 0.0000
     11 ****         0.6048  -1.0317   0.4529 C.ar           1 S1                 0.0000
     12 ****         1.6347  -0.4244  -0.3023 C.ar           1 S1                 0.0000
     13 ****         2.1633  -1.0876  -1.4290 N.3            1 S1                 0.0000
     14 ****         1.1830  -1.4516  -2.4474 C.3            1 S1                 0.0000
     15 ****         1.7866  -2.4315  -3.4724 C.3            1 S1                 0.0000
     16 ****         1.9251  -3.8675  -2.9366 C.3            1 S1                 0.0000
     17 ****         3.0226  -1.9215  -3.9787 O.3            1 S1                 0.0000
     18 ****         3.9973  -1.6165  -2.9816 C.3            1 S1                 0.0000
     19 ****         5.2483  -1.0820  -3.6864 C.3            1 S1                 0.0000
     20 ****         3.4167  -0.5931  -1.9899 C.3            1 S1                 0.0000
     21 ****         2.1370   0.7910   0.0276 N.ar           1 S1                 0.0000
     22 ****         1.6256   1.4397   1.0948 C.ar           1 S1                 0.0000
     23 ****        -7.4250   4.2727   1.6646 H              1 S1                 0.0000
     24 ****        -7.6757   2.5584   2.0236 H              1 S1                 0.0000
     25 ****        -6.6372   3.0384   0.6712 H              1 S1                 0.0000
     26 ****        -5.7931   0.9575   2.9584 H              1 S1                 0.0000
     27 ****        -4.8054   1.3662   1.5775 H              1 S1                 0.0000
     28 ****        -3.8293   1.7018   4.4766 H              1 S1                 0.0000
     29 ****        -3.6395   0.2092   3.5915 H              1 S1                 0.0000
     30 ****        -1.3850   0.8350   4.3336 H              1 S1                 0.0000
     31 ****         0.1386   2.7921   2.8579 H              1 S1                 0.0000
     32 ****         0.7395   1.5508   3.9294 H              1 S1                 0.0000
     33 ****        -0.7045  -0.8110   2.1526 H              1 S1                 0.0000
     34 ****         0.2241  -2.0090   0.1957 H              1 S1                 0.0000
     35 ****         0.2853  -1.8885  -2.0110 H              1 S1                 0.0000
     36 ****         0.8686  -0.5394  -2.9562 H              1 S1                 0.0000
     37 ****         1.1069  -2.4788  -4.3235 H              1 S1                 0.0000
     38 ****         0.9482  -4.2787  -2.6810 H              1 S1                 0.0000
     39 ****         2.5403  -3.9174  -2.0385 H              1 S1                 0.0000
     40 ****         2.3717  -4.5205  -3.6866 H              1 S1                 0.0000
     41 ****         4.2743  -2.5262  -2.4485 H              1 S1                 0.0000
     42 ****         6.0316  -0.8419  -2.9669 H              1 S1                 0.0000
     43 ****         5.0257  -0.1778  -4.2536 H              1 S1                 0.0000
     44 ****         5.6500  -1.8206  -4.3804 H              1 S1                 0.0000
     45 ****         3.2356   0.3583  -2.4920 H              1 S1                 0.0000
     46 ****         4.1388  -0.4099  -1.1930 H              1 S1                 0.0000
     47 ****         2.0567   2.4061   1.3115 H              1 S1                 0.0000
     48 ****        -3.2465   2.7211   1.3947 LP             1 S1                 0.0000
     49 ****        -1.5166   2.7805   1.4589 LP             1 S1                 0.0000
     50 ****         2.4499  -1.9426  -0.9967 LP             1 S1                 0.0000
     51 ****         2.8277  -1.0843  -4.4897 LP             1 S1                 0.0000
     52 ****         3.4120  -2.6055  -4.5955 LP             1 S1                 0.0000
     53 ****         2.8739   1.1998  -0.5107 LP             1 S1                 0.0000
@<TRIPOS>BOND
    1    1    2 1     
    2    1   23 1     
    3    1   24 1     
    4    1   25 1     
    5    2    3 1     
    6    3    4 1     
    7    3   26 1     
    8    3   27 1     
    9    4    5 1     
   10    4   28 1     
   11    4   29 1     
   12    5    6 2     
   13    5    7 am    
   14    7    8 1     
   15    7   30 1     
   16    8    9 1     
   17    8   31 1     
   18    8   32 1     
   19    9   22 ar    
   20    9   10 ar    
   21   10   11 ar    
   22   10   33 1     
   23   11   12 ar    
   24   11   34 1     
   25   12   13 1     
   26   12   21 ar    
   27   13   20 1     
   28   13   14 1     
   29   14   15 1     
   30   14   35 1     
   31   14   36 1     
   32   15   16 1     
   33   15   17 1     
   34   15   37 1     
   35   16   38 1     
   36   16   39 1     
   37   16   40 1     
   38   17   18 1     
   39   18   19 1     
   40   18   20 1     
   41   18   41 1     
   42   19   42 1     
   43   19   43 1     
   44   19   44 1     
   45   20   45 1     
   46   20   46 1     
   47   21   22 ar    
   48   22   47 1     
   49    6   48 1     
   50    6   49 1     
   51   13   50 1     
   52   17   51 1     
   53   17   52 1     
   54   21   53 1     
@<TRIPOS>SUBSTRUCTURE
      1 S1             1
@<TRIPOS>SET
LONE_PAIRS      STATIC     ATOMS    <user>   **** ""
6 48 49 50 51 52 53
DONOR_HYDROGENS      STATIC     ATOMS    <user>   **** ""
1 30
ATOM$BLUE        STATIC     ATOMS    COLORGROUP SYSTEM
6 48 49 50 51 52 53
ATOM$RED        STATIC     ATOMS    COLORGROUP SYSTEM
1 30
