AV-unprocessed.smi:1032|AV-procd|sdf|4489|dock5
  -GOLD-   22720 2473D 1   1.00000     0.00000
 Structure written by MMmdl.
 47 48  0  0  0  0  0  0  0  0  3 V2000
  143.7725  132.5210  150.9890 C   0  0  0  0  0  0  0  0  0  0  0  0
  145.0138  131.8526  150.3728 C   0  0  2  0  0  0  0  0  0  0  0  0
  145.6120  130.7574  151.2747 C   0  0  0  0  0  0  0  0  0  0  0  0
  146.3646  131.3423  152.4834 C   0  0  0  0  0  0  0  0  0  0  0  0
  147.4176  132.2980  152.0495 N   0  3  2  0  0  0  0  0  0  0  0  0
  148.2614  132.7906  153.1689 C   0  0  0  0  0  0  0  0  0  0  0  0
  147.4634  133.6341  154.1849 C   0  0  1  0  0  0  0  0  0  0  0  0
  146.9239  132.7344  155.1335 O   0  0  0  0  0  0  0  0  0  0  0  0
  148.3730  134.6364  154.9250 C   0  0  0  0  0  0  0  0  0  0  0  0
  148.3731  135.9506  154.2891 N   0  0  0  0  0  0  0  0  0  0  0  0
  148.4958  137.1182  154.9359 C   0  0  0  0  0  0  0  0  0  0  0  0
  148.5952  137.2074  156.1592 O   0  0  0  0  0  0  0  0  0  0  0  0
  148.4713  138.1560  154.0817 N   0  0  0  0  0  0  0  0  0  0  0  0
  148.6069  139.5415  154.3700 C   0  0  0  0  0  0  0  0  0  0  0  0
  149.5217  139.9140  155.3801 C   0  0  0  0  0  0  0  0  0  0  0  0
  149.6750  141.2755  155.7121 C   0  0  0  0  0  0  0  0  0  0  0  0
  148.9409  142.2106  155.0720 N   0  3  0  0  0  0  0  0  0  0  0  0
  148.0441  141.9026  154.1106 C   0  0  0  0  0  0  0  0  0  0  0  0
  147.8478  140.5579  153.7353 C   0  0  0  0  0  0  0  0  0  0  0  0
  146.8510  133.4052  151.2377 C   0  0  0  0  0  0  0  0  0  0  0  0
  146.1113  132.8658  150.0003 C   0  0  0  0  0  0  0  0  0  0  0  0
  144.0007  133.0328  151.9234 H   0  0  0  0  0  0  0  0  0  0  0  0
  142.9963  131.7842  151.1980 H   0  0  0  0  0  0  0  0  0  0  0  0
  143.3468  133.2567  150.3062 H   0  0  0  0  0  0  0  0  0  0  0  0
  144.6798  131.3741  149.4511 H   0  0  0  0  0  0  0  0  0  0  0  0
  144.8291  130.0780  151.6140 H   0  0  0  0  0  0  0  0  0  0  0  0
  146.3042  130.1509  150.6888 H   0  0  0  0  0  0  0  0  0  0  0  0
  145.6695  131.8433  153.1585 H   0  0  0  0  0  0  0  0  0  0  0  0
  146.8090  130.5237  153.0485 H   0  0  0  0  0  0  0  0  0  0  0  0
  148.7069  131.9462  153.6981 H   0  0  0  0  0  0  0  0  0  0  0  0
  149.0961  133.3636  152.7620 H   0  0  0  0  0  0  0  0  0  0  0  0
  146.6544  134.1693  153.6881 H   0  0  0  0  0  0  0  0  0  0  0  0
  147.0287  133.1074  155.9964 H   0  0  0  0  0  0  0  0  0  0  0  0
  148.1226  134.7029  155.9857 H   0  0  0  0  0  0  0  0  0  0  0  0
  149.4051  134.2875  154.8833 H   0  0  0  0  0  0  0  0  0  0  0  0
  148.2909  135.9685  153.2829 H   0  0  0  0  0  0  0  0  0  0  0  0
  148.2900  137.9302  153.1145 H   0  0  0  0  0  0  0  0  0  0  0  0
  150.1072  139.1663  155.8954 H   0  0  0  0  0  0  0  0  0  0  0  0
  150.3562  141.6415  156.4665 H   0  0  0  0  0  0  0  0  0  0  0  0
  147.5085  142.7347  153.6774 H   0  0  0  0  0  0  0  0  0  0  0  0
  147.1109  140.3328  152.9794 H   0  0  0  0  0  0  0  0  0  0  0  0
  146.1840  134.0094  151.8537 H   0  0  0  0  0  0  0  0  0  0  0  0
  147.6546  134.0640  150.9067 H   0  0  0  0  0  0  0  0  0  0  0  0
  146.8339  132.3822  149.3412 H   0  0  0  0  0  0  0  0  0  0  0  0
  145.6864  133.6910  149.4278 H   0  0  0  0  0  0  0  0  0  0  0  0
  148.0402  131.7937  151.4339 H   0  0  0  0  0  0  0  0  0  0  0  0
  149.0655  143.1903  155.3285 H   0  0  0  0  0  0  0  0  0  0  0  0
  1  2  1  0  0  0  0
  1 22  1  0  0  0  0
  1 23  1  0  0  0  0
  1 24  1  0  0  0  0
  2 21  1  0  0  0  0
  2  3  1  0  0  0  0
  2 25  1  0  0  0  0
  3  4  1  0  0  0  0
  3 26  1  0  0  0  0
  3 27  1  0  0  0  0
  4  5  1  0  0  0  0
  4 28  1  0  0  0  0
  4 29  1  0  0  0  0
  5  6  1  0  0  0  0
  5 20  1  0  0  0  0
  5 46  1  0  0  0  0
  6  7  1  0  0  0  0
  6 30  1  0  0  0  0
  6 31  1  0  0  0  0
  7  8  1  0  0  0  0
  7  9  1  0  0  0  0
  7 32  1  0  0  0  0
  8 33  1  0  0  0  0
  9 10  1  0  0  0  0
  9 34  1  0  0  0  0
  9 35  1  0  0  0  0
 10 11  1  0  0  0  0
 10 36  1  0  0  0  0
 11 12  2  0  0  0  0
 11 13  1  0  0  0  0
 13 14  1  0  0  0  0
 13 37  1  0  0  0  0
 14 19  1  0  0  0  0
 14 15  2  0  0  0  0
 15 16  1  0  0  0  0
 15 38  1  0  0  0  0
 16 17  2  0  0  0  0
 16 39  1  0  0  0  0
 17 18  1  0  0  0  0
 17 47  1  0  0  0  0
 18 19  2  0  0  0  0
 18 40  1  0  0  0  0
 19 41  1  0  0  0  0
 20 21  1  0  0  0  0
 20 42  1  0  0  0  0
 20 43  1  0  0  0  0
 21 44  1  0  0  0  0
 21 45  1  0  0  0  0
M  CHG  1   5   1
M  CHG  1  17   1
M  END
> <s_m_source_file>
AV-unprocessed.smi

> <i_m_source_file_index>
1032

> <i_lp_mmshare_version>
43012

> <i_f3d_flags>
0

> <s_epik_input>
W0NIM11bQ0hdMVtDSDJdW0NIMl1OKFtDSDJdW0NIMl0xKVtDSDJdW0NASF0oW09IXSlbQ0gyXVtOSF1DKD1PKVtOSF1jMltjSF1bY0hdbltjSF1bY0hdMg==

> <s_epik_cmdline>
J2VwaWtfcHl0aG9uJywgJy1waCcsICc3LjAnLCAnLXRuJywgJzgnLCAnLW1hJywgJzIwMCcsICctbWV0YWxfYmluZGluZycsICctaW1hZScsICc8aW5maWxlLm1hZT4nLCAnLW9tYWUnLCAnPG91dGZpbGUubWFlPic=

> <r_epik_Ionization_Penalty>
1.02509

> <r_epik_Ionization_Penalty_Charging>
1.02507

> <r_epik_Ionization_Penalty_Neutral>
1.85474e-05

> <r_epik_State_Penalty>
1.07411

> <r_epik_Charging_Adjusted_Penalty>
2.09917

> <i_epik_Tot_Q>
2

> <i_epik_Tot_abs_Q>
2

> <r_epik_Metal_State_Penalty>
1.1725

> <b_epik_Metal_Only>
0

> <s_lp_Force_Field>
OPLS_2005

> <r_lp_Energy>
32.8821

> <b_lp_Chiralities_Consistent>
1

> <s_lp_Variant>
AV-unprocessed.smi:1032-8

> <Gold.Version>
5.8.1

> <Gold.Id.Protein>
6NUR|6NUR_protein|mol2

> <Gold.PLP.Fitness>
48.5623

> <Gold.PLP.PLP>
-36.7616

> <Gold.PLP.part.hbond>
-4.0000

> <Gold.PLP.part.metal>
0.0000

> <Gold.PLP.part.buried>
-3.1150

> <Gold.PLP.part.nonpolar>
-30.1282

> <Gold.PLP.part.repulsive>
0.2325

> <Gold.PLP.ligand.clash>
0.0000

> <Gold.PLP.ligand.torsion>
1.2344

> <Gold.PLP.Chemscore.Hbond>
4.7360

> <Gold.PLP.Chemscore.CHOScore>
0.0000

> <Gold.PLP.Chemscore.Metal>
0.0000

> <Gold.Chemscore.Hbonds>
donor molecule, donor type, donor heavy atom, donor atom, acceptor molecule, acceptor atom, score
      L1  H     5    46       P1 10747  1.00
      L1  H    10    36       P1  7948  0.98
      L1  H    13    37       P1  7948  0.37
      L1  H    17    47       P1  8028  2.00

> <Gold.PLP.Chemscore.Internal.Correction>
0.0614

> <Gold.Rescore>
     Score         DG    S(hbond)    S(metal)    S(lipo)     H(rot)  DE(clash)    DE(int)     intcor
     20.48     -23.41       3.76        0.00      97.17       2.34       0.57       2.37       ----

> <Gold.Chemscore.Fitness>
20.4761

> <Gold.Chemscore.DG>
-23.4136

> <Gold.Chemscore.ZeroCoef>
-5.4800

> <Gold.Chemscore.Hbond>
3.7584

> <Gold.Chemscore.Metal>
0.0000

> <Gold.Chemscore.Lipo>
97.1733

> <Gold.Chemscore.Internal_Hbond>
0.0000

> <Gold.Chemscore.DEClash>
0.5722

> <Gold.Chemscore.DEInternal>
2.3653

> <Gold.Chemscore.Rot>
2.3393

> <Gold.Chemscore.Internal.Correction>
   9.000000E+99

> <Gold.Chemscore.Hbonds>
donor molecule, donor type, donor heavy atom, donor atom, acceptor molecule, acceptor atom, score
      L1  H     5    46       P1 10747  1.00
      L1  H    10    36       P1  7948  0.91
      L1  H    13    37       P1  7948  0.37
      L1  H    17    47       P1  8028  0.97

> <Gold.Chemscore.Hbond.Weighted>
-12.5530

> <Gold.Chemscore.Metal.Weighted>
-0.0000

> <Gold.Chemscore.Lipo.Weighted>
-11.3693

> <Gold.Chemscore.Internal_Hbond.Weighted>
0.0000

> <Gold.Chemscore.DEClash.Weighted>
0.5722

> <Gold.Chemscore.DEInternal.Weighted>
2.3653

> <Gold.Chemscore.Rot.Weighted>
5.9886

> <Gold.Chemscore.Internal.Correction.Weighted>
   9.000000E+99

> <Gold.Protein.RotatedTorsions>
[ 6907 6896 6895 6894 ] final  -43.07 input  -60.11 | X-H torsion
[ 7974 7965 7964 7962 ] final   64.42 input  175.53 | X-H torsion
[ 8008 7997 7996 7995 ] final -126.61 input   59.86 | X-H torsion
[ 10167 10162 10161 10158 ] final -124.39 input  -65.29 | X-H torsion
[ 10718 10713 10712 10709 ] final    9.23 input   66.30 | X-H torsion
[ 10763 10752 10751 10750 ] final   91.88 input  -60.55 | X-H torsion
[ 11005 11000 10999 10996 ] final  134.22 input  -57.11 | X-H torsion

> <Gold.Protein.ActiveResidues>
 VAL166  LYS551  ARG553  GLY616  TRP617  ASP618  TYR619  PRO620  LYS621  CYS622 
 ASP623  PHE694  ASN695  SER759  ASP760  ASP761  ALA762  ILE779  LEU786  VAL792 
 PHE793  MET794  SER795  GLU796  ALA797  LYS798  CYS799  TRP800  GLU811  SER814 

> <Gold.Protein.RotatedAtoms>
  150.9480  134.8883  159.7654 H   0  0  0  0  0  0  0  0  0  0  0  0  # atno 6907 bound_to 6896
  152.5108  134.3846  159.9373 H   0  0  0  0  0  0  0  0  0  0  0  0  # atno 6908 bound_to 6896
  151.3864  133.3763  159.2750 H   0  0  0  0  0  0  0  0  0  0  0  0  # atno 6909 bound_to 6896
  145.8505  139.3251  143.0878 H   0  0  0  0  0  0  0  0  0  0  0  0  # atno 7974 bound_to 7965
  155.2326  140.0426  157.2964 H   0  0  0  0  0  0  0  0  0  0  0  0  # atno 8008 bound_to 7997
  154.5879  140.2418  155.7932 H   0  0  0  0  0  0  0  0  0  0  0  0  # atno 8009 bound_to 7997
  156.2239  140.2961  156.0027 H   0  0  0  0  0  0  0  0  0  0  0  0  # atno 8010 bound_to 7997
  139.9933  143.5618  152.2333 H   0  0  0  0  0  0  0  0  0  0  0  0  # atno 10167 bound_to 10162
  156.9633  130.5941  149.5663 H   0  0  0  0  0  0  0  0  0  0  0  0  # atno 10718 bound_to 10713
  153.2131  135.4381  155.0403 H   0  0  0  0  0  0  0  0  0  0  0  0  # atno 10763 bound_to 10752
  154.8211  135.3338  154.7039 H   0  0  0  0  0  0  0  0  0  0  0  0  # atno 10764 bound_to 10752
  153.7475  135.7000  153.5009 H   0  0  0  0  0  0  0  0  0  0  0  0  # atno 10765 bound_to 10752
  139.9901  134.9518  156.9836 H   0  0  0  0  0  0  0  0  0  0  0  0  # atno 11005 bound_to 11000
  145.9363  140.9012  143.0330 LP  0  0  0  0  0  0  0  0  0  0  0  0  # atno 17320 bound_to 7965
  144.6729  140.1488  143.7431 LP  0  0  0  0  0  0  0  0  0  0  0  0  # atno 17321 bound_to 7965
  139.6324  144.7646  151.2508 LP  0  0  0  0  0  0  0  0  0  0  0  0  # atno 17342 bound_to 10162
  140.7446  143.6456  150.8295 LP  0  0  0  0  0  0  0  0  0  0  0  0  # atno 17343 bound_to 10162
  156.0313  130.5404  150.8541 LP  0  0  0  0  0  0  0  0  0  0  0  0  # atno 17370 bound_to 10713
  157.5643  131.0946  150.9513 LP  0  0  0  0  0  0  0  0  0  0  0  0  # atno 17371 bound_to 10713
  140.4925  134.1178  155.7235 LP  0  0  0  0  0  0  0  0  0  0  0  0  # atno 17394 bound_to 11000
  141.1558  133.8884  157.1980 LP  0  0  0  0  0  0  0  0  0  0  0  0  # atno 17395 bound_to 11000

$$$$
