AV-unprocessed.smi:69|AV-procd|sdf|655|dock6
  -GOLD-   2262016553D 1   1.00000     0.00000
 Structure written by MMmdl.
 32 34  0  0  0  0  0  0  0  0  1 V2000
  152.7575  140.3151  158.6069 N   0  0  0  0  0  0  0  0  0  0  0  0
  152.2660  140.1391  157.3728 C   0  0  0  0  0  0  0  0  0  0  0  0
  152.9123  139.2921  156.5374 N   0  0  0  0  0  0  0  0  0  0  0  0
  152.4420  139.0999  155.3003 C   0  0  0  0  0  0  0  0  0  0  0  0
  151.3685  139.6437  154.7197 N   0  0  0  0  0  0  0  0  0  0  0  0
  150.7198  140.4965  155.5658 C   0  0  0  0  0  0  0  0  0  0  0  0
  151.1021  140.7970  156.9018 C   0  0  0  0  0  0  0  0  0  0  0  0
  150.2080  141.7027  157.4563 N   0  0  0  0  0  0  0  0  0  0  0  0
  149.3477  141.9219  156.4979 C   0  0  0  0  0  0  0  0  0  0  0  0
  149.5779  141.2301  155.3266 N   0  0  0  0  0  0  0  0  0  0  0  0
  148.7952  141.2478  154.0480 C   0  0  2  0  0  0  0  0  0  0  0  0
  147.9017  142.3194  154.1206 O   0  0  0  0  0  0  0  0  0  0  0  0
  146.5518  141.8727  153.9942 C   0  0  2  0  0  0  0  0  0  0  0  0
  145.5965  142.7565  154.8156 C   0  0  0  0  0  0  0  0  0  0  0  0
  144.2740  142.2770  154.7012 O   0  0  0  0  0  0  0  0  0  0  0  0
  146.5884  140.3892  154.3883 C   0  0  2  0  0  0  0  0  0  0  0  0
  146.4580  140.2177  155.7901 O   0  0  0  0  0  0  0  0  0  0  0  0
  147.9563  139.9681  153.8699 C   0  0  2  0  0  0  0  0  0  0  0  0
  148.4620  138.8075  154.5065 O   0  0  0  0  0  0  0  0  0  0  0  0
  149.5386  141.4020  153.2649 H   0  0  0  0  0  0  0  0  0  0  0  0
  146.2867  141.9235  152.9363 H   0  0  0  0  0  0  0  0  0  0  0  0
  145.7871  139.8277  153.9069 H   0  0  0  0  0  0  0  0  0  0  0  0
  147.8828  139.7757  152.7989 H   0  0  0  0  0  0  0  0  0  0  0  0
  152.2927  140.9416  159.2481 H   0  0  0  0  0  0  0  0  0  0  0  0
  153.5917  139.8231  158.8925 H   0  0  0  0  0  0  0  0  0  0  0  0
  153.0063  138.4118  154.6882 H   0  0  0  0  0  0  0  0  0  0  0  0
  148.5159  142.5990  156.6240 H   0  0  0  0  0  0  0  0  0  0  0  0
  145.8650  142.7191  155.8718 H   0  0  0  0  0  0  0  0  0  0  0  0
  145.6487  143.7995  154.5022 H   0  0  0  0  0  0  0  0  0  0  0  0
  144.2777  141.5171  154.1394 H   0  0  0  0  0  0  0  0  0  0  0  0
  145.5390  140.2440  156.0088 H   0  0  0  0  0  0  0  0  0  0  0  0
  149.2803  138.5770  154.0932 H   0  0  0  0  0  0  0  0  0  0  0  0
  1  2  1  0  0  0  0
  1 24  1  0  0  0  0
  1 25  1  0  0  0  0
  2  7  1  0  0  0  0
  2  3  2  0  0  0  0
  3  4  1  0  0  0  0
  4  5  2  0  0  0  0
  4 26  1  0  0  0  0
  5  6  1  0  0  0  0
  6 10  1  0  0  0  0
  6  7  2  0  0  0  0
  7  8  1  0  0  0  0
  8  9  2  0  0  0  0
  9 10  1  0  0  0  0
  9 27  1  0  0  0  0
 10 11  1  0  0  0  0
 11 20  1  0  0  0  0
 11 18  1  0  0  0  0
 11 12  1  0  0  0  0
 12 13  1  0  0  0  0
 13 21  1  0  0  0  0
 13 14  1  0  0  0  0
 13 16  1  0  0  0  0
 14 15  1  0  0  0  0
 14 28  1  0  0  0  0
 14 29  1  0  0  0  0
 15 30  1  0  0  0  0
 16 22  1  0  0  0  0
 16 17  1  0  0  0  0
 16 18  1  0  0  0  0
 17 31  1  0  0  0  0
 18 23  1  0  0  0  0
 18 19  1  0  0  0  0
 19 32  1  0  0  0  0
M  END
> <s_m_source_file>
AV-unprocessed.smi

> <i_m_source_file_index>
69

> <i_lp_mmshare_version>
43012

> <i_f3d_flags>
0

> <s_epik_input>
bjFbY0hdbmMoW05IMl0pYyhjMTIpbltjSF1uMltDQEBIXTNPW0NASF0oW0NIMl1bT0hdKVtDQEBIXShbT0hdKVtDQEhdM1tPSF0=

> <s_epik_cmdline>
J2VwaWtfcHl0aG9uJywgJy1waCcsICc3LjAnLCAnLXRuJywgJzgnLCAnLW1hJywgJzIwMCcsICctbWV0YWxfYmluZGluZycsICctaW1hZScsICc8aW5maWxlLm1hZT4nLCAnLW9tYWUnLCAnPG91dGZpbGUubWFlPic=

> <r_lp_tautomer_probability>
1

> <r_epik_Ionization_Penalty>
0.000428445

> <r_epik_Ionization_Penalty_Charging>
0

> <r_epik_Ionization_Penalty_Neutral>
0.000428445

> <r_epik_State_Penalty>
-0

> <r_epik_Charging_Adjusted_Penalty>
0

> <i_epik_Tot_Q>
0

> <i_epik_Tot_abs_Q>
0

> <r_epik_Metal_State_Penalty>
-0

> <b_epik_Metal_Only>
0

> <s_epik_Chemistry_Notes>
This compound contains an acetal/aminal-like group ( X-CH(R)-Y where X, Y are N, S, or O) that may be acid/base labile, releasing an aldehyde.

> <s_lp_Force_Field>
OPLS_2005

> <r_lp_Energy>
42.2813

> <b_lp_Chiralities_Consistent>
1

> <s_lp_Variant>
AV-unprocessed.smi:69-13

> <Gold.Version>
5.8.1

> <Gold.Id.Protein>
6NUR|6NUR_protein|mol2

> <Gold.PLP.Fitness>
38.1838

> <Gold.PLP.PLP>
-28.1407

> <Gold.PLP.part.hbond>
-4.7668

> <Gold.PLP.part.metal>
0.0000

> <Gold.PLP.part.buried>
1.0438

> <Gold.PLP.part.nonpolar>
-24.5346

> <Gold.PLP.part.repulsive>
1.3190

> <Gold.PLP.ligand.clash>
0.0000

> <Gold.PLP.ligand.torsion>
0.3272

> <Gold.PLP.Chemscore.Hbond>
2.7500

> <Gold.PLP.Chemscore.CHOScore>
0.6816

> <Gold.PLP.Chemscore.Metal>
0.0000

> <Gold.Chemscore.Hbonds>
donor molecule, donor type, donor heavy atom, donor atom, acceptor molecule, acceptor atom, score
      L1  H    15    30       P1 10175  1.00
      P1  H  7989  7998       L1     5  0.70
      P1  H  7997  8010       L1     3  1.00
      L1  C     9    27       P1  8028  0.68

> <Gold.PLP.Chemscore.Internal.Correction>
0.4027

> <Gold.Rescore>
     Score         DG    S(hbond)    S(metal)    S(lipo)     H(rot)  DE(clash)    DE(int)     intcor
      2.21      -3.66       1.74        0.00      22.92       4.03       0.13       1.32       ----

> <Gold.Chemscore.Fitness>
2.2141

> <Gold.Chemscore.DG>
-3.6621

> <Gold.Chemscore.ZeroCoef>
-5.4800

> <Gold.Chemscore.Hbond>
1.7401

> <Gold.Chemscore.Metal>
0.0000

> <Gold.Chemscore.Lipo>
22.9168

> <Gold.Chemscore.Internal_Hbond>
0.0000

> <Gold.Chemscore.DEClash>
0.1286

> <Gold.Chemscore.DEInternal>
1.3194

> <Gold.Chemscore.Rot>
4.0277

> <Gold.Chemscore.Internal.Correction>
   9.000000E+99

> <Gold.Chemscore.Hbonds>
donor molecule, donor type, donor heavy atom, donor atom, acceptor molecule, acceptor atom, score
      L1  H    15    30       P1 10175  0.23
      P1  H  7989  7998       L1     5  0.07
      P1  H  7997  8010       L1     3  0.12

> <Gold.Chemscore.Hbond.Weighted>
-5.8119

> <Gold.Chemscore.Metal.Weighted>
-0.0000

> <Gold.Chemscore.Lipo.Weighted>
-2.6813

> <Gold.Chemscore.Internal_Hbond.Weighted>
0.0000

> <Gold.Chemscore.DEClash.Weighted>
0.1286

> <Gold.Chemscore.DEInternal.Weighted>
1.3194

> <Gold.Chemscore.Rot.Weighted>
10.3110

> <Gold.Chemscore.Internal.Correction.Weighted>
   9.000000E+99

> <Gold.Protein.RotatedTorsions>
[ 6907 6896 6895 6894 ] final   47.76 input  -60.11 | X-H torsion
[ 7974 7965 7964 7962 ] final  126.02 input  175.53 | X-H torsion
[ 8008 7997 7996 7995 ] final   87.04 input   59.86 | X-H torsion
[ 10167 10162 10161 10158 ] final  -97.62 input  -65.29 | X-H torsion
[ 10718 10713 10712 10709 ] final  128.09 input   66.30 | X-H torsion
[ 10763 10752 10751 10750 ] final  -52.15 input  -60.55 | X-H torsion
[ 11005 11000 10999 10996 ] final -179.20 input  -57.11 | X-H torsion

> <Gold.Protein.ActiveResidues>
 VAL166  LYS551  ARG553  GLY616  TRP617  ASP618  TYR619  PRO620  LYS621  CYS622 
 ASP623  PHE694  ASN695  SER759  ASP760  ASP761  ALA762  ILE779  LEU786  VAL792 
 PHE793  MET794  SER795  GLU796  ALA797  LYS798  CYS799  TRP800  GLU811  SER814 

> <Gold.Protein.RotatedAtoms>
  152.2717  134.7925  160.0412 H   0  0  0  0  0  0  0  0  0  0  0  0  # atno 6907 bound_to 6896
  151.8535  133.3439  159.3689 H   0  0  0  0  0  0  0  0  0  0  0  0  # atno 6908 bound_to 6896
  150.7154  134.5204  159.5695 H   0  0  0  0  0  0  0  0  0  0  0  0  # atno 6909 bound_to 6896
  145.0664  139.3764  143.4980 H   0  0  0  0  0  0  0  0  0  0  0  0  # atno 7974 bound_to 7965
  155.9704  140.3386  155.6570 H   0  0  0  0  0  0  0  0  0  0  0  0  # atno 8008 bound_to 7997
  155.6682  140.0724  157.2548 H   0  0  0  0  0  0  0  0  0  0  0  0  # atno 8009 bound_to 7997
  154.4165  140.1696  156.1837 H   0  0  0  0  0  0  0  0  0  0  0  0  # atno 8010 bound_to 7997
  140.2815  143.3279  152.0436 H   0  0  0  0  0  0  0  0  0  0  0  0  # atno 10167 bound_to 10162
  157.5275  131.1098  150.9060 H   0  0  0  0  0  0  0  0  0  0  0  0  # atno 10718 bound_to 10713
  154.1380  135.6509  153.4936 H   0  0  0  0  0  0  0  0  0  0  0  0  # atno 10763 bound_to 10752
  153.0174  135.5309  154.6933 H   0  0  0  0  0  0  0  0  0  0  0  0  # atno 10764 bound_to 10752
  154.6187  135.2962  155.0322 H   0  0  0  0  0  0  0  0  0  0  0  0  # atno 10765 bound_to 10752
  140.4213  134.6603  157.4665 H   0  0  0  0  0  0  0  0  0  0  0  0  # atno 11005 bound_to 11000
  146.3527  140.0388  142.8644 LP  0  0  0  0  0  0  0  0  0  0  0  0  # atno 17320 bound_to 7965
  145.1346  140.9537  143.4524 LP  0  0  0  0  0  0  0  0  0  0  0  0  # atno 17321 bound_to 7965
  139.4961  144.6588  151.6512 LP  0  0  0  0  0  0  0  0  0  0  0  0  # atno 17342 bound_to 10162
  140.5807  143.9950  150.6267 LP  0  0  0  0  0  0  0  0  0  0  0  0  # atno 17343 bound_to 10162
  156.9651  130.5470  149.5287 LP  0  0  0  0  0  0  0  0  0  0  0  0  # atno 17370 bound_to 10713
  156.0398  130.5481  150.8742 LP  0  0  0  0  0  0  0  0  0  0  0  0  # atno 17371 bound_to 10713
  140.0198  134.6564  155.9256 LP  0  0  0  0  0  0  0  0  0  0  0  0  # atno 17394 bound_to 11000
  141.1783  133.6543  156.4916 LP  0  0  0  0  0  0  0  0  0  0  0  0  # atno 17395 bound_to 11000

$$$$
