#       Name:                AV-unprocessed.smi:2651
#       Creating user name   scv26
#       Creation time:       Fri Mar 27 14:30:33 2020


#       File generated by GOLD software.
#

@<TRIPOS>MOLECULE
AV-unprocessed.smi:2651
    50    51     1
SMALL
NO_CHARGES


@<TRIPOS>ATOM
      1 ****        -6.4361   3.1769   0.2318 C.3            1 S1                 0.0000
      2 ****        -4.9722   2.9209   0.1223 C.2            1 S1                 0.0000
      3 ****        -4.2255   1.7765   0.1245 C.2            1 S1                 0.0000
      4 ****        -2.8973   2.2613  -0.0086 C.2            1 S1                 0.0000
      5 ****        -1.7975   1.3672  -0.0423 N.am           1 S1                 0.0000
      6 ****        -0.4914   1.6749  -0.1088 C.2            1 S1                 0.0000
      7 ****        -0.0378   2.8177  -0.1667 O.2            1 S1                 0.0000
      8 ****         0.2619   0.5624  -0.0973 N.am           1 S1                 0.0000
      9 ****         1.7269   0.4337  -0.1308 C.3            1 S1                 0.0000
     10 ****         2.2843   1.1022  -1.4134 C.3            1 S1                 0.0000
     11 ****         2.3339   1.1578   1.1070 C.3            1 S1                 0.0000
     12 ****         3.7175   0.9060   1.2513 O.3            1 S1                 0.0000
     13 ****         2.0583  -1.1017  -0.1239 C.3            1 S1                 0.0000
     14 ****         1.5019  -1.8614  -1.3594 C.3            1 S1                 0.0000
     15 ****         1.8794  -3.3515  -1.3482 C.3            1 S1                 0.0000
     16 ****         1.4041  -4.0369  -0.0615 C.3            1 S1                 0.0000
     17 ****         1.9650  -3.3182   1.1714 C.3            1 S1                 0.0000
     18 ****         1.5908  -1.8275   1.1676 C.3            1 S1                 0.0000
     19 ****        -2.8387   3.5816  -0.0911 N.2            1 S1                 0.0000
     20 ****        -4.1683   4.0111  -0.0074 O.3            1 S1                 0.0000
     21 ****        -6.9663   2.2779   0.5467 H              1 S1                 0.0000
     22 ****        -6.8454   3.4929  -0.7277 H              1 S1                 0.0000
     23 ****        -6.6388   3.9608   0.9620 H              1 S1                 0.0000
     24 ****        -4.5755   0.7588   0.2117 H              1 S1                 0.0000
     25 ****        -2.0298   0.3864   0.0061 H              1 S1                 0.0000
     26 ****        -0.2374  -0.3137  -0.0501 H              1 S1                 0.0000
     27 ****         3.3350   0.8525  -1.5640 H              1 S1                 0.0000
     28 ****         2.2229   2.1896  -1.3653 H              1 S1                 0.0000
     29 ****         1.7398   0.7985  -2.3071 H              1 S1                 0.0000
     30 ****         2.2060   2.2379   1.0333 H              1 S1                 0.0000
     31 ****         1.8297   0.8612   2.0268 H              1 S1                 0.0000
     32 ****         4.0340   1.3900   1.9987 H              1 S1                 0.0000
     33 ****         3.1436  -1.2031  -0.1685 H              1 S1                 0.0000
     34 ****         0.4162  -1.7716  -1.4032 H              1 S1                 0.0000
     35 ****         1.8832  -1.4287  -2.2831 H              1 S1                 0.0000
     36 ****         1.4459  -3.8504  -2.2154 H              1 S1                 0.0000
     37 ****         2.9612  -3.4558  -1.4412 H              1 S1                 0.0000
     38 ****         0.3138  -4.0351  -0.0247 H              1 S1                 0.0000
     39 ****         1.7142  -5.0823  -0.0582 H              1 S1                 0.0000
     40 ****         1.5895  -3.7920   2.0788 H              1 S1                 0.0000
     41 ****         3.0504  -3.4230   1.1951 H              1 S1                 0.0000
     42 ****         2.0360  -1.3708   2.0503 H              1 S1                 0.0000
     43 ****         0.5108  -1.7328   1.2841 H              1 S1                 0.0000
     44 ****        -0.6577   3.6023  -0.1664 LP             1 S1                 0.0000
     45 ****         0.9507   2.9615  -0.2141 LP             1 S1                 0.0000
     46 ****         4.2019   1.2019   0.4280 LP             1 S1                 0.0000
     47 ****         3.8693  -0.0721   1.3938 LP             1 S1                 0.0000
     48 ****        -2.0214   4.1490  -0.1915 LP             1 S1                 0.0000
     49 ****        -4.2797   4.6077   0.7873 LP             1 S1                 0.0000
     50 ****        -4.4127   4.5125  -0.8374 LP             1 S1                 0.0000
@<TRIPOS>BOND
    1    1    2 1     
    2    1   21 1     
    3    1   22 1     
    4    1   23 1     
    5    2   20 1     
    6    2    3 2     
    7    3    4 1     
    8    3   24 1     
    9    4    5 1     
   10    4   19 2     
   11    5    6 am    
   12    5   25 1     
   13    6    7 2     
   14    6    8 am    
   15    8    9 1     
   16    8   26 1     
   17    9   10 1     
   18    9   11 1     
   19    9   13 1     
   20   10   27 1     
   21   10   28 1     
   22   10   29 1     
   23   11   12 1     
   24   11   30 1     
   25   11   31 1     
   26   12   32 1     
   27   13   18 1     
   28   13   14 1     
   29   13   33 1     
   30   14   15 1     
   31   14   34 1     
   32   14   35 1     
   33   15   16 1     
   34   15   36 1     
   35   15   37 1     
   36   16   17 1     
   37   16   38 1     
   38   16   39 1     
   39   17   18 1     
   40   17   40 1     
   41   17   41 1     
   42   18   42 1     
   43   18   43 1     
   44   19   20 1     
   45    7   44 1     
   46    7   45 1     
   47   12   46 1     
   48   12   47 1     
   49   19   48 1     
   50   20   49 1     
   51   20   50 1     
@<TRIPOS>SUBSTRUCTURE
      1 S1             1
@<TRIPOS>SET
LONE_PAIRS      STATIC     ATOMS    <user>   **** ""
7 44 45 46 47 48 49 50
DONOR_HYDROGENS      STATIC     ATOMS    <user>   **** ""
3 25 26 32
ATOM$BLUE        STATIC     ATOMS    COLORGROUP SYSTEM
7 44 45 46 47 48 49 50
ATOM$RED        STATIC     ATOMS    COLORGROUP SYSTEM
3 25 26 32
