AV-unprocessed.smi:101|AV-procd|sdf|917|dock5
  -GOLD-   2262017423D 1   1.00000     0.00000
 Structure written by MMmdl.
 44 46  0  0  0  0  0  0  0  0  1 V2000
  151.4782  140.8369  159.0194 C   0  0  0  0  0  0  0  0  0  0  0  0
  150.9413  140.9076  157.5987 C   0  0  0  0  0  0  0  0  0  0  0  0
  150.8222  139.8081  156.8115 C   0  0  0  0  0  0  0  0  0  0  0  0
  150.3401  139.8376  155.5059 N   0  0  0  0  0  0  0  0  0  0  0  0
  150.1806  138.5830  154.6602 C   0  0  2  0  0  0  0  0  0  0  0  0
  149.0473  137.8826  155.0695 O   0  0  0  0  0  0  0  0  0  0  0  0
  149.4270  136.9328  156.0546 C   0  0  1  0  0  0  0  0  0  0  0  0
  148.3018  135.9137  156.2494 C   0  0  0  0  0  0  0  0  0  0  0  0
  147.9252  135.9497  157.6157 O   0  0  0  0  0  0  0  0  0  0  0  0
  148.3926  135.0307  158.4783 C   0  0  0  0  0  0  0  0  0  0  0  0
  149.1094  134.0846  158.1468 O   0  0  0  0  0  0  0  0  0  0  0  0
  147.9471  135.2796  159.8801 C   0  0  0  0  0  0  0  0  0  0  0  0
  147.7069  134.1804  160.7371 C   0  0  0  0  0  0  0  0  0  0  0  0
  147.2841  134.3853  162.0648 C   0  0  0  0  0  0  0  0  0  0  0  0
  147.0964  135.6921  162.5520 C   0  0  0  0  0  0  0  0  0  0  0  0
  147.3318  136.7941  161.7095 C   0  0  0  0  0  0  0  0  0  0  0  0
  147.7544  136.5913  160.3813 C   0  0  0  0  0  0  0  0  0  0  0  0
  150.7144  136.3687  155.4602 C   0  0  2  0  0  0  0  0  0  0  0  0
  151.5268  135.8196  156.4784 O   0  0  0  0  0  0  0  0  0  0  0  0
  151.3698  137.6068  154.8467 C   0  0  1  0  0  0  0  0  0  0  0  0
  151.9777  137.2788  153.6139 O   0  0  0  0  0  0  0  0  0  0  0  0
  149.8815  141.0625  154.9764 C   0  0  0  0  0  0  0  0  0  0  0  0
  149.3825  141.1580  153.8557 O   0  0  0  0  0  0  0  0  0  0  0  0
  150.0102  142.1929  155.7810 N   0  0  0  0  0  0  0  0  0  0  0  0
  150.5277  142.2129  157.0779 C   0  0  0  0  0  0  0  0  0  0  0  0
  150.5971  143.2785  157.6879 O   0  0  0  0  0  0  0  0  0  0  0  0
  149.6946  143.0719  155.3971 H   0  0  0  0  0  0  0  0  0  0  0  0
  151.7523  139.8194  159.3010 H   0  0  0  0  0  0  0  0  0  0  0  0
  150.7276  141.1884  159.7281 H   0  0  0  0  0  0  0  0  0  0  0  0
  152.3664  141.4613  159.1224 H   0  0  0  0  0  0  0  0  0  0  0  0
  151.1202  138.8673  157.2485 H   0  0  0  0  0  0  0  0  0  0  0  0
  150.0443  138.9506  153.6410 H   0  0  0  0  0  0  0  0  0  0  0  0
  149.6465  137.4393  156.9969 H   0  0  0  0  0  0  0  0  0  0  0  0
  147.4550  136.1424  155.6008 H   0  0  0  0  0  0  0  0  0  0  0  0
  148.6532  134.9112  156.0023 H   0  0  0  0  0  0  0  0  0  0  0  0
  147.8437  133.1678  160.3852 H   0  0  0  0  0  0  0  0  0  0  0  0
  147.1036  133.5380  162.7100 H   0  0  0  0  0  0  0  0  0  0  0  0
  146.7726  135.8487  163.5702 H   0  0  0  0  0  0  0  0  0  0  0  0
  147.1884  137.7977  162.0819 H   0  0  0  0  0  0  0  0  0  0  0  0
  147.9259  137.4599  159.7620 H   0  0  0  0  0  0  0  0  0  0  0  0
  150.4846  135.6202  154.6999 H   0  0  0  0  0  0  0  0  0  0  0  0
  151.5590  136.4325  157.1974 H   0  0  0  0  0  0  0  0  0  0  0  0
  152.1100  138.0364  155.5233 H   0  0  0  0  0  0  0  0  0  0  0  0
  151.3287  136.8680  153.0628 H   0  0  0  0  0  0  0  0  0  0  0  0
  1  2  1  0  0  0  0
  1 28  1  0  0  0  0
  1 29  1  0  0  0  0
  1 30  1  0  0  0  0
  2 25  1  0  0  0  0
  2  3  2  0  0  0  0
  3  4  1  0  0  0  0
  3 31  1  0  0  0  0
  4  5  1  0  0  0  0
  4 22  1  0  0  0  0
  5 20  1  0  0  0  0
  5  6  1  0  0  0  0
  5 32  1  0  0  0  0
  6  7  1  0  0  0  0
  7  8  1  0  0  0  0
  7 18  1  0  0  0  0
  7 33  1  0  0  0  0
  8  9  1  0  0  0  0
  8 34  1  0  0  0  0
  8 35  1  0  0  0  0
  9 10  1  0  0  0  0
 10 11  2  0  0  0  0
 10 12  1  0  0  0  0
 12 17  1  0  0  0  0
 12 13  2  0  0  0  0
 13 14  1  0  0  0  0
 13 36  1  0  0  0  0
 14 15  2  0  0  0  0
 14 37  1  0  0  0  0
 15 16  1  0  0  0  0
 15 38  1  0  0  0  0
 16 17  2  0  0  0  0
 16 39  1  0  0  0  0
 17 40  1  0  0  0  0
 18 19  1  0  0  0  0
 18 20  1  0  0  0  0
 18 41  1  0  0  0  0
 19 42  1  0  0  0  0
 20 21  1  0  0  0  0
 20 43  1  0  0  0  0
 21 44  1  0  0  0  0
 22 23  2  0  0  0  0
 22 24  1  0  0  0  0
 24 27  1  0  0  0  0
 24 25  1  0  0  0  0
 25 26  2  0  0  0  0
M  END
> <s_m_source_file>
AV-unprocessed.smi

> <i_m_source_file_index>
101

> <i_lp_mmshare_version>
43012

> <i_f3d_flags>
0

> <s_epik_input>
Tz1jMVtuSF1jKD1PKW4oW2NIXWMxW0NIM10pW0NAQEhdMk9bQ0BIXShbQ0BASF0oW09IXSlbQ0BIXTJbT0hdKVtDSDJdT0MoPU8pYzNbY0hdW2NIXVtjSF1bY0hdW2NIXTM=

> <s_epik_cmdline>
J2VwaWtfcHl0aG9uJywgJy1waCcsICc3LjAnLCAnLXRuJywgJzgnLCAnLW1hJywgJzIwMCcsICctbWV0YWxfYmluZGluZycsICctaW1hZScsICc8aW5maWxlLm1hZT4nLCAnLW9tYWUnLCAnPG91dGZpbGUubWFlPic=

> <r_lp_tautomer_probability>
0.999537

> <r_epik_Ionization_Penalty>
0.00263537

> <r_epik_Ionization_Penalty_Charging>
0.00263428

> <r_epik_Ionization_Penalty_Neutral>
1.09111e-06

> <r_epik_State_Penalty>
0.00183335

> <r_epik_Charging_Adjusted_Penalty>
0.00446763

> <i_epik_Tot_Q>
0

> <i_epik_Tot_abs_Q>
0

> <r_epik_Metal_State_Penalty>
1.00528

> <b_epik_Metal_Only>
0

> <s_epik_Chemistry_Notes>
This compound has an ester and may undergo hydrolysis at high or low pH. This compound contains an acetal/aminal-like group ( X-CH(R)-Y where X, Y are N, S, or O) that may be acid/base labile, releasing an aldehyde.

> <s_lp_Force_Field>
OPLS_2005

> <r_lp_Energy>
27.5612

> <b_lp_Chiralities_Consistent>
1

> <s_lp_Variant>
AV-unprocessed.smi:101-5

> <Gold.Version>
5.8.1

> <Gold.Id.Protein>
6NUR|6NUR_protein|mol2

> <Gold.PLP.Fitness>
53.7167

> <Gold.PLP.PLP>
-41.8342

> <Gold.PLP.part.hbond>
-7.0000

> <Gold.PLP.part.metal>
0.0000

> <Gold.PLP.part.buried>
-3.2721

> <Gold.PLP.part.nonpolar>
-32.4575

> <Gold.PLP.part.repulsive>
1.9193

> <Gold.PLP.ligand.clash>
0.0000

> <Gold.PLP.ligand.torsion>
2.0506

> <Gold.PLP.Chemscore.Hbond>
5.3067

> <Gold.PLP.Chemscore.CHOScore>
0.0000

> <Gold.PLP.Chemscore.Metal>
0.0000

> <Gold.Chemscore.Hbonds>
donor molecule, donor type, donor heavy atom, donor atom, acceptor molecule, acceptor atom, score
      L1  H    21    44       P1  7949  0.82
      L1  H    24    27       P1  8028  0.99
      P1  H  6896  6907       L1    11  1.00
      P1  H  8011  8017       L1    23  0.88
      P1  H 10752 10764       L1    21  0.43
      P1  H 10752 10765       L1    19  0.41

> <Gold.PLP.Chemscore.Internal.Correction>
0.0635

> <Gold.Rescore>
     Score         DG    S(hbond)    S(metal)    S(lipo)     H(rot)  DE(clash)    DE(int)     intcor
     15.81     -17.84       3.79        0.00      70.10       3.32       0.34       1.69       ----

> <Gold.Chemscore.Fitness>
15.8147

> <Gold.Chemscore.DG>
-17.8362

> <Gold.Chemscore.ZeroCoef>
-5.4800

> <Gold.Chemscore.Hbond>
3.7864

> <Gold.Chemscore.Metal>
0.0000

> <Gold.Chemscore.Lipo>
70.0996

> <Gold.Chemscore.Internal_Hbond>
0.0000

> <Gold.Chemscore.DEClash>
0.3358

> <Gold.Chemscore.DEInternal>
1.6858

> <Gold.Chemscore.Rot>
3.3172

> <Gold.Chemscore.Internal.Correction>
   9.000000E+99

> <Gold.Chemscore.Hbonds>
donor molecule, donor type, donor heavy atom, donor atom, acceptor molecule, acceptor atom, score
      L1  H    21    44       P1  7949  0.61
      L1  H    24    27       P1  8028  0.94
      P1  H  6896  6907       L1    11  0.85
      P1  H  8011  8017       L1    23  0.82
      P1  H 10752 10764       L1    21  0.09
      P1  H 10752 10765       L1    19  0.08

> <Gold.Chemscore.Hbond.Weighted>
-12.6466

> <Gold.Chemscore.Metal.Weighted>
-0.0000

> <Gold.Chemscore.Lipo.Weighted>
-8.2017

> <Gold.Chemscore.Internal_Hbond.Weighted>
0.0000

> <Gold.Chemscore.DEClash.Weighted>
0.3358

> <Gold.Chemscore.DEInternal.Weighted>
1.6858

> <Gold.Chemscore.Rot.Weighted>
8.4920

> <Gold.Chemscore.Internal.Correction.Weighted>
   9.000000E+99

> <Gold.Protein.RotatedTorsions>
[ 6907 6896 6895 6894 ] final -117.56 input  -60.11 | X-H torsion
[ 7974 7965 7964 7962 ] final  134.76 input  175.53 | X-H torsion
[ 8008 7997 7996 7995 ] final  155.94 input   59.86 | X-H torsion
[ 10167 10162 10161 10158 ] final   19.18 input  -65.29 | X-H torsion
[ 10718 10713 10712 10709 ] final  126.15 input   66.30 | X-H torsion
[ 10763 10752 10751 10750 ] final -132.10 input  -60.55 | X-H torsion
[ 11005 11000 10999 10996 ] final   63.66 input  -57.11 | X-H torsion

> <Gold.Protein.ActiveResidues>
 VAL166  LYS551  ARG553  GLY616  TRP617  ASP618  TYR619  PRO620  LYS621  CYS622 
 ASP623  PHE694  ASN695  SER759  ASP760  ASP761  ALA762  ILE779  LEU786  VAL792 
 PHE793  MET794  SER795  GLU796  ALA797  LYS798  CYS799  TRP800  GLU811  SER814 

> <Gold.Protein.RotatedAtoms>
  150.8147  133.8358  159.3165 H   0  0  0  0  0  0  0  0  0  0  0  0  # atno 6907 bound_to 6896
  151.6134  135.1036  160.0095 H   0  0  0  0  0  0  0  0  0  0  0  0  # atno 6908 bound_to 6896
  152.4239  133.7121  159.6541 H   0  0  0  0  0  0  0  0  0  0  0  0  # atno 6909 bound_to 6896
  144.9731  139.4584  143.5423 H   0  0  0  0  0  0  0  0  0  0  0  0  # atno 7974 bound_to 7965
  156.2451  140.1926  156.6878 H   0  0  0  0  0  0  0  0  0  0  0  0  # atno 8008 bound_to 7997
  154.6274  140.0600  156.9716 H   0  0  0  0  0  0  0  0  0  0  0  0  # atno 8009 bound_to 7997
  155.1765  140.3272  155.4385 H   0  0  0  0  0  0  0  0  0  0  0  0  # atno 8010 bound_to 7997
  140.5598  143.9358  150.6634 H   0  0  0  0  0  0  0  0  0  0  0  0  # atno 10167 bound_to 10162
  157.5443  131.1096  150.8807 H   0  0  0  0  0  0  0  0  0  0  0  0  # atno 10718 bound_to 10713
  154.8746  135.3809  154.4354 H   0  0  0  0  0  0  0  0  0  0  0  0  # atno 10763 bound_to 10752
  153.5044  135.7030  153.5819 H   0  0  0  0  0  0  0  0  0  0  0  0  # atno 10764 bound_to 10752
  153.4137  135.3918  155.2033 H   0  0  0  0  0  0  0  0  0  0  0  0  # atno 10765 bound_to 10752
  140.0010  134.6443  155.9931 H   0  0  0  0  0  0  0  0  0  0  0  0  # atno 11005 bound_to 11000
  146.3388  139.8957  142.8802 LP  0  0  0  0  0  0  0  0  0  0  0  0  # atno 17320 bound_to 7965
  145.2529  141.0050  143.3871 LP  0  0  0  0  0  0  0  0  0  0  0  0  # atno 17321 bound_to 7965
  140.2806  143.3392  152.1155 LP  0  0  0  0  0  0  0  0  0  0  0  0  # atno 17342 bound_to 10162
  139.5065  144.6814  151.5998 LP  0  0  0  0  0  0  0  0  0  0  0  0  # atno 17343 bound_to 10162
  156.9350  130.5363  149.5279 LP  0  0  0  0  0  0  0  0  0  0  0  0  # atno 17370 bound_to 10713
  156.0523  130.5590  150.9016 LP  0  0  0  0  0  0  0  0  0  0  0  0  # atno 17371 bound_to 10713
  141.1641  133.6537  156.4420 LP  0  0  0  0  0  0  0  0  0  0  0  0  # atno 17394 bound_to 11000
  140.4729  134.6737  157.5137 LP  0  0  0  0  0  0  0  0  0  0  0  0  # atno 17395 bound_to 11000

$$$$
