AV-unprocessed.smi:57|AV-procd|sdf|581|dock3
  -GOLD-   2262016483D 1   1.00000     0.00000
 Structure written by MMmdl.
 27 28  0  0  0  0  0  0  0  0  1 V2000
  151.9608  144.4069  162.1254 N   0  0  0  0  0  0  0  0  0  0  0  0
  152.3970  143.3021  161.5062 C   0  0  0  0  0  0  0  0  0  0  0  0
  153.4539  142.6211  162.1065 N   0  0  0  0  0  0  0  0  0  0  0  0
  154.0290  141.4511  161.5929 C   0  0  0  0  0  0  0  0  0  0  0  0
  154.9605  140.9193  162.1931 O   0  0  0  0  0  0  0  0  0  0  0  0
  153.4011  141.0306  160.3721 C   0  0  0  0  0  0  0  0  0  0  0  0
  153.6650  139.9334  159.5564 N   0  0  0  0  0  0  0  0  0  0  0  0
  152.7931  140.0348  158.5916 C   0  0  0  0  0  0  0  0  0  0  0  0
  151.9678  141.1261  158.7007 N   0  0  0  0  0  0  0  0  0  0  0  0
  150.8918  141.5478  157.8262 C   0  0  0  0  0  0  0  0  0  0  0  0
  150.3373  140.4035  157.2682 O   0  0  0  0  0  0  0  0  0  0  0  0
  149.4365  140.6753  156.2077 C   0  0  0  0  0  0  0  0  0  0  0  0
  149.7674  139.7431  155.0381 C   0  0  0  0  0  0  0  0  0  0  0  0
  150.0120  140.5007  153.8733 O   0  0  0  0  0  0  0  0  0  0  0  0
  152.3584  141.7723  159.8526 C   0  0  0  0  0  0  0  0  0  0  0  0
  151.8209  142.9149  160.3819 N   0  0  0  0  0  0  0  0  0  0  0  0
  152.3910  144.7132  162.9859 H   0  0  0  0  0  0  0  0  0  0  0  0
  151.1962  144.9338  161.7281 H   0  0  0  0  0  0  0  0  0  0  0  0
  153.8409  142.9794  162.9672 H   0  0  0  0  0  0  0  0  0  0  0  0
  152.7288  139.3208  157.7834 H   0  0  0  0  0  0  0  0  0  0  0  0
  151.2934  142.1974  157.0469 H   0  0  0  0  0  0  0  0  0  0  0  0
  150.1608  142.1013  158.4188 H   0  0  0  0  0  0  0  0  0  0  0  0
  148.4084  140.5131  156.5364 H   0  0  0  0  0  0  0  0  0  0  0  0
  149.5267  141.7182  155.8983 H   0  0  0  0  0  0  0  0  0  0  0  0
  150.6481  139.1416  155.2645 H   0  0  0  0  0  0  0  0  0  0  0  0
  148.9409  139.0568  154.8515 H   0  0  0  0  0  0  0  0  0  0  0  0
  149.7439  139.9916  153.1233 H   0  0  0  0  0  0  0  0  0  0  0  0
  1  2  1  0  0  0  0
  1 18  1  0  0  0  0
  1 17  1  0  0  0  0
  2 16  2  0  0  0  0
  2  3  1  0  0  0  0
  3 19  1  0  0  0  0
  3  4  1  0  0  0  0
  4  5  2  0  0  0  0
  4  6  1  0  0  0  0
  6 15  2  0  0  0  0
  6  7  1  0  0  0  0
  7  8  2  0  0  0  0
  8 20  1  0  0  0  0
  8  9  1  0  0  0  0
  9 10  1  0  0  0  0
  9 15  1  0  0  0  0
 10 11  1  0  0  0  0
 10 21  1  0  0  0  0
 10 22  1  0  0  0  0
 11 12  1  0  0  0  0
 12 13  1  0  0  0  0
 12 23  1  0  0  0  0
 12 24  1  0  0  0  0
 13 14  1  0  0  0  0
 13 25  1  0  0  0  0
 13 26  1  0  0  0  0
 14 27  1  0  0  0  0
 15 16  1  0  0  0  0
M  END
> <s_m_source_file>
AV-unprocessed.smi

> <i_m_source_file_index>
57

> <i_lp_mmshare_version>
43012

> <i_f3d_flags>
0

> <s_epik_input>
Tz1jMW5jKFtOSDJdKVtuSF1jKGMxMiluKFtjSF1uMilbQ0gyXU9bQ0gyXVtDSDJdW09IXQ==

> <s_epik_cmdline>
J2VwaWtfcHl0aG9uJywgJy1waCcsICc3LjAnLCAnLXRuJywgJzgnLCAnLW1hJywgJzIwMCcsICctbWV0YWxfYmluZGluZycsICctaW1hZScsICc8aW5maWxlLm1hZT4nLCAnLW9tYWUnLCAnPG91dGZpbGUubWFlPic=

> <r_lp_tautomer_probability>
1

> <r_epik_Ionization_Penalty>
0.00151458

> <r_epik_Ionization_Penalty_Charging>
0.0014384

> <r_epik_Ionization_Penalty_Neutral>
7.61793e-05

> <r_epik_State_Penalty>
-0

> <r_epik_Charging_Adjusted_Penalty>
0.0014384

> <i_epik_Tot_Q>
0

> <i_epik_Tot_abs_Q>
0

> <r_epik_Metal_State_Penalty>
0.317918

> <b_epik_Metal_Only>
0

> <s_epik_Chemistry_Notes>
This compound contains an acetal/aminal-like group ( X-CH(R)-Y where X, Y are N, S, or O) that may be acid/base labile, releasing an aldehyde.

> <s_lp_Force_Field>
OPLS_2005

> <r_lp_Energy>
2.65481

> <b_lp_Chiralities_Consistent>
1

> <s_lp_Variant>
AV-unprocessed.smi:57-1

> <Gold.Version>
5.8.1

> <Gold.Id.Protein>
6NUR|6NUR_protein|mol2

> <Gold.PLP.Fitness>
34.3626

> <Gold.PLP.PLP>
-31.8137

> <Gold.PLP.part.hbond>
-4.8970

> <Gold.PLP.part.metal>
0.0000

> <Gold.PLP.part.buried>
-4.7733

> <Gold.PLP.part.nonpolar>
-20.1228

> <Gold.PLP.part.repulsive>
0.1656

> <Gold.PLP.ligand.clash>
0.0000

> <Gold.PLP.ligand.torsion>
1.1052

> <Gold.PLP.Chemscore.Hbond>
1.5840

> <Gold.PLP.Chemscore.CHOScore>
0.0000

> <Gold.PLP.Chemscore.Metal>
0.0000

> <Gold.Chemscore.Hbonds>
donor molecule, donor type, donor heavy atom, donor atom, acceptor molecule, acceptor atom, score
      L1  H    14    27       P1  7957  0.85
      P1  H  7989  7998       L1    14  0.67

> <Gold.PLP.Chemscore.Internal.Correction>
0.0072

> <Gold.Rescore>
     Score         DG    S(hbond)    S(metal)    S(lipo)     H(rot)  DE(clash)    DE(int)     intcor
      2.08      -3.18       1.50        0.00      19.30       3.74       0.01       1.10       ----

> <Gold.Chemscore.Fitness>
2.0771

> <Gold.Chemscore.DG>
-3.1800

> <Gold.Chemscore.ZeroCoef>
-5.4800

> <Gold.Chemscore.Hbond>
1.5009

> <Gold.Chemscore.Metal>
0.0000

> <Gold.Chemscore.Lipo>
19.2990

> <Gold.Chemscore.Internal_Hbond>
0.0000

> <Gold.Chemscore.DEClash>
0.0062

> <Gold.Chemscore.DEInternal>
1.0967

> <Gold.Chemscore.Rot>
3.7387

> <Gold.Chemscore.Internal.Correction>
   9.000000E+99

> <Gold.Chemscore.Hbonds>
donor molecule, donor type, donor heavy atom, donor atom, acceptor molecule, acceptor atom, score
      L1  H    14    27       P1  7957  0.83
      P1  H  7989  7998       L1    14  0.20

> <Gold.Chemscore.Hbond.Weighted>
-5.0130

> <Gold.Chemscore.Metal.Weighted>
-0.0000

> <Gold.Chemscore.Lipo.Weighted>
-2.2580

> <Gold.Chemscore.Internal_Hbond.Weighted>
0.0000

> <Gold.Chemscore.DEClash.Weighted>
0.0062

> <Gold.Chemscore.DEInternal.Weighted>
1.0967

> <Gold.Chemscore.Rot.Weighted>
9.5710

> <Gold.Chemscore.Internal.Correction.Weighted>
   9.000000E+99

> <Gold.Protein.RotatedTorsions>
[ 6907 6896 6895 6894 ] final   41.34 input  -60.11 | X-H torsion
[ 7974 7965 7964 7962 ] final  -99.12 input  175.53 | X-H torsion
[ 8008 7997 7996 7995 ] final  -95.88 input   59.86 | X-H torsion
[ 10167 10162 10161 10158 ] final  161.42 input  -65.29 | X-H torsion
[ 10718 10713 10712 10709 ] final  128.69 input   66.30 | X-H torsion
[ 10763 10752 10751 10750 ] final    2.28 input  -60.55 | X-H torsion
[ 11005 11000 10999 10996 ] final -161.46 input  -57.11 | X-H torsion

> <Gold.Protein.ActiveResidues>
 VAL166  LYS551  ARG553  GLY616  TRP617  ASP618  TYR619  PRO620  LYS621  CYS622 
 ASP623  PHE694  ASN695  SER759  ASP760  ASP761  ALA762  ILE779  LEU786  VAL792 
 PHE793  MET794  SER795  GLU796  ALA797  LYS798  CYS799  TRP800  GLU811  SER814 

> <Gold.Protein.RotatedAtoms>
  152.1940  134.8647  160.0514 H   0  0  0  0  0  0  0  0  0  0  0  0  # atno 6907 bound_to 6896
  151.9525  133.3665  159.4013 H   0  0  0  0  0  0  0  0  0  0  0  0  # atno 6908 bound_to 6896
  150.6941  134.4249  159.5266 H   0  0  0  0  0  0  0  0  0  0  0  0  # atno 6909 bound_to 6896
  145.3117  140.9402  143.2766 H   0  0  0  0  0  0  0  0  0  0  0  0  # atno 7974 bound_to 7965
  154.7671  140.0476  157.1021 H   0  0  0  0  0  0  0  0  0  0  0  0  # atno 8008 bound_to 7997
  154.9866  140.3108  155.4904 H   0  0  0  0  0  0  0  0  0  0  0  0  # atno 8009 bound_to 7997
  156.2914  140.2226  156.4968 H   0  0  0  0  0  0  0  0  0  0  0  0  # atno 8010 bound_to 7997
  139.4849  144.4538  151.8795 H   0  0  0  0  0  0  0  0  0  0  0  0  # atno 10167 bound_to 10162
  157.5222  131.1098  150.9137 H   0  0  0  0  0  0  0  0  0  0  0  0  # atno 10718 bound_to 10713
  153.2975  135.6953  153.7234 H   0  0  0  0  0  0  0  0  0  0  0  0  # atno 10763 bound_to 10752
  153.6161  135.3435  155.2996 H   0  0  0  0  0  0  0  0  0  0  0  0  # atno 10764 bound_to 10752
  154.8541  135.4375  154.2077 H   0  0  0  0  0  0  0  0  0  0  0  0  # atno 10765 bound_to 10752
  140.6202  134.4758  157.5223 H   0  0  0  0  0  0  0  0  0  0  0  0  # atno 11005 bound_to 11000
  144.9010  139.4649  143.6632 LP  0  0  0  0  0  0  0  0  0  0  0  0  # atno 17320 bound_to 7965
  146.3115  139.7765  142.9016 LP  0  0  0  0  0  0  0  0  0  0  0  0  # atno 17321 bound_to 7965
  140.3996  144.2510  150.5894 LP  0  0  0  0  0  0  0  0  0  0  0  0  # atno 17342 bound_to 10162
  140.5069  143.2301  151.8594 LP  0  0  0  0  0  0  0  0  0  0  0  0  # atno 17343 bound_to 10162
  156.9744  130.5503  149.5292 LP  0  0  0  0  0  0  0  0  0  0  0  0  # atno 17370 bound_to 10713
  156.0361  130.5448  150.8657 LP  0  0  0  0  0  0  0  0  0  0  0  0  # atno 17371 bound_to 10713
  139.9156  134.8252  156.1377 LP  0  0  0  0  0  0  0  0  0  0  0  0  # atno 17394 bound_to 11000
  141.0748  133.6780  156.2213 LP  0  0  0  0  0  0  0  0  0  0  0  0  # atno 17395 bound_to 11000

$$$$
