AV-unprocessed.smi:2485|AV-procd|sdf|9788|dock8
  -GOLD-   2272013423D 1   1.00000     0.00000
 Structure written by MMmdl.
 39 40  0  0  0  0  0  0  0  0  1 V2000
  145.5925  132.1696  149.6260 C   0  0  0  0  0  0  0  0  0  0  0  0
  145.3522  132.6405  151.0683 C   0  0  0  0  0  0  0  0  0  0  0  0
  144.9942  131.4556  151.9816 C   0  0  0  0  0  0  0  0  0  0  0  0
  146.5303  133.4548  151.6166 C   0  0  0  0  0  0  0  0  0  0  0  0
  145.8552  134.4932  152.4900 C   0  0  1  0  0  0  0  0  0  0  0  0
  146.6950  135.6767  152.6626 N   0  0  0  0  0  0  0  0  0  0  0  0
  146.3465  136.7789  153.3406 C   0  0  0  0  0  0  0  0  0  0  0  0
  145.2708  136.9066  153.9253 O   0  0  0  0  0  0  0  0  0  0  0  0
  147.3181  137.7059  153.2888 N   0  0  0  0  0  0  0  0  0  0  0  0
  147.3174  139.0069  153.8564 C   0  0  0  0  0  0  0  0  0  0  0  0
  148.5243  139.7251  153.7205 C   0  0  0  0  0  0  0  0  0  0  0  0
  148.5928  141.0216  154.2583 C   0  0  0  0  0  0  0  0  0  0  0  0
  147.4425  141.5143  154.8979 C   0  0  0  0  0  0  0  0  0  0  0  0
  146.3068  140.7914  155.0044 N   0  0  0  0  0  0  0  0  0  0  0  0
  146.2493  139.5576  154.4909 N   0  0  0  0  0  0  0  0  0  0  0  0
  144.5396  134.7649  151.7275 C   0  0  0  0  0  0  0  0  0  0  0  0
  143.3737  135.0934  152.6735 C   0  0  0  0  0  0  0  0  0  0  0  0
  144.6566  135.8296  150.6163 C   0  0  0  0  0  0  0  0  0  0  0  0
  144.2384  133.5323  151.0744 O   0  0  0  0  0  0  0  0  0  0  0  0
  146.4481  131.4961  149.5688 H   0  0  0  0  0  0  0  0  0  0  0  0
  145.7865  133.0123  148.9616 H   0  0  0  0  0  0  0  0  0  0  0  0
  144.7237  131.6389  149.2354 H   0  0  0  0  0  0  0  0  0  0  0  0
  145.8137  130.7387  152.0380 H   0  0  0  0  0  0  0  0  0  0  0  0
  144.1164  130.9259  151.6104 H   0  0  0  0  0  0  0  0  0  0  0  0
  144.7712  131.7847  152.9967 H   0  0  0  0  0  0  0  0  0  0  0  0
  147.2553  132.8488  152.1612 H   0  0  0  0  0  0  0  0  0  0  0  0
  147.0636  133.9450  150.8004 H   0  0  0  0  0  0  0  0  0  0  0  0
  145.6421  134.0338  153.4571 H   0  0  0  0  0  0  0  0  0  0  0  0
  147.5991  135.6596  152.2139 H   0  0  0  0  0  0  0  0  0  0  0  0
  148.1507  137.4555  152.7764 H   0  0  0  0  0  0  0  0  0  0  0  0
  149.3783  139.2954  153.2178 H   0  0  0  0  0  0  0  0  0  0  0  0
  149.4920  141.6149  154.1836 H   0  0  0  0  0  0  0  0  0  0  0  0
  147.4320  142.5034  155.3311 H   0  0  0  0  0  0  0  0  0  0  0  0
  143.5448  136.0304  153.2035 H   0  0  0  0  0  0  0  0  0  0  0  0
  143.2363  134.3096  153.4190 H   0  0  0  0  0  0  0  0  0  0  0  0
  142.4369  135.1910  152.1245 H   0  0  0  0  0  0  0  0  0  0  0  0
  144.8405  136.8223  151.0280 H   0  0  0  0  0  0  0  0  0  0  0  0
  143.7363  135.8862  150.0342 H   0  0  0  0  0  0  0  0  0  0  0  0
  145.4659  135.6004  149.9231 H   0  0  0  0  0  0  0  0  0  0  0  0
  1  2  1  0  0  0  0
  1 20  1  0  0  0  0
  1 21  1  0  0  0  0
  1 22  1  0  0  0  0
  2 19  1  0  0  0  0
  2  3  1  0  0  0  0
  2  4  1  0  0  0  0
  3 23  1  0  0  0  0
  3 24  1  0  0  0  0
  3 25  1  0  0  0  0
  4  5  1  0  0  0  0
  4 26  1  0  0  0  0
  4 27  1  0  0  0  0
  5  6  1  0  0  0  0
  5 16  1  0  0  0  0
  5 28  1  0  0  0  0
  6  7  1  0  0  0  0
  6 29  1  0  0  0  0
  7  8  2  0  0  0  0
  7  9  1  0  0  0  0
  9 10  1  0  0  0  0
  9 30  1  0  0  0  0
 10 15  1  0  0  0  0
 10 11  2  0  0  0  0
 11 12  1  0  0  0  0
 11 31  1  0  0  0  0
 12 13  2  0  0  0  0
 12 32  1  0  0  0  0
 13 14  1  0  0  0  0
 13 33  1  0  0  0  0
 14 15  2  0  0  0  0
 16 17  1  0  0  0  0
 16 18  1  0  0  0  0
 16 19  1  0  0  0  0
 17 34  1  0  0  0  0
 17 35  1  0  0  0  0
 17 36  1  0  0  0  0
 18 37  1  0  0  0  0
 18 38  1  0  0  0  0
 18 39  1  0  0  0  0
M  END
> <s_m_source_file>
AV-unprocessed.smi

> <i_m_source_file_index>
2485

> <i_lp_mmshare_version>
43012

> <i_f3d_flags>
0

> <s_epik_input>
W0NIM11DMShbQ0gzXSlbQ0gyXVtDQEhdKEMoTzEpKFtDSDNdKVtDSDNdKVtOSF1DKD1PKVtOSF1jMltjSF1bY0hdW2NIXW5uMg==

> <s_epik_cmdline>
J2VwaWtfcHl0aG9uJywgJy1waCcsICc3LjAnLCAnLXRuJywgJzgnLCAnLW1hJywgJzIwMCcsICctbWV0YWxfYmluZGluZycsICctaW1hZScsICc8aW5maWxlLm1hZT4nLCAnLW9tYWUnLCAnPG91dGZpbGUubWFlPic=

> <r_lp_tautomer_probability>
1

> <r_epik_Ionization_Penalty>
0.00480341

> <r_epik_Ionization_Penalty_Charging>
0

> <r_epik_Ionization_Penalty_Neutral>
0.00480341

> <r_epik_State_Penalty>
-0

> <r_epik_Charging_Adjusted_Penalty>
0

> <i_epik_Tot_Q>
0

> <i_epik_Tot_abs_Q>
0

> <r_epik_Metal_State_Penalty>
-0

> <b_epik_Metal_Only>
0

> <s_lp_Force_Field>
OPLS_2005

> <r_lp_Energy>
24.1228

> <b_lp_Chiralities_Consistent>
1

> <s_lp_Variant>
AV-unprocessed.smi:2485-1

> <Gold.Version>
5.8.1

> <Gold.Id.Protein>
6NUR|6NUR_protein|mol2

> <Gold.PLP.Fitness>
34.5554

> <Gold.PLP.PLP>
-26.5945

> <Gold.PLP.part.hbond>
-1.7298

> <Gold.PLP.part.metal>
0.0000

> <Gold.PLP.part.buried>
0.8823

> <Gold.PLP.part.nonpolar>
-26.8377

> <Gold.PLP.part.repulsive>
0.5585

> <Gold.PLP.ligand.clash>
0.0000

> <Gold.PLP.ligand.torsion>
0.0105

> <Gold.PLP.Chemscore.Hbond>
1.8703

> <Gold.PLP.Chemscore.CHOScore>
0.7867

> <Gold.PLP.Chemscore.Metal>
0.0000

> <Gold.Chemscore.Hbonds>
donor molecule, donor type, donor heavy atom, donor atom, acceptor molecule, acceptor atom, score
      L1  H     6    29       P1  7948  0.89
      L1  H     9    30       P1  7948  0.94
      L1  C    13    33       P1  8028  0.72

> <Gold.PLP.Chemscore.Internal.Correction>
0.0111

> <Gold.Rescore>
     Score         DG    S(hbond)    S(metal)    S(lipo)     H(rot)  DE(clash)    DE(int)     intcor
     15.87     -17.39       1.96        0.00      67.65       1.00       0.09       1.43       ----

> <Gold.Chemscore.Fitness>
15.8689

> <Gold.Chemscore.DG>
-17.3863

> <Gold.Chemscore.ZeroCoef>
-5.4800

> <Gold.Chemscore.Hbond>
1.9614

> <Gold.Chemscore.Metal>
0.0000

> <Gold.Chemscore.Lipo>
67.6522

> <Gold.Chemscore.Internal_Hbond>
0.0000

> <Gold.Chemscore.DEClash>
0.0881

> <Gold.Chemscore.DEInternal>
1.4293

> <Gold.Chemscore.Rot>
1.0000

> <Gold.Chemscore.Internal.Correction>
   9.000000E+99

> <Gold.Chemscore.Hbonds>
donor molecule, donor type, donor heavy atom, donor atom, acceptor molecule, acceptor atom, score
      L1  H     6    29       P1  7948  0.86
      L1  H     9    30       P1  7948  0.91

> <Gold.Chemscore.Hbond.Weighted>
-6.5510

> <Gold.Chemscore.Metal.Weighted>
-0.0000

> <Gold.Chemscore.Lipo.Weighted>
-7.9153

> <Gold.Chemscore.Internal_Hbond.Weighted>
0.0000

> <Gold.Chemscore.DEClash.Weighted>
0.0881

> <Gold.Chemscore.DEInternal.Weighted>
1.4293

> <Gold.Chemscore.Rot.Weighted>
2.5600

> <Gold.Chemscore.Internal.Correction.Weighted>
   9.000000E+99

> <Gold.Protein.RotatedTorsions>
[ 6907 6896 6895 6894 ] final  -15.16 input  -60.11 | X-H torsion
[ 7974 7965 7964 7962 ] final -138.67 input  175.53 | X-H torsion
[ 8008 7997 7996 7995 ] final  172.00 input   59.86 | X-H torsion
[ 10167 10162 10161 10158 ] final  -10.21 input  -65.29 | X-H torsion
[ 10718 10713 10712 10709 ] final  170.80 input   66.30 | X-H torsion
[ 10763 10752 10751 10750 ] final  -10.41 input  -60.55 | X-H torsion
[ 11005 11000 10999 10996 ] final -152.66 input  -57.11 | X-H torsion

> <Gold.Protein.ActiveResidues>
 VAL166  LYS551  ARG553  GLY616  TRP617  ASP618  TYR619  PRO620  LYS621  CYS622 
 ASP623  PHE694  ASN695  SER759  ASP760  ASP761  ALA762  ILE779  LEU786  VAL792 
 PHE793  MET794  SER795  GLU796  ALA797  LYS798  CYS799  TRP800  GLU811  SER814 

> <Gold.Protein.RotatedAtoms>
  151.3282  135.0835  159.9329 H   0  0  0  0  0  0  0  0  0  0  0  0  # atno 6907 bound_to 6896
  152.5241  133.9569  159.7709 H   0  0  0  0  0  0  0  0  0  0  0  0  # atno 6908 bound_to 6896
  150.9903  133.6103  159.2739 H   0  0  0  0  0  0  0  0  0  0  0  0  # atno 6909 bound_to 6896
  144.8740  140.6409  143.5249 H   0  0  0  0  0  0  0  0  0  0  0  0  # atno 7974 bound_to 7965
  156.1216  140.1497  156.9195 H   0  0  0  0  0  0  0  0  0  0  0  0  # atno 8008 bound_to 7997
  154.4840  140.0870  156.7486 H   0  0  0  0  0  0  0  0  0  0  0  0  # atno 8009 bound_to 7997
  155.4417  140.3431  155.4293 H   0  0  0  0  0  0  0  0  0  0  0  0  # atno 8010 bound_to 7997
  140.7108  143.5773  150.9028 H   0  0  0  0  0  0  0  0  0  0  0  0  # atno 10167 bound_to 10162
  157.0029  131.0181  151.2825 H   0  0  0  0  0  0  0  0  0  0  0  0  # atno 10718 bound_to 10713
  153.4688  135.7016  153.6006 H   0  0  0  0  0  0  0  0  0  0  0  0  # atno 10763 bound_to 10752
  153.4268  135.3812  155.2146 H   0  0  0  0  0  0  0  0  0  0  0  0  # atno 10764 bound_to 10752
  154.8725  135.3941  154.4123 H   0  0  0  0  0  0  0  0  0  0  0  0  # atno 10765 bound_to 10752
  140.7164  134.3775  157.5190 H   0  0  0  0  0  0  0  0  0  0  0  0  # atno 11005 bound_to 11000
  145.4078  139.1585  143.4142 LP  0  0  0  0  0  0  0  0  0  0  0  0  # atno 17320 bound_to 7965
  146.2950  140.4180  142.8725 LP  0  0  0  0  0  0  0  0  0  0  0  0  # atno 17321 bound_to 7965
  139.9499  143.6284  152.3031 LP  0  0  0  0  0  0  0  0  0  0  0  0  # atno 17342 bound_to 10162
  139.6799  144.7656  151.1628 LP  0  0  0  0  0  0  0  0  0  0  0  0  # atno 17343 bound_to 10162
  157.5377  130.8099  149.7991 LP  0  0  0  0  0  0  0  0  0  0  0  0  # atno 17370 bound_to 10713
  156.0164  130.3812  150.2096 LP  0  0  0  0  0  0  0  0  0  0  0  0  # atno 17371 bound_to 10713
  139.8859  134.8925  156.2618 LP  0  0  0  0  0  0  0  0  0  0  0  0  # atno 17394 bound_to 11000
  141.0040  133.7134  156.1006 LP  0  0  0  0  0  0  0  0  0  0  0  0  # atno 17395 bound_to 11000

$$$$
