AV-unprocessed.smi:1211|AV-procd|sdf|5081|dock1
  -GOLD-   22720 4133D 1   1.00000     0.00000
 Structure written by MMmdl.
 48 50  0  0  0  0  0  0  0  0  2 V2000
  147.8098  133.0097  152.4108 C   0  0  0  0  0  0  0  0  0  0  0  0
  146.4105  132.9417  151.8200 C   0  0  0  0  0  0  0  0  0  0  0  0
  145.8140  131.6816  151.6011 C   0  0  0  0  0  0  0  0  0  0  0  0
  144.5209  131.6205  151.0539 C   0  0  0  0  0  0  0  0  0  0  0  0
  143.8746  132.8300  150.7469 C   0  0  0  0  0  0  0  0  0  0  0  0
  144.4368  134.0384  150.9534 N   0  0  0  0  0  0  0  0  0  0  0  0
  145.6853  134.1149  151.4789 C   0  0  0  0  0  0  0  0  0  0  0  0
  146.3402  135.3549  151.7244 N   0  0  0  0  0  0  0  0  0  0  0  0
  145.7890  136.5552  151.9762 C   0  0  0  0  0  0  0  0  0  0  0  0
  144.5819  136.7927  152.0147 O   0  0  0  0  0  0  0  0  0  0  0  0
  146.7310  137.4858  152.1873 N   0  0  0  0  0  0  0  0  0  0  0  0
  146.4779  138.8984  152.4709 C   0  0  0  0  0  0  0  0  0  0  0  0
  146.5343  139.2500  153.9926 C   0  0  2  0  0  0  0  0  0  0  0  0
  145.1278  139.2483  154.5426 N   0  3  0  0  0  0  0  0  0  0  0  0
  144.4725  137.9098  154.5478 C   0  0  0  0  0  0  0  0  0  0  0  0
  142.9921  138.0251  154.9393 C   0  0  0  0  0  0  0  0  0  0  0  0
  142.8965  138.6165  156.2261 O   0  0  0  0  0  0  0  0  0  0  0  0
  143.4182  139.9369  156.2305 C   0  0  0  0  0  0  0  0  0  0  0  0
  144.9104  139.9250  155.8522 C   0  0  0  0  0  0  0  0  0  0  0  0
  147.2765  140.6006  154.2007 C   0  0  0  0  0  0  0  0  0  0  0  0
  148.7610  140.3952  153.8852 C   0  0  0  0  0  0  0  0  0  0  0  0
  149.1826  138.7173  154.4151 S   0  0  0  0  0  0  0  0  0  0  0  0
  147.4574  138.2457  154.7223 C   0  0  0  0  0  0  0  0  0  0  0  0
  148.2048  132.0135  152.6128 H   0  0  0  0  0  0  0  0  0  0  0  0
  147.8015  133.5632  153.3501 H   0  0  0  0  0  0  0  0  0  0  0  0
  148.4918  133.5065  151.7200 H   0  0  0  0  0  0  0  0  0  0  0  0
  146.3386  130.7703  151.8482 H   0  0  0  0  0  0  0  0  0  0  0  0
  144.0374  130.6720  150.8736 H   0  0  0  0  0  0  0  0  0  0  0  0
  142.8803  132.8284  150.3247 H   0  0  0  0  0  0  0  0  0  0  0  0
  147.3483  135.3184  151.7079 H   0  0  0  0  0  0  0  0  0  0  0  0
  147.6973  137.2028  152.1163 H   0  0  0  0  0  0  0  0  0  0  0  0
  147.2320  139.4637  151.9249 H   0  0  0  0  0  0  0  0  0  0  0  0
  145.5390  139.2104  152.0138 H   0  0  0  0  0  0  0  0  0  0  0  0
  144.5358  137.4379  153.5689 H   0  0  0  0  0  0  0  0  0  0  0  0
  144.9745  137.2476  155.2541 H   0  0  0  0  0  0  0  0  0  0  0  0
  142.4352  138.6106  154.2058 H   0  0  0  0  0  0  0  0  0  0  0  0
  142.5341  137.0361  154.9719 H   0  0  0  0  0  0  0  0  0  0  0  0
  142.8498  140.5647  155.5422 H   0  0  0  0  0  0  0  0  0  0  0  0
  143.2887  140.3631  157.2255 H   0  0  0  0  0  0  0  0  0  0  0  0
  145.4922  139.4296  156.6303 H   0  0  0  0  0  0  0  0  0  0  0  0
  145.2266  140.9662  155.8111 H   0  0  0  0  0  0  0  0  0  0  0  0
  146.8453  141.4216  153.6292 H   0  0  0  0  0  0  0  0  0  0  0  0
  147.2521  140.9022  155.2470 H   0  0  0  0  0  0  0  0  0  0  0  0
  148.9505  140.4887  152.8159 H   0  0  0  0  0  0  0  0  0  0  0  0
  149.3886  141.1292  154.3911 H   0  0  0  0  0  0  0  0  0  0  0  0
  147.3010  138.2945  155.8002 H   0  0  0  0  0  0  0  0  0  0  0  0
  147.2881  137.2127  154.4167 H   0  0  0  0  0  0  0  0  0  0  0  0
  144.6020  139.8055  153.8847 H   0  0  0  0  0  0  0  0  0  0  0  0
  1  2  1  0  0  0  0
  1 24  1  0  0  0  0
  1 25  1  0  0  0  0
  1 26  1  0  0  0  0
  2  7  1  0  0  0  0
  2  3  2  0  0  0  0
  3  4  1  0  0  0  0
  3 27  1  0  0  0  0
  4  5  2  0  0  0  0
  4 28  1  0  0  0  0
  5  6  1  0  0  0  0
  5 29  1  0  0  0  0
  6  7  2  0  0  0  0
  7  8  1  0  0  0  0
  8  9  1  0  0  0  0
  8 30  1  0  0  0  0
  9 10  2  0  0  0  0
  9 11  1  0  0  0  0
 11 12  1  0  0  0  0
 11 31  1  0  0  0  0
 12 13  1  0  0  0  0
 12 32  1  0  0  0  0
 12 33  1  0  0  0  0
 13 23  1  0  0  0  0
 13 14  1  0  0  0  0
 13 20  1  0  0  0  0
 14 19  1  0  0  0  0
 14 15  1  0  0  0  0
 14 48  1  0  0  0  0
 15 16  1  0  0  0  0
 15 34  1  0  0  0  0
 15 35  1  0  0  0  0
 16 17  1  0  0  0  0
 16 36  1  0  0  0  0
 16 37  1  0  0  0  0
 17 18  1  0  0  0  0
 18 19  1  0  0  0  0
 18 38  1  0  0  0  0
 18 39  1  0  0  0  0
 19 40  1  0  0  0  0
 19 41  1  0  0  0  0
 20 21  1  0  0  0  0
 20 42  1  0  0  0  0
 20 43  1  0  0  0  0
 21 22  1  0  0  0  0
 21 44  1  0  0  0  0
 21 45  1  0  0  0  0
 22 23  1  0  0  0  0
 23 46  1  0  0  0  0
 23 47  1  0  0  0  0
M  CHG  1  14   1
M  END
> <s_m_source_file>
AV-unprocessed.smi

> <i_m_source_file_index>
1211

> <i_lp_mmshare_version>
43012

> <i_f3d_flags>
0

> <s_epik_input>
W0NIM11jMVtjSF1bY0hdW2NIXW5jMVtOSF1DKD1PKVtOSF1bQ0gyXVtDQF0yKFtDSDJdW0NIMl1TW0NIMl0yKU4zW0NIMl1bQ0gyXU9bQ0gyXVtDSDJdMw==

> <s_epik_cmdline>
J2VwaWtfcHl0aG9uJywgJy1waCcsICc3LjAnLCAnLXRuJywgJzgnLCAnLW1hJywgJzIwMCcsICctbWV0YWxfYmluZGluZycsICctaW1hZScsICc8aW5maWxlLm1hZT4nLCAnLW9tYWUnLCAnPG91dGZpbGUubWFlPic=

> <r_epik_Ionization_Penalty>
2.03223

> <r_epik_Ionization_Penalty_Charging>
2.03219

> <r_epik_Ionization_Penalty_Neutral>
4.05816e-05

> <r_epik_State_Penalty>
2.16328

> <r_epik_Charging_Adjusted_Penalty>
4.19546

> <i_epik_Tot_Q>
1

> <i_epik_Tot_abs_Q>
1

> <r_epik_Metal_State_Penalty>
2.16328

> <b_epik_Metal_Only>
0

> <s_lp_Force_Field>
OPLS_2005

> <r_lp_Energy>
45.9337

> <b_lp_Chiralities_Consistent>
1

> <s_lp_Variant>
AV-unprocessed.smi:1211-4

> <Gold.Version>
5.8.1

> <Gold.Id.Protein>
6NUR|6NUR_protein|mol2

> <Gold.PLP.Fitness>
42.5013

> <Gold.PLP.PLP>
-30.2479

> <Gold.PLP.part.hbond>
-3.0000

> <Gold.PLP.part.metal>
0.0000

> <Gold.PLP.part.buried>
-3.5469

> <Gold.PLP.part.nonpolar>
-26.7443

> <Gold.PLP.part.repulsive>
2.0003

> <Gold.PLP.ligand.clash>
0.2093

> <Gold.PLP.ligand.torsion>
1.3273

> <Gold.PLP.Chemscore.Hbond>
3.9760

> <Gold.PLP.Chemscore.CHOScore>
1.0000

> <Gold.PLP.Chemscore.Metal>
0.0000

> <Gold.Chemscore.Hbonds>
donor molecule, donor type, donor heavy atom, donor atom, acceptor molecule, acceptor atom, score
      L1  H     8    30       P1  7948  0.98
      L1  H    11    31       P1  7948  1.00
      L1  H    14    48       P1 10175  2.00
      L1  C     5    29       P1 10186  0.89

> <Gold.PLP.Chemscore.Internal.Correction>
0.1892

> <Gold.Rescore>
     Score         DG    S(hbond)    S(metal)    S(lipo)     H(rot)  DE(clash)    DE(int)     intcor
     14.82     -20.03       2.90        0.00      73.90       1.48       1.32       3.89       ----

> <Gold.Chemscore.Fitness>
14.8213

> <Gold.Chemscore.DG>
-20.0299

> <Gold.Chemscore.ZeroCoef>
-5.4800

> <Gold.Chemscore.Hbond>
2.9033

> <Gold.Chemscore.Metal>
0.0000

> <Gold.Chemscore.Lipo>
73.9037

> <Gold.Chemscore.Internal_Hbond>
0.0000

> <Gold.Chemscore.DEClash>
1.3173

> <Gold.Chemscore.DEInternal>
3.8914

> <Gold.Chemscore.Rot>
1.4820

> <Gold.Chemscore.Internal.Correction>
   9.000000E+99

> <Gold.Chemscore.Hbonds>
donor molecule, donor type, donor heavy atom, donor atom, acceptor molecule, acceptor atom, score
      L1  H     8    30       P1  7948  0.89
      L1  H    11    31       P1  7948  0.97
      L1  H    14    48       P1 10175  1.00

> <Gold.Chemscore.Hbond.Weighted>
-9.6971

> <Gold.Chemscore.Metal.Weighted>
-0.0000

> <Gold.Chemscore.Lipo.Weighted>
-8.6467

> <Gold.Chemscore.Internal_Hbond.Weighted>
0.0000

> <Gold.Chemscore.DEClash.Weighted>
1.3173

> <Gold.Chemscore.DEInternal.Weighted>
3.8914

> <Gold.Chemscore.Rot.Weighted>
3.7939

> <Gold.Chemscore.Internal.Correction.Weighted>
   9.000000E+99

> <Gold.Protein.RotatedTorsions>
[ 6907 6896 6895 6894 ] final  110.21 input  -60.11 | X-H torsion
[ 7974 7965 7964 7962 ] final  -25.07 input  175.53 | X-H torsion
[ 8008 7997 7996 7995 ] final  -12.83 input   59.86 | X-H torsion
[ 10167 10162 10161 10158 ] final -117.60 input  -65.29 | X-H torsion
[ 10718 10713 10712 10709 ] final  -85.83 input   66.30 | X-H torsion
[ 10763 10752 10751 10750 ] final  101.88 input  -60.55 | X-H torsion
[ 11005 11000 10999 10996 ] final   92.15 input  -57.11 | X-H torsion

> <Gold.Protein.ActiveResidues>
 VAL166  LYS551  ARG553  GLY616  TRP617  ASP618  TYR619  PRO620  LYS621  CYS622 
 ASP623  PHE694  ASN695  SER759  ASP760  ASP761  ALA762  ILE779  LEU786  VAL792 
 PHE793  MET794  SER795  GLU796  ALA797  LYS798  CYS799  TRP800  GLU811  SER814 

> <Gold.Protein.RotatedAtoms>
  152.5030  133.8833  159.7356 H   0  0  0  0  0  0  0  0  0  0  0  0  # atno 6907 bound_to 6896
  150.9290  133.6781  159.2822 H   0  0  0  0  0  0  0  0  0  0  0  0  # atno 6908 bound_to 6896
  151.4132  135.0992  159.9644 H   0  0  0  0  0  0  0  0  0  0  0  0  # atno 6909 bound_to 6896
  146.1514  140.4837  142.8609 H   0  0  0  0  0  0  0  0  0  0  0  0  # atno 7974 bound_to 7965
  154.5344  140.2265  155.8749 H   0  0  0  0  0  0  0  0  0  0  0  0  # atno 8008 bound_to 7997
  156.1796  140.3103  155.9087 H   0  0  0  0  0  0  0  0  0  0  0  0  # atno 8009 bound_to 7997
  155.3386  140.0449  157.3035 H   0  0  0  0  0  0  0  0  0  0  0  0  # atno 8010 bound_to 7997
  140.0666  143.4917  152.2003 H   0  0  0  0  0  0  0  0  0  0  0  0  # atno 10167 bound_to 10162
  155.9994  130.4744  150.4622 H   0  0  0  0  0  0  0  0  0  0  0  0  # atno 10718 bound_to 10713
  153.3324  135.4029  155.1506 H   0  0  0  0  0  0  0  0  0  0  0  0  # atno 10763 bound_to 10752
  154.8626  135.3614  154.5453 H   0  0  0  0  0  0  0  0  0  0  0  0  # atno 10764 bound_to 10752
  153.5892  135.7074  153.5489 H   0  0  0  0  0  0  0  0  0  0  0  0  # atno 10765 bound_to 10752
  139.8828  134.8716  156.3531 H   0  0  0  0  0  0  0  0  0  0  0  0  # atno 11005 bound_to 11000
  144.7909  140.6030  143.6542 LP  0  0  0  0  0  0  0  0  0  0  0  0  # atno 17320 bound_to 7965
  145.4813  139.1495  143.3760 LP  0  0  0  0  0  0  0  0  0  0  0  0  # atno 17321 bound_to 7965
  139.5861  144.7531  151.3516 LP  0  0  0  0  0  0  0  0  0  0  0  0  # atno 17342 bound_to 10162
  140.7146  143.7300  150.7630 LP  0  0  0  0  0  0  0  0  0  0  0  0  # atno 17343 bound_to 10162
  157.2645  131.0574  151.2299 LP  0  0  0  0  0  0  0  0  0  0  0  0  # atno 17370 bound_to 10713
  157.3402  130.7029  149.6377 LP  0  0  0  0  0  0  0  0  0  0  0  0  # atno 17371 bound_to 10713
  140.9581  133.7407  156.0363 LP  0  0  0  0  0  0  0  0  0  0  0  0  # atno 17394 bound_to 11000
  140.8024  134.3494  157.5435 LP  0  0  0  0  0  0  0  0  0  0  0  0  # atno 17395 bound_to 11000

$$$$
