#       Name:                AV-unprocessed.smi:1362
#       Creating user name   scv26
#       Creation time:       Fri Mar 27 05:15:39 2020


#       File generated by GOLD software.
#

@<TRIPOS>MOLECULE
AV-unprocessed.smi:1362
    44    44     1
SMALL
NO_CHARGES


@<TRIPOS>ATOM
      1 ****        -4.5630   4.0080  -1.7891 C.3            1 S1                 0.0000
      2 ****        -3.7461   2.9209  -1.1241 C.2            1 S1                 0.0000
      3 ****        -3.0873   2.1011  -1.8511 N.2            1 S1                 0.0000
      4 ****        -2.3282   1.0896  -1.2383 C.2            1 S1                 0.0000
      5 ****        -1.5813   0.1582  -2.1777 C.3            1 S1                 0.0000
      6 ****        -2.2793   0.9683   0.1194 C.2            1 S1                 0.0000
      7 ****        -1.4721  -0.1170   0.8314 C.3            1 S1                 0.0000
      8 ****         0.0296   0.1456   0.9678 C.2            1 S1                 0.0000
      9 ****         0.4618   1.2973   1.0217 O.2            1 S1                 0.0000
     10 ****         0.8157  -0.9409   1.0180 N.am           1 S1                 0.0000
     11 ****         2.2751  -0.9349   1.1089 C.3            1 S1                 0.0000
     12 ****         2.6818  -0.8237   2.5908 C.3            1 S1                 0.0000
     13 ****         2.8572  -2.1887   0.4036 C.3            1 S1                 0.0000
     14 ****         4.3963  -2.2149   0.4278 C.3            1 S1                 0.0000
     15 ****         2.3660  -2.3212  -1.0518 C.3            1 S1                 0.0000
     16 ****        -3.0482   1.9369   0.9212 C.2            1 S1                 0.0000
     17 ****        -3.0275   1.8818   2.1503 O.2            1 S1                 0.0000
     18 ****        -3.7679   2.8821   0.2519 N.pl3          1 S1                -1.0000
     19 ****        -4.3072   4.1001  -2.8455 H              1 S1                 0.0000
     20 ****        -4.3798   4.9705  -1.3103 H              1 S1                 0.0000
     21 ****        -5.6262   3.7793  -1.7112 H              1 S1                 0.0000
     22 ****        -1.9490  -0.8629  -2.0760 H              1 S1                 0.0000
     23 ****        -0.5130   0.1669  -1.9601 H              1 S1                 0.0000
     24 ****        -1.7121   0.4594  -3.2178 H              1 S1                 0.0000
     25 ****        -1.8751  -0.3119   1.8254 H              1 S1                 0.0000
     26 ****        -1.6132  -1.0525   0.2892 H              1 S1                 0.0000
     27 ****         0.3691  -1.8449   0.9682 H              1 S1                 0.0000
     28 ****         2.6524  -0.0539   0.5858 H              1 S1                 0.0000
     29 ****         3.7573  -0.6937   2.7066 H              1 S1                 0.0000
     30 ****         2.3873  -1.7114   3.1515 H              1 S1                 0.0000
     31 ****         2.2104   0.0378   3.0648 H              1 S1                 0.0000
     32 ****         2.5089  -3.0712   0.9425 H              1 S1                 0.0000
     33 ****         4.8152  -1.3217  -0.0369 H              1 S1                 0.0000
     34 ****         4.7820  -3.0800  -0.1124 H              1 S1                 0.0000
     35 ****         4.7863  -2.2801   1.4430 H              1 S1                 0.0000
     36 ****         2.6449  -1.4483  -1.6428 H              1 S1                 0.0000
     37 ****         1.2829  -2.4296  -1.1105 H              1 S1                 0.0000
     38 ****         2.7981  -3.1990  -1.5331 H              1 S1                 0.0000
     39 ****        -3.1120   2.1790  -2.8478 LP             1 S1                 0.0000
     40 ****        -0.1701   2.0711   0.9763 LP             1 S1                 0.0000
     41 ****         1.4446   1.4588   1.1108 LP             1 S1                 0.0000
     42 ****        -2.4871   1.1772   2.6102 LP             1 S1                 0.0000
     43 ****        -3.5512   2.5416   2.6892 LP             1 S1                 0.0000
     44 ****        -4.3125   3.5482   0.7614 LP             1 S1                 0.0000
@<TRIPOS>BOND
    1    1    2 1     
    2    1   19 1     
    3    1   20 1     
    4    1   21 1     
    5    2   18 1     
    6    2    3 2     
    7    3    4 1     
    8    4    5 1     
    9    4    6 2     
   10    5   22 1     
   11    5   23 1     
   12    5   24 1     
   13    6    7 1     
   14    6   16 1     
   15    7    8 1     
   16    7   25 1     
   17    7   26 1     
   18    8    9 2     
   19    8   10 am    
   20   10   11 1     
   21   10   27 1     
   22   11   12 1     
   23   11   13 1     
   24   11   28 1     
   25   12   29 1     
   26   12   30 1     
   27   12   31 1     
   28   13   14 1     
   29   13   15 1     
   30   13   32 1     
   31   14   33 1     
   32   14   34 1     
   33   14   35 1     
   34   15   36 1     
   35   15   37 1     
   36   15   38 1     
   37   16   17 2     
   38   16   18 1     
   39    3   39 1     
   40    9   40 1     
   41    9   41 1     
   42   17   42 1     
   43   17   43 1     
   44   18   44 1     
@<TRIPOS>SUBSTRUCTURE
      1 S1             1
@<TRIPOS>SET
LONE_PAIRS      STATIC     ATOMS    <user>   **** ""
6 39 40 41 42 43 44
DONOR_HYDROGENS      STATIC     ATOMS    <user>   **** ""
1 27
ATOM$BLUE        STATIC     ATOMS    COLORGROUP SYSTEM
6 39 40 41 42 43 44
ATOM$RED        STATIC     ATOMS    COLORGROUP SYSTEM
1 27
