AV-unprocessed.smi:48|AV-procd|sdf|462|dock6
  -GOLD-   2262016333D 1   1.00000     0.00000
 Structure written by MMmdl.
 30 32  0  0  0  0  0  0  0  0  1 V2000
  150.3052  139.9326  153.9331 O   0  0  0  0  0  0  0  0  0  0  0  0
  149.4360  139.7246  155.0257 C   0  0  0  0  0  0  0  0  0  0  0  0
  149.4205  140.9652  155.9315 C   0  0  2  0  0  0  0  0  0  0  0  0
  150.7301  141.2161  156.4263 O   0  0  0  0  0  0  0  0  0  0  0  0
  150.6488  141.9723  157.5942 C   0  0  2  0  0  0  0  0  0  0  0  0
  151.6780  141.4558  158.5460 N   0  0  0  0  0  0  0  0  0  0  0  0
  152.4763  140.3806  158.3858 C   0  0  0  0  0  0  0  0  0  0  0  0
  153.3251  140.0937  159.3720 N   0  0  0  0  0  0  0  0  0  0  0  0
  153.0377  141.0957  160.2840 C   0  0  0  0  0  0  0  0  0  0  0  0
  153.5578  141.4066  161.5639 C   0  0  0  0  0  0  0  0  0  0  0  0
  154.8052  140.4478  162.2724 Cl  0  0  0  0  0  0  0  0  0  0  0  0
  153.0534  142.4772  162.2226 N   0  0  0  0  0  0  0  0  0  0  0  0
  152.0861  143.2035  161.6495 C   0  0  0  0  0  0  0  0  0  0  0  0
  151.5030  143.0346  160.4573 N   0  0  0  0  0  0  0  0  0  0  0  0
  152.0129  141.9548  159.7944 C   0  0  0  0  0  0  0  0  0  0  0  0
  149.2299  141.8074  158.1656 C   0  0  1  0  0  0  0  0  0  0  0  0
  148.5302  143.0383  158.1356 O   0  0  0  0  0  0  0  0  0  0  0  0
  148.6212  140.7711  157.2211 C   0  0  1  0  0  0  0  0  0  0  0  0
  147.2264  140.9248  157.0336 O   0  0  0  0  0  0  0  0  0  0  0  0
  149.0567  141.8462  155.3987 H   0  0  0  0  0  0  0  0  0  0  0  0
  150.9307  143.0095  157.4051 H   0  0  0  0  0  0  0  0  0  0  0  0
  149.2551  141.4447  159.1942 H   0  0  0  0  0  0  0  0  0  0  0  0
  148.8061  139.7728  157.6182 H   0  0  0  0  0  0  0  0  0  0  0  0
  149.7885  139.9838  153.1436 H   0  0  0  0  0  0  0  0  0  0  0  0
  148.4401  139.5436  154.6205 H   0  0  0  0  0  0  0  0  0  0  0  0
  149.7273  138.8318  155.5801 H   0  0  0  0  0  0  0  0  0  0  0  0
  152.4347  139.7741  157.4928 H   0  0  0  0  0  0  0  0  0  0  0  0
  151.7284  144.0425  162.2278 H   0  0  0  0  0  0  0  0  0  0  0  0
  148.5847  143.3952  157.2625 H   0  0  0  0  0  0  0  0  0  0  0  0
  147.0817  141.3596  156.2073 H   0  0  0  0  0  0  0  0  0  0  0  0
  1  2  1  0  0  0  0
  1 24  1  0  0  0  0
  2  3  1  0  0  0  0
  2 25  1  0  0  0  0
  2 26  1  0  0  0  0
  3 20  1  0  0  0  0
  3 18  1  0  0  0  0
  3  4  1  0  0  0  0
  4  5  1  0  0  0  0
  5 21  1  0  0  0  0
  5  6  1  0  0  0  0
  5 16  1  0  0  0  0
  6 15  1  0  0  0  0
  6  7  1  0  0  0  0
  7  8  2  0  0  0  0
  7 27  1  0  0  0  0
  8  9  1  0  0  0  0
  9 15  2  0  0  0  0
  9 10  1  0  0  0  0
 10 11  1  0  0  0  0
 10 12  2  0  0  0  0
 12 13  1  0  0  0  0
 13 14  2  0  0  0  0
 13 28  1  0  0  0  0
 14 15  1  0  0  0  0
 16 22  1  0  0  0  0
 16 17  1  0  0  0  0
 16 18  1  0  0  0  0
 17 29  1  0  0  0  0
 18 23  1  0  0  0  0
 18 19  1  0  0  0  0
 19 30  1  0  0  0  0
M  END
> <s_m_source_file>
AV-unprocessed.smi

> <i_m_source_file_index>
48

> <i_lp_mmshare_version>
43012

> <i_f3d_flags>
0

> <s_epik_input>
W09IXVtDSDJdW0NASF0xT1tDQEhdKFtDQEhdKFtPSF0pW0NAQEhdMVtPSF0pbihbY0hdbjIpYyhjMjMpbltjSF1uYzNDbA==

> <s_epik_cmdline>
J2VwaWtfcHl0aG9uJywgJy1waCcsICc3LjAnLCAnLXRuJywgJzgnLCAnLW1hJywgJzIwMCcsICctbWV0YWxfYmluZGluZycsICctaW1hZScsICc8aW5maWxlLm1hZT4nLCAnLW9tYWUnLCAnPG91dGZpbGUubWFlPic=

> <r_lp_tautomer_probability>
1

> <r_epik_Ionization_Penalty>
3.45505e-06

> <r_epik_Ionization_Penalty_Charging>
0

> <r_epik_Ionization_Penalty_Neutral>
3.45505e-06

> <r_epik_State_Penalty>
-0

> <r_epik_Charging_Adjusted_Penalty>
0

> <i_epik_Tot_Q>
0

> <i_epik_Tot_abs_Q>
0

> <r_epik_Metal_State_Penalty>
-0

> <b_epik_Metal_Only>
0

> <s_epik_Chemistry_Notes>
This compound contains an acetal/aminal-like group ( X-CH(R)-Y where X, Y are N, S, or O) that may be acid/base labile, releasing an aldehyde.

> <s_lp_Force_Field>
OPLS_2005

> <r_lp_Energy>
36.5243

> <b_lp_Chiralities_Consistent>
1

> <s_lp_Variant>
AV-unprocessed.smi:48-16

> <Gold.Version>
5.8.1

> <Gold.Id.Protein>
6NUR|6NUR_protein|mol2

> <Gold.PLP.Fitness>
42.4536

> <Gold.PLP.PLP>
-33.6241

> <Gold.PLP.part.hbond>
-4.1555

> <Gold.PLP.part.metal>
0.0000

> <Gold.PLP.part.buried>
-4.6846

> <Gold.PLP.part.nonpolar>
-24.5718

> <Gold.PLP.part.repulsive>
0.1677

> <Gold.PLP.ligand.clash>
0.0000

> <Gold.PLP.ligand.torsion>
0.0812

> <Gold.PLP.Chemscore.Hbond>
2.9920

> <Gold.PLP.Chemscore.CHOScore>
0.0000

> <Gold.PLP.Chemscore.Metal>
0.0000

> <Gold.Chemscore.Hbonds>
donor molecule, donor type, donor heavy atom, donor atom, acceptor molecule, acceptor atom, score
      L1  H     1    24       P1  7957  1.00
      L1  H    17    29       P1  8028  0.79
      P1  H  7989  7998       L1     1  0.94

> <Gold.PLP.Chemscore.Internal.Correction>
0.0159

> <Gold.Rescore>
     Score         DG    S(hbond)    S(metal)    S(lipo)     H(rot)  DE(clash)    DE(int)     intcor
      8.38      -8.43       2.24        0.00      44.45       3.80       0.04       0.01       ----

> <Gold.Chemscore.Fitness>
8.3759

> <Gold.Chemscore.DG>
-8.4302

> <Gold.Chemscore.ZeroCoef>
-5.4800

> <Gold.Chemscore.Hbond>
2.2402

> <Gold.Chemscore.Metal>
0.0000

> <Gold.Chemscore.Lipo>
44.4467

> <Gold.Chemscore.Internal_Hbond>
0.0000

> <Gold.Chemscore.DEClash>
0.0412

> <Gold.Chemscore.DEInternal>
0.0131

> <Gold.Chemscore.Rot>
3.8017

> <Gold.Chemscore.Internal.Correction>
   9.000000E+99

> <Gold.Chemscore.Hbonds>
donor molecule, donor type, donor heavy atom, donor atom, acceptor molecule, acceptor atom, score
      L1  H     1    24       P1  7957  0.92
      L1  H    17    29       P1  8028  0.15
      P1  H  7989  7998       L1     1  0.20

> <Gold.Chemscore.Hbond.Weighted>
-7.4823

> <Gold.Chemscore.Metal.Weighted>
-0.0000

> <Gold.Chemscore.Lipo.Weighted>
-5.2003

> <Gold.Chemscore.Internal_Hbond.Weighted>
0.0000

> <Gold.Chemscore.DEClash.Weighted>
0.0412

> <Gold.Chemscore.DEInternal.Weighted>
0.0131

> <Gold.Chemscore.Rot.Weighted>
9.7324

> <Gold.Chemscore.Internal.Correction.Weighted>
   9.000000E+99

> <Gold.Protein.RotatedTorsions>
[ 6907 6896 6895 6894 ] final  113.73 input  -60.11 | X-H torsion
[ 7974 7965 7964 7962 ] final  100.71 input  175.53 | X-H torsion
[ 8008 7997 7996 7995 ] final  151.74 input   59.86 | X-H torsion
[ 10167 10162 10161 10158 ] final    8.77 input  -65.29 | X-H torsion
[ 10718 10713 10712 10709 ] final   -0.61 input   66.30 | X-H torsion
[ 10763 10752 10751 10750 ] final -178.09 input  -60.55 | X-H torsion
[ 11005 11000 10999 10996 ] final  122.29 input  -57.11 | X-H torsion

> <Gold.Protein.ActiveResidues>
 VAL166  LYS551  ARG553  GLY616  TRP617  ASP618  TYR619  PRO620  LYS621  CYS622 
 ASP623  PHE694  ASN695  SER759  ASP760  ASP761  ALA762  ILE779  LEU786  VAL792 
 PHE793  MET794  SER795  GLU796  ALA797  LYS798  CYS799  TRP800  GLU811  SER814 

> <Gold.Protein.RotatedAtoms>
  152.4844  133.8335  159.7115 H   0  0  0  0  0  0  0  0  0  0  0  0  # atno 6907 bound_to 6896
  150.8919  133.7223  159.2909 H   0  0  0  0  0  0  0  0  0  0  0  0  # atno 6908 bound_to 6896
  151.4693  135.1048  159.9799 H   0  0  0  0  0  0  0  0  0  0  0  0  # atno 6909 bound_to 6896
  145.3820  139.2378  143.3398 H   0  0  0  0  0  0  0  0  0  0  0  0  # atno 7974 bound_to 7965
  156.2660  140.2039  156.6224 H   0  0  0  0  0  0  0  0  0  0  0  0  # atno 8008 bound_to 7997
  154.6747  140.0546  157.0227 H   0  0  0  0  0  0  0  0  0  0  0  0  # atno 8009 bound_to 7997
  155.1087  140.3213  155.4530 H   0  0  0  0  0  0  0  0  0  0  0  0  # atno 8010 bound_to 7997
  140.6295  143.8027  150.7276 H   0  0  0  0  0  0  0  0  0  0  0  0  # atno 10167 bound_to 10162
  156.8178  130.5446  149.5701 H   0  0  0  0  0  0  0  0  0  0  0  0  # atno 10718 bound_to 10713
  154.5521  135.2813  155.0999 H   0  0  0  0  0  0  0  0  0  0  0  0  # atno 10763 bound_to 10752
  154.2441  135.6351  153.5221 H   0  0  0  0  0  0  0  0  0  0  0  0  # atno 10764 bound_to 10752
  153.0005  135.5567  154.6090 H   0  0  0  0  0  0  0  0  0  0  0  0  # atno 10765 bound_to 10752
  139.9262  134.9641  156.8087 H   0  0  0  0  0  0  0  0  0  0  0  0  # atno 11005 bound_to 11000
  146.2838  140.4489  142.8766 LP  0  0  0  0  0  0  0  0  0  0  0  0  # atno 17320 bound_to 7965
  144.8501  140.6988  143.6174 LP  0  0  0  0  0  0  0  0  0  0  0  0  # atno 17321 bound_to 7965
  140.1634  143.4255  152.2051 LP  0  0  0  0  0  0  0  0  0  0  0  0  # atno 17342 bound_to 10162
  139.5510  144.7338  151.4434 LP  0  0  0  0  0  0  0  0  0  0  0  0  # atno 17343 bound_to 10162
  156.1006  130.5966  150.9888 LP  0  0  0  0  0  0  0  0  0  0  0  0  # atno 17370 bound_to 10713
  157.6472  131.0902  150.8127 LP  0  0  0  0  0  0  0  0  0  0  0  0  # atno 17371 bound_to 10713
  140.6330  133.9888  155.7671 LP  0  0  0  0  0  0  0  0  0  0  0  0  # atno 17394 bound_to 11000
  141.0821  134.0047  157.3370 LP  0  0  0  0  0  0  0  0  0  0  0  0  # atno 17395 bound_to 11000

$$$$
