AV-unprocessed.smi:2682|AV-procd|sdf|10374|dock8
  -GOLD-   2272014403D 1   1.00000     0.00000
 Structure written by MMmdl.
 30 30  0  0  0  0  0  0  0  0  1 V2000
  152.7590  142.8646  161.3054 C   0  0  0  0  0  0  0  0  0  0  0  0
  151.3855  143.2119  161.2969 O   0  0  0  0  0  0  0  0  0  0  0  0
  151.1515  144.4784  160.7040 C   0  0  0  0  0  0  0  0  0  0  0  0
  151.5275  144.4160  159.2209 C   0  0  0  0  0  0  0  0  0  0  0  0
  150.8099  143.3592  158.6059 O   0  0  0  0  0  0  0  0  0  0  0  0
  151.3129  143.0324  157.3200 C   0  0  0  0  0  0  0  0  0  0  0  0
  150.4427  141.9357  156.7087 C   0  0  0  0  0  0  0  0  0  0  0  0
  150.4490  140.8150  157.2158 O   0  0  0  0  0  0  0  0  0  0  0  0
  149.7214  142.3039  155.6309 N   0  0  0  0  0  0  0  0  0  0  0  0
  148.8602  141.5440  154.8204 C   0  0  0  0  0  0  0  0  0  0  0  0
  147.6143  141.9242  154.4313 C   0  0  0  0  0  0  0  0  0  0  0  0
  146.7950  141.0649  153.6029 C   0  0  0  0  0  0  0  0  0  0  0  0
  147.2930  139.8758  153.2330 C   0  0  0  0  0  0  0  0  0  0  0  0
  148.5703  139.4798  153.6371 N   0  0  0  0  0  0  0  0  0  0  0  0
  149.3920  140.2310  154.4081 C   0  0  0  0  0  0  0  0  0  0  0  0
  150.5038  139.8069  154.7223 O   0  0  0  0  0  0  0  0  0  0  0  0
  152.8868  141.8868  161.7693 H   0  0  0  0  0  0  0  0  0  0  0  0
  153.3451  143.5869  161.8750 H   0  0  0  0  0  0  0  0  0  0  0  0
  153.1579  142.8113  160.2916 H   0  0  0  0  0  0  0  0  0  0  0  0
  150.0940  144.7285  160.8007 H   0  0  0  0  0  0  0  0  0  0  0  0
  151.7213  145.2599  161.2093 H   0  0  0  0  0  0  0  0  0  0  0  0
  151.3175  145.3687  158.7324 H   0  0  0  0  0  0  0  0  0  0  0  0
  152.5977  144.2272  159.1258 H   0  0  0  0  0  0  0  0  0  0  0  0
  151.2958  143.9064  156.6669 H   0  0  0  0  0  0  0  0  0  0  0  0
  152.3465  142.6895  157.3932 H   0  0  0  0  0  0  0  0  0  0  0  0
  149.7848  143.2784  155.3721 H   0  0  0  0  0  0  0  0  0  0  0  0
  147.1838  142.8648  154.7319 H   0  0  0  0  0  0  0  0  0  0  0  0
  145.8080  141.3737  153.2917 H   0  0  0  0  0  0  0  0  0  0  0  0
  146.7713  139.1567  152.6189 H   0  0  0  0  0  0  0  0  0  0  0  0
  148.8889  138.5729  153.3275 H   0  0  0  0  0  0  0  0  0  0  0  0
  1  2  1  0  0  0  0
  1 17  1  0  0  0  0
  1 18  1  0  0  0  0
  1 19  1  0  0  0  0
  2  3  1  0  0  0  0
  3  4  1  0  0  0  0
  3 20  1  0  0  0  0
  3 21  1  0  0  0  0
  4  5  1  0  0  0  0
  4 22  1  0  0  0  0
  4 23  1  0  0  0  0
  5  6  1  0  0  0  0
  6  7  1  0  0  0  0
  6 24  1  0  0  0  0
  6 25  1  0  0  0  0
  7  8  2  0  0  0  0
  7  9  1  0  0  0  0
  9 26  1  0  0  0  0
  9 10  1  0  0  0  0
 10 11  2  0  0  0  0
 10 15  1  0  0  0  0
 11 12  1  0  0  0  0
 11 27  1  0  0  0  0
 12 13  2  0  0  0  0
 12 28  1  0  0  0  0
 13 14  1  0  0  0  0
 13 29  1  0  0  0  0
 14 15  1  0  0  0  0
 14 30  1  0  0  0  0
 15 16  2  0  0  0  0
M  END
> <s_m_source_file>
AV-unprocessed.smi

> <i_m_source_file_index>
2682

> <i_lp_mmshare_version>
43012

> <i_f3d_flags>
0

> <s_epik_input>
W0NIM11PW0NIMl1bQ0gyXU9bQ0gyXUMoPU8pW05IXWMxW2NIXVtjSF1bY0hdbmMxW09IXQ==

> <s_epik_cmdline>
J2VwaWtfcHl0aG9uJywgJy1waCcsICc3LjAnLCAnLXRuJywgJzgnLCAnLW1hJywgJzIwMCcsICctbWV0YWxfYmluZGluZycsICctaW1hZScsICc8aW5maWxlLm1hZT4nLCAnLW9tYWUnLCAnPG91dGZpbGUubWFlPic=

> <r_lp_tautomer_probability>
1

> <r_epik_Ionization_Penalty>
0.000101939

> <r_epik_Ionization_Penalty_Charging>
0.000101884

> <r_epik_Ionization_Penalty_Neutral>
5.41789e-08

> <r_epik_State_Penalty>
-0

> <r_epik_Charging_Adjusted_Penalty>
0.000101884

> <i_epik_Tot_Q>
0

> <i_epik_Tot_abs_Q>
0

> <r_epik_Metal_State_Penalty>
0.0807852

> <b_epik_Metal_Only>
0

> <s_lp_Force_Field>
OPLS_2005

> <r_lp_Energy>
15.1735

> <b_lp_Chiralities_Consistent>
1

> <s_lp_Variant>
AV-unprocessed.smi:2682-1

> <Gold.Version>
5.8.1

> <Gold.Id.Protein>
6NUR|6NUR_protein|mol2

> <Gold.PLP.Fitness>
39.7760

> <Gold.PLP.PLP>
-34.6005

> <Gold.PLP.part.hbond>
-4.0000

> <Gold.PLP.part.metal>
0.0000

> <Gold.PLP.part.buried>
-5.2587

> <Gold.PLP.part.nonpolar>
-27.6145

> <Gold.PLP.part.repulsive>
0.6103

> <Gold.PLP.ligand.clash>
0.0000

> <Gold.PLP.ligand.torsion>
0.5062

> <Gold.PLP.Chemscore.Hbond>
2.0363

> <Gold.PLP.Chemscore.CHOScore>
0.0000

> <Gold.PLP.Chemscore.Metal>
0.0000

> <Gold.Chemscore.Hbonds>
donor molecule, donor type, donor heavy atom, donor atom, acceptor molecule, acceptor atom, score
      L1  H     9    26       P1  8028  0.75
      P1  H  6933  6945       L1     2  0.23
      P1  H  7989  7998       L1    16  1.00

> <Gold.PLP.Chemscore.Internal.Correction>
0.0789

> <Gold.Rescore>
     Score         DG    S(hbond)    S(metal)    S(lipo)     H(rot)  DE(clash)    DE(int)     intcor
     13.59     -16.10       2.50        0.00      66.87       2.17       0.04       2.46       ----

> <Gold.Chemscore.Fitness>
13.5935

> <Gold.Chemscore.DG>
-16.0972

> <Gold.Chemscore.ZeroCoef>
-5.4800

> <Gold.Chemscore.Hbond>
2.5030

> <Gold.Chemscore.Metal>
0.0000

> <Gold.Chemscore.Lipo>
66.8725

> <Gold.Chemscore.Internal_Hbond>
0.0000

> <Gold.Chemscore.DEClash>
0.0392

> <Gold.Chemscore.DEInternal>
2.4646

> <Gold.Chemscore.Rot>
2.1746

> <Gold.Chemscore.Internal.Correction>
   9.000000E+99

> <Gold.Chemscore.Hbonds>
donor molecule, donor type, donor heavy atom, donor atom, acceptor molecule, acceptor atom, score
      L1  H     9    26       P1  8028  0.76
      P1  H  6933  6945       L1     2  0.23
      P1  H  7989  7998       L1    16  0.25

> <Gold.Chemscore.Hbond.Weighted>
-8.3601

> <Gold.Chemscore.Metal.Weighted>
-0.0000

> <Gold.Chemscore.Lipo.Weighted>
-7.8241

> <Gold.Chemscore.Internal_Hbond.Weighted>
0.0000

> <Gold.Chemscore.DEClash.Weighted>
0.0392

> <Gold.Chemscore.DEInternal.Weighted>
2.4646

> <Gold.Chemscore.Rot.Weighted>
5.5669

> <Gold.Chemscore.Internal.Correction.Weighted>
   9.000000E+99

> <Gold.Protein.RotatedTorsions>
[ 6907 6896 6895 6894 ] final    1.32 input  -60.11 | X-H torsion
[ 7974 7965 7964 7962 ] final  174.13 input  175.53 | X-H torsion
[ 8008 7997 7996 7995 ] final -132.91 input   59.86 | X-H torsion
[ 10167 10162 10161 10158 ] final   31.67 input  -65.29 | X-H torsion
[ 10718 10713 10712 10709 ] final  -83.34 input   66.30 | X-H torsion
[ 10763 10752 10751 10750 ] final -144.91 input  -60.55 | X-H torsion
[ 11005 11000 10999 10996 ] final   17.25 input  -57.11 | X-H torsion

> <Gold.Protein.ActiveResidues>
 VAL166  LYS551  ARG553  GLY616  TRP617  ASP618  TYR619  PRO620  LYS621  CYS622 
 ASP623  PHE694  ASN695  SER759  ASP760  ASP761  ALA762  ILE779  LEU786  VAL792 
 PHE793  MET794  SER795  GLU796  ALA797  LYS798  CYS799  TRP800  GLU811  SER814 

> <Gold.Protein.RotatedAtoms>
  151.5907  135.1053  160.0038 H   0  0  0  0  0  0  0  0  0  0  0  0  # atno 6907 bound_to 6896
  152.4308  133.7270  159.6576 H   0  0  0  0  0  0  0  0  0  0  0  0  # atno 6908 bound_to 6896
  150.8200  133.8199  159.3166 H   0  0  0  0  0  0  0  0  0  0  0  0  # atno 6909 bound_to 6896
  144.7228  139.9751  143.6438 H   0  0  0  0  0  0  0  0  0  0  0  0  # atno 7974 bound_to 7965
  155.3367  140.0470  157.3044 H   0  0  0  0  0  0  0  0  0  0  0  0  # atno 8008 bound_to 7997
  154.5299  140.2253  155.8788 H   0  0  0  0  0  0  0  0  0  0  0  0  # atno 8009 bound_to 7997
  156.1778  140.3081  155.9097 H   0  0  0  0  0  0  0  0  0  0  0  0  # atno 8010 bound_to 7997
  140.4568  144.0966  150.6203 H   0  0  0  0  0  0  0  0  0  0  0  0  # atno 10167 bound_to 10162
  156.0020  130.4662  150.4242 H   0  0  0  0  0  0  0  0  0  0  0  0  # atno 10718 bound_to 10713
  154.8407  135.3427  154.6421 H   0  0  0  0  0  0  0  0  0  0  0  0  # atno 10763 bound_to 10752
  153.7032  135.6968  153.5062 H   0  0  0  0  0  0  0  0  0  0  0  0  # atno 10764 bound_to 10752
  153.2507  135.4354  155.0748 H   0  0  0  0  0  0  0  0  0  0  0  0  # atno 10765 bound_to 10752
  140.4381  134.1350  155.7687 H   0  0  0  0  0  0  0  0  0  0  0  0  # atno 11005 bound_to 11000
  146.0532  139.3531  143.0627 LP  0  0  0  0  0  0  0  0  0  0  0  0  # atno 17320 bound_to 7965
  145.8188  140.9689  143.0909 LP  0  0  0  0  0  0  0  0  0  0  0  0  # atno 17321 bound_to 7965
  140.4141  143.2642  151.9796 LP  0  0  0  0  0  0  0  0  0  0  0  0  # atno 17342 bound_to 10162
  139.4802  144.5889  151.7806 LP  0  0  0  0  0  0  0  0  0  0  0  0  # atno 17343 bound_to 10162
  157.2296  131.0501  151.2500 LP  0  0  0  0  0  0  0  0  0  0  0  0  # atno 17370 bound_to 10713
  157.3723  130.7188  149.6573 LP  0  0  0  0  0  0  0  0  0  0  0  0  # atno 17371 bound_to 10713
  141.1717  133.8595  157.1549 LP  0  0  0  0  0  0  0  0  0  0  0  0  # atno 17394 bound_to 11000
  140.0088  134.9997  157.0351 LP  0  0  0  0  0  0  0  0  0  0  0  0  # atno 17395 bound_to 11000

$$$$
