AV-unprocessed.smi:1198|AV-procd|sdf|5013|dock8
  -GOLD-   22720 4 33D 1   1.00000     0.00000
 Structure written by MMmdl.
 40 41  0  0  0  0  0  0  0  0  2 V2000
  154.0533  141.0932  161.7928 C   0  0  0  0  0  0  0  0  0  0  0  0
  153.7644  142.3737  161.2415 O   0  0  0  0  0  0  0  0  0  0  0  0
  152.9235  142.4416  160.1495 C   0  0  0  0  0  0  0  0  0  0  0  0
  152.3873  141.2449  159.6343 C   0  0  0  0  0  0  0  0  0  0  0  0
  151.5311  141.3102  158.5188 C   0  0  0  0  0  0  0  0  0  0  0  0
  151.2419  142.5649  157.9451 C   0  0  0  0  0  0  0  0  0  0  0  0
  150.3611  142.6022  156.8299 N   0  0  0  0  0  0  0  0  0  0  0  0
  150.0005  141.5953  156.0155 C   0  0  0  0  0  0  0  0  0  0  0  0
  150.3498  140.4215  156.1369 O   0  0  0  0  0  0  0  0  0  0  0  0
  149.1763  142.0227  155.0479 N   0  0  0  0  0  0  0  0  0  0  0  0
  148.6208  141.1918  153.9834 C   0  0  0  0  0  0  0  0  0  0  0  0
  147.1069  140.9566  154.1518 C   0  0  1  0  0  0  0  0  0  0  0  0
  146.7279  140.3503  155.5031 C   0  0  0  0  0  0  0  0  0  0  0  0
  145.2531  140.7258  155.6979 C   0  0  0  0  0  0  0  0  0  0  0  0
  144.9649  141.8248  154.7476 N   0  3  1  0  0  0  0  0  0  0  0  0
  144.1984  142.9504  155.3210 C   0  0  0  0  0  0  0  0  0  0  0  0
  146.2406  142.2178  154.1177 C   0  0  0  0  0  0  0  0  0  0  0  0
  151.8191  143.7110  158.5450 C   0  0  0  0  0  0  0  0  0  0  0  0
  152.6402  143.6548  159.6148 N   0  0  0  0  0  0  0  0  0  0  0  0
  154.7249  141.2088  162.6433 H   0  0  0  0  0  0  0  0  0  0  0  0
  154.5491  140.4485  161.0658 H   0  0  0  0  0  0  0  0  0  0  0  0
  153.1486  140.5997  162.1511 H   0  0  0  0  0  0  0  0  0  0  0  0
  152.6287  140.2944  160.0871 H   0  0  0  0  0  0  0  0  0  0  0  0
  151.1065  140.4053  158.1090 H   0  0  0  0  0  0  0  0  0  0  0  0
  149.9245  143.4954  156.6544 H   0  0  0  0  0  0  0  0  0  0  0  0
  148.9372  143.0036  155.0285 H   0  0  0  0  0  0  0  0  0  0  0  0
  148.8042  141.7040  153.0386 H   0  0  0  0  0  0  0  0  0  0  0  0
  149.1539  140.2414  153.9200 H   0  0  0  0  0  0  0  0  0  0  0  0
  146.7620  140.2806  153.3673 H   0  0  0  0  0  0  0  0  0  0  0  0
  146.8950  139.2735  155.5419 H   0  0  0  0  0  0  0  0  0  0  0  0
  147.3238  140.8051  156.2959 H   0  0  0  0  0  0  0  0  0  0  0  0
  144.6005  139.8842  155.4642 H   0  0  0  0  0  0  0  0  0  0  0  0
  145.0630  141.0141  156.7331 H   0  0  0  0  0  0  0  0  0  0  0  0
  144.7470  143.4261  156.1352 H   0  0  0  0  0  0  0  0  0  0  0  0
  143.2416  142.6004  155.7097 H   0  0  0  0  0  0  0  0  0  0  0  0
  143.9979  143.7022  154.5571 H   0  0  0  0  0  0  0  0  0  0  0  0
  146.7109  143.0083  154.7052 H   0  0  0  0  0  0  0  0  0  0  0  0
  146.0840  142.5953  153.1068 H   0  0  0  0  0  0  0  0  0  0  0  0
  151.6163  144.7086  158.1888 H   0  0  0  0  0  0  0  0  0  0  0  0
  144.4012  141.4202  154.0135 H   0  0  0  0  0  0  0  0  0  0  0  0
  1  2  1  0  0  0  0
  1 20  1  0  0  0  0
  1 21  1  0  0  0  0
  1 22  1  0  0  0  0
  2  3  1  0  0  0  0
  3 19  1  0  0  0  0
  3  4  2  0  0  0  0
  4  5  1  0  0  0  0
  4 23  1  0  0  0  0
  5  6  2  0  0  0  0
  5 24  1  0  0  0  0
  6  7  1  0  0  0  0
  6 18  1  0  0  0  0
  7  8  1  0  0  0  0
  7 25  1  0  0  0  0
  8  9  2  0  0  0  0
  8 10  1  0  0  0  0
 10 11  1  0  0  0  0
 10 26  1  0  0  0  0
 11 12  1  0  0  0  0
 11 27  1  0  0  0  0
 11 28  1  0  0  0  0
 12 17  1  0  0  0  0
 12 13  1  0  0  0  0
 12 29  1  0  0  0  0
 13 14  1  0  0  0  0
 13 30  1  0  0  0  0
 13 31  1  0  0  0  0
 14 15  1  0  0  0  0
 14 32  1  0  0  0  0
 14 33  1  0  0  0  0
 15 16  1  0  0  0  0
 15 17  1  0  0  0  0
 15 40  1  0  0  0  0
 16 34  1  0  0  0  0
 16 35  1  0  0  0  0
 16 36  1  0  0  0  0
 17 37  1  0  0  0  0
 17 38  1  0  0  0  0
 18 19  2  0  0  0  0
 18 39  1  0  0  0  0
M  CHG  1  15   1
M  END
> <s_m_source_file>
AV-unprocessed.smi

> <i_m_source_file_index>
1198

> <i_lp_mmshare_version>
43012

> <i_f3d_flags>
0

> <s_epik_input>
W0NIM11PYzFbY0hdW2NIXWMoW2NIXW4xKVtOSF1DKD1PKVtOSF1bQ0gyXVtDQEBIXTJbQ0gyXVtDSDJdTihbQ0gzXSlbQ0gyXTI=

> <s_epik_cmdline>
J2VwaWtfcHl0aG9uJywgJy1waCcsICc3LjAnLCAnLXRuJywgJzgnLCAnLW1hJywgJzIwMCcsICctbWV0YWxfYmluZGluZycsICctaW1hZScsICc8aW5maWxlLm1hZT4nLCAnLW9tYWUnLCAnPG91dGZpbGUubWFlPic=

> <r_lp_tautomer_probability>
1

> <r_epik_Ionization_Penalty>
0.00131396

> <r_epik_Ionization_Penalty_Charging>
0.0012301

> <r_epik_Ionization_Penalty_Neutral>
8.38549e-05

> <r_epik_State_Penalty>
0.00081314

> <r_epik_Charging_Adjusted_Penalty>
0.00204324

> <i_epik_Tot_Q>
1

> <i_epik_Tot_abs_Q>
1

> <r_epik_Metal_State_Penalty>
-0

> <b_epik_Metal_Only>
0

> <s_lp_Force_Field>
OPLS_2005

> <r_lp_Energy>
29.2509

> <b_lp_Chiralities_Consistent>
1

> <s_lp_Variant>
AV-unprocessed.smi:1198-4

> <Gold.Version>
5.8.1

> <Gold.Id.Protein>
6NUR|6NUR_protein|mol2

> <Gold.PLP.Fitness>
46.1539

> <Gold.PLP.PLP>
-35.0742

> <Gold.PLP.part.hbond>
-3.4241

> <Gold.PLP.part.metal>
0.0000

> <Gold.PLP.part.buried>
-2.6084

> <Gold.PLP.part.nonpolar>
-29.0329

> <Gold.PLP.part.repulsive>
0.2842

> <Gold.PLP.ligand.clash>
0.6939

> <Gold.PLP.ligand.torsion>
0.1185

> <Gold.PLP.Chemscore.Hbond>
4.0000

> <Gold.PLP.Chemscore.CHOScore>
0.0000

> <Gold.PLP.Chemscore.Metal>
0.0000

> <Gold.Chemscore.Hbonds>
donor molecule, donor type, donor heavy atom, donor atom, acceptor molecule, acceptor atom, score
      L1  H     7    25       P1  8028  1.00
      L1  H    10    26       P1  8028  1.00
      L1  H    15    40       P1 10175  2.00

> <Gold.PLP.Chemscore.Internal.Correction>
0.0106

> <Gold.Rescore>
     Score         DG    S(hbond)    S(metal)    S(lipo)     H(rot)  DE(clash)    DE(int)     intcor
     17.00     -19.55       2.86        0.00      71.86       1.51       0.87       1.67       ----

> <Gold.Chemscore.Fitness>
17.0025

> <Gold.Chemscore.DG>
-19.5486

> <Gold.Chemscore.ZeroCoef>
-5.4800

> <Gold.Chemscore.Hbond>
2.8559

> <Gold.Chemscore.Metal>
0.0000

> <Gold.Chemscore.Lipo>
71.8648

> <Gold.Chemscore.Internal_Hbond>
0.0000

> <Gold.Chemscore.DEClash>
0.8749

> <Gold.Chemscore.DEInternal>
1.6712

> <Gold.Chemscore.Rot>
1.5149

> <Gold.Chemscore.Internal.Correction>
   9.000000E+99

> <Gold.Chemscore.Hbonds>
donor molecule, donor type, donor heavy atom, donor atom, acceptor molecule, acceptor atom, score
      L1  H     7    25       P1  8028  0.98
      L1  H    10    26       P1  8028  0.99
      L1  H    15    40       P1 10175  0.30

> <Gold.Chemscore.Hbond.Weighted>
-9.5386

> <Gold.Chemscore.Metal.Weighted>
-0.0000

> <Gold.Chemscore.Lipo.Weighted>
-8.4082

> <Gold.Chemscore.Internal_Hbond.Weighted>
0.0000

> <Gold.Chemscore.DEClash.Weighted>
0.8749

> <Gold.Chemscore.DEInternal.Weighted>
1.6712

> <Gold.Chemscore.Rot.Weighted>
3.8781

> <Gold.Chemscore.Internal.Correction.Weighted>
   9.000000E+99

> <Gold.Protein.RotatedTorsions>
[ 6907 6896 6895 6894 ] final  -95.57 input  -60.11 | X-H torsion
[ 7974 7965 7964 7962 ] final  -34.54 input  175.53 | X-H torsion
[ 8008 7997 7996 7995 ] final  -33.22 input   59.86 | X-H torsion
[ 10167 10162 10161 10158 ] final   -7.64 input  -65.29 | X-H torsion
[ 10718 10713 10712 10709 ] final  -97.14 input   66.30 | X-H torsion
[ 10763 10752 10751 10750 ] final  -67.38 input  -60.55 | X-H torsion
[ 11005 11000 10999 10996 ] final   87.46 input  -57.11 | X-H torsion

> <Gold.Protein.ActiveResidues>
 VAL166  LYS551  ARG553  GLY616  TRP617  ASP618  TYR619  PRO620  LYS621  CYS622 
 ASP623  PHE694  ASN695  SER759  ASP760  ASP761  ALA762  ILE779  LEU786  VAL792 
 PHE793  MET794  SER795  GLU796  ALA797  LYS798  CYS799  TRP800  GLU811  SER814 

> <Gold.Protein.RotatedAtoms>
  150.6967  134.1638  159.4185 H   0  0  0  0  0  0  0  0  0  0  0  0  # atno 6907 bound_to 6896
  151.9617  135.0118  160.0557 H   0  0  0  0  0  0  0  0  0  0  0  0  # atno 6908 bound_to 6896
  152.1920  133.4745  159.5050 H   0  0  0  0  0  0  0  0  0  0  0  0  # atno 6909 bound_to 6896
  146.0821  140.6051  142.8903 H   0  0  0  0  0  0  0  0  0  0  0  0  # atno 7974 bound_to 7965
  154.4155  140.1716  156.1854 H   0  0  0  0  0  0  0  0  0  0  0  0  # atno 8008 bound_to 7997
  155.9648  140.3390  155.6498 H   0  0  0  0  0  0  0  0  0  0  0  0  # atno 8009 bound_to 7997
  155.6702  140.0711  157.2513 H   0  0  0  0  0  0  0  0  0  0  0  0  # atno 8010 bound_to 7997
  140.7035  143.6058  150.8752 H   0  0  0  0  0  0  0  0  0  0  0  0  # atno 10167 bound_to 10162
  156.0077  130.5181  150.6331 H   0  0  0  0  0  0  0  0  0  0  0  0  # atno 10718 bound_to 10713
  154.3736  135.6090  153.5753 H   0  0  0  0  0  0  0  0  0  0  0  0  # atno 10763 bound_to 10752
  152.9789  135.5844  154.4493 H   0  0  0  0  0  0  0  0  0  0  0  0  # atno 10764 bound_to 10752
  154.4251  135.2846  155.1928 H   0  0  0  0  0  0  0  0  0  0  0  0  # atno 10765 bound_to 10752
  139.8919  134.8423  156.2863 H   0  0  0  0  0  0  0  0  0  0  0  0  # atno 11005 bound_to 11000
  144.7300  140.4643  143.6945 LP  0  0  0  0  0  0  0  0  0  0  0  0  # atno 17320 bound_to 7965
  145.6199  139.1523  143.3028 LP  0  0  0  0  0  0  0  0  0  0  0  0  # atno 17321 bound_to 7965
  139.9782  143.5981  152.2951 LP  0  0  0  0  0  0  0  0  0  0  0  0  # atno 17342 bound_to 10162
  139.6592  144.7662  151.1996 LP  0  0  0  0  0  0  0  0  0  0  0  0  # atno 17343 bound_to 10162
  157.4125  131.0825  151.1207 LP  0  0  0  0  0  0  0  0  0  0  0  0  # atno 17370 bound_to 10713
  157.1834  130.6320  149.5680 LP  0  0  0  0  0  0  0  0  0  0  0  0  # atno 17371 bound_to 10713
  141.0006  133.7154  156.0954 LP  0  0  0  0  0  0  0  0  0  0  0  0  # atno 17394 bound_to 11000
  140.7503  134.4052  157.5542 LP  0  0  0  0  0  0  0  0  0  0  0  0  # atno 17395 bound_to 11000

$$$$
