AV-unprocessed.smi:1246|AV-procd|sdf|5241|dock4
  -GOLD-   22720 4353D 1   1.00000     0.00000
 Structure written by MMmdl.
 35 36  0  0  0  0  0  0  0  0  1 V2000
  153.9612  141.6835  160.4952 C   0  0  0  0  0  0  0  0  0  0  0  0
  152.9684  142.3157  159.5648 C   0  0  0  0  0  0  0  0  0  0  0  0
  152.2841  141.7125  158.4696 C   0  0  0  0  0  0  0  0  0  0  0  0
  151.5202  142.7411  157.9894 C   0  0  0  0  0  0  0  0  0  0  0  0
  150.6596  142.7487  156.9370 N   0  0  0  0  0  0  0  0  0  0  0  0
  150.2372  141.7151  156.1884 C   0  0  0  0  0  0  0  0  0  0  0  0
  150.5676  140.5389  156.3413 O   0  0  0  0  0  0  0  0  0  0  0  0
  149.3889  142.1251  155.2351 N   0  0  0  0  0  0  0  0  0  0  0  0
  148.7311  141.2544  154.2678 C   0  0  0  0  0  0  0  0  0  0  0  0
  147.2111  141.4838  154.2432 C   0  0  2  0  0  0  0  0  0  0  0  0
  146.8060  142.8722  153.7570 C   0  0  0  0  0  0  0  0  0  0  0  0
  145.4107  142.9946  154.3272 C   0  0  0  0  0  0  0  0  0  0  0  0
  145.5378  142.2730  155.6688 C   0  0  0  0  0  0  0  0  0  0  0  0
  146.6681  141.4103  155.5572 O   0  0  0  0  0  0  0  0  0  0  0  0
  151.7492  143.8615  158.7564 N   0  0  0  0  0  0  0  0  0  0  0  0
  151.1797  145.1897  158.6388 C   0  0  0  0  0  0  0  0  0  0  0  0
  152.6460  143.5936  159.7300 N   0  0  0  0  0  0  0  0  0  0  0  0
  154.1345  140.6389  160.2360 H   0  0  0  0  0  0  0  0  0  0  0  0
  153.6081  141.7153  161.5261 H   0  0  0  0  0  0  0  0  0  0  0  0
  154.9212  142.1986  160.4544 H   0  0  0  0  0  0  0  0  0  0  0  0
  152.3578  140.6962  158.1133 H   0  0  0  0  0  0  0  0  0  0  0  0
  150.2870  143.6546  156.6932 H   0  0  0  0  0  0  0  0  0  0  0  0
  149.1678  143.1085  155.1829 H   0  0  0  0  0  0  0  0  0  0  0  0
  149.1562  141.4511  153.2833 H   0  0  0  0  0  0  0  0  0  0  0  0
  148.9526  140.2110  154.4979 H   0  0  0  0  0  0  0  0  0  0  0  0
  146.7174  140.7321  153.6243 H   0  0  0  0  0  0  0  0  0  0  0  0
  147.4548  143.6361  154.1882 H   0  0  0  0  0  0  0  0  0  0  0  0
  146.8346  142.9687  152.6714 H   0  0  0  0  0  0  0  0  0  0  0  0
  145.0776  144.0277  154.4287 H   0  0  0  0  0  0  0  0  0  0  0  0
  144.7015  142.4694  153.6860 H   0  0  0  0  0  0  0  0  0  0  0  0
  145.7207  142.9826  156.4763 H   0  0  0  0  0  0  0  0  0  0  0  0
  144.6369  141.7091  155.9116 H   0  0  0  0  0  0  0  0  0  0  0  0
  150.0918  145.1242  158.6418 H   0  0  0  0  0  0  0  0  0  0  0  0
  151.5073  145.6454  157.7044 H   0  0  0  0  0  0  0  0  0  0  0  0
  151.4974  145.8195  159.4709 H   0  0  0  0  0  0  0  0  0  0  0  0
  1  2  1  0  0  0  0
  1 18  1  0  0  0  0
  1 19  1  0  0  0  0
  1 20  1  0  0  0  0
  2 17  2  0  0  0  0
  2  3  1  0  0  0  0
  3  4  2  0  0  0  0
  3 21  1  0  0  0  0
  4  5  1  0  0  0  0
  4 15  1  0  0  0  0
  5  6  1  0  0  0  0
  5 22  1  0  0  0  0
  6  7  2  0  0  0  0
  6  8  1  0  0  0  0
  8  9  1  0  0  0  0
  8 23  1  0  0  0  0
  9 10  1  0  0  0  0
  9 24  1  0  0  0  0
  9 25  1  0  0  0  0
 10 14  1  0  0  0  0
 10 11  1  0  0  0  0
 10 26  1  0  0  0  0
 11 12  1  0  0  0  0
 11 27  1  0  0  0  0
 11 28  1  0  0  0  0
 12 13  1  0  0  0  0
 12 29  1  0  0  0  0
 12 30  1  0  0  0  0
 13 14  1  0  0  0  0
 13 31  1  0  0  0  0
 13 32  1  0  0  0  0
 15 16  1  0  0  0  0
 15 17  1  0  0  0  0
 16 33  1  0  0  0  0
 16 34  1  0  0  0  0
 16 35  1  0  0  0  0
M  END
> <s_m_source_file>
AV-unprocessed.smi

> <i_m_source_file_index>
1246

> <i_lp_mmshare_version>
43012

> <i_f3d_flags>
0

> <s_epik_input>
W0NIM11jMVtjSF1jKG4objEpW0NIM10pW05IXUMoPU8pW05IXVtDSDJdW0NAQEhdMltDSDJdW0NIMl1bQ0gyXU8y

> <s_epik_cmdline>
J2VwaWtfcHl0aG9uJywgJy1waCcsICc3LjAnLCAnLXRuJywgJzgnLCAnLW1hJywgJzIwMCcsICctbWV0YWxfYmluZGluZycsICctaW1hZScsICc8aW5maWxlLm1hZT4nLCAnLW9tYWUnLCAnPG91dGZpbGUubWFlPic=

> <r_lp_tautomer_probability>
1

> <r_epik_Ionization_Penalty>
9.6187e-05

> <r_epik_Ionization_Penalty_Charging>
0

> <r_epik_Ionization_Penalty_Neutral>
9.6187e-05

> <r_epik_State_Penalty>
-0

> <r_epik_Charging_Adjusted_Penalty>
0

> <i_epik_Tot_Q>
0

> <i_epik_Tot_abs_Q>
0

> <r_epik_Metal_State_Penalty>
-0

> <b_epik_Metal_Only>
0

> <s_lp_Force_Field>
OPLS_2005

> <r_lp_Energy>
17.9178

> <b_lp_Chiralities_Consistent>
1

> <s_lp_Variant>
AV-unprocessed.smi:1246-1

> <Gold.Version>
5.8.1

> <Gold.Id.Protein>
6NUR|6NUR_protein|mol2

> <Gold.PLP.Fitness>
44.2407

> <Gold.PLP.PLP>
-38.4447

> <Gold.PLP.part.hbond>
-2.0000

> <Gold.PLP.part.metal>
0.0000

> <Gold.PLP.part.buried>
-6.8581

> <Gold.PLP.part.nonpolar>
-29.7239

> <Gold.PLP.part.repulsive>
0.3219

> <Gold.PLP.ligand.clash>
0.0000

> <Gold.PLP.ligand.torsion>
0.0687

> <Gold.PLP.Chemscore.Hbond>
1.9760

> <Gold.PLP.Chemscore.CHOScore>
0.0000

> <Gold.PLP.Chemscore.Metal>
0.0000

> <Gold.Chemscore.Hbonds>
donor molecule, donor type, donor heavy atom, donor atom, acceptor molecule, acceptor atom, score
      L1  H     5    22       P1  8028  0.98
      L1  H     8    23       P1  8028  1.00

> <Gold.PLP.Chemscore.Internal.Correction>
0.0053

> <Gold.Rescore>
     Score         DG    S(hbond)    S(metal)    S(lipo)     H(rot)  DE(clash)    DE(int)     intcor
     15.63     -16.81       1.96        0.00      68.08       1.25       0.00       1.18       ----

> <Gold.Chemscore.Fitness>
15.6319

> <Gold.Chemscore.DG>
-16.8134

> <Gold.Chemscore.ZeroCoef>
-5.4800

> <Gold.Chemscore.Hbond>
1.9650

> <Gold.Chemscore.Metal>
0.0000

> <Gold.Chemscore.Lipo>
68.0753

> <Gold.Chemscore.Internal_Hbond>
0.0000

> <Gold.Chemscore.DEClash>
0.0021

> <Gold.Chemscore.DEInternal>
1.1794

> <Gold.Chemscore.Rot>
1.2478

> <Gold.Chemscore.Internal.Correction>
   9.000000E+99

> <Gold.Chemscore.Hbonds>
donor molecule, donor type, donor heavy atom, donor atom, acceptor molecule, acceptor atom, score
      L1  H     5    22       P1  8028  0.87
      L1  H     8    23       P1  8028  1.00

> <Gold.Chemscore.Hbond.Weighted>
-6.5630

> <Gold.Chemscore.Metal.Weighted>
-0.0000

> <Gold.Chemscore.Lipo.Weighted>
-7.9648

> <Gold.Chemscore.Internal_Hbond.Weighted>
0.0000

> <Gold.Chemscore.DEClash.Weighted>
0.0021

> <Gold.Chemscore.DEInternal.Weighted>
1.1794

> <Gold.Chemscore.Rot.Weighted>
3.1944

> <Gold.Chemscore.Internal.Correction.Weighted>
   9.000000E+99

> <Gold.Protein.RotatedTorsions>
[ 6907 6896 6895 6894 ] final -108.72 input  -60.11 | X-H torsion
[ 7974 7965 7964 7962 ] final   75.04 input  175.53 | X-H torsion
[ 8008 7997 7996 7995 ] final  -72.38 input   59.86 | X-H torsion
[ 10167 10162 10161 10158 ] final   97.96 input  -65.29 | X-H torsion
[ 10718 10713 10712 10709 ] final -111.71 input   66.30 | X-H torsion
[ 10763 10752 10751 10750 ] final  -93.83 input  -60.55 | X-H torsion
[ 11005 11000 10999 10996 ] final   16.89 input  -57.11 | X-H torsion

> <Gold.Protein.ActiveResidues>
 VAL166  LYS551  ARG553  GLY616  TRP617  ASP618  TYR619  PRO620  LYS621  CYS622 
 ASP623  PHE694  ASN695  SER759  ASP760  ASP761  ALA762  ILE779  LEU786  VAL792 
 PHE793  MET794  SER795  GLU796  ALA797  LYS798  CYS799  TRP800  GLU811  SER814 

> <Gold.Protein.RotatedAtoms>
  150.7519  133.9635  159.3522 H   0  0  0  0  0  0  0  0  0  0  0  0  # atno 6907 bound_to 6896
  151.7563  135.0819  160.0348 H   0  0  0  0  0  0  0  0  0  0  0  0  # atno 6908 bound_to 6896
  152.3433  133.6055  159.5928 H   0  0  0  0  0  0  0  0  0  0  0  0  # atno 6909 bound_to 6896
  145.7206  139.2647  143.1598 H   0  0  0  0  0  0  0  0  0  0  0  0  # atno 7974 bound_to 7965
  154.5162  140.0798  156.8085 H   0  0  0  0  0  0  0  0  0  0  0  0  # atno 8008 bound_to 7997
  155.3676  140.3421  155.4224 H   0  0  0  0  0  0  0  0  0  0  0  0  # atno 8009 bound_to 7997
  156.1630  140.1594  156.8567 H   0  0  0  0  0  0  0  0  0  0  0  0  # atno 8010 bound_to 7997
  139.7752  144.6908  151.0099 H   0  0  0  0  0  0  0  0  0  0  0  0  # atno 10167 bound_to 10162
  156.0663  130.5882  150.8411 H   0  0  0  0  0  0  0  0  0  0  0  0  # atno 10718 bound_to 10713
  154.6997  135.5180  153.8508 H   0  0  0  0  0  0  0  0  0  0  0  0  # atno 10763 bound_to 10752
  153.0694  135.6596  154.0290 H   0  0  0  0  0  0  0  0  0  0  0  0  # atno 10764 bound_to 10752
  154.0151  135.2998  155.3367 H   0  0  0  0  0  0  0  0  0  0  0  0  # atno 10765 bound_to 10752
  140.4421  134.1311  155.7692 H   0  0  0  0  0  0  0  0  0  0  0  0  # atno 11005 bound_to 11000
  146.0629  140.7951  142.9726 LP  0  0  0  0  0  0  0  0  0  0  0  0  # atno 17320 bound_to 7965
  144.6918  140.3224  143.7230 LP  0  0  0  0  0  0  0  0  0  0  0  0  # atno 17321 bound_to 7965
  140.7816  143.4543  151.0368 LP  0  0  0  0  0  0  0  0  0  0  0  0  # atno 17342 bound_to 10162
  139.8226  143.7800  152.3177 LP  0  0  0  0  0  0  0  0  0  0  0  0  # atno 17343 bound_to 10162
  157.5707  131.0946  150.9422 LP  0  0  0  0  0  0  0  0  0  0  0  0  # atno 17370 bound_to 10713
  156.9639  130.5465  149.5287 LP  0  0  0  0  0  0  0  0  0  0  0  0  # atno 17371 bound_to 10713
  141.1701  133.8626  157.1597 LP  0  0  0  0  0  0  0  0  0  0  0  0  # atno 17394 bound_to 11000
  140.0063  135.0007  157.0299 LP  0  0  0  0  0  0  0  0  0  0  0  0  # atno 17395 bound_to 11000

$$$$
