AV-unprocessed.smi:196|AV-procd|sdf|1542|dock9
  -GOLD-   2262019403D 1   1.00000     0.00000
 Structure written by MMmdl.
 47 50  0  0  0  0  0  0  0  0  1 V2000
  146.4941  142.7215  154.0399 C   0  0  0  0  0  0  0  0  0  0  0  0
  146.7055  141.4898  154.9352 C   0  0  2  0  0  0  0  0  0  0  0  0
  146.0328  141.6498  156.1839 O   0  0  0  0  0  0  0  0  0  0  0  0
  146.9455  141.4750  157.2587 C   0  0  0  0  0  0  0  0  0  0  0  0
  148.0474  140.5948  156.6836 C   0  0  0  0  0  0  0  0  0  0  0  0
  148.1691  141.1103  155.2571 C   0  0  2  0  0  0  0  0  0  0  0  0
  149.0015  142.2598  155.2654 O   0  0  0  0  0  0  0  0  0  0  0  0
  148.7607  140.0837  154.2627 C   0  0  0  0  0  0  0  0  0  0  0  0
  147.7588  139.2210  153.6566 N   0  0  0  0  0  0  0  0  0  0  0  0
  147.0411  139.4729  152.5082 C   0  0  0  0  0  0  0  0  0  0  0  0
  146.1940  138.5415  152.1641 N   0  0  0  0  0  0  0  0  0  0  0  0
  146.3314  137.5812  153.1574 C   0  0  0  0  0  0  0  0  0  0  0  0
  145.7130  136.3300  153.4099 C   0  0  0  0  0  0  0  0  0  0  0  0
  144.7655  135.8262  152.5883 N   0  0  0  0  0  0  0  0  0  0  0  0
  145.1610  135.6839  151.1908 C   0  0  0  0  0  0  0  0  0  0  0  0
  144.6022  134.3374  150.7226 C   0  0  1  0  0  0  0  0  0  0  0  0
  145.5528  133.4065  150.8189 F   0  0  0  0  0  0  0  0  0  0  0  0
  143.4966  134.0404  151.7312 C   0  0  0  0  0  0  0  0  0  0  0  0
  144.0519  134.6284  153.0344 C   0  0  2  0  0  0  0  0  0  0  0  0
  142.9385  134.9576  154.0399 C   0  0  0  0  0  0  0  0  0  0  0  0
  142.2908  133.9231  154.5803 N   0  0  0  0  0  0  0  0  0  0  0  0
  142.6563  136.1221  154.3179 O   0  0  0  0  0  0  0  0  0  0  0  0
  146.1065  135.6330  154.5078 N   0  0  0  0  0  0  0  0  0  0  0  0
  147.0432  136.1383  155.3162 C   0  0  0  0  0  0  0  0  0  0  0  0
  147.7008  137.2958  155.2117 N   0  0  0  0  0  0  0  0  0  0  0  0
  147.3098  137.9909  154.1046 C   0  0  0  0  0  0  0  0  0  0  0  0
  144.2567  134.3483  149.6886 H   0  0  0  0  0  0  0  0  0  0  0  0
  144.7482  133.9140  153.4786 H   0  0  0  0  0  0  0  0  0  0  0  0
  147.0196  142.6120  153.0910 H   0  0  0  0  0  0  0  0  0  0  0  0
  146.8486  143.6338  154.5206 H   0  0  0  0  0  0  0  0  0  0  0  0
  145.4356  142.8596  153.8186 H   0  0  0  0  0  0  0  0  0  0  0  0
  146.2219  140.6373  154.4560 H   0  0  0  0  0  0  0  0  0  0  0  0
  147.3423  142.4484  157.5499 H   0  0  0  0  0  0  0  0  0  0  0  0
  146.4612  141.0297  158.1279 H   0  0  0  0  0  0  0  0  0  0  0  0
  148.9773  140.6418  157.2520 H   0  0  0  0  0  0  0  0  0  0  0  0
  147.7082  139.5583  156.6819 H   0  0  0  0  0  0  0  0  0  0  0  0
  148.4887  142.9977  155.5579 H   0  0  0  0  0  0  0  0  0  0  0  0
  149.2956  140.5966  153.4622 H   0  0  0  0  0  0  0  0  0  0  0  0
  149.4965  139.4541  154.7648 H   0  0  0  0  0  0  0  0  0  0  0  0
  147.1696  140.3746  151.9269 H   0  0  0  0  0  0  0  0  0  0  0  0
  144.6984  136.4973  150.6310 H   0  0  0  0  0  0  0  0  0  0  0  0
  146.2393  135.7509  151.0332 H   0  0  0  0  0  0  0  0  0  0  0  0
  142.5822  134.5549  151.4302 H   0  0  0  0  0  0  0  0  0  0  0  0
  143.2720  132.9760  151.8084 H   0  0  0  0  0  0  0  0  0  0  0  0
  141.5484  134.0839  155.2454 H   0  0  0  0  0  0  0  0  0  0  0  0
  142.5457  132.9816  154.3187 H   0  0  0  0  0  0  0  0  0  0  0  0
  147.3029  135.5286  156.1689 H   0  0  0  0  0  0  0  0  0  0  0  0
  1  2  1  0  0  0  0
  1 29  1  0  0  0  0
  1 30  1  0  0  0  0
  1 31  1  0  0  0  0
  2  6  1  0  0  0  0
  2  3  1  0  0  0  0
  2 32  1  0  0  0  0
  3  4  1  0  0  0  0
  4  5  1  0  0  0  0
  4 33  1  0  0  0  0
  4 34  1  0  0  0  0
  5  6  1  0  0  0  0
  5 35  1  0  0  0  0
  5 36  1  0  0  0  0
  6  7  1  0  0  0  0
  6  8  1  0  0  0  0
  7 37  1  0  0  0  0
  8  9  1  0  0  0  0
  8 38  1  0  0  0  0
  8 39  1  0  0  0  0
  9 26  1  0  0  0  0
  9 10  1  0  0  0  0
 10 11  2  0  0  0  0
 10 40  1  0  0  0  0
 11 12  1  0  0  0  0
 12 26  2  0  0  0  0
 12 13  1  0  0  0  0
 13 14  1  0  0  0  0
 13 23  2  0  0  0  0
 14 19  1  0  0  0  0
 14 15  1  0  0  0  0
 15 16  1  0  0  0  0
 15 41  1  0  0  0  0
 15 42  1  0  0  0  0
 16 27  1  0  0  0  0
 16 17  1  0  0  0  0
 16 18  1  0  0  0  0
 18 19  1  0  0  0  0
 18 43  1  0  0  0  0
 18 44  1  0  0  0  0
 19 28  1  0  0  0  0
 19 20  1  0  0  0  0
 20 21  1  0  0  0  0
 20 22  2  0  0  0  0
 21 45  1  0  0  0  0
 21 46  1  0  0  0  0
 23 24  1  0  0  0  0
 24 25  2  0  0  0  0
 24 47  1  0  0  0  0
 25 26  1  0  0  0  0
M  END
> <s_m_source_file>
AV-unprocessed.smi

> <i_m_source_file_index>
196

> <i_lp_mmshare_version>
43012

> <i_f3d_flags>
0

> <s_epik_input>
W0NIMl0xW0NIMl1PW0NAQEhdKFtDSDNdKVtDQEBdMShbT0hdKVtDSDJdbihbY0hdbjIpYyhjMjMpbltjSF1uYzNONFtDSDJdW0NASF0oRilbQ0gyXVtDQEhdNEMoPU8pW05IMl0=

> <s_epik_cmdline>
J2VwaWtfcHl0aG9uJywgJy1waCcsICc3LjAnLCAnLXRuJywgJzgnLCAnLW1hJywgJzIwMCcsICctbWV0YWxfYmluZGluZycsICctaW1hZScsICc8aW5maWxlLm1hZT4nLCAnLW9tYWUnLCAnPG91dGZpbGUubWFlPic=

> <r_lp_tautomer_probability>
1

> <r_epik_Ionization_Penalty>
0.000857933

> <r_epik_Ionization_Penalty_Charging>
0

> <r_epik_Ionization_Penalty_Neutral>
0.000857933

> <r_epik_State_Penalty>
0.000462053

> <r_epik_Charging_Adjusted_Penalty>
0.000462053

> <i_epik_Tot_Q>
0

> <i_epik_Tot_abs_Q>
0

> <r_epik_Metal_State_Penalty>
-0

> <b_epik_Metal_Only>
0

> <s_lp_Force_Field>
OPLS_2005

> <r_lp_Energy>
44.722

> <b_lp_Chiralities_Consistent>
1

> <s_lp_Variant>
AV-unprocessed.smi:196-15

> <Gold.Version>
5.8.1

> <Gold.Id.Protein>
6NUR|6NUR_protein|mol2

> <Gold.PLP.Fitness>
40.5947

> <Gold.PLP.PLP>
-33.1373

> <Gold.PLP.part.hbond>
-2.7563

> <Gold.PLP.part.metal>
0.0000

> <Gold.PLP.part.buried>
-4.9634

> <Gold.PLP.part.nonpolar>
-26.5766

> <Gold.PLP.part.repulsive>
0.7470

> <Gold.PLP.ligand.clash>
0.0000

> <Gold.PLP.ligand.torsion>
1.1240

> <Gold.PLP.Chemscore.Hbond>
2.6720

> <Gold.PLP.Chemscore.CHOScore>
0.5027

> <Gold.PLP.Chemscore.Metal>
0.0000

> <Gold.Chemscore.Hbonds>
donor molecule, donor type, donor heavy atom, donor atom, acceptor molecule, acceptor atom, score
      L1  H     7    37       P1  8028  0.64
      L1  H    21    45       P1 11000  1.00
      L1  H    21    46       P1 10957  0.36
      L1  C    10    40       P1  7957  0.39

> <Gold.PLP.Chemscore.Internal.Correction>
0.1815

> <Gold.Rescore>
     Score         DG    S(hbond)    S(metal)    S(lipo)     H(rot)  DE(clash)    DE(int)     intcor
     11.27     -12.99       2.76        0.00      51.87       3.04       0.77       0.95       ----

> <Gold.Chemscore.Fitness>
11.2723

> <Gold.Chemscore.DG>
-12.9873

> <Gold.Chemscore.ZeroCoef>
-5.4800

> <Gold.Chemscore.Hbond>
2.7618

> <Gold.Chemscore.Metal>
0.0000

> <Gold.Chemscore.Lipo>
51.8669

> <Gold.Chemscore.Internal_Hbond>
0.0000

> <Gold.Chemscore.DEClash>
0.7664

> <Gold.Chemscore.DEInternal>
0.9485

> <Gold.Chemscore.Rot>
3.0413

> <Gold.Chemscore.Internal.Correction>
   9.000000E+99

> <Gold.Chemscore.Hbonds>
donor molecule, donor type, donor heavy atom, donor atom, acceptor molecule, acceptor atom, score
      L1  H     7    37       P1  8028  0.64
      L1  H    21    45       P1 11000  1.00
      L1  H    21    46       P1 10957  0.35

> <Gold.Chemscore.Hbond.Weighted>
-9.2245

> <Gold.Chemscore.Metal.Weighted>
-0.0000

> <Gold.Chemscore.Lipo.Weighted>
-6.0684

> <Gold.Chemscore.Internal_Hbond.Weighted>
0.0000

> <Gold.Chemscore.DEClash.Weighted>
0.7664

> <Gold.Chemscore.DEInternal.Weighted>
0.9485

> <Gold.Chemscore.Rot.Weighted>
7.7856

> <Gold.Chemscore.Internal.Correction.Weighted>
   9.000000E+99

> <Gold.Protein.RotatedTorsions>
[ 6907 6896 6895 6894 ] final -120.15 input  -60.11 | X-H torsion
[ 7974 7965 7964 7962 ] final   17.17 input  175.53 | X-H torsion
[ 8008 7997 7996 7995 ] final   69.57 input   59.86 | X-H torsion
[ 10167 10162 10161 10158 ] final  154.55 input  -65.29 | X-H torsion
[ 10718 10713 10712 10709 ] final   26.92 input   66.30 | X-H torsion
[ 10763 10752 10751 10750 ] final  -50.90 input  -60.55 | X-H torsion
[ 11005 11000 10999 10996 ] final  165.95 input  -57.11 | X-H torsion

> <Gold.Protein.ActiveResidues>
 VAL166  LYS551  ARG553  GLY616  TRP617  ASP618  TYR619  PRO620  LYS621  CYS622 
 ASP623  PHE694  ASN695  SER759  ASP760  ASP761  ALA762  ILE779  LEU786  VAL792 
 PHE793  MET794  SER795  GLU796  ALA797  LYS798  CYS799  TRP800  GLU811  SER814 

> <Gold.Protein.RotatedAtoms>
  150.8367  133.8001  159.3076 H   0  0  0  0  0  0  0  0  0  0  0  0  # atno 6907 bound_to 6896
  151.5715  135.1060  160.0006 H   0  0  0  0  0  0  0  0  0  0  0  0  # atno 6908 bound_to 6896
  152.4438  133.7456  159.6722 H   0  0  0  0  0  0  0  0  0  0  0  0  # atno 6909 bound_to 6896
  146.2227  139.8642  142.8599 H   0  0  0  0  0  0  0  0  0  0  0  0  # atno 7974 bound_to 7965
  155.7257  140.3492  155.5036 H   0  0  0  0  0  0  0  0  0  0  0  0  # atno 8008 bound_to 7997
  155.9229  140.1070  157.1214 H   0  0  0  0  0  0  0  0  0  0  0  0  # atno 8009 bound_to 7997
  154.4072  140.1246  156.4689 H   0  0  0  0  0  0  0  0  0  0  0  0  # atno 8010 bound_to 7997
  139.4823  144.5177  151.7926 H   0  0  0  0  0  0  0  0  0  0  0  0  # atno 10167 bound_to 10162
  157.2133  130.6944  149.6238 H   0  0  0  0  0  0  0  0  0  0  0  0  # atno 10718 bound_to 10713
  154.1178  135.6539  153.4897 H   0  0  0  0  0  0  0  0  0  0  0  0  # atno 10763 bound_to 10752
  153.0235  135.5263  154.7127 H   0  0  0  0  0  0  0  0  0  0  0  0  # atno 10764 bound_to 10752
  154.6326  135.2978  155.0169 H   0  0  0  0  0  0  0  0  0  0  0  0  # atno 10765 bound_to 10752
  140.2614  134.7899  157.3593 H   0  0  0  0  0  0  0  0  0  0  0  0  # atno 11005 bound_to 11000
  145.2674  141.0097  143.3791 LP  0  0  0  0  0  0  0  0  0  0  0  0  # atno 17320 bound_to 7965
  144.9250  139.4366  143.6522 LP  0  0  0  0  0  0  0  0  0  0  0  0  # atno 17321 bound_to 7965
  140.4687  144.1618  150.5915 LP  0  0  0  0  0  0  0  0  0  0  0  0  # atno 17342 bound_to 10162
  140.4406  143.2528  151.9478 LP  0  0  0  0  0  0  0  0  0  0  0  0  # atno 17343 bound_to 10162
  155.9688  130.4544  150.5848 LP  0  0  0  0  0  0  0  0  0  0  0  0  # atno 17370 bound_to 10713
  157.3651  131.0756  151.1605 LP  0  0  0  0  0  0  0  0  0  0  0  0  # atno 17371 bound_to 10713
  140.1461  134.4910  155.7995 LP  0  0  0  0  0  0  0  0  0  0  0  0  # atno 17394 bound_to 11000
  141.2190  133.6844  156.7295 LP  0  0  0  0  0  0  0  0  0  0  0  0  # atno 17395 bound_to 11000

$$$$
