AV-unprocessed.smi:2839|AV-procd|sdf|10930|dock2
  -GOLD-   2272015373D 1   1.00000     0.00000
 Structure written by MMmdl.
 32 33  0  0  0  0  0  0  0  0  1 V2000
  151.6198  137.2055  154.4054 C   0  0  0  0  0  0  0  0  0  0  0  0
  150.8343  138.4084  154.6487 N   0  0  0  0  0  0  0  0  0  0  0  0
  149.5263  138.5536  154.2468 C   0  0  0  0  0  0  0  0  0  0  0  0
  149.0533  139.7101  154.5638 N   0  0  0  0  0  0  0  0  0  0  0  0
  150.1037  140.3081  155.1864 N   0  0  0  0  0  0  0  0  0  0  0  0
  149.9468  141.6631  155.7179 C   0  0  0  0  0  0  0  0  0  0  0  0
  150.5237  141.8326  157.1300 C   0  0  0  0  0  0  0  0  0  0  0  0
  151.1669  140.9282  157.6651 O   0  0  0  0  0  0  0  0  0  0  0  0
  150.2685  143.0051  157.7296 N   0  0  0  0  0  0  0  0  0  0  0  0
  150.7175  143.3796  159.0681 C   0  0  0  0  0  0  0  0  0  0  0  0
  150.1841  144.7726  159.4555 C   0  0  0  0  0  0  0  0  0  0  0  0
  151.3868  145.5560  159.9848 C   0  0  0  0  0  0  0  0  0  0  0  0
  152.5802  144.9638  159.2423 C   0  0  0  0  0  0  0  0  0  0  0  0
  152.2548  143.4736  159.1419 C   0  0  0  0  0  0  0  0  0  0  0  0
  151.2004  139.5390  155.2423 C   0  0  0  0  0  0  0  0  0  0  0  0
  152.2959  139.8164  155.7300 O   0  0  0  0  0  0  0  0  0  0  0  0
  150.9842  136.3368  154.2273 H   0  0  0  0  0  0  0  0  0  0  0  0
  152.2561  136.9817  155.2627 H   0  0  0  0  0  0  0  0  0  0  0  0
  152.2601  137.3446  153.5337 H   0  0  0  0  0  0  0  0  0  0  0  0
  149.0254  137.7358  153.7260 H   0  0  0  0  0  0  0  0  0  0  0  0
  150.4342  142.3673  155.0415 H   0  0  0  0  0  0  0  0  0  0  0  0
  148.8906  141.9357  155.7393 H   0  0  0  0  0  0  0  0  0  0  0  0
  149.7292  143.6907  157.2212 H   0  0  0  0  0  0  0  0  0  0  0  0
  150.3632  142.6426  159.7914 H   0  0  0  0  0  0  0  0  0  0  0  0
  149.7826  145.2887  158.5819 H   0  0  0  0  0  0  0  0  0  0  0  0
  149.3810  144.7155  160.1908 H   0  0  0  0  0  0  0  0  0  0  0  0
  151.2883  146.6312  159.8328 H   0  0  0  0  0  0  0  0  0  0  0  0
  151.4985  145.3798  161.0554 H   0  0  0  0  0  0  0  0  0  0  0  0
  152.6419  145.3948  158.2421 H   0  0  0  0  0  0  0  0  0  0  0  0
  153.5273  145.1538  159.7479 H   0  0  0  0  0  0  0  0  0  0  0  0
  152.6005  142.9693  160.0451 H   0  0  0  0  0  0  0  0  0  0  0  0
  152.7623  143.0013  158.2995 H   0  0  0  0  0  0  0  0  0  0  0  0
  1  2  1  0  0  0  0
  1 17  1  0  0  0  0
  1 18  1  0  0  0  0
  1 19  1  0  0  0  0
  2 15  1  0  0  0  0
  2  3  1  0  0  0  0
  3  4  2  0  0  0  0
  3 20  1  0  0  0  0
  4  5  1  0  0  0  0
  5  6  1  0  0  0  0
  5 15  1  0  0  0  0
  6  7  1  0  0  0  0
  6 21  1  0  0  0  0
  6 22  1  0  0  0  0
  7  8  2  0  0  0  0
  7  9  1  0  0  0  0
  9 10  1  0  0  0  0
  9 23  1  0  0  0  0
 10 14  1  0  0  0  0
 10 11  1  0  0  0  0
 10 24  1  0  0  0  0
 11 12  1  0  0  0  0
 11 25  1  0  0  0  0
 11 26  1  0  0  0  0
 12 13  1  0  0  0  0
 12 27  1  0  0  0  0
 12 28  1  0  0  0  0
 13 14  1  0  0  0  0
 13 29  1  0  0  0  0
 13 30  1  0  0  0  0
 14 31  1  0  0  0  0
 14 32  1  0  0  0  0
 15 16  2  0  0  0  0
M  END
> <s_m_source_file>
AV-unprocessed.smi

> <i_m_source_file_index>
2839

> <i_lp_mmshare_version>
43012

> <i_f3d_flags>
0

> <s_epik_input>
W0NIM11uMVtjSF1ubihjMT1PKVtDSDJdQyg9TylbTkhdW0NIXTJbQ0gyXVtDSDJdW0NIMl1bQ0gyXTI=

> <s_epik_cmdline>
J2VwaWtfcHl0aG9uJywgJy1waCcsICc3LjAnLCAnLXRuJywgJzgnLCAnLW1hJywgJzIwMCcsICctbWV0YWxfYmluZGluZycsICctaW1hZScsICc8aW5maWxlLm1hZT4nLCAnLW9tYWUnLCAnPG91dGZpbGUubWFlPic=

> <r_lp_tautomer_probability>
1

> <r_epik_Ionization_Penalty>
1.58668e-07

> <r_epik_Ionization_Penalty_Charging>
8.23952e-09

> <r_epik_Ionization_Penalty_Neutral>
1.50429e-07

> <r_epik_State_Penalty>
-0

> <r_epik_Charging_Adjusted_Penalty>
8.23952e-09

> <i_epik_Tot_Q>
0

> <i_epik_Tot_abs_Q>
0

> <r_epik_Metal_State_Penalty>
-0

> <b_epik_Metal_Only>
0

> <s_lp_Force_Field>
OPLS_2005

> <r_lp_Energy>
35.3478

> <b_lp_Chiralities_Consistent>
1

> <s_lp_Variant>
AV-unprocessed.smi:2839-1

> <Gold.Version>
5.8.1

> <Gold.Id.Protein>
6NUR|6NUR_protein|mol2

> <Gold.PLP.Fitness>
41.8270

> <Gold.PLP.PLP>
-33.3402

> <Gold.PLP.part.hbond>
-2.0975

> <Gold.PLP.part.metal>
0.0000

> <Gold.PLP.part.buried>
-0.1697

> <Gold.PLP.part.nonpolar>
-30.7787

> <Gold.PLP.part.repulsive>
0.1501

> <Gold.PLP.ligand.clash>
0.0000

> <Gold.PLP.ligand.torsion>
0.2585

> <Gold.PLP.Chemscore.Hbond>
2.0000

> <Gold.PLP.Chemscore.CHOScore>
1.0000

> <Gold.PLP.Chemscore.Metal>
0.0000

> <Gold.Chemscore.Hbonds>
donor molecule, donor type, donor heavy atom, donor atom, acceptor molecule, acceptor atom, score
      L1  H     9    23       P1  8028  0.99
      P1  H  7997  8008       L1    16  0.75
      L1  C     3    20       P1  7948  1.00

> <Gold.PLP.Chemscore.Internal.Correction>
0.0039

> <Gold.Rescore>
     Score         DG    S(hbond)    S(metal)    S(lipo)     H(rot)  DE(clash)    DE(int)     intcor
     11.49     -15.46       1.84        0.00      70.36       1.72       1.19       2.79       ----

> <Gold.Chemscore.Fitness>
11.4898

> <Gold.Chemscore.DG>
-15.4643

> <Gold.Chemscore.ZeroCoef>
-5.4800

> <Gold.Chemscore.Hbond>
1.8429

> <Gold.Chemscore.Metal>
0.0000

> <Gold.Chemscore.Lipo>
70.3615

> <Gold.Chemscore.Internal_Hbond>
0.0000

> <Gold.Chemscore.DEClash>
1.1889

> <Gold.Chemscore.DEInternal>
2.7855

> <Gold.Chemscore.Rot>
1.7201

> <Gold.Chemscore.Internal.Correction>
   9.000000E+99

> <Gold.Chemscore.Hbonds>
donor molecule, donor type, donor heavy atom, donor atom, acceptor molecule, acceptor atom, score
      L1  H     9    23       P1  8028  0.79
      P1  H  7997  8008       L1    16  0.73

> <Gold.Chemscore.Hbond.Weighted>
-6.1554

> <Gold.Chemscore.Metal.Weighted>
-0.0000

> <Gold.Chemscore.Lipo.Weighted>
-8.2323

> <Gold.Chemscore.Internal_Hbond.Weighted>
0.0000

> <Gold.Chemscore.DEClash.Weighted>
1.1889

> <Gold.Chemscore.DEInternal.Weighted>
2.7855

> <Gold.Chemscore.Rot.Weighted>
4.4033

> <Gold.Chemscore.Internal.Correction.Weighted>
   9.000000E+99

> <Gold.Protein.RotatedTorsions>
[ 6907 6896 6895 6894 ] final  135.33 input  -60.11 | X-H torsion
[ 7974 7965 7964 7962 ] final -179.13 input  175.53 | X-H torsion
[ 8008 7997 7996 7995 ] final  -27.34 input   59.86 | X-H torsion
[ 10167 10162 10161 10158 ] final   83.09 input  -65.29 | X-H torsion
[ 10718 10713 10712 10709 ] final  -19.39 input   66.30 | X-H torsion
[ 10763 10752 10751 10750 ] final   91.19 input  -60.55 | X-H torsion
[ 11005 11000 10999 10996 ] final  -63.97 input  -57.11 | X-H torsion

> <Gold.Protein.ActiveResidues>
 VAL166  LYS551  ARG553  GLY616  TRP617  ASP618  TYR619  PRO620  LYS621  CYS622 
 ASP623  PHE694  ASN695  SER759  ASP760  ASP761  ALA762  ILE779  LEU786  VAL792 
 PHE793  MET794  SER795  GLU796  ALA797  LYS798  CYS799  TRP800  GLU811  SER814 

> <Gold.Protein.RotatedAtoms>
  152.3016  133.5661  159.5621 H   0  0  0  0  0  0  0  0  0  0  0  0  # atno 6907 bound_to 6896
  150.7280  134.0283  159.3734 H   0  0  0  0  0  0  0  0  0  0  0  0  # atno 6908 bound_to 6896
  151.8183  135.0660  160.0472 H   0  0  0  0  0  0  0  0  0  0  0  0  # atno 6909 bound_to 6896
  144.7134  140.0763  143.6427 H   0  0  0  0  0  0  0  0  0  0  0  0  # atno 7974 bound_to 7965
  154.4382  140.1875  156.0917 H   0  0  0  0  0  0  0  0  0  0  0  0  # atno 8008 bound_to 7997
  156.0361  140.3325  155.7166 H   0  0  0  0  0  0  0  0  0  0  0  0  # atno 8009 bound_to 7997
  155.5769  140.0618  157.2784 H   0  0  0  0  0  0  0  0  0  0  0  0  # atno 8010 bound_to 7997
  139.9220  144.6206  150.8430 H   0  0  0  0  0  0  0  0  0  0  0  0  # atno 10167 bound_to 10162
  156.5464  130.4691  149.6473 H   0  0  0  0  0  0  0  0  0  0  0  0  # atno 10718 bound_to 10713
  153.2056  135.4406  155.0319 H   0  0  0  0  0  0  0  0  0  0  0  0  # atno 10763 bound_to 10752
  154.8172  135.3320  154.7146 H   0  0  0  0  0  0  0  0  0  0  0  0  # atno 10764 bound_to 10752
  153.7588  135.6993  153.4985 H   0  0  0  0  0  0  0  0  0  0  0  0  # atno 10765 bound_to 10752
  141.1410  133.6659  156.5762 H   0  0  0  0  0  0  0  0  0  0  0  0  # atno 11005 bound_to 11000
  145.9740  139.2891  143.1082 LP  0  0  0  0  0  0  0  0  0  0  0  0  # atno 17320 bound_to 7965
  145.9085  140.9196  143.0466 LP  0  0  0  0  0  0  0  0  0  0  0  0  # atno 17321 bound_to 7965
  140.7660  143.3290  151.2452 LP  0  0  0  0  0  0  0  0  0  0  0  0  # atno 17342 bound_to 10162
  139.6854  143.9783  152.2831 LP  0  0  0  0  0  0  0  0  0  0  0  0  # atno 17343 bound_to 10162
  156.2925  130.7132  151.1984 LP  0  0  0  0  0  0  0  0  0  0  0  0  # atno 17370 bound_to 10713
  157.7396  131.0527  150.5222 LP  0  0  0  0  0  0  0  0  0  0  0  0  # atno 17371 bound_to 10713
  140.3874  134.7470  157.4700 LP  0  0  0  0  0  0  0  0  0  0  0  0  # atno 17394 bound_to 11000
  140.0592  134.6020  155.8769 LP  0  0  0  0  0  0  0  0  0  0  0  0  # atno 17395 bound_to 11000

$$$$
